AV-unprocessed.smi:1978|AV-procd|sdf|8001|dock4
  -GOLD-   2272010183D 1   1.00000     0.00000
 Structure written by MMmdl.
 44 45  0  0  0  0  0  0  0  0  3 V2000
  149.0991  140.9071  154.4886 C   0  0  0  0  0  0  0  0  0  0  0  0
  150.0169  139.7343  154.5549 C   0  0  0  0  0  0  0  0  0  0  0  0
  149.8017  138.3858  154.5228 C   0  0  0  0  0  0  0  0  0  0  0  0
  151.1118  137.8451  154.6357 C   0  0  0  0  0  0  0  0  0  0  0  0
  151.4292  136.5413  154.6390 N   0  5  0  0  0  0  0  0  0  0  0  0
  150.6054  135.6415  155.2219 C   0  0  0  0  0  0  0  0  0  0  0  0
  150.7920  135.0645  156.2958 O   0  0  0  0  0  0  0  0  0  0  0  0
  149.4889  135.4002  154.5198 N   0  0  0  0  0  0  0  0  0  0  0  0
  148.4100  134.5004  154.9180 C   0  0  0  0  0  0  0  0  0  0  0  0
  148.0887  133.4182  153.8462 C   0  0  1  0  0  0  0  0  0  0  0  0
  147.3931  132.2130  154.5315 C   0  0  0  0  0  0  0  0  0  0  0  0
  147.2819  133.9856  152.7099 N   0  3  1  0  0  0  0  0  0  0  0  0
  146.7735  132.9554  151.7526 C   0  0  0  0  0  0  0  0  0  0  0  0
  146.1730  133.5971  150.4909 C   0  0  0  0  0  0  0  0  0  0  0  0
  145.0578  134.5845  150.8405 C   0  0  0  0  0  0  0  0  0  0  0  0
  145.5831  135.6159  151.8451 C   0  0  0  0  0  0  0  0  0  0  0  0
  146.1988  134.9525  153.0953 C   0  0  1  0  0  0  0  0  0  0  0  0
  145.1177  134.3339  154.0116 C   0  0  0  0  0  0  0  0  0  0  0  0
  152.0411  138.7827  154.7121 N   0  0  0  0  0  0  0  0  0  0  0  0
  151.3467  139.9976  154.6669 O   0  0  0  0  0  0  0  0  0  0  0  0
  148.6830  141.0143  153.4868 H   0  0  0  0  0  0  0  0  0  0  0  0
  149.6220  141.8306  154.7384 H   0  0  0  0  0  0  0  0  0  0  0  0
  148.2718  140.7884  155.1881 H   0  0  0  0  0  0  0  0  0  0  0  0
  148.8584  137.8682  154.4358 H   0  0  0  0  0  0  0  0  0  0  0  0
  149.3793  135.8885  153.6428 H   0  0  0  0  0  0  0  0  0  0  0  0
  148.7016  134.0206  155.8526 H   0  0  0  0  0  0  0  0  0  0  0  0
  147.5554  135.1313  155.1528 H   0  0  0  0  0  0  0  0  0  0  0  0
  149.0300  133.0608  153.4272 H   0  0  0  0  0  0  0  0  0  0  0  0
  147.9646  131.8395  155.3806 H   0  0  0  0  0  0  0  0  0  0  0  0
  147.2832  131.3563  153.8687 H   0  0  0  0  0  0  0  0  0  0  0  0
  146.4038  132.4852  154.9007 H   0  0  0  0  0  0  0  0  0  0  0  0
  147.5654  132.2959  151.4101 H   0  0  0  0  0  0  0  0  0  0  0  0
  146.0399  132.3159  152.2440 H   0  0  0  0  0  0  0  0  0  0  0  0
  146.9583  134.1140  149.9375 H   0  0  0  0  0  0  0  0  0  0  0  0
  145.7877  132.8227  149.8271 H   0  0  0  0  0  0  0  0  0  0  0  0
  144.7026  135.0845  149.9390 H   0  0  0  0  0  0  0  0  0  0  0  0
  144.2023  134.0510  151.2556 H   0  0  0  0  0  0  0  0  0  0  0  0
  146.3399  136.2324  151.3582 H   0  0  0  0  0  0  0  0  0  0  0  0
  144.7810  136.2965  152.1335 H   0  0  0  0  0  0  0  0  0  0  0  0
  146.6525  135.7791  153.6397 H   0  0  0  0  0  0  0  0  0  0  0  0
  144.3785  135.0845  154.2921 H   0  0  0  0  0  0  0  0  0  0  0  0
  145.5372  133.9430  154.9378 H   0  0  0  0  0  0  0  0  0  0  0  0
  144.5791  133.5188  153.5296 H   0  0  0  0  0  0  0  0  0  0  0  0
  147.9417  134.5375  152.1808 H   0  0  0  0  0  0  0  0  0  0  0  0
  1  2  1  0  0  0  0
  1 21  1  0  0  0  0
  1 22  1  0  0  0  0
  1 23  1  0  0  0  0
  2 20  1  0  0  0  0
  2  3  2  0  0  0  0
  3  4  1  0  0  0  0
  3 24  1  0  0  0  0
  4  5  1  0  0  0  0
  4 19  2  0  0  0  0
  5  6  1  0  0  0  0
  6  7  2  0  0  0  0
  6  8  1  0  0  0  0
  8  9  1  0  0  0  0
  8 25  1  0  0  0  0
  9 10  1  0  0  0  0
  9 26  1  0  0  0  0
  9 27  1  0  0  0  0
 10 11  1  0  0  0  0
 10 12  1  0  0  0  0
 10 28  1  0  0  0  0
 11 29  1  0  0  0  0
 11 30  1  0  0  0  0
 11 31  1  0  0  0  0
 12 17  1  0  0  0  0
 12 13  1  0  0  0  0
 12 44  1  0  0  0  0
 13 14  1  0  0  0  0
 13 32  1  0  0  0  0
 13 33  1  0  0  0  0
 14 15  1  0  0  0  0
 14 34  1  0  0  0  0
 14 35  1  0  0  0  0
 15 16  1  0  0  0  0
 15 36  1  0  0  0  0
 15 37  1  0  0  0  0
 16 17  1  0  0  0  0
 16 38  1  0  0  0  0
 16 39  1  0  0  0  0
 17 18  1  0  0  0  0
 17 40  1  0  0  0  0
 18 41  1  0  0  0  0
 18 42  1  0  0  0  0
 18 43  1  0  0  0  0
 19 20  1  0  0  0  0
M  CHG  1   5  -1
M  CHG  1  12   1
M  END
> <s_m_source_file>
AV-unprocessed.smi

> <i_m_source_file_index>
1978

> <i_lp_mmshare_version>
43012

> <i_f3d_flags>
0

> <s_epik_input>
W0NIM11jMVtjSF1jKG5vMSlbTkhdQyg9TylbTkhdW0NIMl1bQ0BIXShbQ0gzXSlOMltDSDJdW0NIMl1bQ0gyXVtDSDJdW0NASF0yW0NIM10=

> <s_epik_cmdline>
J2VwaWtfcHl0aG9uJywgJy1waCcsICc3LjAnLCAnLXRuJywgJzgnLCAnLW1hJywgJzIwMCcsICctbWV0YWxfYmluZGluZycsICctaW1hZScsICc8aW5maWxlLm1hZT4nLCAnLW9tYWUnLCAnPG91dGZpbGUubWFlPic=

> <r_epik_Ionization_Penalty>
6.22372

> <r_epik_Ionization_Penalty_Charging>
6.22362

> <r_epik_Ionization_Penalty_Neutral>
9.65074e-05

> <r_epik_State_Penalty>
6.22363

> <r_epik_Charging_Adjusted_Penalty>
12.4472

> <i_epik_Tot_Q>
0

> <i_epik_Tot_abs_Q>
2

> <r_epik_Metal_State_Penalty>
2.16675

> <b_epik_Metal_Only>
1

> <s_lp_Force_Field>
OPLS_2005

> <r_lp_Energy>
13.574

> <b_lp_Chiralities_Consistent>
1

> <s_lp_Variant>
AV-unprocessed.smi:1978-10

> <Gold.Version>
5.8.1

> <Gold.Id.Protein>
6NUR|6NUR_protein|mol2

> <Gold.PLP.Fitness>
47.8199

> <Gold.PLP.PLP>
-32.4637

> <Gold.PLP.part.hbond>
-4.0000

> <Gold.PLP.part.metal>
0.0000

> <Gold.PLP.part.buried>
-4.5929

> <Gold.PLP.part.nonpolar>
-24.5957

> <Gold.PLP.part.repulsive>
0.3306

> <Gold.PLP.ligand.clash>
0.0000

> <Gold.PLP.ligand.torsion>
1.3913

> <Gold.PLP.Chemscore.Hbond>
6.0000

> <Gold.PLP.Chemscore.CHOScore>
0.0000

> <Gold.PLP.Chemscore.Metal>
0.0000

> <Gold.Chemscore.Hbonds>
donor molecule, donor type, donor heavy atom, donor atom, acceptor molecule, acceptor atom, score
      L1  H     8    25       P1  7948  1.00
      L1  H    12    44       P1  7948  2.00
      P1  H  7989  7998       L1    20  0.88
      P1  H 10752 10765       L1     5  1.80

> <Gold.PLP.Chemscore.Internal.Correction>
0.1389

> <Gold.Rescore>
     Score         DG    S(hbond)    S(metal)    S(lipo)     H(rot)  DE(clash)    DE(int)     intcor
     16.67     -19.13       3.19        0.00      58.98       1.52       0.10       2.37       ----

> <Gold.Chemscore.Fitness>
16.6653

> <Gold.Chemscore.DG>
-19.1311

> <Gold.Chemscore.ZeroCoef>
-5.4800

> <Gold.Chemscore.Hbond>
3.1854

> <Gold.Chemscore.Metal>
0.0000

> <Gold.Chemscore.Lipo>
58.9786

> <Gold.Chemscore.Internal_Hbond>
0.0000

> <Gold.Chemscore.DEClash>
0.0978

> <Gold.Chemscore.DEInternal>
2.3680

> <Gold.Chemscore.Rot>
1.5190

> <Gold.Chemscore.Internal.Correction>
   9.000000E+99

> <Gold.Chemscore.Hbonds>
donor molecule, donor type, donor heavy atom, donor atom, acceptor molecule, acceptor atom, score
      L1  H     8    25       P1  7948  0.55
      L1  H    12    44       P1  7948  0.29
      P1  H  7989  7998       L1    20  0.35
      P1  H 10752 10765       L1     5  0.17

> <Gold.Chemscore.Hbond.Weighted>
-10.6392

> <Gold.Chemscore.Metal.Weighted>
-0.0000

> <Gold.Chemscore.Lipo.Weighted>
-6.9005

> <Gold.Chemscore.Internal_Hbond.Weighted>
0.0000

> <Gold.Chemscore.DEClash.Weighted>
0.0978

> <Gold.Chemscore.DEInternal.Weighted>
2.3680

> <Gold.Chemscore.Rot.Weighted>
3.8886

> <Gold.Chemscore.Internal.Correction.Weighted>
   9.000000E+99

> <Gold.Protein.RotatedTorsions>
[ 6907 6896 6895 6894 ] final   28.84 input  -60.11 | X-H torsion
[ 7974 7965 7964 7962 ] final  -23.20 input  175.53 | X-H torsion
[ 8008 7997 7996 7995 ] final -106.10 input   59.86 | X-H torsion
[ 10167 10162 10161 10158 ] final -145.75 input  -65.29 | X-H torsion
[ 10718 10713 10712 10709 ] final   98.50 input   66.30 | X-H torsion
[ 10763 10752 10751 10750 ] final -168.07 input  -60.55 | X-H torsion
[ 11005 11000 10999 10996 ] final  -90.60 input  -57.11 | X-H torsion

> <Gold.Protein.ActiveResidues>
 VAL166  LYS551  ARG553  GLY616  TRP617  ASP618  TYR619  PRO620  LYS621  CYS622 
 ASP623  PHE694  ASN695  SER759  ASP760  ASP761  ALA762  ILE779  LEU786  VAL792 
 PHE793  MET794  SER795  GLU796  ALA797  LYS798  CYS799  TRP800  GLU811  SER814 

> <Gold.Protein.RotatedAtoms>
  152.0229  134.9812  160.0570 H   0  0  0  0  0  0  0  0  0  0  0  0  # atno 6907 bound_to 6896
  152.1320  133.4408  159.4733 H   0  0  0  0  0  0  0  0  0  0  0  0  # atno 6908 bound_to 6896
  150.6857  134.2328  159.4484 H   0  0  0  0  0  0  0  0  0  0  0  0  # atno 6909 bound_to 6896
  146.1630  140.4584  142.8563 H   0  0  0  0  0  0  0  0  0  0  0  0  # atno 7974 bound_to 7965
  154.9096  140.0410  157.1938 H   0  0  0  0  0  0  0  0  0  0  0  0  # atno 8008 bound_to 7997
  154.8362  140.2907  155.5668 H   0  0  0  0  0  0  0  0  0  0  0  0  # atno 8009 bound_to 7997
  156.2990  140.2491  156.3296 H   0  0  0  0  0  0  0  0  0  0  0  0  # atno 8010 bound_to 7997
  139.7776  143.8147  152.2634 H   0  0  0  0  0  0  0  0  0  0  0  0  # atno 10167 bound_to 10162
  157.6894  131.0642  150.4805 H   0  0  0  0  0  0  0  0  0  0  0  0  # atno 10718 bound_to 10713
  154.6667  135.2933  154.9796 H   0  0  0  0  0  0  0  0  0  0  0  0  # atno 10763 bound_to 10752
  154.0837  135.6601  153.4845 H   0  0  0  0  0  0  0  0  0  0  0  0  # atno 10764 bound_to 10752
  153.0462  135.5203  154.7643 H   0  0  0  0  0  0  0  0  0  0  0  0  # atno 10765 bound_to 10752
  141.1562  133.7702  156.9761 H   0  0  0  0  0  0  0  0  0  0  0  0  # atno 11005 bound_to 11000
  144.8053  140.6289  143.6451 LP  0  0  0  0  0  0  0  0  0  0  0  0  # atno 17320 bound_to 7965
  145.4539  139.1520  143.3903 LP  0  0  0  0  0  0  0  0  0  0  0  0  # atno 17321 bound_to 7965
  139.8200  144.7300  150.9585 LP  0  0  0  0  0  0  0  0  0  0  0  0  # atno 17342 bound_to 10162
  140.7817  143.4168  151.0904 LP  0  0  0  0  0  0  0  0  0  0  0  0  # atno 17343 bound_to 10162
  156.5138  130.4145  149.6287 LP  0  0  0  0  0  0  0  0  0  0  0  0  # atno 17370 bound_to 10713
  156.3217  130.7284  151.2197 LP  0  0  0  0  0  0  0  0  0  0  0  0  # atno 17371 bound_to 10713
  140.1097  134.9484  157.2047 LP  0  0  0  0  0  0  0  0  0  0  0  0  # atno 17394 bound_to 11000
  140.3210  134.2916  155.7246 LP  0  0  0  0  0  0  0  0  0  0  0  0  # atno 17395 bound_to 11000

$$$$
