AV-unprocessed.smi:2775|AV-procd|sdf|10702|dock10
  -GOLD-   2272015143D 1   1.00000     0.00000
 Structure written by MMmdl.
 43 46  0  0  0  0  0  0  0  0  2 V2000
  147.6053  129.8452  153.1634 C   0  0  0  0  0  0  0  0  0  0  0  0
  148.5385  130.8231  153.8511 C   0  0  0  0  0  0  0  0  0  0  0  0
  149.5180  130.3149  154.6304 N   0  3  0  0  0  0  0  0  0  0  0  0
  150.4020  131.0862  155.2960 C   0  0  0  0  0  0  0  0  0  0  0  0
  150.3299  132.4889  155.1921 C   0  0  0  0  0  0  0  0  0  0  0  0
  149.3276  133.0775  154.3786 C   0  0  0  0  0  0  0  0  0  0  0  0
  149.1610  134.4816  154.2140 N   0  0  0  0  0  0  0  0  0  0  0  0
  149.3722  135.4903  155.0811 C   0  0  0  0  0  0  0  0  0  0  0  0
  149.8284  135.3634  156.2146 O   0  0  0  0  0  0  0  0  0  0  0  0
  149.0527  136.7002  154.5908 N   0  0  0  0  0  0  0  0  0  0  0  0
  149.1612  137.9922  155.2685 C   0  0  2  0  0  0  0  0  0  0  0  0
  148.7486  139.1567  154.3659 C   0  0  1  0  0  0  0  0  0  0  0  0
  147.5909  140.0880  154.3423 C   0  0  0  0  0  0  0  0  0  0  0  0
  148.3815  141.3952  154.0804 C   0  0  0  0  0  0  0  0  0  0  0  0
  149.7796  141.0475  154.2298 O   0  0  0  0  0  0  0  0  0  0  0  0
  149.7767  139.9653  155.1411 C   0  0  2  0  0  0  0  0  0  0  0  0
  150.5763  138.6544  155.1708 C   0  0  0  0  0  0  0  0  0  0  0  0
  151.6223  138.3262  154.0890 C   0  0  0  0  0  0  0  0  0  0  0  0
  152.7066  138.6659  155.1169 C   0  0  0  0  0  0  0  0  0  0  0  0
  151.6708  138.4346  156.2228 C   0  0  0  0  0  0  0  0  0  0  0  0
  148.4157  132.2251  153.7071 C   0  0  0  0  0  0  0  0  0  0  0  0
  147.1580  132.8886  152.7171 Cl  0  0  0  0  0  0  0  0  0  0  0  0
  147.6634  129.9620  152.0807 H   0  0  0  0  0  0  0  0  0  0  0  0
  146.5750  130.0213  153.4743 H   0  0  0  0  0  0  0  0  0  0  0  0
  147.8599  128.8129  153.4070 H   0  0  0  0  0  0  0  0  0  0  0  0
  151.1339  130.5615  155.8929 H   0  0  0  0  0  0  0  0  0  0  0  0
  151.0425  133.0764  155.7487 H   0  0  0  0  0  0  0  0  0  0  0  0
  148.8375  134.7637  153.2999 H   0  0  0  0  0  0  0  0  0  0  0  0
  148.7064  136.7282  153.6423 H   0  0  0  0  0  0  0  0  0  0  0  0
  148.7085  138.0349  156.2629 H   0  0  0  0  0  0  0  0  0  0  0  0
  149.0749  138.9566  153.3384 H   0  0  0  0  0  0  0  0  0  0  0  0
  146.8793  139.8609  153.5481 H   0  0  0  0  0  0  0  0  0  0  0  0
  147.0664  140.1117  155.2984 H   0  0  0  0  0  0  0  0  0  0  0  0
  148.2059  141.7854  153.0774 H   0  0  0  0  0  0  0  0  0  0  0  0
  148.1025  142.1675  154.7984 H   0  0  0  0  0  0  0  0  0  0  0  0
  149.4384  140.2739  156.1359 H   0  0  0  0  0  0  0  0  0  0  0  0
  151.6367  137.2736  153.8037 H   0  0  0  0  0  0  0  0  0  0  0  0
  151.6052  138.9808  153.2172 H   0  0  0  0  0  0  0  0  0  0  0  0
  153.5523  137.9778  155.1323 H   0  0  0  0  0  0  0  0  0  0  0  0
  153.0317  139.7057  155.0558 H   0  0  0  0  0  0  0  0  0  0  0  0
  151.6895  139.1725  157.0252 H   0  0  0  0  0  0  0  0  0  0  0  0
  151.6986  137.4167  156.6114 H   0  0  0  0  0  0  0  0  0  0  0  0
  149.5901  129.3013  154.7233 H   0  0  0  0  0  0  0  0  0  0  0  0
  1  2  1  0  0  0  0
  1 23  1  0  0  0  0
  1 24  1  0  0  0  0
  1 25  1  0  0  0  0
  2 21  1  0  0  0  0
  2  3  2  0  0  0  0
  3  4  1  0  0  0  0
  3 43  1  0  0  0  0
  4  5  2  0  0  0  0
  4 26  1  0  0  0  0
  5  6  1  0  0  0  0
  5 27  1  0  0  0  0
  6  7  1  0  0  0  0
  6 21  2  0  0  0  0
  7  8  1  0  0  0  0
  7 28  1  0  0  0  0
  8  9  2  0  0  0  0
  8 10  1  0  0  0  0
 10 11  1  0  0  0  0
 10 29  1  0  0  0  0
 11 17  1  0  0  0  0
 11 12  1  0  0  0  0
 11 30  1  0  0  0  0
 12 16  1  0  0  0  0
 12 13  1  0  0  0  0
 12 31  1  0  0  0  0
 13 14  1  0  0  0  0
 13 32  1  0  0  0  0
 13 33  1  0  0  0  0
 14 15  1  0  0  0  0
 14 34  1  0  0  0  0
 14 35  1  0  0  0  0
 15 16  1  0  0  0  0
 16 17  1  0  0  0  0
 16 36  1  0  0  0  0
 17 20  1  0  0  0  0
 17 18  1  0  0  0  0
 18 19  1  0  0  0  0
 18 37  1  0  0  0  0
 18 38  1  0  0  0  0
 19 20  1  0  0  0  0
 19 39  1  0  0  0  0
 19 40  1  0  0  0  0
 20 41  1  0  0  0  0
 20 42  1  0  0  0  0
 21 22  1  0  0  0  0
M  CHG  1   3   1
M  END
> <s_m_source_file>
AV-unprocessed.smi

> <i_m_source_file_index>
2775

> <i_lp_mmshare_version>
43012

> <i_f3d_flags>
0

> <s_epik_input>
W0NIM11jMW5bY0hdW2NIXWMoYzFDbClbTkhdQyg9TylbTkhdW0NAQEhdMltDQEhdKFtDSDJdW0NIMl1PMylbQ0BASF0zQzI0W0NIMl1bQ0gyXVtDSDJdNA==

> <s_epik_cmdline>
J2VwaWtfcHl0aG9uJywgJy1waCcsICc3LjAnLCAnLXRuJywgJzgnLCAnLW1hJywgJzIwMCcsICctbWV0YWxfYmluZGluZycsICctaW1hZScsICc8aW5maWxlLm1hZT4nLCAnLW9tYWUnLCAnPG91dGZpbGUubWFlPic=

> <r_epik_Ionization_Penalty>
2.4104

> <r_epik_Ionization_Penalty_Charging>
2.41038

> <r_epik_Ionization_Penalty_Neutral>
1.9872e-05

> <r_epik_State_Penalty>
2.56896

> <r_epik_Charging_Adjusted_Penalty>
4.97934

> <i_epik_Tot_Q>
1

> <i_epik_Tot_abs_Q>
1

> <r_epik_Metal_State_Penalty>
2.57906

> <b_epik_Metal_Only>
0

> <s_lp_Force_Field>
OPLS_2005

> <r_lp_Energy>
84.5881

> <b_lp_Chiralities_Consistent>
1

> <s_lp_Variant>
AV-unprocessed.smi:2775-15

> <Gold.Version>
5.8.1

> <Gold.Id.Protein>
6NUR|6NUR_protein|mol2

> <Gold.PLP.Fitness>
43.8076

> <Gold.PLP.PLP>
-37.3383

> <Gold.PLP.part.hbond>
-3.4537

> <Gold.PLP.part.metal>
0.0000

> <Gold.PLP.part.buried>
-2.9657

> <Gold.PLP.part.nonpolar>
-29.8756

> <Gold.PLP.part.repulsive>
0.2198

> <Gold.PLP.ligand.clash>
0.0000

> <Gold.PLP.ligand.torsion>
0.4104

> <Gold.PLP.Chemscore.Hbond>
2.3232

> <Gold.PLP.Chemscore.CHOScore>
0.0000

> <Gold.PLP.Chemscore.Metal>
0.0000

> <Gold.Chemscore.Hbonds>
donor molecule, donor type, donor heavy atom, donor atom, acceptor molecule, acceptor atom, score
      L1  H     7    28       P1  7948  0.90
      L1  H    10    29       P1  7948  0.93
      P1  H  7989  7998       L1    15  0.50

> <Gold.PLP.Chemscore.Internal.Correction>
0.3206

> <Gold.Rescore>
     Score         DG    S(hbond)    S(metal)    S(lipo)     H(rot)  DE(clash)    DE(int)     intcor
     18.68     -19.38       1.88        0.00      87.08       1.00       0.23       0.46       ----

> <Gold.Chemscore.Fitness>
18.6832

> <Gold.Chemscore.DG>
-19.3760

> <Gold.Chemscore.ZeroCoef>
-5.4800

> <Gold.Chemscore.Hbond>
1.8767

> <Gold.Chemscore.Metal>
0.0000

> <Gold.Chemscore.Lipo>
87.0760

> <Gold.Chemscore.Internal_Hbond>
0.0000

> <Gold.Chemscore.DEClash>
0.2345

> <Gold.Chemscore.DEInternal>
0.4583

> <Gold.Chemscore.Rot>
1.0000

> <Gold.Chemscore.Internal.Correction>
   9.000000E+99

> <Gold.Chemscore.Hbonds>
donor molecule, donor type, donor heavy atom, donor atom, acceptor molecule, acceptor atom, score
      L1  H     7    28       P1  7948  0.21
      L1  H    10    29       P1  7948  0.91
      P1  H  7989  7998       L1    15  0.15

> <Gold.Chemscore.Hbond.Weighted>
-6.2681

> <Gold.Chemscore.Metal.Weighted>
-0.0000

> <Gold.Chemscore.Lipo.Weighted>
-10.1879

> <Gold.Chemscore.Internal_Hbond.Weighted>
0.0000

> <Gold.Chemscore.DEClash.Weighted>
0.2345

> <Gold.Chemscore.DEInternal.Weighted>
0.4583

> <Gold.Chemscore.Rot.Weighted>
2.5600

> <Gold.Chemscore.Internal.Correction.Weighted>
   9.000000E+99

> <Gold.Protein.RotatedTorsions>
[ 6907 6896 6895 6894 ] final  -58.43 input  -60.11 | X-H torsion
[ 7974 7965 7964 7962 ] final  162.32 input  175.53 | X-H torsion
[ 8008 7997 7996 7995 ] final  118.04 input   59.86 | X-H torsion
[ 10167 10162 10161 10158 ] final   43.32 input  -65.29 | X-H torsion
[ 10718 10713 10712 10709 ] final    5.96 input   66.30 | X-H torsion
[ 10763 10752 10751 10750 ] final -108.70 input  -60.55 | X-H torsion
[ 11005 11000 10999 10996 ] final   68.98 input  -57.11 | X-H torsion

> <Gold.Protein.ActiveResidues>
 VAL166  LYS551  ARG553  GLY616  TRP617  ASP618  TYR619  PRO620  LYS621  CYS622 
 ASP623  PHE694  ASN695  SER759  ASP760  ASP761  ALA762  ILE779  LEU786  VAL792 
 PHE793  MET794  SER795  GLU796  ALA797  LYS798  CYS799  TRP800  GLU811  SER814 

> <Gold.Protein.RotatedAtoms>
  150.8007  134.7099  159.6597 H   0  0  0  0  0  0  0  0  0  0  0  0  # atno 6907 bound_to 6896
  152.4124  134.6098  160.0032 H   0  0  0  0  0  0  0  0  0  0  0  0  # atno 6908 bound_to 6896
  151.6337  133.3293  159.3151 H   0  0  0  0  0  0  0  0  0  0  0  0  # atno 6909 bound_to 6896
  144.7642  139.8023  143.6321 H   0  0  0  0  0  0  0  0  0  0  0  0  # atno 7974 bound_to 7965
  156.2526  140.2883  156.0773 H   0  0  0  0  0  0  0  0  0  0  0  0  # atno 8008 bound_to 7997
  155.1605  140.0399  157.2859 H   0  0  0  0  0  0  0  0  0  0  0  0  # atno 8009 bound_to 7997
  154.6396  140.2519  155.7344 H   0  0  0  0  0  0  0  0  0  0  0  0  # atno 8010 bound_to 7997
  140.3456  144.2416  150.6151 H   0  0  0  0  0  0  0  0  0  0  0  0  # atno 10167 bound_to 10162
  156.9151  130.5770  149.5647 H   0  0  0  0  0  0  0  0  0  0  0  0  # atno 10718 bound_to 10713
  154.8150  135.4628  154.0620 H   0  0  0  0  0  0  0  0  0  0  0  0  # atno 10763 bound_to 10752
  153.2020  135.6870  153.8226 H   0  0  0  0  0  0  0  0  0  0  0  0  # atno 10764 bound_to 10752
  153.7708  135.3270  155.3328 H   0  0  0  0  0  0  0  0  0  0  0  0  # atno 10765 bound_to 10752
  139.9680  134.6949  156.0506 H   0  0  0  0  0  0  0  0  0  0  0  0  # atno 11005 bound_to 11000
  146.1735  139.4895  142.9912 LP  0  0  0  0  0  0  0  0  0  0  0  0  # atno 17320 bound_to 7965
  145.6521  141.0260  143.1754 LP  0  0  0  0  0  0  0  0  0  0  0  0  # atno 17321 bound_to 7965
  140.5268  143.2252  151.8302 LP  0  0  0  0  0  0  0  0  0  0  0  0  # atno 17342 bound_to 10162
  139.4834  144.4769  151.9355 LP  0  0  0  0  0  0  0  0  0  0  0  0  # atno 17343 bound_to 10162
  156.0517  130.5586  150.9004 LP  0  0  0  0  0  0  0  0  0  0  0  0  # atno 17370 bound_to 10713
  157.5943  131.0943  150.9067 LP  0  0  0  0  0  0  0  0  0  0  0  0  # atno 17371 bound_to 10713
  141.1359  133.6575  156.3593 LP  0  0  0  0  0  0  0  0  0  0  0  0  # atno 17394 bound_to 11000
  140.5355  134.6171  157.5363 LP  0  0  0  0  0  0  0  0  0  0  0  0  # atno 17395 bound_to 11000

$$$$
