AV-unprocessed.smi:3051|AV-procd|sdf|11634|dock6
  -GOLD-   2272017 23D 1   1.00000     0.00000
 Structure written by MMmdl.
 37 37  0  0  0  0  0  0  0  0  1 V2000
  145.5688  132.2896  151.0283 C   0  0  0  0  0  0  0  0  0  0  0  0
  146.0714  133.2733  152.0930 C   0  0  0  0  0  0  0  0  0  0  0  0
  146.2194  134.6190  151.5526 N   0  0  0  0  0  0  0  0  0  0  0  0
  145.2812  135.2827  150.8586 C   0  0  0  0  0  0  0  0  0  0  0  0
  144.1673  134.8223  150.6097 O   0  0  0  0  0  0  0  0  0  0  0  0
  145.6560  136.6832  150.3707 C   0  0  0  0  0  0  0  0  0  0  0  0
  146.0193  137.5447  151.4815 N   0  0  0  0  0  0  0  0  0  0  0  0
  145.5756  137.4920  152.7885 C   0  0  0  0  0  0  0  0  0  0  0  0
  146.1745  138.5154  153.4670 C   0  0  0  0  0  0  0  0  0  0  0  0
  146.9714  139.1437  152.4716 C   0  0  0  0  0  0  0  0  0  0  0  0
  147.7545  140.2705  152.7497 N   0  0  0  0  0  0  0  0  0  0  0  0
  147.7822  140.8489  154.0884 C   0  0  1  0  0  0  0  0  0  0  0  0
  149.1743  140.6939  154.7242 C   0  0  0  0  0  0  0  0  0  0  0  0
  147.3679  142.3275  154.0359 C   0  0  0  0  0  0  0  0  0  0  0  0
  145.9857  142.4181  153.7305 O   0  0  0  0  0  0  0  0  0  0  0  0
  145.5220  143.7565  153.7062 C   0  0  0  0  0  0  0  0  0  0  0  0
  146.8876  138.5614  151.2852 N   0  0  0  0  0  0  0  0  0  0  0  0
  145.4317  131.2959  151.4547 H   0  0  0  0  0  0  0  0  0  0  0  0
  146.2765  132.2004  150.2035 H   0  0  0  0  0  0  0  0  0  0  0  0
  144.6112  132.6095  150.6164 H   0  0  0  0  0  0  0  0  0  0  0  0
  145.3609  133.3159  152.9185 H   0  0  0  0  0  0  0  0  0  0  0  0
  147.0165  132.9273  152.5144 H   0  0  0  0  0  0  0  0  0  0  0  0
  147.1068  135.0771  151.7042 H   0  0  0  0  0  0  0  0  0  0  0  0
  146.4992  136.6258  149.6809 H   0  0  0  0  0  0  0  0  0  0  0  0
  144.8221  137.1250  149.8227 H   0  0  0  0  0  0  0  0  0  0  0  0
  144.8743  136.7408  153.1210 H   0  0  0  0  0  0  0  0  0  0  0  0
  146.0549  138.7757  154.5083 H   0  0  0  0  0  0  0  0  0  0  0  0
  148.3184  140.6877  152.0232 H   0  0  0  0  0  0  0  0  0  0  0  0
  147.0600  140.3214  154.7130 H   0  0  0  0  0  0  0  0  0  0  0  0
  149.1910  141.1071  155.7330 H   0  0  0  0  0  0  0  0  0  0  0  0
  149.9364  141.2116  154.1409 H   0  0  0  0  0  0  0  0  0  0  0  0
  149.4686  139.6470  154.7995 H   0  0  0  0  0  0  0  0  0  0  0  0
  147.5471  142.7961  155.0050 H   0  0  0  0  0  0  0  0  0  0  0  0
  147.9632  142.8690  153.2983 H   0  0  0  0  0  0  0  0  0  0  0  0
  144.4602  143.7723  153.4609 H   0  0  0  0  0  0  0  0  0  0  0  0
  146.0498  144.3437  152.9535 H   0  0  0  0  0  0  0  0  0  0  0  0
  145.6500  144.2358  154.6777 H   0  0  0  0  0  0  0  0  0  0  0  0
  1  2  1  0  0  0  0
  1 18  1  0  0  0  0
  1 19  1  0  0  0  0
  1 20  1  0  0  0  0
  2  3  1  0  0  0  0
  2 21  1  0  0  0  0
  2 22  1  0  0  0  0
  3  4  1  0  0  0  0
  3 23  1  0  0  0  0
  4  5  2  0  0  0  0
  4  6  1  0  0  0  0
  6  7  1  0  0  0  0
  6 24  1  0  0  0  0
  6 25  1  0  0  0  0
  7 17  1  0  0  0  0
  7  8  1  0  0  0  0
  8  9  2  0  0  0  0
  8 26  1  0  0  0  0
  9 10  1  0  0  0  0
  9 27  1  0  0  0  0
 10 11  1  0  0  0  0
 10 17  2  0  0  0  0
 11 12  1  0  0  0  0
 11 28  1  0  0  0  0
 12 13  1  0  0  0  0
 12 14  1  0  0  0  0
 12 29  1  0  0  0  0
 13 30  1  0  0  0  0
 13 31  1  0  0  0  0
 13 32  1  0  0  0  0
 14 15  1  0  0  0  0
 14 33  1  0  0  0  0
 14 34  1  0  0  0  0
 15 16  1  0  0  0  0
 16 35  1  0  0  0  0
 16 36  1  0  0  0  0
 16 37  1  0  0  0  0
M  END
> <s_m_source_file>
AV-unprocessed.smi

> <i_m_source_file_index>
3051

> <i_lp_mmshare_version>
43012

> <i_f3d_flags>
0

> <s_epik_input>
W0NIM11bQ0gyXVtOSF1DKD1PKVtDSDJdbjFbY0hdW2NIXWMobjEpW05IXVtDQEhdKFtDSDNdKVtDSDJdT1tDSDNd

> <s_epik_cmdline>
J2VwaWtfcHl0aG9uJywgJy1waCcsICc3LjAnLCAnLXRuJywgJzgnLCAnLW1hJywgJzIwMCcsICctbWV0YWxfYmluZGluZycsICctaW1hZScsICc8aW5maWxlLm1hZT4nLCAnLW9tYWUnLCAnPG91dGZpbGUubWFlPic=

> <r_lp_tautomer_probability>
1

> <r_epik_Ionization_Penalty>
0.00023157

> <r_epik_Ionization_Penalty_Charging>
0

> <r_epik_Ionization_Penalty_Neutral>
0.00023157

> <r_epik_State_Penalty>
-0

> <r_epik_Charging_Adjusted_Penalty>
0

> <i_epik_Tot_Q>
0

> <i_epik_Tot_abs_Q>
0

> <r_epik_Metal_State_Penalty>
-0

> <b_epik_Metal_Only>
0

> <s_lp_Force_Field>
OPLS_2005

> <r_lp_Energy>
3.21547

> <b_lp_Chiralities_Consistent>
1

> <s_lp_Variant>
AV-unprocessed.smi:3051-2

> <Gold.Version>
5.8.1

> <Gold.Id.Protein>
6NUR|6NUR_protein|mol2

> <Gold.PLP.Fitness>
37.3838

> <Gold.PLP.PLP>
-31.1111

> <Gold.PLP.part.hbond>
-2.5960

> <Gold.PLP.part.metal>
0.0000

> <Gold.PLP.part.buried>
1.0735

> <Gold.PLP.part.nonpolar>
-31.6156

> <Gold.PLP.part.repulsive>
1.1431

> <Gold.PLP.ligand.clash>
0.0000

> <Gold.PLP.ligand.torsion>
0.5074

> <Gold.PLP.Chemscore.Hbond>
2.4160

> <Gold.PLP.Chemscore.CHOScore>
0.0000

> <Gold.PLP.Chemscore.Metal>
0.0000

> <Gold.Chemscore.Hbonds>
donor molecule, donor type, donor heavy atom, donor atom, acceptor molecule, acceptor atom, score
      L1  H     3    23       P1  7948  0.73
      L1  H    11    28       P1  7957  0.62
      P1  H  7954  7966       L1    17  1.00

> <Gold.PLP.Chemscore.Internal.Correction>
0.0395

> <Gold.Rescore>
     Score         DG    S(hbond)    S(metal)    S(lipo)     H(rot)  DE(clash)    DE(int)     intcor
     11.04     -13.76       1.99        0.00      61.73       2.19       2.21       0.52       ----

> <Gold.Chemscore.Fitness>
11.0350

> <Gold.Chemscore.DG>
-13.7608

> <Gold.Chemscore.ZeroCoef>
-5.4800

> <Gold.Chemscore.Hbond>
1.9946

> <Gold.Chemscore.Metal>
0.0000

> <Gold.Chemscore.Lipo>
61.7318

> <Gold.Chemscore.Internal_Hbond>
0.0000

> <Gold.Chemscore.DEClash>
2.2083

> <Gold.Chemscore.DEInternal>
0.5175

> <Gold.Chemscore.Rot>
2.1890

> <Gold.Chemscore.Internal.Correction>
   9.000000E+99

> <Gold.Chemscore.Hbonds>
donor molecule, donor type, donor heavy atom, donor atom, acceptor molecule, acceptor atom, score
      L1  H     3    23       P1  7948  0.69
      L1  H    11    28       P1  7957  0.62
      P1  H  7954  7966       L1    17  0.47

> <Gold.Chemscore.Hbond.Weighted>
-6.6621

> <Gold.Chemscore.Metal.Weighted>
-0.0000

> <Gold.Chemscore.Lipo.Weighted>
-7.2226

> <Gold.Chemscore.Internal_Hbond.Weighted>
0.0000

> <Gold.Chemscore.DEClash.Weighted>
2.2083

> <Gold.Chemscore.DEInternal.Weighted>
0.5175

> <Gold.Chemscore.Rot.Weighted>
5.6039

> <Gold.Chemscore.Internal.Correction.Weighted>
   9.000000E+99

> <Gold.Protein.RotatedTorsions>
[ 6907 6896 6895 6894 ] final   -8.62 input  -60.11 | X-H torsion
[ 7974 7965 7964 7962 ] final  -74.73 input  175.53 | X-H torsion
[ 8008 7997 7996 7995 ] final   -8.59 input   59.86 | X-H torsion
[ 10167 10162 10161 10158 ] final -111.42 input  -65.29 | X-H torsion
[ 10718 10713 10712 10709 ] final -127.59 input   66.30 | X-H torsion
[ 10763 10752 10751 10750 ] final  110.65 input  -60.55 | X-H torsion
[ 11005 11000 10999 10996 ] final  -30.39 input  -57.11 | X-H torsion

> <Gold.Protein.ActiveResidues>
 VAL166  LYS551  ARG553  GLY616  TRP617  ASP618  TYR619  PRO620  LYS621  CYS622 
 ASP623  PHE694  ASN695  SER759  ASP760  ASP761  ALA762  ILE779  LEU786  VAL792 
 PHE793  MET794  SER795  GLU796  ALA797  LYS798  CYS799  TRP800  GLU811  SER814 

> <Gold.Protein.RotatedAtoms>
  151.4307  135.1009  159.9641 H   0  0  0  0  0  0  0  0  0  0  0  0  # atno 6907 bound_to 6896
  152.4957  133.8620  159.7265 H   0  0  0  0  0  0  0  0  0  0  0  0  # atno 6908 bound_to 6896
  150.9157  133.6884  159.2872 H   0  0  0  0  0  0  0  0  0  0  0  0  # atno 6909 bound_to 6896
  145.6353  140.9326  143.1065 H   0  0  0  0  0  0  0  0  0  0  0  0  # atno 7974 bound_to 7965
  154.5727  140.2377  155.8168 H   0  0  0  0  0  0  0  0  0  0  0  0  # atno 8008 bound_to 7997
  156.2119  140.3023  155.9710 H   0  0  0  0  0  0  0  0  0  0  0  0  # atno 8009 bound_to 7997
  155.2683  140.0417  157.2995 H   0  0  0  0  0  0  0  0  0  0  0  0  # atno 8010 bound_to 7997
  140.1338  143.4337  152.1609 H   0  0  0  0  0  0  0  0  0  0  0  0  # atno 10167 bound_to 10162
  156.1871  130.6771  151.0378 H   0  0  0  0  0  0  0  0  0  0  0  0  # atno 10718 bound_to 10713
  153.4521  135.3741  155.2289 H   0  0  0  0  0  0  0  0  0  0  0  0  # atno 10763 bound_to 10752
  154.8756  135.3888  154.4026 H   0  0  0  0  0  0  0  0  0  0  0  0  # atno 10764 bound_to 10752
  153.4587  135.7086  153.6128 H   0  0  0  0  0  0  0  0  0  0  0  0  # atno 10765 bound_to 10752
  140.9378  133.7297  156.1031 H   0  0  0  0  0  0  0  0  0  0  0  0  # atno 11005 bound_to 11000
  144.7178  139.8135  143.7392 LP  0  0  0  0  0  0  0  0  0  0  0  0  # atno 17320 bound_to 7965
  146.1324  139.4362  143.0160 LP  0  0  0  0  0  0  0  0  0  0  0  0  # atno 17321 bound_to 7965
  139.5506  144.7334  151.4447 LP  0  0  0  0  0  0  0  0  0  0  0  0  # atno 17342 bound_to 10162
  140.6801  143.8101  150.7110 LP  0  0  0  0  0  0  0  0  0  0  0  0  # atno 17343 bound_to 10162
  157.6906  131.0811  150.7119 LP  0  0  0  0  0  0  0  0  0  0  0  0  # atno 17370 bound_to 10713
  156.7175  130.4670  149.5531 LP  0  0  0  0  0  0  0  0  0  0  0  0  # atno 17371 bound_to 10713
  140.7775  134.3763  157.5494 LP  0  0  0  0  0  0  0  0  0  0  0  0  # atno 17394 bound_to 11000
  139.8812  134.9061  156.2914 LP  0  0  0  0  0  0  0  0  0  0  0  0  # atno 17395 bound_to 11000

$$$$
