AV-unprocessed.smi:47|AV-procd|sdf|431|dock1
  -GOLD-   2262016303D 1   1.00000     0.00000
 Structure written by MMmdl.
 32 34  0  0  0  0  0  0  0  0  2 V2000
  145.2148  140.9274  154.5413 O   0  0  0  0  0  0  0  0  0  0  0  0
  146.5901  140.6484  154.6951 C   0  0  1  0  0  0  0  0  0  0  0  0
  147.1370  139.7931  153.5525 C   0  0  0  0  0  0  0  0  0  0  0  0
  148.5834  140.0759  153.5165 N   0  3  0  0  0  0  0  0  0  0  0  0
  148.8130  141.4038  154.1296 C   0  0  2  0  0  0  0  0  0  0  0  0
  149.7908  141.1367  155.2380 C   0  0  0  0  0  0  0  0  0  0  0  0
  150.3595  139.9366  155.3954 N   0  0  0  0  0  0  0  0  0  0  0  0
  151.2049  139.9708  156.4475 N   0  0  0  0  0  0  0  0  0  0  0  0
  151.0780  141.2330  156.8526 C   0  0  0  0  0  0  0  0  0  0  0  0
  151.8332  141.7606  158.0127 C   0  0  0  0  0  0  0  0  0  0  0  0
  151.8660  143.1487  158.2917 C   0  0  0  0  0  0  0  0  0  0  0  0
  152.5821  143.6545  159.3940 C   0  0  0  0  0  0  0  0  0  0  0  0
  153.2826  142.7777  160.2409 C   0  0  0  0  0  0  0  0  0  0  0  0
  153.2636  141.3961  159.9814 C   0  0  0  0  0  0  0  0  0  0  0  0
  152.5455  140.8951  158.8784 C   0  0  0  0  0  0  0  0  0  0  0  0
  150.2137  142.0194  156.1427 N   0  0  0  0  0  0  0  0  0  0  0  0
  147.4468  141.9107  154.6154 C   0  0  0  0  0  0  0  0  0  0  0  0
  146.7570  140.1450  155.6484 H   0  0  0  0  0  0  0  0  0  0  0  0
  149.2543  142.0874  153.4031 H   0  0  0  0  0  0  0  0  0  0  0  0
  144.9433  140.6513  153.6787 H   0  0  0  0  0  0  0  0  0  0  0  0
  146.9343  138.7298  153.6830 H   0  0  0  0  0  0  0  0  0  0  0  0
  146.7065  140.1070  152.6004 H   0  0  0  0  0  0  0  0  0  0  0  0
  149.0607  139.3895  154.0841 H   0  0  0  0  0  0  0  0  0  0  0  0
  151.3366  143.8464  157.6600 H   0  0  0  0  0  0  0  0  0  0  0  0
  152.5931  144.7167  159.5891 H   0  0  0  0  0  0  0  0  0  0  0  0
  153.8324  143.1636  161.0867 H   0  0  0  0  0  0  0  0  0  0  0  0
  153.8009  140.7182  160.6281 H   0  0  0  0  0  0  0  0  0  0  0  0
  152.5501  139.8294  158.7034 H   0  0  0  0  0  0  0  0  0  0  0  0
  147.0329  142.5787  153.8583 H   0  0  0  0  0  0  0  0  0  0  0  0
  147.4947  142.4670  155.5524 H   0  0  0  0  0  0  0  0  0  0  0  0
  148.9350  140.0408  152.5704 H   0  0  0  0  0  0  0  0  0  0  0  0
  150.2121  139.1077  154.8365 H   0  0  0  0  0  0  0  0  0  0  0  0
  1  2  1  0  0  0  0
  1 20  1  0  0  0  0
  2 18  1  0  0  0  0
  2 17  1  0  0  0  0
  2  3  1  0  0  0  0
  3  4  1  0  0  0  0
  3 21  1  0  0  0  0
  3 22  1  0  0  0  0
  4  5  1  0  0  0  0
  4 23  1  0  0  0  0
  4 31  1  0  0  0  0
  5 19  1  0  0  0  0
  5  6  1  0  0  0  0
  5 17  1  0  0  0  0
  6 16  2  0  0  0  0
  6  7  1  0  0  0  0
  7  8  1  0  0  0  0
  7 32  1  0  0  0  0
  8  9  2  0  0  0  0
  9 10  1  0  0  0  0
  9 16  1  0  0  0  0
 10 15  1  0  0  0  0
 10 11  2  0  0  0  0
 11 12  1  0  0  0  0
 11 24  1  0  0  0  0
 12 13  2  0  0  0  0
 12 25  1  0  0  0  0
 13 14  1  0  0  0  0
 13 26  1  0  0  0  0
 14 15  2  0  0  0  0
 14 27  1  0  0  0  0
 15 28  1  0  0  0  0
 17 29  1  0  0  0  0
 17 30  1  0  0  0  0
M  CHG  1   4   1
M  END
> <s_m_source_file>
AV-unprocessed.smi

> <i_m_source_file_index>
47

> <i_lp_mmshare_version>
43012

> <i_f3d_flags>
0

> <s_epik_input>
W09IXVtDQEhdMVtDSDJdW05IXVtDQEBIXShbQ0gyXTEpYzJuW25IXWMobjIpLWMzW2NIXVtjSF1bY0hdW2NIXVtjSF0z

> <s_epik_cmdline>
J2VwaWtfcHl0aG9uJywgJy1waCcsICc3LjAnLCAnLXRuJywgJzgnLCAnLW1hJywgJzIwMCcsICctbWV0YWxfYmluZGluZycsICctaW1hZScsICc8aW5maWxlLm1hZT4nLCAnLW9tYWUnLCAnPG91dGZpbGUubWFlPic=

> <r_epik_Ionization_Penalty>
1.14296

> <r_epik_Ionization_Penalty_Charging>
0.0688988

> <r_epik_Ionization_Penalty_Neutral>
1.07406

> <r_epik_State_Penalty>
1.72347

> <r_epik_Charging_Adjusted_Penalty>
1.79237

> <i_epik_Tot_Q>
1

> <i_epik_Tot_abs_Q>
1

> <r_epik_Metal_State_Penalty>
2.22085

> <b_epik_Metal_Only>
0

> <s_lp_Force_Field>
OPLS_2005

> <r_lp_Energy>
30.356

> <b_lp_Chiralities_Consistent>
1

> <s_lp_Variant>
AV-unprocessed.smi:47-9

> <Gold.Version>
5.8.1

> <Gold.Id.Protein>
6NUR|6NUR_protein|mol2

> <Gold.PLP.Fitness>
40.7157

> <Gold.PLP.PLP>
-34.9269

> <Gold.PLP.part.hbond>
-2.0000

> <Gold.PLP.part.metal>
0.0000

> <Gold.PLP.part.buried>
-4.7002

> <Gold.PLP.part.nonpolar>
-29.3244

> <Gold.PLP.part.repulsive>
0.8394

> <Gold.PLP.ligand.clash>
0.0000

> <Gold.PLP.ligand.torsion>
0.1029

> <Gold.PLP.Chemscore.Hbond>
1.9920

> <Gold.PLP.Chemscore.CHOScore>
0.0000

> <Gold.PLP.Chemscore.Metal>
0.0000

> <Gold.Chemscore.Hbonds>
donor molecule, donor type, donor heavy atom, donor atom, acceptor molecule, acceptor atom, score
      L1  H     1    20       P1 10175  0.98
      L1  H     4    31       P1  7957  1.00

> <Gold.PLP.Chemscore.Internal.Correction>
0.0187

> <Gold.Rescore>
     Score         DG    S(hbond)    S(metal)    S(lipo)     H(rot)  DE(clash)    DE(int)     intcor
     18.11     -18.39       1.91        0.00      88.62       1.50       0.17       0.11       ----

> <Gold.Chemscore.Fitness>
18.1109

> <Gold.Chemscore.DG>
-18.3937

> <Gold.Chemscore.ZeroCoef>
-5.4800

> <Gold.Chemscore.Hbond>
1.9092

> <Gold.Chemscore.Metal>
0.0000

> <Gold.Chemscore.Lipo>
88.6183

> <Gold.Chemscore.Internal_Hbond>
0.0000

> <Gold.Chemscore.DEClash>
0.1700

> <Gold.Chemscore.DEInternal>
0.1128

> <Gold.Chemscore.Rot>
1.4966

> <Gold.Chemscore.Internal.Correction>
   9.000000E+99

> <Gold.Chemscore.Hbonds>
donor molecule, donor type, donor heavy atom, donor atom, acceptor molecule, acceptor atom, score
      L1  H     1    20       P1 10175  0.91
      L1  H     4    31       P1  7957  0.96

> <Gold.Chemscore.Hbond.Weighted>
-6.3766

> <Gold.Chemscore.Metal.Weighted>
-0.0000

> <Gold.Chemscore.Lipo.Weighted>
-10.3683

> <Gold.Chemscore.Internal_Hbond.Weighted>
0.0000

> <Gold.Chemscore.DEClash.Weighted>
0.1700

> <Gold.Chemscore.DEInternal.Weighted>
0.1128

> <Gold.Chemscore.Rot.Weighted>
3.8312

> <Gold.Chemscore.Internal.Correction.Weighted>
   9.000000E+99

> <Gold.Protein.RotatedTorsions>
[ 6907 6896 6895 6894 ] final   -5.74 input  -60.11 | X-H torsion
[ 7974 7965 7964 7962 ] final  115.68 input  175.53 | X-H torsion
[ 8008 7997 7996 7995 ] final  122.37 input   59.86 | X-H torsion
[ 10167 10162 10161 10158 ] final   94.49 input  -65.29 | X-H torsion
[ 10718 10713 10712 10709 ] final -121.14 input   66.30 | X-H torsion
[ 10763 10752 10751 10750 ] final  -20.19 input  -60.55 | X-H torsion
[ 11005 11000 10999 10996 ] final    5.67 input  -57.11 | X-H torsion

> <Gold.Protein.ActiveResidues>
 VAL166  LYS551  ARG553  GLY616  TRP617  ASP618  TYR619  PRO620  LYS621  CYS622 
 ASP623  PHE694  ASN695  SER759  ASP760  ASP761  ALA762  ILE779  LEU786  VAL792 
 PHE793  MET794  SER795  GLU796  ALA797  LYS798  CYS799  TRP800  GLU811  SER814 

> <Gold.Protein.RotatedAtoms>
  151.4767  135.1049  159.9766 H   0  0  0  0  0  0  0  0  0  0  0  0  # atno 6907 bound_to 6896
  152.4795  133.8216  159.7067 H   0  0  0  0  0  0  0  0  0  0  0  0  # atno 6908 bound_to 6896
  150.8857  133.7250  159.2946 H   0  0  0  0  0  0  0  0  0  0  0  0  # atno 6909 bound_to 6896
  145.1890  139.3010  143.4378 H   0  0  0  0  0  0  0  0  0  0  0  0  # atno 7974 bound_to 7965
  156.2725  140.2787  156.1457 H   0  0  0  0  0  0  0  0  0  0  0  0  # atno 8008 bound_to 7997
  155.0907  140.0388  157.2685 H   0  0  0  0  0  0  0  0  0  0  0  0  # atno 8009 bound_to 7997
  154.6892  140.2625  155.6836 H   0  0  0  0  0  0  0  0  0  0  0  0  # atno 8010 bound_to 7997
  139.8078  144.6786  150.9680 H   0  0  0  0  0  0  0  0  0  0  0  0  # atno 10167 bound_to 10162
  156.1313  130.6398  150.9626 H   0  0  0  0  0  0  0  0  0  0  0  0  # atno 10718 bound_to 10713
  153.6165  135.6994  153.5327 H   0  0  0  0  0  0  0  0  0  0  0  0  # atno 10763 bound_to 10752
  153.2973  135.4139  155.1220 H   0  0  0  0  0  0  0  0  0  0  0  0  # atno 10764 bound_to 10752
  154.8552  135.3640  154.5705 H   0  0  0  0  0  0  0  0  0  0  0  0  # atno 10765 bound_to 10752
  140.5681  134.0129  155.7997 H   0  0  0  0  0  0  0  0  0  0  0  0  # atno 11005 bound_to 11000
  146.3439  140.2096  142.8590 LP  0  0  0  0  0  0  0  0  0  0  0  0  # atno 17320 bound_to 7965
  145.0060  140.8673  143.5253 LP  0  0  0  0  0  0  0  0  0  0  0  0  # atno 17321 bound_to 7965
  140.7819  143.4216  151.0833 LP  0  0  0  0  0  0  0  0  0  0  0  0  # atno 17342 bound_to 10162
  139.7884  143.8254  152.3148 LP  0  0  0  0  0  0  0  0  0  0  0  0  # atno 17343 bound_to 10162
  157.6491  131.0899  150.8090 LP  0  0  0  0  0  0  0  0  0  0  0  0  # atno 17370 bound_to 10713
  156.8174  130.4973  149.5347 LP  0  0  0  0  0  0  0  0  0  0  0  0  # atno 17371 bound_to 10713
  141.1073  133.9672  157.2973 LP  0  0  0  0  0  0  0  0  0  0  0  0  # atno 17394 bound_to 11000
  139.9375  135.0195  156.8603 LP  0  0  0  0  0  0  0  0  0  0  0  0  # atno 17395 bound_to 11000

$$$$
