AV-unprocessed.smi:2493|AV-procd|sdf|9820|dock9
  -GOLD-   2272013453D 1   1.00000     0.00000
 Structure written by MMmdl.
 41 42  0  0  0  0  0  0  0  0  1 V2000
  151.9422  145.2884  158.8393 C   0  0  0  0  0  0  0  0  0  0  0  0
  151.5447  143.9126  159.4236 C   0  0  0  0  0  0  0  0  0  0  0  0
  150.2596  143.4016  158.7116 C   0  0  0  0  0  0  0  0  0  0  0  0
  150.5045  142.8532  157.3782 N   0  0  0  0  0  0  0  0  0  0  0  0
  149.6974  142.0102  156.7145 C   0  0  0  0  0  0  0  0  0  0  0  0
  148.6377  141.5804  157.1702 O   0  0  0  0  0  0  0  0  0  0  0  0
  150.1609  141.5793  155.3228 C   0  0  0  0  0  0  0  0  0  0  0  0
  148.9957  141.0559  154.5269 C   0  0  0  0  0  0  0  0  0  0  0  0
  147.8203  141.7588  154.1267 C   0  0  0  0  0  0  0  0  0  0  0  0
  147.0956  140.8309  153.4349 C   0  0  0  0  0  0  0  0  0  0  0  0
  147.8297  139.6687  153.4524 N   0  0  0  0  0  0  0  0  0  0  0  0
  148.9924  139.7929  154.1193 N   0  0  0  0  0  0  0  0  0  0  0  0
  152.7026  142.9231  159.1160 C   0  0  0  0  0  0  0  0  0  0  0  0
  152.7656  141.6484  159.9784 C   0  0  0  0  0  0  0  0  0  0  0  0
  153.5998  141.8359  161.2572 C   0  0  0  0  0  0  0  0  0  0  0  0
  152.9287  142.6947  162.3384 C   0  0  0  0  0  0  0  0  0  0  0  0
  152.4988  144.0959  161.8703 C   0  0  0  0  0  0  0  0  0  0  0  0
  151.2671  144.0672  160.9460 C   0  0  0  0  0  0  0  0  0  0  0  0
  147.5540  138.7972  153.0222 H   0  0  0  0  0  0  0  0  0  0  0  0
  152.0920  145.2308  157.7605 H   0  0  0  0  0  0  0  0  0  0  0  0
  152.8694  145.6585  159.2769 H   0  0  0  0  0  0  0  0  0  0  0  0
  151.1823  146.0480  159.0226 H   0  0  0  0  0  0  0  0  0  0  0  0
  149.7450  142.6673  159.3340 H   0  0  0  0  0  0  0  0  0  0  0  0
  149.5532  144.2226  158.5883 H   0  0  0  0  0  0  0  0  0  0  0  0
  151.3527  143.1494  156.9171 H   0  0  0  0  0  0  0  0  0  0  0  0
  150.6358  142.4214  154.8167 H   0  0  0  0  0  0  0  0  0  0  0  0
  150.9264  140.8089  155.4227 H   0  0  0  0  0  0  0  0  0  0  0  0
  147.5546  142.7880  154.3176 H   0  0  0  0  0  0  0  0  0  0  0  0
  146.1370  140.8991  152.9419 H   0  0  0  0  0  0  0  0  0  0  0  0
  152.6398  142.6283  158.0677 H   0  0  0  0  0  0  0  0  0  0  0  0
  153.6632  143.4344  159.1923 H   0  0  0  0  0  0  0  0  0  0  0  0
  151.7696  141.2709  160.2113 H   0  0  0  0  0  0  0  0  0  0  0  0
  153.2456  140.8678  159.3870 H   0  0  0  0  0  0  0  0  0  0  0  0
  153.8110  140.8548  161.6840 H   0  0  0  0  0  0  0  0  0  0  0  0
  154.5721  142.2604  161.0033 H   0  0  0  0  0  0  0  0  0  0  0  0
  152.0683  142.1632  162.7466 H   0  0  0  0  0  0  0  0  0  0  0  0
  153.6272  142.8032  163.1687 H   0  0  0  0  0  0  0  0  0  0  0  0
  152.2354  144.6697  162.7593 H   0  0  0  0  0  0  0  0  0  0  0  0
  153.3313  144.6296  161.4117 H   0  0  0  0  0  0  0  0  0  0  0  0
  150.7001  144.9853  161.1061 H   0  0  0  0  0  0  0  0  0  0  0  0
  150.6002  143.2729  161.2842 H   0  0  0  0  0  0  0  0  0  0  0  0
  1  2  1  0  0  0  0
  1 20  1  0  0  0  0
  1 21  1  0  0  0  0
  1 22  1  0  0  0  0
  2 18  1  0  0  0  0
  2  3  1  0  0  0  0
  2 13  1  0  0  0  0
  3  4  1  0  0  0  0
  3 23  1  0  0  0  0
  3 24  1  0  0  0  0
  4  5  1  0  0  0  0
  4 25  1  0  0  0  0
  5  6  2  0  0  0  0
  5  7  1  0  0  0  0
  7 26  1  0  0  0  0
  7 27  1  0  0  0  0
  7  8  1  0  0  0  0
  8 12  2  0  0  0  0
  8  9  1  0  0  0  0
  9 10  2  0  0  0  0
  9 28  1  0  0  0  0
 10 11  1  0  0  0  0
 10 29  1  0  0  0  0
 11 12  1  0  0  0  0
 11 19  1  0  0  0  0
 13 14  1  0  0  0  0
 13 30  1  0  0  0  0
 13 31  1  0  0  0  0
 14 15  1  0  0  0  0
 14 32  1  0  0  0  0
 14 33  1  0  0  0  0
 15 16  1  0  0  0  0
 15 34  1  0  0  0  0
 15 35  1  0  0  0  0
 16 17  1  0  0  0  0
 16 36  1  0  0  0  0
 16 37  1  0  0  0  0
 17 18  1  0  0  0  0
 17 38  1  0  0  0  0
 17 39  1  0  0  0  0
 18 40  1  0  0  0  0
 18 41  1  0  0  0  0
M  END
> <s_m_source_file>
AV-unprocessed.smi

> <i_m_source_file_index>
2493

> <i_lp_mmshare_version>
43012

> <i_f3d_flags>
0

> <s_epik_input>
W0NIMl0xW0NIMl1bQ0gyXVtDSDJdW0NIMl1bQ0gyXUMxKFtDSDNdKVtDSDJdW05IXUMoPU8pW0NIMl1jMltjSF1bY0hdbltuSF0y

> <s_epik_cmdline>
J2VwaWtfcHl0aG9uJywgJy1waCcsICc3LjAnLCAnLXRuJywgJzgnLCAnLW1hJywgJzIwMCcsICctbWV0YWxfYmluZGluZycsICctaW1hZScsICc8aW5maWxlLm1hZT4nLCAnLW9tYWUnLCAnPG91dGZpbGUubWFlPic=

> <r_lp_tautomer_probability>
0.5

> <r_epik_Ionization_Penalty>
1.58956e-05

> <r_epik_Ionization_Penalty_Charging>
0

> <r_epik_Ionization_Penalty_Neutral>
1.58956e-05

> <r_epik_State_Penalty>
0.41068

> <r_epik_Charging_Adjusted_Penalty>
0.41068

> <i_epik_Tot_Q>
0

> <i_epik_Tot_abs_Q>
0

> <r_epik_Metal_State_Penalty>
0.410685

> <b_epik_Metal_Only>
0

> <s_lp_Force_Field>
OPLS_2005

> <r_lp_Energy>
20.7964

> <b_lp_Chiralities_Consistent>
1

> <s_lp_Variant>
AV-unprocessed.smi:2493-2

> <Gold.Version>
5.8.1

> <Gold.Id.Protein>
6NUR|6NUR_protein|mol2

> <Gold.PLP.Fitness>
47.3785

> <Gold.PLP.PLP>
-45.7024

> <Gold.PLP.part.hbond>
-2.0000

> <Gold.PLP.part.metal>
0.0000

> <Gold.PLP.part.buried>
-4.5292

> <Gold.PLP.part.nonpolar>
-39.3481

> <Gold.PLP.part.repulsive>
1.0196

> <Gold.PLP.ligand.clash>
0.0000

> <Gold.PLP.ligand.torsion>
0.6700

> <Gold.PLP.Chemscore.Hbond>
0.0000

> <Gold.PLP.Chemscore.CHOScore>
1.0000

> <Gold.PLP.Chemscore.Metal>
0.0000

> <Gold.Chemscore.Hbonds>
donor molecule, donor type, donor heavy atom, donor atom, acceptor molecule, acceptor atom, score
      L1  C    10    29       P1 10175  1.00

> <Gold.PLP.Chemscore.Internal.Correction>
0.0161

> <Gold.Rescore>
     Score         DG    S(hbond)    S(metal)    S(lipo)     H(rot)  DE(clash)    DE(int)     intcor
     15.57     -16.51       0.00        0.00     130.54       1.66       0.17       0.77       ----

> <Gold.Chemscore.Fitness>
15.5709

> <Gold.Chemscore.DG>
-16.5058

> <Gold.Chemscore.ZeroCoef>
-5.4800

> <Gold.Chemscore.Hbond>
0.0000

> <Gold.Chemscore.Metal>
0.0000

> <Gold.Chemscore.Lipo>
130.5414

> <Gold.Chemscore.Internal_Hbond>
0.0000

> <Gold.Chemscore.DEClash>
0.1677

> <Gold.Chemscore.DEInternal>
0.7672

> <Gold.Chemscore.Rot>
1.6592

> <Gold.Chemscore.Internal.Correction>
   9.000000E+99

> <Gold.Chemscore.Hbond.Weighted>
-0.0000

> <Gold.Chemscore.Metal.Weighted>
-0.0000

> <Gold.Chemscore.Lipo.Weighted>
-15.2733

> <Gold.Chemscore.Internal_Hbond.Weighted>
0.0000

> <Gold.Chemscore.DEClash.Weighted>
0.1677

> <Gold.Chemscore.DEInternal.Weighted>
0.7672

> <Gold.Chemscore.Rot.Weighted>
4.2475

> <Gold.Chemscore.Internal.Correction.Weighted>
   9.000000E+99

> <Gold.Protein.RotatedTorsions>
[ 6907 6896 6895 6894 ] final  170.28 input  -60.11 | X-H torsion
[ 7974 7965 7964 7962 ] final  178.62 input  175.53 | X-H torsion
[ 8008 7997 7996 7995 ] final -145.43 input   59.86 | X-H torsion
[ 10167 10162 10161 10158 ] final  162.36 input  -65.29 | X-H torsion
[ 10718 10713 10712 10709 ] final   90.18 input   66.30 | X-H torsion
[ 10763 10752 10751 10750 ] final -152.16 input  -60.55 | X-H torsion
[ 11005 11000 10999 10996 ] final  -39.10 input  -57.11 | X-H torsion

> <Gold.Protein.ActiveResidues>
 VAL166  LYS551  ARG553  GLY616  TRP617  ASP618  TYR619  PRO620  LYS621  CYS622 
 ASP623  PHE694  ASN695  SER759  ASP760  ASP761  ALA762  ILE779  LEU786  VAL792 
 PHE793  MET794  SER795  GLU796  ALA797  LYS798  CYS799  TRP800  GLU811  SER814 

> <Gold.Protein.RotatedAtoms>
  151.8187  133.3391  159.3577 H   0  0  0  0  0  0  0  0  0  0  0  0  # atno 6907 bound_to 6896
  150.7302  134.5595  159.5844 H   0  0  0  0  0  0  0  0  0  0  0  0  # atno 6908 bound_to 6896
  152.3022  134.7598  160.0406 H   0  0  0  0  0  0  0  0  0  0  0  0  # atno 6909 bound_to 6896
  144.7154  140.0424  143.6437 H   0  0  0  0  0  0  0  0  0  0  0  0  # atno 7974 bound_to 7965
  155.5430  140.0610  157.2866 H   0  0  0  0  0  0  0  0  0  0  0  0  # atno 8008 bound_to 7997
  154.4445  140.1916  156.0654 H   0  0  0  0  0  0  0  0  0  0  0  0  # atno 8009 bound_to 7997
  156.0571  140.3277  155.7421 H   0  0  0  0  0  0  0  0  0  0  0  0  # atno 8010 bound_to 7997
  139.4860  144.4445  151.8909 H   0  0  0  0  0  0  0  0  0  0  0  0  # atno 10167 bound_to 10162
  157.6958  131.0361  150.3538 H   0  0  0  0  0  0  0  0  0  0  0  0  # atno 10718 bound_to 10713
  154.8012  135.3242  154.7546 H   0  0  0  0  0  0  0  0  0  0  0  0  # atno 10763 bound_to 10752
  153.8214  135.6887  153.4831 H   0  0  0  0  0  0  0  0  0  0  0  0  # atno 10764 bound_to 10752
  153.1729  135.4616  154.9870 H   0  0  0  0  0  0  0  0  0  0  0  0  # atno 10765 bound_to 10752
  141.0077  133.6923  156.2142 H   0  0  0  0  0  0  0  0  0  0  0  0  # atno 11005 bound_to 11000
  146.0012  139.3093  143.0926 LP  0  0  0  0  0  0  0  0  0  0  0  0  # atno 17320 bound_to 7965
  145.8791  140.9374  143.0611 LP  0  0  0  0  0  0  0  0  0  0  0  0  # atno 17321 bound_to 7965
  140.3899  144.2629  150.5900 LP  0  0  0  0  0  0  0  0  0  0  0  0  # atno 17342 bound_to 10162
  140.5156  143.2279  151.8468 LP  0  0  0  0  0  0  0  0  0  0  0  0  # atno 17343 bound_to 10162
  156.3983  130.3911  149.6978 LP  0  0  0  0  0  0  0  0  0  0  0  0  # atno 17370 bound_to 10713
  156.4304  130.7812  151.2832 LP  0  0  0  0  0  0  0  0  0  0  0  0  # atno 17371 bound_to 10713
  140.6785  134.4792  157.5588 LP  0  0  0  0  0  0  0  0  0  0  0  0  # atno 17394 bound_to 11000
  139.9072  134.8422  156.1660 LP  0  0  0  0  0  0  0  0  0  0  0  0  # atno 17395 bound_to 11000

$$$$
