#       Name:                AV-unprocessed.smi:175
#       Creating user name   scv26
#       Creation time:       Thu Mar 26 19:20:52 2020


#       File generated by GOLD software.
#

@<TRIPOS>MOLECULE
AV-unprocessed.smi:175
    57    60     1
SMALL
NO_CHARGES


@<TRIPOS>ATOM
      1 ****        -2.1207   2.4534   1.4125 C.3            1 S1                 0.0000
      2 ****        -3.1589   1.3272   1.2844 C.3            1 S1                 0.0000
      3 ****        -4.4157   1.7459   1.7964 O.3            1 S1                 0.0000
      4 ****        -5.3861   0.8428   1.2992 C.3            1 S1                 0.0000
      5 ****        -4.9879   0.6954  -0.1643 C.3            1 S1                 0.0000
      6 ****        -3.4599   0.8013  -0.1447 C.3            1 S1                 0.0000
      7 ****        -3.0705   1.7325  -1.1413 O.3            1 S1                 0.0000
      8 ****        -2.7776  -0.5542  -0.4547 C.3            1 S1                 0.0000
      9 ****        -1.3282  -0.5178  -0.3260 N.pl3          1 S1                 0.0000
     10 ****        -0.4297  -0.0391  -1.2538 C.2            1 S1                 0.0000
     11 ****         0.8248  -0.1075  -0.9019 N.2            1 S1                 0.0000
     12 ****         0.7896  -0.6855   0.3608 C.ar           1 S1                 0.0000
     13 ****         1.7817  -1.0459   1.3162 C.ar           1 S1                 0.0000
     14 ****         3.1108  -0.8678   1.1471 N.3            1 S1                 0.0000
     15 ****         3.5226   0.5338   1.0502 C.3            1 S1                 0.0000
     16 ****         4.2744   0.5802  -0.2651 C.2            1 S1                 0.0000
     17 ****         4.7528   1.6113  -0.7347 O.2            1 S1                 0.0000
     18 ****         4.3178  -0.6372  -0.8077 N.am           1 S1                 0.0000
     19 ****         4.9368  -1.0093  -2.0773 C.3            1 S1                 0.0000
     20 ****         4.0157  -0.7315  -3.2789 C.3            1 S1                 0.0000
     21 ****         4.6309  -1.1200  -4.3949 F              1 S1                 0.0000
     22 ****         2.8790  -1.4179  -3.1602 F              1 S1                 0.0000
     23 ****         3.7341   0.5672  -3.3814 F              1 S1                 0.0000
     24 ****         3.6841  -1.6340   0.0387 C.3            1 S1                 0.0000
     25 ****         1.3731  -1.6094   2.4785 N.ar           1 S1                 0.0000
     26 ****         0.0702  -1.8123   2.6981 C.ar           1 S1                 0.0000
     27 ****        -0.9654  -1.5294   1.9041 N.ar           1 S1                 0.0000
     28 ****        -0.5553  -0.9583   0.7350 C.ar           1 S1                 0.0000
     29 ****        -1.1566   2.1483   1.0051 H              1 S1                 0.0000
     30 ****        -1.9680   2.7184   2.4586 H              1 S1                 0.0000
     31 ****        -2.4403   3.3548   0.8894 H              1 S1                 0.0000
     32 ****        -2.8444   0.4957   1.9159 H              1 S1                 0.0000
     33 ****        -5.3084  -0.1099   1.8259 H              1 S1                 0.0000
     34 ****        -6.3983   1.2270   1.4252 H              1 S1                 0.0000
     35 ****        -5.3550  -0.2343  -0.6004 H              1 S1                 0.0000
     36 ****        -5.4306   1.5164  -0.7309 H              1 S1                 0.0000
     37 ****        -3.3698   1.4173  -1.9803 H              1 S1                 0.0000
     38 ****        -3.1609  -1.3265   0.2134 H              1 S1                 0.0000
     39 ****        -3.0221  -0.8810  -1.4665 H              1 S1                 0.0000
     40 ****        -0.7362   0.3730  -2.2042 H              1 S1                 0.0000
     41 ****         2.6909   1.2410   1.0432 H              1 S1                 0.0000
     42 ****         4.1882   0.7883   1.8752 H              1 S1                 0.0000
     43 ****         5.8776  -0.4696  -2.1953 H              1 S1                 0.0000
     44 ****         5.1956  -2.0686  -2.0495 H              1 S1                 0.0000
     45 ****         4.4297  -2.3314   0.4221 H              1 S1                 0.0000
     46 ****         2.9453  -2.2058  -0.5259 H              1 S1                 0.0000
     47 ****        -0.1786  -2.2653   3.6465 H              1 S1                 0.0000
     48 ****        -4.6204   2.6746   1.4873 LP             1 S1                 0.0000
     49 ****        -4.4046   1.7221   2.7960 LP             1 S1                 0.0000
     50 ****        -2.0744   1.8203  -1.1499 LP             1 S1                 0.0000
     51 ****        -3.4820   2.6234  -0.9495 LP             1 S1                 0.0000
     52 ****         1.6266   0.1879  -1.4213 LP             1 S1                 0.0000
     53 ****         3.4888  -1.2358   1.9966 LP             1 S1                 0.0000
     54 ****         4.6548   2.4768  -0.2436 LP             1 S1                 0.0000
     55 ****         5.2398   1.5841  -1.6077 LP             1 S1                 0.0000
     56 ****         2.0448  -1.8731   3.1707 LP             1 S1                 0.0000
     57 ****        -1.9205  -1.7129   2.1369 LP             1 S1                 0.0000
@<TRIPOS>BOND
    1    1    2 1     
    2    1   29 1     
    3    1   30 1     
    4    1   31 1     
    5    2    6 1     
    6    2    3 1     
    7    2   32 1     
    8    3    4 1     
    9    4    5 1     
   10    4   33 1     
   11    4   34 1     
   12    5    6 1     
   13    5   35 1     
   14    5   36 1     
   15    6    7 1     
   16    6    8 1     
   17    7   37 1     
   18    8    9 1     
   19    8   38 1     
   20    8   39 1     
   21    9   28 1     
   22    9   10 1     
   23   10   11 2     
   24   10   40 1     
   25   11   12 1     
   26   12   28 ar    
   27   12   13 ar    
   28   13   14 1     
   29   13   25 ar    
   30   14   24 1     
   31   14   15 1     
   32   15   16 1     
   33   15   41 1     
   34   15   42 1     
   35   16   17 2     
   36   16   18 am    
   37   18   19 1     
   38   18   24 1     
   39   19   20 1     
   40   19   43 1     
   41   19   44 1     
   42   20   21 1     
   43   20   22 1     
   44   20   23 1     
   45   24   45 1     
   46   24   46 1     
   47   25   26 ar    
   48   26   27 ar    
   49   26   47 1     
   50   27   28 ar    
   51    3   48 1     
   52    3   49 1     
   53    7   50 1     
   54    7   51 1     
   55   11   52 1     
   56   14   53 1     
   57   17   54 1     
   58   17   55 1     
   59   25   56 1     
   60   27   57 1     
@<TRIPOS>SUBSTRUCTURE
      1 S1             1
@<TRIPOS>SET
LONE_PAIRS      STATIC     ATOMS    <user>   **** ""
10 48 49 50 51 52 53 54 55 56 57
DONOR_HYDROGENS      STATIC     ATOMS    <user>   **** ""
1 37
ATOM$BLUE        STATIC     ATOMS    COLORGROUP SYSTEM
10 48 49 50 51 52 53 54 55 56 57
ATOM$RED        STATIC     ATOMS    COLORGROUP SYSTEM
1 37
