AV-unprocessed.smi:812|AV-procd|sdf|3815|dock6
  -GOLD-   22720 1253D 1   1.00000     0.00000
 Structure written by MMmdl.
 38 40  0  0  0  0  0  0  0  0  1 V2000
  154.9835  139.6518  160.7973 C   0  0  0  0  0  0  0  0  0  0  0  0
  153.9926  140.6804  160.4290 N   0  0  0  0  0  0  0  0  0  0  0  0
  153.3427  140.5536  159.2293 C   0  0  0  0  0  0  0  0  0  0  0  0
  153.5187  139.6390  158.4230 O   0  0  0  0  0  0  0  0  0  0  0  0
  152.3847  141.6286  158.9589 C   0  0  0  0  0  0  0  0  0  0  0  0
  152.1603  142.6518  159.8177 C   0  0  0  0  0  0  0  0  0  0  0  0
  151.2068  143.5322  159.3188 N   0  0  0  0  0  0  0  0  0  0  0  0
  150.8996  142.9737  158.1470 C   0  0  0  0  0  0  0  0  0  0  0  0
  151.5600  141.8344  157.8550 N   0  0  0  0  0  0  0  0  0  0  0  0
  151.4134  141.0332  156.6497 C   0  0  0  0  0  0  0  0  0  0  0  0
  150.1539  140.1444  156.6739 C   0  0  2  0  0  0  0  0  0  0  0  0
  150.4332  138.8955  156.0701 O   0  0  0  0  0  0  0  0  0  0  0  0
  148.9724  140.8481  156.0249 C   0  0  0  0  0  0  0  0  0  0  0  0
  147.9141  141.3287  156.8255 C   0  0  0  0  0  0  0  0  0  0  0  0
  146.8205  141.9909  156.2340 C   0  0  0  0  0  0  0  0  0  0  0  0
  146.7807  142.1789  154.8389 C   0  0  0  0  0  0  0  0  0  0  0  0
  145.7298  142.8160  154.2707 F   0  0  0  0  0  0  0  0  0  0  0  0
  147.8354  141.7054  154.0354 C   0  0  0  0  0  0  0  0  0  0  0  0
  148.9290  141.0430  154.6263 C   0  0  0  0  0  0  0  0  0  0  0  0
  152.8852  142.6880  161.0346 N   0  0  0  0  0  0  0  0  0  0  0  0
  152.6165  143.8097  161.9392 C   0  0  0  0  0  0  0  0  0  0  0  0
  153.7999  141.7082  161.3376 C   0  0  0  0  0  0  0  0  0  0  0  0
  154.4347  141.7447  162.3953 O   0  0  0  0  0  0  0  0  0  0  0  0
  155.0944  138.8415  160.0762 H   0  0  0  0  0  0  0  0  0  0  0  0
  154.7141  139.1844  161.7459 H   0  0  0  0  0  0  0  0  0  0  0  0
  155.9708  140.1018  160.9143 H   0  0  0  0  0  0  0  0  0  0  0  0
  150.1733  143.4092  157.4763 H   0  0  0  0  0  0  0  0  0  0  0  0
  151.3938  141.7032  155.7898 H   0  0  0  0  0  0  0  0  0  0  0  0
  152.3066  140.4173  156.5337 H   0  0  0  0  0  0  0  0  0  0  0  0
  149.8910  139.9299  157.7102 H   0  0  0  0  0  0  0  0  0  0  0  0
  150.9359  139.0488  155.2845 H   0  0  0  0  0  0  0  0  0  0  0  0
  147.9379  141.1930  157.8971 H   0  0  0  0  0  0  0  0  0  0  0  0
  146.0128  142.3560  156.8513 H   0  0  0  0  0  0  0  0  0  0  0  0
  147.8070  141.8514  152.9657 H   0  0  0  0  0  0  0  0  0  0  0  0
  149.7355  140.6878  154.0016 H   0  0  0  0  0  0  0  0  0  0  0  0
  153.2005  143.7972  162.8597 H   0  0  0  0  0  0  0  0  0  0  0  0
  151.5637  143.8128  162.2238 H   0  0  0  0  0  0  0  0  0  0  0  0
  152.8283  144.7527  161.4343 H   0  0  0  0  0  0  0  0  0  0  0  0
  1  2  1  0  0  0  0
  1 24  1  0  0  0  0
  1 25  1  0  0  0  0
  1 26  1  0  0  0  0
  2 22  1  0  0  0  0
  2  3  1  0  0  0  0
  3  4  2  0  0  0  0
  3  5  1  0  0  0  0
  5  9  1  0  0  0  0
  5  6  2  0  0  0  0
  6  7  1  0  0  0  0
  6 20  1  0  0  0  0
  7  8  2  0  0  0  0
  8  9  1  0  0  0  0
  8 27  1  0  0  0  0
  9 10  1  0  0  0  0
 10 11  1  0  0  0  0
 10 28  1  0  0  0  0
 10 29  1  0  0  0  0
 11 12  1  0  0  0  0
 11 13  1  0  0  0  0
 11 30  1  0  0  0  0
 12 31  1  0  0  0  0
 13 19  1  0  0  0  0
 13 14  2  0  0  0  0
 14 15  1  0  0  0  0
 14 32  1  0  0  0  0
 15 16  2  0  0  0  0
 15 33  1  0  0  0  0
 16 17  1  0  0  0  0
 16 18  1  0  0  0  0
 18 19  2  0  0  0  0
 18 34  1  0  0  0  0
 19 35  1  0  0  0  0
 20 21  1  0  0  0  0
 20 22  1  0  0  0  0
 21 36  1  0  0  0  0
 21 37  1  0  0  0  0
 21 38  1  0  0  0  0
 22 23  2  0  0  0  0
M  END
> <s_m_source_file>
AV-unprocessed.smi

> <i_m_source_file_index>
812

> <i_lp_mmshare_version>
43012

> <i_f3d_flags>
0

> <s_epik_input>
Tz1jMW4oW0NIM10pYyg9TyluKFtDSDNdKWMoYzEyKW5bY0hdbjJbQ0gyXVtDQEhdKFtPSF0pYzNbY0hdW2NIXWMoRilbY0hdW2NIXTM=

> <s_epik_cmdline>
J2VwaWtfcHl0aG9uJywgJy1waCcsICc3LjAnLCAnLXRuJywgJzgnLCAnLW1hJywgJzIwMCcsICctbWV0YWxfYmluZGluZycsICctaW1hZScsICc8aW5maWxlLm1hZT4nLCAnLW9tYWUnLCAnPG91dGZpbGUubWFlPic=

> <r_lp_tautomer_probability>
1

> <r_epik_Ionization_Penalty>
1.45649e-06

> <r_epik_Ionization_Penalty_Charging>
3.74189e-09

> <r_epik_Ionization_Penalty_Neutral>
1.45275e-06

> <r_epik_State_Penalty>
-0

> <r_epik_Charging_Adjusted_Penalty>
3.74189e-09

> <i_epik_Tot_Q>
0

> <i_epik_Tot_abs_Q>
0

> <r_epik_Metal_State_Penalty>
-0

> <b_epik_Metal_Only>
0

> <s_lp_Force_Field>
OPLS_2005

> <r_lp_Energy>
34.9814

> <b_lp_Chiralities_Consistent>
1

> <s_lp_Variant>
AV-unprocessed.smi:812-1

> <Gold.Version>
5.8.1

> <Gold.Id.Protein>
6NUR|6NUR_protein|mol2

> <Gold.PLP.Fitness>
54.0062

> <Gold.PLP.PLP>
-49.8227

> <Gold.PLP.part.hbond>
-2.0000

> <Gold.PLP.part.metal>
0.0000

> <Gold.PLP.part.buried>
-5.7453

> <Gold.PLP.part.nonpolar>
-40.3969

> <Gold.PLP.part.repulsive>
0.0532

> <Gold.PLP.ligand.clash>
0.0000

> <Gold.PLP.ligand.torsion>
0.9207

> <Gold.PLP.Chemscore.Hbond>
1.0000

> <Gold.PLP.Chemscore.CHOScore>
1.0000

> <Gold.PLP.Chemscore.Metal>
0.0000

> <Gold.Chemscore.Hbonds>
donor molecule, donor type, donor heavy atom, donor atom, acceptor molecule, acceptor atom, score
      P1  H  7997  8009       L1     4  1.00
      L1  C     8    27       P1  8028  0.90

> <Gold.PLP.Chemscore.Internal.Correction>
0.0249

> <Gold.Rescore>
     Score         DG    S(hbond)    S(metal)    S(lipo)     H(rot)  DE(clash)    DE(int)     intcor
     10.58     -11.42       0.97        0.00      71.96       2.24       0.12       0.72       ----

> <Gold.Chemscore.Fitness>
10.5825

> <Gold.Chemscore.DG>
-11.4215

> <Gold.Chemscore.ZeroCoef>
-5.4800

> <Gold.Chemscore.Hbond>
0.9732

> <Gold.Chemscore.Metal>
0.0000

> <Gold.Chemscore.Lipo>
71.9636

> <Gold.Chemscore.Internal_Hbond>
0.0000

> <Gold.Chemscore.DEClash>
0.1161

> <Gold.Chemscore.DEInternal>
0.7229

> <Gold.Chemscore.Rot>
2.2377

> <Gold.Chemscore.Internal.Correction>
   9.000000E+99

> <Gold.Chemscore.Hbonds>
donor molecule, donor type, donor heavy atom, donor atom, acceptor molecule, acceptor atom, score
      P1  H  7997  8009       L1     4  0.90

> <Gold.Chemscore.Hbond.Weighted>
-3.2504

> <Gold.Chemscore.Metal.Weighted>
-0.0000

> <Gold.Chemscore.Lipo.Weighted>
-8.4197

> <Gold.Chemscore.Internal_Hbond.Weighted>
0.0000

> <Gold.Chemscore.DEClash.Weighted>
0.1161

> <Gold.Chemscore.DEInternal.Weighted>
0.7229

> <Gold.Chemscore.Rot.Weighted>
5.7286

> <Gold.Chemscore.Internal.Correction.Weighted>
   9.000000E+99

> <Gold.Protein.RotatedTorsions>
[ 6907 6896 6895 6894 ] final -110.23 input  -60.11 | X-H torsion
[ 7974 7965 7964 7962 ] final    7.49 input  175.53 | X-H torsion
[ 8008 7997 7996 7995 ] final  153.21 input   59.86 | X-H torsion
[ 10167 10162 10161 10158 ] final  -33.75 input  -65.29 | X-H torsion
[ 10718 10713 10712 10709 ] final  -49.92 input   66.30 | X-H torsion
[ 10763 10752 10751 10750 ] final  129.78 input  -60.55 | X-H torsion
[ 11005 11000 10999 10996 ] final  -46.87 input  -57.11 | X-H torsion

> <Gold.Protein.ActiveResidues>
 VAL166  LYS551  ARG553  GLY616  TRP617  ASP618  TYR619  PRO620  LYS621  CYS622 
 ASP623  PHE694  ASN695  SER759  ASP760  ASP761  ALA762  ILE779  LEU786  VAL792 
 PHE793  MET794  SER795  GLU796  ALA797  LYS798  CYS799  TRP800  GLU811  SER814 

> <Gold.Protein.RotatedAtoms>
  150.7612  133.9412  159.3456 H   0  0  0  0  0  0  0  0  0  0  0  0  # atno 6907 bound_to 6896
  151.7320  135.0871  160.0311 H   0  0  0  0  0  0  0  0  0  0  0  0  # atno 6908 bound_to 6896
  152.3583  133.6227  159.6032 H   0  0  0  0  0  0  0  0  0  0  0  0  # atno 6909 bound_to 6896
  146.2426  140.0075  142.8410 H   0  0  0  0  0  0  0  0  0  0  0  0  # atno 7974 bound_to 7965
  156.2592  140.2000  156.6455 H   0  0  0  0  0  0  0  0  0  0  0  0  # atno 8008 bound_to 7997
  154.6577  140.0564  157.0051 H   0  0  0  0  0  0  0  0  0  0  0  0  # atno 8009 bound_to 7997
  155.1323  140.3235  155.4474 H   0  0  0  0  0  0  0  0  0  0  0  0  # atno 8010 bound_to 7997
  140.7198  143.3597  151.1987 H   0  0  0  0  0  0  0  0  0  0  0  0  # atno 10167 bound_to 10162
  156.1848  130.4151  149.9455 H   0  0  0  0  0  0  0  0  0  0  0  0  # atno 10718 bound_to 10713
  153.7474  135.3215  155.3315 H   0  0  0  0  0  0  0  0  0  0  0  0  # atno 10763 bound_to 10752
  154.8275  135.4559  154.0966 H   0  0  0  0  0  0  0  0  0  0  0  0  # atno 10764 bound_to 10752
  153.2159  135.6942  153.8141 H   0  0  0  0  0  0  0  0  0  0  0  0  # atno 10765 bound_to 10752
  141.0606  133.6710  156.3216 H   0  0  0  0  0  0  0  0  0  0  0  0  # atno 11005 bound_to 11000
  145.1358  140.9543  143.4518 LP  0  0  0  0  0  0  0  0  0  0  0  0  # atno 17320 bound_to 7965
  145.0343  139.3313  143.6008 LP  0  0  0  0  0  0  0  0  0  0  0  0  # atno 17321 bound_to 7965
  139.7146  143.9321  152.2961 LP  0  0  0  0  0  0  0  0  0  0  0  0  # atno 17342 bound_to 10162
  139.9057  144.6886  150.8616 LP  0  0  0  0  0  0  0  0  0  0  0  0  # atno 17343 bound_to 10162
  156.7214  130.9008  151.3618 LP  0  0  0  0  0  0  0  0  0  0  0  0  # atno 17370 bound_to 10713
  157.6892  130.9216  150.0467 LP  0  0  0  0  0  0  0  0  0  0  0  0  # atno 17371 bound_to 10713
  140.5877  134.5682  157.5493 LP  0  0  0  0  0  0  0  0  0  0  0  0  # atno 17394 bound_to 11000
  139.9429  134.7755  156.0634 LP  0  0  0  0  0  0  0  0  0  0  0  0  # atno 17395 bound_to 11000

$$$$
