#       Name:                AV-unprocessed.smi:2605
#       Creating user name   scv26
#       Creation time:       Fri Mar 27 14:20:41 2020


#       File generated by GOLD software.
#

@<TRIPOS>MOLECULE
AV-unprocessed.smi:2605
    28    29     1
SMALL
NO_CHARGES


@<TRIPOS>ATOM
      1 ****        -3.3822   1.6189   0.0950 C.ar           1 S1                 0.0000
      2 ****        -1.9730   1.6218   0.0696 C.ar           1 S1                 0.0000
      3 ****        -1.2986   0.3928  -0.0856 C.ar           1 S1                 0.0000
      4 ****         0.2210   0.3492  -0.1101 C.3            1 S1                 0.0000
      5 ****         0.7865  -0.2320   1.2058 C.3            1 S1                 0.0000
      6 ****         2.2637  -0.2292   1.1807 N.4            1 S1                 1.0000
      7 ****         2.7774  -0.9492  -0.0013 C.3            1 S1                 0.0000
      8 ****         2.1808  -0.3455  -1.2856 C.3            1 S1                 0.0000
      9 ****         0.7245  -0.4314  -1.2403 N.3            1 S1                 0.0000
     10 ****        -2.0690  -0.7848  -0.2019 C.ar           1 S1                 0.0000
     11 ****        -3.4736  -0.6778  -0.1644 C.ar           1 S1                 0.0000
     12 ****        -4.1236   0.4964  -0.0189 N.ar           1 S1                 0.0000
     13 ****        -3.9281   2.5436   0.2105 H              1 S1                 0.0000
     14 ****        -1.4281   2.5495   0.1659 H              1 S1                 0.0000
     15 ****         0.5757   1.3746  -0.2280 H              1 S1                 0.0000
     16 ****         0.4513   0.3598   2.0581 H              1 S1                 0.0000
     17 ****         0.4309  -1.2513   1.3656 H              1 S1                 0.0000
     18 ****         2.5858   0.7272   1.1423 H              1 S1                 0.0000
     19 ****         3.8651  -0.8777  -0.0175 H              1 S1                 0.0000
     20 ****         2.5264  -2.0081   0.0782 H              1 S1                 0.0000
     21 ****         2.4904   0.6933  -1.4096 H              1 S1                 0.0000
     22 ****         2.5395  -0.8924  -2.1579 H              1 S1                 0.0000
     23 ****         0.3308  -0.0735  -2.0997 H              1 S1                 0.0000
     24 ****        -1.5991  -1.7504  -0.3184 H              1 S1                 0.0000
     25 ****        -4.0910  -1.5594  -0.2527 H              1 S1                 0.0000
     26 ****         2.6159  -0.6649   2.0210 H              1 S1                 0.0000
     27 ****         0.4574  -1.3887  -1.1304 LP             1 S1                 0.0000
     28 ****        -5.1226   0.5336   0.0038 LP             1 S1                 0.0000
@<TRIPOS>BOND
    1    1   12 ar    
    2    1    2 ar    
    3    1   13 1     
    4    2    3 ar    
    5    2   14 1     
    6    3    4 1     
    7    3   10 ar    
    8    4    9 1     
    9    4    5 1     
   10    4   15 1     
   11    5    6 1     
   12    5   16 1     
   13    5   17 1     
   14    6    7 1     
   15    6   18 1     
   16    6   26 1     
   17    7    8 1     
   18    7   19 1     
   19    7   20 1     
   20    8    9 1     
   21    8   21 1     
   22    8   22 1     
   23    9   23 1     
   24   10   11 ar    
   25   10   24 1     
   26   11   12 ar    
   27   11   25 1     
   28    9   27 1     
   29   12   28 1     
@<TRIPOS>SUBSTRUCTURE
      1 S1             1
@<TRIPOS>SET
LONE_PAIRS      STATIC     ATOMS    <user>   **** ""
2 27 28
DONOR_HYDROGENS      STATIC     ATOMS    <user>   **** ""
3 18 26 23
ATOM$BLUE        STATIC     ATOMS    COLORGROUP SYSTEM
2 27 28
ATOM$RED        STATIC     ATOMS    COLORGROUP SYSTEM
3 18 26 23
