#       Name:                AV-unprocessed.smi:3330
#       Creating user name   scv26
#       Creation time:       Fri Mar 27 19:17:40 2020


#       File generated by GOLD software.
#

@<TRIPOS>MOLECULE
AV-unprocessed.smi:3330
    44    45     1
SMALL
NO_CHARGES


@<TRIPOS>ATOM
      1 ****        -1.9561  -0.7212  -1.6582 C.3            1 S1                 0.0000
      2 ****        -1.4663  -0.0575  -0.3604 C.3            1 S1                 0.0000
      3 ****         0.0134  -0.0221  -0.3881 N.4            1 S1                 1.0000
      4 ****         0.6153   1.3224  -0.2657 C.3            1 S1                 0.0000
      5 ****         2.1522   1.2712  -0.3428 C.3            1 S1                 0.0000
      6 ****         2.6309   0.5767  -1.5452 N.am           1 S1                 0.0000
      7 ****         3.0742  -0.6846  -1.5673 C.2            1 S1                 0.0000
      8 ****         3.1592  -1.4709  -0.6241 O.2            1 S1                 0.0000
      9 ****         3.4339  -1.0163  -2.9963 C.3            1 S1                 0.0000
     10 ****         3.1075   0.2100  -3.6877 N.pl3          1 S1                -1.0000
     11 ****         2.6460   1.1045  -2.7839 C.2            1 S1                 0.0000
     12 ****         2.2663   2.2526  -3.0107 O.2            1 S1                 0.0000
     13 ****        -1.9686  -0.7870   0.9153 C.3            1 S1                 0.0000
     14 ****        -3.5047  -0.8747   1.0018 C.3            1 S1                 0.0000
     15 ****        -1.4402  -0.1718   2.1278 N.pl3          1 S1                 0.0000
     16 ****        -0.5829  -0.7211   3.0593 C.2            1 S1                 0.0000
     17 ****        -0.3592   0.2254   4.0176 C.2            1 S1                 0.0000
     18 ****        -1.1342   1.3364   3.5832 C.2            1 S1                 0.0000
     19 ****        -1.7784   1.0967   2.4528 N.2            1 S1                 0.0000
     20 ****        -3.0402  -0.6697  -1.7556 H              1 S1                 0.0000
     21 ****        -1.6635  -1.7708  -1.7043 H              1 S1                 0.0000
     22 ****        -1.5361  -0.2222  -2.5324 H              1 S1                 0.0000
     23 ****        -1.8481   0.9652  -0.3552 H              1 S1                 0.0000
     24 ****         0.3672  -0.6055   0.3563 H              1 S1                 0.0000
     25 ****         0.2265   1.9559  -1.0640 H              1 S1                 0.0000
     26 ****         0.3112   1.7773   0.6768 H              1 S1                 0.0000
     27 ****         2.5562   2.2845  -0.3221 H              1 S1                 0.0000
     28 ****         2.5431   0.7850   0.5526 H              1 S1                 0.0000
     29 ****         4.4898  -1.2814  -3.0621 H              1 S1                 0.0000
     30 ****         2.8491  -1.8713  -3.3371 H              1 S1                 0.0000
     31 ****        -1.5885  -1.8097   0.8905 H              1 S1                 0.0000
     32 ****        -3.9185  -1.4941   0.2066 H              1 S1                 0.0000
     33 ****        -3.9673   0.1104   0.9327 H              1 S1                 0.0000
     34 ****        -3.8176  -1.3217   1.9462 H              1 S1                 0.0000
     35 ****        -0.2062  -1.7291   2.9647 H              1 S1                 0.0000
     36 ****         0.2615   0.1374   4.8971 H              1 S1                 0.0000
     37 ****        -1.2464   2.3030   4.0518 H              1 S1                 0.0000
     38 ****         0.3180  -0.4119  -1.2688 H              1 S1                 0.0000
     39 ****         2.8768  -1.1855   0.2917 LP             1 S1                 0.0000
     40 ****         3.5107  -2.3951  -0.7737 LP             1 S1                 0.0000
     41 ****         3.2063   0.3705  -4.6698 LP             1 S1                 0.0000
     42 ****         1.9327   2.8259  -2.2624 LP             1 S1                 0.0000
     43 ****         2.2914   2.6125  -3.9434 LP             1 S1                 0.0000
     44 ****        -2.3815   1.7160   1.9502 LP             1 S1                 0.0000
@<TRIPOS>BOND
    1    1    2 1     
    2    1   20 1     
    3    1   21 1     
    4    1   22 1     
    5    2    3 1     
    6    2   13 1     
    7    2   23 1     
    8    3    4 1     
    9    3   24 1     
   10    3   38 1     
   11    4    5 1     
   12    4   25 1     
   13    4   26 1     
   14    5    6 1     
   15    5   27 1     
   16    5   28 1     
   17    6   11 am    
   18    6    7 am    
   19    7    8 2     
   20    7    9 1     
   21    9   10 1     
   22    9   29 1     
   23    9   30 1     
   24   10   11 1     
   25   11   12 2     
   26   13   14 1     
   27   13   15 1     
   28   13   31 1     
   29   14   32 1     
   30   14   33 1     
   31   14   34 1     
   32   15   19 1     
   33   15   16 1     
   34   16   17 2     
   35   16   35 1     
   36   17   18 1     
   37   17   36 1     
   38   18   19 2     
   39   18   37 1     
   40    8   39 1     
   41    8   40 1     
   42   10   41 1     
   43   12   42 1     
   44   12   43 1     
   45   19   44 1     
@<TRIPOS>SUBSTRUCTURE
      1 S1             1
@<TRIPOS>SET
LONE_PAIRS      STATIC     ATOMS    <user>   **** ""
6 39 40 41 42 43 44
DONOR_HYDROGENS      STATIC     ATOMS    <user>   **** ""
2 24 38
ATOM$BLUE        STATIC     ATOMS    COLORGROUP SYSTEM
6 39 40 41 42 43 44
ATOM$RED        STATIC     ATOMS    COLORGROUP SYSTEM
2 24 38
