AV-unprocessed.smi:662|AV-procd|sdf|3246|dock9
  -GOLD-   22720 0193D 1   1.00000     0.00000
 Structure written by MMmdl.
 33 34  0  0  0  0  0  0  0  0  1 V2000
  143.5937  135.9040  152.1129 O   0  0  0  0  0  0  0  0  0  0  0  0
  144.7477  135.6122  151.7969 C   0  0  0  0  0  0  0  0  0  0  0  0
  145.8151  136.3563  152.1278 N   0  0  0  0  0  0  0  0  0  0  0  0
  145.7820  137.5892  152.9103 C   0  0  0  0  0  0  0  0  0  0  0  0
  146.5214  138.7498  152.2165 C   0  0  0  0  0  0  0  0  0  0  0  0
  147.2036  139.6898  153.1579 C   0  0  0  0  0  0  0  0  0  0  0  0
  148.2680  139.3503  153.8891 N   0  0  0  0  0  0  0  0  0  0  0  0
  148.7613  140.4125  154.6546 C   0  0  0  0  0  0  0  0  0  0  0  0
  149.9622  140.2050  155.5317 C   0  0  0  0  0  0  0  0  0  0  0  0
  150.9293  139.5472  154.8918 F   0  0  0  0  0  0  0  0  0  0  0  0
  150.4691  141.3690  155.9367 F   0  0  0  0  0  0  0  0  0  0  0  0
  149.6476  139.4989  156.6173 F   0  0  0  0  0  0  0  0  0  0  0  0
  148.0425  141.5718  154.4903 C   0  0  0  0  0  0  0  0  0  0  0  0
  146.7270  141.3714  153.3665 S   0  0  0  0  0  0  0  0  0  0  0  0
  145.0302  134.3388  150.9921 C   0  0  1  0  0  0  0  0  0  0  0  0
  144.6326  133.0575  151.7445 C   0  0  0  0  0  0  0  0  0  0  0  0
  143.7833  132.2861  150.7419 C   0  0  0  0  0  0  0  0  0  0  0  0
  144.1351  132.9196  149.3978 C   0  0  0  0  0  0  0  0  0  0  0  0
  144.2968  134.3272  149.7202 N   0  0  0  0  0  0  0  0  0  0  0  0
  146.7232  136.0373  151.8225 H   0  0  0  0  0  0  0  0  0  0  0  0
  144.7375  137.8634  153.0580 H   0  0  0  0  0  0  0  0  0  0  0  0
  146.1946  137.4254  153.9074 H   0  0  0  0  0  0  0  0  0  0  0  0
  147.2672  138.3514  151.5279 H   0  0  0  0  0  0  0  0  0  0  0  0
  145.8185  139.3195  151.6078 H   0  0  0  0  0  0  0  0  0  0  0  0
  148.2099  142.5299  154.9589 H   0  0  0  0  0  0  0  0  0  0  0  0
  146.0957  134.2845  150.7606 H   0  0  0  0  0  0  0  0  0  0  0  0
  145.5246  132.4893  152.0108 H   0  0  0  0  0  0  0  0  0  0  0  0
  144.0767  133.2422  152.6654 H   0  0  0  0  0  0  0  0  0  0  0  0
  143.9768  131.2134  150.7632 H   0  0  0  0  0  0  0  0  0  0  0  0
  142.7249  132.4393  150.9574 H   0  0  0  0  0  0  0  0  0  0  0  0
  145.0771  132.5217  149.0171 H   0  0  0  0  0  0  0  0  0  0  0  0
  143.3646  132.7650  148.6421 H   0  0  0  0  0  0  0  0  0  0  0  0
  144.7751  134.8275  148.9847 H   0  0  0  0  0  0  0  0  0  0  0  0
  1  2  2  0  0  0  0
  2  3  1  0  0  0  0
  2 15  1  0  0  0  0
  3  4  1  0  0  0  0
  3 20  1  0  0  0  0
  4  5  1  0  0  0  0
  4 21  1  0  0  0  0
  4 22  1  0  0  0  0
  5  6  1  0  0  0  0
  5 23  1  0  0  0  0
  5 24  1  0  0  0  0
  6 14  1  0  0  0  0
  6  7  2  0  0  0  0
  7  8  1  0  0  0  0
  8  9  1  0  0  0  0
  8 13  2  0  0  0  0
  9 10  1  0  0  0  0
  9 11  1  0  0  0  0
  9 12  1  0  0  0  0
 13 14  1  0  0  0  0
 13 25  1  0  0  0  0
 15 19  1  0  0  0  0
 15 16  1  0  0  0  0
 15 26  1  0  0  0  0
 16 17  1  0  0  0  0
 16 27  1  0  0  0  0
 16 28  1  0  0  0  0
 17 18  1  0  0  0  0
 17 29  1  0  0  0  0
 17 30  1  0  0  0  0
 18 19  1  0  0  0  0
 18 31  1  0  0  0  0
 18 32  1  0  0  0  0
 19 33  1  0  0  0  0
M  END
> <s_m_source_file>
AV-unprocessed.smi

> <i_m_source_file_index>
662

> <i_lp_mmshare_version>
43012

> <i_f3d_flags>
0

> <s_epik_input>
W05IXTFbQ0gyXVtDSDJdW0NIMl1bQ0BIXTFDKD1PKVtOSF1bQ0gyXVtDSDJdYzJuYyhDKEYpKEYpRilbY0hdczI=

> <s_epik_cmdline>
J2VwaWtfcHl0aG9uJywgJy1waCcsICc3LjAnLCAnLXRuJywgJzgnLCAnLW1hJywgJzIwMCcsICctbWV0YWxfYmluZGluZycsICctaW1hZScsICc8aW5maWxlLm1hZT4nLCAnLW9tYWUnLCAnPG91dGZpbGUubWFlPic=

> <r_epik_Ionization_Penalty>
1.64272

> <r_epik_Ionization_Penalty_Charging>
0

> <r_epik_Ionization_Penalty_Neutral>
1.64272

> <r_epik_State_Penalty>
1.74416

> <r_epik_Charging_Adjusted_Penalty>
1.74416

> <i_epik_Tot_Q>
0

> <i_epik_Tot_abs_Q>
0

> <r_epik_Metal_State_Penalty>
1.74416

> <b_epik_Metal_Only>
0

> <s_lp_Force_Field>
OPLS_2005

> <r_lp_Energy>
17.8155

> <b_lp_Chiralities_Consistent>
1

> <s_lp_Variant>
AV-unprocessed.smi:662-4

> <Gold.Version>
5.8.1

> <Gold.Id.Protein>
6NUR|6NUR_protein|mol2

> <Gold.PLP.Fitness>
45.4801

> <Gold.PLP.PLP>
-38.9154

> <Gold.PLP.part.hbond>
-2.0401

> <Gold.PLP.part.metal>
0.0000

> <Gold.PLP.part.buried>
-2.4210

> <Gold.PLP.part.nonpolar>
-34.2012

> <Gold.PLP.part.repulsive>
1.3011

> <Gold.PLP.ligand.clash>
0.0000

> <Gold.PLP.ligand.torsion>
0.8449

> <Gold.PLP.Chemscore.Hbond>
1.7443

> <Gold.PLP.Chemscore.CHOScore>
1.0000

> <Gold.PLP.Chemscore.Metal>
0.0000

> <Gold.Chemscore.Hbonds>
donor molecule, donor type, donor heavy atom, donor atom, acceptor molecule, acceptor atom, score
      L1  H     3    20       P1  7948  0.55
      L1  H    19    33       P1  7921  0.96
      L1  C    13    25       P1  8028  1.00

> <Gold.PLP.Chemscore.Internal.Correction>
0.0217

> <Gold.Rescore>
     Score         DG    S(hbond)    S(metal)    S(lipo)     H(rot)  DE(clash)    DE(int)     intcor
     14.73     -15.76       1.92        0.00      74.72       1.91       0.23       0.80       ----

> <Gold.Chemscore.Fitness>
14.7286

> <Gold.Chemscore.DG>
-15.7576

> <Gold.Chemscore.ZeroCoef>
-5.4800

> <Gold.Chemscore.Hbond>
1.9232

> <Gold.Chemscore.Metal>
0.0000

> <Gold.Chemscore.Lipo>
74.7207

> <Gold.Chemscore.Internal_Hbond>
0.0000

> <Gold.Chemscore.DEClash>
0.2286

> <Gold.Chemscore.DEInternal>
0.8004

> <Gold.Chemscore.Rot>
1.9095

> <Gold.Chemscore.Internal.Correction>
   9.000000E+99

> <Gold.Chemscore.Hbonds>
donor molecule, donor type, donor heavy atom, donor atom, acceptor molecule, acceptor atom, score
      L1  H     3    20       P1  7948  0.52
      L1  H    19    33       P1  7921  0.92

> <Gold.Chemscore.Hbond.Weighted>
-6.4236

> <Gold.Chemscore.Metal.Weighted>
-0.0000

> <Gold.Chemscore.Lipo.Weighted>
-8.7423

> <Gold.Chemscore.Internal_Hbond.Weighted>
0.0000

> <Gold.Chemscore.DEClash.Weighted>
0.2286

> <Gold.Chemscore.DEInternal.Weighted>
0.8004

> <Gold.Chemscore.Rot.Weighted>
4.8883

> <Gold.Chemscore.Internal.Correction.Weighted>
   9.000000E+99

> <Gold.Protein.RotatedTorsions>
[ 6907 6896 6895 6894 ] final   28.83 input  -60.11 | X-H torsion
[ 7974 7965 7964 7962 ] final -143.80 input  175.53 | X-H torsion
[ 8008 7997 7996 7995 ] final   63.31 input   59.86 | X-H torsion
[ 10167 10162 10161 10158 ] final   40.84 input  -65.29 | X-H torsion
[ 10718 10713 10712 10709 ] final   -3.38 input   66.30 | X-H torsion
[ 10763 10752 10751 10750 ] final   44.97 input  -60.55 | X-H torsion
[ 11005 11000 10999 10996 ] final   63.91 input  -57.11 | X-H torsion

> <Gold.Protein.ActiveResidues>
 VAL166  LYS551  ARG553  GLY616  TRP617  ASP618  TYR619  PRO620  LYS621  CYS622 
 ASP623  PHE694  ASN695  SER759  ASP760  ASP761  ALA762  ILE779  LEU786  VAL792 
 PHE793  MET794  SER795  GLU796  ALA797  LYS798  CYS799  TRP800  GLU811  SER814 

> <Gold.Protein.RotatedAtoms>
  152.0227  134.9813  160.0570 H   0  0  0  0  0  0  0  0  0  0  0  0  # atno 6907 bound_to 6896
  152.1321  133.4409  159.4734 H   0  0  0  0  0  0  0  0  0  0  0  0  # atno 6908 bound_to 6896
  150.6857  134.2326  159.4484 H   0  0  0  0  0  0  0  0  0  0  0  0  # atno 6909 bound_to 6896
  144.8343  140.5790  143.5494 H   0  0  0  0  0  0  0  0  0  0  0  0  # atno 7974 bound_to 7965
  155.6282  140.3496  155.4674 H   0  0  0  0  0  0  0  0  0  0  0  0  # atno 8008 bound_to 7997
  156.0024  140.1216  157.0558 H   0  0  0  0  0  0  0  0  0  0  0  0  # atno 8009 bound_to 7997
  154.4253  140.1098  156.5702 H   0  0  0  0  0  0  0  0  0  0  0  0  # atno 8010 bound_to 7997
  140.3702  144.2114  150.6133 H   0  0  0  0  0  0  0  0  0  0  0  0  # atno 10167 bound_to 10162
  156.7768  130.5318  149.5757 H   0  0  0  0  0  0  0  0  0  0  0  0  # atno 10718 bound_to 10713
  152.9832  135.6054  154.3361 H   0  0  0  0  0  0  0  0  0  0  0  0  # atno 10763 bound_to 10752
  154.3061  135.2772  155.2590 H   0  0  0  0  0  0  0  0  0  0  0  0  # atno 10764 bound_to 10752
  154.4820  135.5914  153.6452 H   0  0  0  0  0  0  0  0  0  0  0  0  # atno 10765 bound_to 10752
  139.9993  134.6467  155.9957 H   0  0  0  0  0  0  0  0  0  0  0  0  # atno 11005 bound_to 11000
  145.4827  139.1494  143.3753 LP  0  0  0  0  0  0  0  0  0  0  0  0  # atno 17320 bound_to 7965
  146.2644  140.4964  142.8840 LP  0  0  0  0  0  0  0  0  0  0  0  0  # atno 17321 bound_to 7965
  140.5040  143.2309  151.8635 LP  0  0  0  0  0  0  0  0  0  0  0  0  # atno 17342 bound_to 10162
  139.4804  144.5026  151.9040 LP  0  0  0  0  0  0  0  0  0  0  0  0  # atno 17343 bound_to 10162
  156.1243  130.6132  151.0240 LP  0  0  0  0  0  0  0  0  0  0  0  0  # atno 17370 bound_to 10713
  157.6665  131.0870  150.7716 LP  0  0  0  0  0  0  0  0  0  0  0  0  # atno 17371 bound_to 10713
  141.1629  133.6538  156.4381 LP  0  0  0  0  0  0  0  0  0  0  0  0  # atno 17394 bound_to 11000
  140.4758  134.6711  157.5149 LP  0  0  0  0  0  0  0  0  0  0  0  0  # atno 17395 bound_to 11000

$$$$
