AV-unprocessed.smi:3169|AV-procd|sdf|12106|dock9
  -GOLD-   2272017543D 1   1.00000     0.00000
 Structure written by MMmdl.
 35 36  0  0  0  0  0  0  0  0  1 V2000
  146.2414  139.0736  153.8355 O   0  0  0  0  0  0  0  0  0  0  0  0
  147.0595  138.3323  153.2908 C   0  0  0  0  0  0  0  0  0  0  0  0
  146.7302  137.2790  152.5315 N   0  0  0  0  0  0  0  0  0  0  0  0
  145.3676  136.8873  152.1842 C   0  0  0  0  0  0  0  0  0  0  0  0
  145.2787  136.2324  150.7917 C   0  0  0  0  0  0  0  0  0  0  0  0
  145.3751  134.7861  150.8541 N   0  0  0  0  0  0  0  0  0  0  0  0
  146.4854  134.0344  151.2141 C   0  0  0  0  0  0  0  0  0  0  0  0
  146.1108  132.7127  151.1234 C   0  0  0  0  0  0  0  0  0  0  0  0
  144.7828  132.6284  150.7114 N   0  0  0  0  0  0  0  0  0  0  0  0
  144.4135  133.8952  150.5737 C   0  0  0  0  0  0  0  0  0  0  0  0
  148.3869  138.4970  153.3619 N   0  0  0  0  0  0  0  0  0  0  0  0
  149.0554  139.6032  154.0363 C   0  0  0  0  0  0  0  0  0  0  0  0
  150.3113  139.1266  154.7854 C   0  0  1  0  0  0  0  0  0  0  0  0
  151.1906  138.1708  153.9819 C   0  0  0  0  0  0  0  0  0  0  0  0
  152.5764  138.3734  154.5775 C   0  0  0  0  0  0  0  0  0  0  0  0
  152.4432  139.6497  155.4137 C   0  0  0  0  0  0  0  0  0  0  0  0
  151.1938  140.2089  155.0357 O   0  0  0  0  0  0  0  0  0  0  0  0
  147.4769  136.7323  152.1279 H   0  0  0  0  0  0  0  0  0  0  0  0
  145.0077  136.1941  152.9449 H   0  0  0  0  0  0  0  0  0  0  0  0
  144.7144  137.7599  152.2292 H   0  0  0  0  0  0  0  0  0  0  0  0
  144.3292  136.4906  150.3214 H   0  0  0  0  0  0  0  0  0  0  0  0
  146.0620  136.6090  150.1326 H   0  0  0  0  0  0  0  0  0  0  0  0
  147.4234  134.4894  151.4961 H   0  0  0  0  0  0  0  0  0  0  0  0
  146.6906  131.8231  151.3207 H   0  0  0  0  0  0  0  0  0  0  0  0
  143.4220  134.1824  150.2550 H   0  0  0  0  0  0  0  0  0  0  0  0
  148.9772  137.8374  152.8763 H   0  0  0  0  0  0  0  0  0  0  0  0
  149.3177  140.3741  153.3101 H   0  0  0  0  0  0  0  0  0  0  0  0
  148.3508  140.0580  154.7331 H   0  0  0  0  0  0  0  0  0  0  0  0
  150.0421  138.6615  155.7359 H   0  0  0  0  0  0  0  0  0  0  0  0
  150.8481  137.1373  154.0431 H   0  0  0  0  0  0  0  0  0  0  0  0
  151.2013  138.4594  152.9299 H   0  0  0  0  0  0  0  0  0  0  0  0
  152.8730  137.5313  155.2039 H   0  0  0  0  0  0  0  0  0  0  0  0
  153.3227  138.4853  153.7903 H   0  0  0  0  0  0  0  0  0  0  0  0
  152.4197  139.4102  156.4778 H   0  0  0  0  0  0  0  0  0  0  0  0
  153.2586  140.3524  155.2409 H   0  0  0  0  0  0  0  0  0  0  0  0
  1  2  2  0  0  0  0
  2  3  1  0  0  0  0
  2 11  1  0  0  0  0
  3  4  1  0  0  0  0
  3 18  1  0  0  0  0
  4  5  1  0  0  0  0
  4 19  1  0  0  0  0
  4 20  1  0  0  0  0
  5  6  1  0  0  0  0
  5 21  1  0  0  0  0
  5 22  1  0  0  0  0
  6 10  1  0  0  0  0
  6  7  1  0  0  0  0
  7  8  2  0  0  0  0
  7 23  1  0  0  0  0
  8  9  1  0  0  0  0
  8 24  1  0  0  0  0
  9 10  2  0  0  0  0
 10 25  1  0  0  0  0
 11 12  1  0  0  0  0
 11 26  1  0  0  0  0
 12 13  1  0  0  0  0
 12 27  1  0  0  0  0
 12 28  1  0  0  0  0
 13 17  1  0  0  0  0
 13 14  1  0  0  0  0
 13 29  1  0  0  0  0
 14 15  1  0  0  0  0
 14 30  1  0  0  0  0
 14 31  1  0  0  0  0
 15 16  1  0  0  0  0
 15 32  1  0  0  0  0
 15 33  1  0  0  0  0
 16 17  1  0  0  0  0
 16 34  1  0  0  0  0
 16 35  1  0  0  0  0
M  END
> <s_m_source_file>
AV-unprocessed.smi

> <i_m_source_file_index>
3169

> <i_lp_mmshare_version>
43012

> <i_f3d_flags>
0

> <s_epik_input>
TzFbQ0gyXVtDSDJdW0NIMl1bQ0BIXTFbQ0gyXVtOSF1DKD1PKVtOSF1bQ0gyXVtDSDJdbjJbY0hdW2NIXW5bY0hdMg==

> <s_epik_cmdline>
J2VwaWtfcHl0aG9uJywgJy1waCcsICc3LjAnLCAnLXRuJywgJzgnLCAnLW1hJywgJzIwMCcsICctbWV0YWxfYmluZGluZycsICctaW1hZScsICc8aW5maWxlLm1hZT4nLCAnLW9tYWUnLCAnPG91dGZpbGUubWFlPic=

> <r_lp_tautomer_probability>
1

> <r_epik_Ionization_Penalty>
0.620462

> <r_epik_Ionization_Penalty_Charging>
0.620414

> <r_epik_Ionization_Penalty_Neutral>
4.72016e-05

> <r_epik_State_Penalty>
0.636391

> <r_epik_Charging_Adjusted_Penalty>
1.25681

> <i_epik_Tot_Q>
0

> <i_epik_Tot_abs_Q>
0

> <r_epik_Metal_State_Penalty>
0.306539

> <b_epik_Metal_Only>
0

> <s_lp_Force_Field>
OPLS_2005

> <r_lp_Energy>
15.8228

> <b_lp_Chiralities_Consistent>
1

> <s_lp_Variant>
AV-unprocessed.smi:3169-4

> <Gold.Version>
5.8.1

> <Gold.Id.Protein>
6NUR|6NUR_protein|mol2

> <Gold.PLP.Fitness>
46.9274

> <Gold.PLP.PLP>
-31.6761

> <Gold.PLP.part.hbond>
-4.0000

> <Gold.PLP.part.metal>
0.0000

> <Gold.PLP.part.buried>
-0.5190

> <Gold.PLP.part.nonpolar>
-27.0368

> <Gold.PLP.part.repulsive>
0.4128

> <Gold.PLP.ligand.clash>
0.0000

> <Gold.PLP.ligand.torsion>
0.7583

> <Gold.PLP.Chemscore.Hbond>
2.8460

> <Gold.PLP.Chemscore.CHOScore>
2.7362

> <Gold.PLP.Chemscore.Metal>
0.0000

> <Gold.Chemscore.Hbonds>
donor molecule, donor type, donor heavy atom, donor atom, acceptor molecule, acceptor atom, score
      L1  H     3    18       P1  7948  1.00
      L1  H    11    26       P1  7948  0.90
      P1  H  7989  7998       L1    17  0.95
      L1  C     7    23       P1  7948  1.00
      L1  C     8    24       P1 10747  0.59
      L1  C    10    25       P1 10186  1.00

> <Gold.PLP.Chemscore.Internal.Correction>
0.0213

> <Gold.Rescore>
     Score         DG    S(hbond)    S(metal)    S(lipo)     H(rot)  DE(clash)    DE(int)     intcor
     13.51     -14.36       2.12        0.00      64.50       2.25       0.11       0.74       ----

> <Gold.Chemscore.Fitness>
13.5079

> <Gold.Chemscore.DG>
-14.3562

> <Gold.Chemscore.ZeroCoef>
-5.4800

> <Gold.Chemscore.Hbond>
2.1206

> <Gold.Chemscore.Metal>
0.0000

> <Gold.Chemscore.Lipo>
64.5028

> <Gold.Chemscore.Internal_Hbond>
0.0000

> <Gold.Chemscore.DEClash>
0.1127

> <Gold.Chemscore.DEInternal>
0.7356

> <Gold.Chemscore.Rot>
2.2474

> <Gold.Chemscore.Internal.Correction>
   9.000000E+99

> <Gold.Chemscore.Hbonds>
donor molecule, donor type, donor heavy atom, donor atom, acceptor molecule, acceptor atom, score
      L1  H     3    18       P1  7948  0.96
      L1  H    11    26       P1  7948  0.88
      P1  H  7989  7998       L1    17  0.14

> <Gold.Chemscore.Hbond.Weighted>
-7.0826

> <Gold.Chemscore.Metal.Weighted>
-0.0000

> <Gold.Chemscore.Lipo.Weighted>
-7.5468

> <Gold.Chemscore.Internal_Hbond.Weighted>
0.0000

> <Gold.Chemscore.DEClash.Weighted>
0.1127

> <Gold.Chemscore.DEInternal.Weighted>
0.7356

> <Gold.Chemscore.Rot.Weighted>
5.7532

> <Gold.Chemscore.Internal.Correction.Weighted>
   9.000000E+99

> <Gold.Protein.RotatedTorsions>
[ 6907 6896 6895 6894 ] final   74.09 input  -60.11 | X-H torsion
[ 7974 7965 7964 7962 ] final  -22.15 input  175.53 | X-H torsion
[ 8008 7997 7996 7995 ] final   18.92 input   59.86 | X-H torsion
[ 10167 10162 10161 10158 ] final   50.62 input  -65.29 | X-H torsion
[ 10718 10713 10712 10709 ] final   61.14 input   66.30 | X-H torsion
[ 10763 10752 10751 10750 ] final  -77.67 input  -60.55 | X-H torsion
[ 11005 11000 10999 10996 ] final -176.83 input  -57.11 | X-H torsion

> <Gold.Protein.ActiveResidues>
 VAL166  LYS551  ARG553  GLY616  TRP617  ASP618  TYR619  PRO620  LYS621  CYS622 
 ASP623  PHE694  ASN695  SER759  ASP760  ASP761  ALA762  ILE779  LEU786  VAL792 
 PHE793  MET794  SER795  GLU796  ALA797  LYS798  CYS799  TRP800  GLU811  SER814 

> <Gold.Protein.RotatedAtoms>
  152.4958  134.4323  159.9516 H   0  0  0  0  0  0  0  0  0  0  0  0  # atno 6907 bound_to 6896
  151.4302  133.3666  159.2775 H   0  0  0  0  0  0  0  0  0  0  0  0  # atno 6908 bound_to 6896
  150.9160  134.8600  159.7517 H   0  0  0  0  0  0  0  0  0  0  0  0  # atno 6909 bound_to 6896
  146.1692  140.4440  142.8539 H   0  0  0  0  0  0  0  0  0  0  0  0  # atno 7974 bound_to 7965
  154.9131  140.3017  155.5255 H   0  0  0  0  0  0  0  0  0  0  0  0  # atno 8008 bound_to 7997
  156.3014  140.2385  156.4108 H   0  0  0  0  0  0  0  0  0  0  0  0  # atno 8009 bound_to 7997
  154.8405  140.0414  157.1527 H   0  0  0  0  0  0  0  0  0  0  0  0  # atno 8010 bound_to 7997
  140.2706  144.3270  150.6291 H   0  0  0  0  0  0  0  0  0  0  0  0  # atno 10167 bound_to 10162
  157.5806  130.8978  149.9423 H   0  0  0  0  0  0  0  0  0  0  0  0  # atno 10718 bound_to 10713
  154.5159  135.5756  153.6642 H   0  0  0  0  0  0  0  0  0  0  0  0  # atno 10763 bound_to 10752
  152.9907  135.6170  154.2817 H   0  0  0  0  0  0  0  0  0  0  0  0  # atno 10764 bound_to 10752
  154.2735  135.2853  155.2707 H   0  0  0  0  0  0  0  0  0  0  0  0  # atno 10765 bound_to 10752
  140.4477  134.6373  157.4787 H   0  0  0  0  0  0  0  0  0  0  0  0  # atno 11005 bound_to 11000
  144.8138  140.6431  143.6398 LP  0  0  0  0  0  0  0  0  0  0  0  0  # atno 17320 bound_to 7965
  145.4386  139.1539  143.3983 LP  0  0  0  0  0  0  0  0  0  0  0  0  # atno 17321 bound_to 7965
  140.5893  143.2168  151.7283 LP  0  0  0  0  0  0  0  0  0  0  0  0  # atno 17342 bound_to 10162
  139.4990  144.3963  152.0227 LP  0  0  0  0  0  0  0  0  0  0  0  0  # atno 17343 bound_to 10162
  156.0851  130.3669  150.0503 LP  0  0  0  0  0  0  0  0  0  0  0  0  # atno 17370 bound_to 10713
  156.8643  130.9502  151.3615 LP  0  0  0  0  0  0  0  0  0  0  0  0  # atno 17371 bound_to 10713
  140.0028  134.6811  155.9503 LP  0  0  0  0  0  0  0  0  0  0  0  0  # atno 17394 bound_to 11000
  141.1678  133.6537  156.4541 LP  0  0  0  0  0  0  0  0  0  0  0  0  # atno 17395 bound_to 11000

$$$$
