#       Name:                AV-unprocessed.smi:1766
#       Creating user name   scv26
#       Creation time:       Fri Mar 27 08:37:25 2020


#       File generated by GOLD software.
#

@<TRIPOS>MOLECULE
AV-unprocessed.smi:1766
    44    46     1
SMALL
NO_CHARGES


@<TRIPOS>ATOM
      1 ****        -1.3226   4.5728  -0.0339 N.am           1 S1                 0.0000
      2 ****        -0.3777   3.6296  -0.0763 C.2            1 S1                 0.0000
      3 ****         0.1824   3.3119  -1.1232 O.2            1 S1                 0.0000
      4 ****        -0.0063   2.9500   1.2468 C.3            1 S1                 0.0000
      5 ****        -0.6163   1.5727   1.2778 C.2            1 S1                 0.0000
      6 ****        -1.9390   1.3950   1.3323 N.2            1 S1                 0.0000
      7 ****        -2.0671   0.0209   1.3358 C.ar           1 S1                 0.0000
      8 ****        -3.2221  -0.7928   1.3659 C.ar           1 S1                 0.0000
      9 ****        -3.1056  -2.1981   1.3592 C.ar           1 S1                 0.0000
     10 ****        -1.8351  -2.8081   1.3241 C.ar           1 S1                 0.0000
     11 ****        -0.6721  -2.0150   1.2974 C.ar           1 S1                 0.0000
     12 ****        -0.7935  -0.6119   1.3016 C.ar           1 S1                 0.0000
     13 ****         0.1265   0.4335   1.2736 N.pl3          1 S1                 0.0000
     14 ****         1.5771   0.2866   1.2423 C.3            1 S1                 0.0000
     15 ****         2.1596   0.4303  -0.1779 C.3            1 S1                 0.0000
     16 ****         3.5689   0.4001  -0.0827 O.3            1 S1                 0.0000
     17 ****         1.6220  -0.6281  -1.1317 C.ar           1 S1                 0.0000
     18 ****         0.5892  -0.2999  -2.0364 C.ar           1 S1                 0.0000
     19 ****         0.0626  -1.2801  -2.8994 C.ar           1 S1                 0.0000
     20 ****         0.5664  -2.5943  -2.8641 C.ar           1 S1                 0.0000
     21 ****         0.0587  -3.5372  -3.6926 F              1 S1                 0.0000
     22 ****         1.5972  -2.9280  -1.9651 C.ar           1 S1                 0.0000
     23 ****         2.1231  -1.9485  -1.1005 C.ar           1 S1                 0.0000
     24 ****        -1.6031   5.0393  -0.8843 H              1 S1                 0.0000
     25 ****        -1.7597   4.8110   0.8446 H              1 S1                 0.0000
     26 ****         1.0775   2.9181   1.3399 H              1 S1                 0.0000
     27 ****        -0.3813   3.5259   2.0940 H              1 S1                 0.0000
     28 ****        -4.1997  -0.3346   1.3914 H              1 S1                 0.0000
     29 ****        -3.9948  -2.8107   1.3805 H              1 S1                 0.0000
     30 ****        -1.7538  -3.8851   1.3167 H              1 S1                 0.0000
     31 ****         0.3011  -2.4816   1.2672 H              1 S1                 0.0000
     32 ****         2.0184   1.0176   1.9196 H              1 S1                 0.0000
     33 ****         1.8381  -0.6877   1.6570 H              1 S1                 0.0000
     34 ****         1.9066   1.4132  -0.5723 H              1 S1                 0.0000
     35 ****         3.9292   0.5881  -0.9359 H              1 S1                 0.0000
     36 ****         0.1885   0.7028  -2.0637 H              1 S1                 0.0000
     37 ****        -0.7305  -1.0238  -3.5862 H              1 S1                 0.0000
     38 ****         1.9821  -3.9367  -1.9356 H              1 S1                 0.0000
     39 ****         2.9060  -2.2169  -0.4063 H              1 S1                 0.0000
     40 ****        -0.0653   3.7642  -1.9800 LP             1 S1                 0.0000
     41 ****         0.8858   2.6011  -1.1182 LP             1 S1                 0.0000
     42 ****        -2.6596   2.0876   1.3630 LP             1 S1                 0.0000
     43 ****         3.8678  -0.5055   0.2182 LP             1 S1                 0.0000
     44 ****         3.8780   1.0883   0.5737 LP             1 S1                 0.0000
@<TRIPOS>BOND
    1    1    2 am    
    2    1   24 1     
    3    1   25 1     
    4    2    3 2     
    5    2    4 1     
    6    4    5 1     
    7    4   26 1     
    8    4   27 1     
    9    5   13 1     
   10    5    6 2     
   11    6    7 1     
   12    7   12 ar    
   13    7    8 ar    
   14    8    9 ar    
   15    8   28 1     
   16    9   10 ar    
   17    9   29 1     
   18   10   11 ar    
   19   10   30 1     
   20   11   12 ar    
   21   11   31 1     
   22   12   13 1     
   23   13   14 1     
   24   14   15 1     
   25   14   32 1     
   26   14   33 1     
   27   15   16 1     
   28   15   17 1     
   29   15   34 1     
   30   16   35 1     
   31   17   23 ar    
   32   17   18 ar    
   33   18   19 ar    
   34   18   36 1     
   35   19   20 ar    
   36   19   37 1     
   37   20   21 1     
   38   20   22 ar    
   39   22   23 ar    
   40   22   38 1     
   41   23   39 1     
   42    3   40 1     
   43    3   41 1     
   44    6   42 1     
   45   16   43 1     
   46   16   44 1     
@<TRIPOS>SUBSTRUCTURE
      1 S1             1
@<TRIPOS>SET
LONE_PAIRS      STATIC     ATOMS    <user>   **** ""
5 40 41 42 43 44
DONOR_HYDROGENS      STATIC     ATOMS    <user>   **** ""
3 24 25 35
ATOM$BLUE        STATIC     ATOMS    COLORGROUP SYSTEM
5 40 41 42 43 44
ATOM$RED        STATIC     ATOMS    COLORGROUP SYSTEM
3 24 25 35
