AV-unprocessed.smi:3193|AV-procd|sdf|12208|dock4
  -GOLD-   2272018 43D 1   1.00000     0.00000
 Structure written by MMmdl.
 41 42  0  0  0  0  0  0  0  0  3 V2000
  153.0312  141.0971  159.3321 C   0  0  0  0  0  0  0  0  0  0  0  0
  152.1895  142.3673  159.5591 C   0  0  1  0  0  0  0  0  0  0  0  0
  152.7944  143.1837  160.7209 C   0  0  0  0  0  0  0  0  0  0  0  0
  151.9681  144.4372  161.0377 C   0  0  0  0  0  0  0  0  0  0  0  0
  151.8121  145.3158  159.7918 C   0  0  0  0  0  0  0  0  0  0  0  0
  151.1995  144.5162  158.6335 C   0  0  0  0  0  0  0  0  0  0  0  0
  152.0267  143.2573  158.2897 C   0  0  2  0  0  0  0  0  0  0  0  0
  151.3717  142.5236  157.0977 C   0  0  0  0  0  0  0  0  0  0  0  0
  149.9067  142.4289  157.2505 N   0  3  0  0  0  0  0  0  0  0  0  0
  149.2777  141.3521  156.4603 C   0  0  0  0  0  0  0  0  0  0  0  0
  149.3261  141.6597  154.9546 C   0  0  0  0  0  0  0  0  0  0  0  0
  148.7182  140.5951  154.1474 N   0  0  0  0  0  0  0  0  0  0  0  0
  147.5613  140.6677  153.4139 C   0  0  0  0  0  0  0  0  0  0  0  0
  147.3892  139.4385  152.8311 C   0  0  0  0  0  0  0  0  0  0  0  0
  148.4503  138.6696  153.2277 N   0  3  0  0  0  0  0  0  0  0  0  0
  149.2604  139.3759  154.0230 C   0  0  0  0  0  0  0  0  0  0  0  0
  154.0074  141.3357  158.9086 H   0  0  0  0  0  0  0  0  0  0  0  0
  152.5322  140.3930  158.6668 H   0  0  0  0  0  0  0  0  0  0  0  0
  153.2000  140.5677  160.2704 H   0  0  0  0  0  0  0  0  0  0  0  0
  151.1961  142.0424  159.8730 H   0  0  0  0  0  0  0  0  0  0  0  0
  152.8613  142.5658  161.6171 H   0  0  0  0  0  0  0  0  0  0  0  0
  153.8161  143.4759  160.4735 H   0  0  0  0  0  0  0  0  0  0  0  0
  150.9846  144.1454  161.4083 H   0  0  0  0  0  0  0  0  0  0  0  0
  152.4439  145.0058  161.8373 H   0  0  0  0  0  0  0  0  0  0  0  0
  151.1862  146.1785  160.0219 H   0  0  0  0  0  0  0  0  0  0  0  0
  152.7848  145.7095  159.4946 H   0  0  0  0  0  0  0  0  0  0  0  0
  150.1793  144.2283  158.8919 H   0  0  0  0  0  0  0  0  0  0  0  0
  151.1221  145.1638  157.7592 H   0  0  0  0  0  0  0  0  0  0  0  0
  153.0145  143.6011  157.9777 H   0  0  0  0  0  0  0  0  0  0  0  0
  151.6249  143.0258  156.1628 H   0  0  0  0  0  0  0  0  0  0  0  0
  151.7537  141.5046  157.0203 H   0  0  0  0  0  0  0  0  0  0  0  0
  149.6895  142.2927  158.2279 H   0  0  0  0  0  0  0  0  0  0  0  0
  149.7828  140.4062  156.6614 H   0  0  0  0  0  0  0  0  0  0  0  0
  148.2426  141.2347  156.7833 H   0  0  0  0  0  0  0  0  0  0  0  0
  148.7815  142.5804  154.7418 H   0  0  0  0  0  0  0  0  0  0  0  0
  150.3539  141.8138  154.6218 H   0  0  0  0  0  0  0  0  0  0  0  0
  146.9600  141.5643  153.3622 H   0  0  0  0  0  0  0  0  0  0  0  0
  146.6134  139.0641  152.1786 H   0  0  0  0  0  0  0  0  0  0  0  0
  150.1713  139.0259  154.4758 H   0  0  0  0  0  0  0  0  0  0  0  0
  149.5124  143.3092  156.9512 H   0  0  0  0  0  0  0  0  0  0  0  0
  148.6058  137.7076  152.9520 H   0  0  0  0  0  0  0  0  0  0  0  0
  1  2  1  0  0  0  0
  1 17  1  0  0  0  0
  1 18  1  0  0  0  0
  1 19  1  0  0  0  0
  2  7  1  0  0  0  0
  2  3  1  0  0  0  0
  2 20  1  0  0  0  0
  3  4  1  0  0  0  0
  3 21  1  0  0  0  0
  3 22  1  0  0  0  0
  4  5  1  0  0  0  0
  4 23  1  0  0  0  0
  4 24  1  0  0  0  0
  5  6  1  0  0  0  0
  5 25  1  0  0  0  0
  5 26  1  0  0  0  0
  6  7  1  0  0  0  0
  6 27  1  0  0  0  0
  6 28  1  0  0  0  0
  7  8  1  0  0  0  0
  7 29  1  0  0  0  0
  8  9  1  0  0  0  0
  8 30  1  0  0  0  0
  8 31  1  0  0  0  0
  9 10  1  0  0  0  0
  9 32  1  0  0  0  0
  9 40  1  0  0  0  0
 10 11  1  0  0  0  0
 10 33  1  0  0  0  0
 10 34  1  0  0  0  0
 11 12  1  0  0  0  0
 11 35  1  0  0  0  0
 11 36  1  0  0  0  0
 12 16  1  0  0  0  0
 12 13  1  0  0  0  0
 13 14  2  0  0  0  0
 13 37  1  0  0  0  0
 14 15  1  0  0  0  0
 14 38  1  0  0  0  0
 15 16  2  0  0  0  0
 15 41  1  0  0  0  0
 16 39  1  0  0  0  0
M  CHG  1   9   1
M  CHG  1  15   1
M  END
> <s_m_source_file>
AV-unprocessed.smi

> <i_m_source_file_index>
3193

> <i_lp_mmshare_version>
43012

> <i_f3d_flags>
0

> <s_epik_input>
W0NIM11bQ0BASF0xW0NIMl1bQ0gyXVtDSDJdW0NIMl1bQ0BIXTFbQ0gyXVtOSF1bQ0gyXVtDSDJdbjJbY0hdW2NIXW5bY0hdMg==

> <s_epik_cmdline>
J2VwaWtfcHl0aG9uJywgJy1waCcsICc3LjAnLCAnLXRuJywgJzgnLCAnLW1hJywgJzIwMCcsICctbWV0YWxfYmluZGluZycsICctaW1hZScsICc8aW5maWxlLm1hZT4nLCAnLW9tYWUnLCAnPG91dGZpbGUubWFlPic=

> <r_lp_tautomer_probability>
1

> <r_epik_Ionization_Penalty>
1.50262

> <r_epik_Ionization_Penalty_Charging>
0.00193432

> <r_epik_Ionization_Penalty_Neutral>
1.50068

> <r_epik_State_Penalty>
1.11854

> <r_epik_Charging_Adjusted_Penalty>
1.12048

> <i_epik_Tot_Q>
2

> <i_epik_Tot_abs_Q>
2

> <r_epik_Metal_State_Penalty>
5.11322

> <b_epik_Metal_Only>
0

> <s_lp_Force_Field>
OPLS_2005

> <r_lp_Energy>
27.1702

> <b_lp_Chiralities_Consistent>
1

> <s_lp_Variant>
AV-unprocessed.smi:3193-8

> <Gold.Version>
5.8.1

> <Gold.Id.Protein>
6NUR|6NUR_protein|mol2

> <Gold.PLP.Fitness>
53.5098

> <Gold.PLP.PLP>
-42.1074

> <Gold.PLP.part.hbond>
-3.0000

> <Gold.PLP.part.metal>
0.0000

> <Gold.PLP.part.buried>
-1.5688

> <Gold.PLP.part.nonpolar>
-37.7003

> <Gold.PLP.part.repulsive>
0.0585

> <Gold.PLP.ligand.clash>
0.0000

> <Gold.PLP.ligand.torsion>
0.3377

> <Gold.PLP.Chemscore.Hbond>
4.0000

> <Gold.PLP.Chemscore.CHOScore>
0.0000

> <Gold.PLP.Chemscore.Metal>
0.0000

> <Gold.Chemscore.Hbonds>
donor molecule, donor type, donor heavy atom, donor atom, acceptor molecule, acceptor atom, score
      L1  H     9    40       P1  8028  2.00
      L1  H    15    41       P1  7948  2.00

> <Gold.PLP.Chemscore.Internal.Correction>
0.0778

> <Gold.Rescore>
     Score         DG    S(hbond)    S(metal)    S(lipo)     H(rot)  DE(clash)    DE(int)     intcor
     19.92     -20.33       1.93        0.00     114.99       1.98       0.08       0.32       ----

> <Gold.Chemscore.Fitness>
19.9242

> <Gold.Chemscore.DG>
-20.3315

> <Gold.Chemscore.ZeroCoef>
-5.4800

> <Gold.Chemscore.Hbond>
1.9341

> <Gold.Chemscore.Metal>
0.0000

> <Gold.Chemscore.Lipo>
114.9907

> <Gold.Chemscore.Internal_Hbond>
0.0000

> <Gold.Chemscore.DEClash>
0.0840

> <Gold.Chemscore.DEInternal>
0.3233

> <Gold.Chemscore.Rot>
1.9774

> <Gold.Chemscore.Internal.Correction>
   9.000000E+99

> <Gold.Chemscore.Hbonds>
donor molecule, donor type, donor heavy atom, donor atom, acceptor molecule, acceptor atom, score
      L1  H     9    40       P1  8028  0.92
      L1  H    15    41       P1  7948  0.99

> <Gold.Chemscore.Hbond.Weighted>
-6.4598

> <Gold.Chemscore.Metal.Weighted>
-0.0000

> <Gold.Chemscore.Lipo.Weighted>
-13.4539

> <Gold.Chemscore.Internal_Hbond.Weighted>
0.0000

> <Gold.Chemscore.DEClash.Weighted>
0.0840

> <Gold.Chemscore.DEInternal.Weighted>
0.3233

> <Gold.Chemscore.Rot.Weighted>
5.0622

> <Gold.Chemscore.Internal.Correction.Weighted>
   9.000000E+99

> <Gold.Protein.RotatedTorsions>
[ 6907 6896 6895 6894 ] final -129.90 input  -60.11 | X-H torsion
[ 7974 7965 7964 7962 ] final    1.38 input  175.53 | X-H torsion
[ 8008 7997 7996 7995 ] final   84.44 input   59.86 | X-H torsion
[ 10167 10162 10161 10158 ] final -144.81 input  -65.29 | X-H torsion
[ 10718 10713 10712 10709 ] final   79.54 input   66.30 | X-H torsion
[ 10763 10752 10751 10750 ] final   68.50 input  -60.55 | X-H torsion
[ 11005 11000 10999 10996 ] final  131.06 input  -57.11 | X-H torsion

> <Gold.Protein.ActiveResidues>
 VAL166  LYS551  ARG553  GLY616  TRP617  ASP618  TYR619  PRO620  LYS621  CYS622 
 ASP623  PHE694  ASN695  SER759  ASP760  ASP761  ALA762  ILE779  LEU786  VAL792 
 PHE793  MET794  SER795  GLU796  ALA797  LYS798  CYS799  TRP800  GLU811  SER814 

> <Gold.Protein.RotatedAtoms>
  150.9338  133.6735  159.2804 H   0  0  0  0  0  0  0  0  0  0  0  0  # atno 6907 bound_to 6896
  151.4148  135.0988  159.9605 H   0  0  0  0  0  0  0  0  0  0  0  0  # atno 6908 bound_to 6896
  152.5038  133.8803  159.7398 H   0  0  0  0  0  0  0  0  0  0  0  0  # atno 6909 bound_to 6896
  146.2440  140.0995  142.8348 H   0  0  0  0  0  0  0  0  0  0  0  0  # atno 7974 bound_to 7965
  155.9371  140.3410  155.6297 H   0  0  0  0  0  0  0  0  0  0  0  0  # atno 8008 bound_to 7997
  155.7086  140.0769  157.2399 H   0  0  0  0  0  0  0  0  0  0  0  0  # atno 8009 bound_to 7997
  154.4095  140.1627  156.2258 H   0  0  0  0  0  0  0  0  0  0  0  0  # atno 8010 bound_to 7997
  139.7864  143.8027  152.2645 H   0  0  0  0  0  0  0  0  0  0  0  0  # atno 10167 bound_to 10162
  157.6780  130.9919  150.1948 H   0  0  0  0  0  0  0  0  0  0  0  0  # atno 10718 bound_to 10713
  153.0238  135.5245  154.7143 H   0  0  0  0  0  0  0  0  0  0  0  0  # atno 10763 bound_to 10752
  154.6217  135.2889  155.0321 H   0  0  0  0  0  0  0  0  0  0  0  0  # atno 10764 bound_to 10752
  154.1305  135.6593  153.4973 H   0  0  0  0  0  0  0  0  0  0  0  0  # atno 10765 bound_to 10752
  139.9708  134.9578  156.9384 H   0  0  0  0  0  0  0  0  0  0  0  0  # atno 11005 bound_to 11000
  145.0580  140.9067  143.4955 LP  0  0  0  0  0  0  0  0  0  0  0  0  # atno 17320 bound_to 7965
  145.1105  139.2760  143.5639 LP  0  0  0  0  0  0  0  0  0  0  0  0  # atno 17321 bound_to 7965
  139.8106  144.7337  150.9703 LP  0  0  0  0  0  0  0  0  0  0  0  0  # atno 17342 bound_to 10162
  140.7819  143.4255  151.0775 LP  0  0  0  0  0  0  0  0  0  0  0  0  # atno 17343 bound_to 10162
  156.2651  130.3715  149.8089 LP  0  0  0  0  0  0  0  0  0  0  0  0  # atno 17370 bound_to 10713
  156.5823  130.8471  151.3386 LP  0  0  0  0  0  0  0  0  0  0  0  0  # atno 17371 bound_to 10713
  140.5297  134.0826  155.7312 LP  0  0  0  0  0  0  0  0  0  0  0  0  # atno 17394 bound_to 11000
  141.1388  133.9175  157.2374 LP  0  0  0  0  0  0  0  0  0  0  0  0  # atno 17395 bound_to 11000

$$$$
