AV-unprocessed.smi:2751|AV-procd|sdf|10597|dock1
  -GOLD-   2272015 43D 1   1.00000     0.00000
 Structure written by MMmdl.
 35 36  0  0  0  0  0  0  0  0  2 V2000
  149.4920  140.4784  155.7174 O   0  0  0  0  0  0  0  0  0  0  0  0
  150.0558  139.5461  155.1435 C   0  0  0  0  0  0  0  0  0  0  0  0
  151.2753  139.0969  155.4751 N   0  0  0  0  0  0  0  0  0  0  0  0
  152.0965  139.6315  156.5555 C   0  0  0  0  0  0  0  0  0  0  0  0
  151.5502  139.2300  157.9365 C   0  0  0  0  0  0  0  0  0  0  0  0
  152.2445  139.9715  159.0899 C   0  0  2  0  0  0  0  0  0  0  0  0
  151.7223  141.4129  159.2461 C   0  0  0  0  0  0  0  0  0  0  0  0
  152.4876  142.1453  160.3538 C   0  0  0  0  0  0  0  0  0  0  0  0
  153.9941  142.0502  160.0910 C   0  0  0  0  0  0  0  0  0  0  0  0
  154.4077  140.5848  159.8828 C   0  0  0  0  0  0  0  0  0  0  0  0
  153.6458  140.0112  158.8246 O   0  0  0  0  0  0  0  0  0  0  0  0
  149.5349  138.8554  154.1177 N   0  0  0  0  0  0  0  0  0  0  0  0
  148.2588  139.0655  153.5465 C   0  0  0  0  0  0  0  0  0  0  0  0
  147.7334  138.2978  152.5932 N   0  3  0  0  0  0  0  0  0  0  0  0
  146.4864  138.7779  152.2780 C   0  0  0  0  0  0  0  0  0  0  0  0
  146.2915  139.8711  153.0876 C   0  0  0  0  0  0  0  0  0  0  0  0
  147.3974  140.0647  153.8911 O   0  0  0  0  0  0  0  0  0  0  0  0
  151.6638  138.3260  154.9511 H   0  0  0  0  0  0  0  0  0  0  0  0
  153.1302  139.3004  156.4408 H   0  0  0  0  0  0  0  0  0  0  0  0
  152.1080  140.7176  156.4604 H   0  0  0  0  0  0  0  0  0  0  0  0
  150.4760  139.4155  157.9771 H   0  0  0  0  0  0  0  0  0  0  0  0
  151.6818  138.1562  158.0760 H   0  0  0  0  0  0  0  0  0  0  0  0
  152.0688  139.4218  160.0167 H   0  0  0  0  0  0  0  0  0  0  0  0
  151.8399  141.9515  158.3048 H   0  0  0  0  0  0  0  0  0  0  0  0
  150.6556  141.4080  159.4721 H   0  0  0  0  0  0  0  0  0  0  0  0
  152.1754  143.1885  160.4079 H   0  0  0  0  0  0  0  0  0  0  0  0
  152.2540  141.6966  161.3202 H   0  0  0  0  0  0  0  0  0  0  0  0
  154.2488  142.6302  159.2031 H   0  0  0  0  0  0  0  0  0  0  0  0
  154.5504  142.4862  160.9212 H   0  0  0  0  0  0  0  0  0  0  0  0
  155.4656  140.5276  159.6258 H   0  0  0  0  0  0  0  0  0  0  0  0
  154.2710  140.0074  160.7985 H   0  0  0  0  0  0  0  0  0  0  0  0
  148.1484  137.4878  152.1499 H   0  0  0  0  0  0  0  0  0  0  0  0
  145.8734  138.3033  151.5252 H   0  0  0  0  0  0  0  0  0  0  0  0
  145.4797  140.5728  153.2120 H   0  0  0  0  0  0  0  0  0  0  0  0
  150.0909  138.1118  153.7217 H   0  0  0  0  0  0  0  0  0  0  0  0
  1  2  2  0  0  0  0
  2 12  1  0  0  0  0
  2  3  1  0  0  0  0
  3  4  1  0  0  0  0
  3 18  1  0  0  0  0
  4  5  1  0  0  0  0
  4 19  1  0  0  0  0
  4 20  1  0  0  0  0
  5  6  1  0  0  0  0
  5 21  1  0  0  0  0
  5 22  1  0  0  0  0
  6 11  1  0  0  0  0
  6  7  1  0  0  0  0
  6 23  1  0  0  0  0
  7  8  1  0  0  0  0
  7 24  1  0  0  0  0
  7 25  1  0  0  0  0
  8  9  1  0  0  0  0
  8 26  1  0  0  0  0
  8 27  1  0  0  0  0
  9 10  1  0  0  0  0
  9 28  1  0  0  0  0
  9 29  1  0  0  0  0
 10 11  1  0  0  0  0
 10 30  1  0  0  0  0
 10 31  1  0  0  0  0
 12 13  1  0  0  0  0
 12 35  1  0  0  0  0
 13 17  1  0  0  0  0
 13 14  2  0  0  0  0
 14 32  1  0  0  0  0
 14 15  1  0  0  0  0
 15 33  1  0  0  0  0
 15 16  2  0  0  0  0
 16 34  1  0  0  0  0
 16 17  1  0  0  0  0
M  CHG  1  14   1
M  END
> <s_m_source_file>
AV-unprocessed.smi

> <i_m_source_file_index>
2751

> <i_lp_mmshare_version>
43012

> <i_f3d_flags>
0

> <s_epik_input>
bzFbY0hdW2NIXW5jMVtOSF1DKD1PKVtOSF1bQ0gyXVtDSDJdW0NAQEhdMltDSDJdW0NIMl1bQ0gyXVtDSDJdTzI=

> <s_epik_cmdline>
J2VwaWtfcHl0aG9uJywgJy1waCcsICc3LjAnLCAnLXRuJywgJzgnLCAnLW1hJywgJzIwMCcsICctbWV0YWxfYmluZGluZycsICctaW1hZScsICc8aW5maWxlLm1hZT4nLCAnLW9tYWUnLCAnPG91dGZpbGUubWFlPic=

> <r_epik_Ionization_Penalty>
6.63408

> <r_epik_Ionization_Penalty_Charging>
6.57733

> <r_epik_Ionization_Penalty_Neutral>
0.0567487

> <r_epik_State_Penalty>
1.8175

> <r_epik_Charging_Adjusted_Penalty>
8.39483

> <i_epik_Tot_Q>
1

> <i_epik_Tot_abs_Q>
1

> <r_epik_Metal_State_Penalty>
1.83396

> <b_epik_Metal_Only>
0

> <s_lp_Force_Field>
OPLS_2005

> <r_lp_Energy>
16.4857

> <b_lp_Chiralities_Consistent>
1

> <s_lp_Variant>
AV-unprocessed.smi:2751-3

> <Gold.Version>
5.8.1

> <Gold.Id.Protein>
6NUR|6NUR_protein|mol2

> <Gold.PLP.Fitness>
39.0635

> <Gold.PLP.PLP>
-27.9063

> <Gold.PLP.part.hbond>
-3.6715

> <Gold.PLP.part.metal>
0.0000

> <Gold.PLP.part.buried>
3.5982

> <Gold.PLP.part.nonpolar>
-28.2632

> <Gold.PLP.part.repulsive>
0.7723

> <Gold.PLP.ligand.clash>
0.0000

> <Gold.PLP.ligand.torsion>
0.2538

> <Gold.PLP.Chemscore.Hbond>
3.0000

> <Gold.PLP.Chemscore.CHOScore>
0.8792

> <Gold.PLP.Chemscore.Metal>
0.0000

> <Gold.Chemscore.Hbonds>
donor molecule, donor type, donor heavy atom, donor atom, acceptor molecule, acceptor atom, score
      L1  H    14    32       P1  7948  1.82
      P1  H  7997  8010       L1    11  1.00
      L1  C    16    34       P1 10175  0.75

> <Gold.PLP.Chemscore.Internal.Correction>
0.0272

> <Gold.Rescore>
     Score         DG    S(hbond)    S(metal)    S(lipo)     H(rot)  DE(clash)    DE(int)     intcor
     12.10     -15.50       1.74        0.00      72.30       1.66       1.72       1.68       ----

> <Gold.Chemscore.Fitness>
12.1013

> <Gold.Chemscore.DG>
-15.4998

> <Gold.Chemscore.ZeroCoef>
-5.4800

> <Gold.Chemscore.Hbond>
1.7376

> <Gold.Chemscore.Metal>
0.0000

> <Gold.Chemscore.Lipo>
72.3011

> <Gold.Chemscore.Internal_Hbond>
0.0000

> <Gold.Chemscore.DEClash>
1.7226

> <Gold.Chemscore.DEInternal>
1.6758

> <Gold.Chemscore.Rot>
1.6575

> <Gold.Chemscore.Internal.Correction>
   9.000000E+99

> <Gold.Chemscore.Hbonds>
donor molecule, donor type, donor heavy atom, donor atom, acceptor molecule, acceptor atom, score
      L1  H    14    32       P1  7948  0.89
      P1  H  7997  8010       L1    11  0.52

> <Gold.Chemscore.Hbond.Weighted>
-5.8036

> <Gold.Chemscore.Metal.Weighted>
-0.0000

> <Gold.Chemscore.Lipo.Weighted>
-8.4592

> <Gold.Chemscore.Internal_Hbond.Weighted>
0.0000

> <Gold.Chemscore.DEClash.Weighted>
1.7226

> <Gold.Chemscore.DEInternal.Weighted>
1.6758

> <Gold.Chemscore.Rot.Weighted>
4.2431

> <Gold.Chemscore.Internal.Correction.Weighted>
   9.000000E+99

> <Gold.Protein.RotatedTorsions>
[ 6907 6896 6895 6894 ] final  -94.05 input  -60.11 | X-H torsion
[ 7974 7965 7964 7962 ] final  141.72 input  175.53 | X-H torsion
[ 8008 7997 7996 7995 ] final   17.75 input   59.86 | X-H torsion
[ 10167 10162 10161 10158 ] final  165.55 input  -65.29 | X-H torsion
[ 10718 10713 10712 10709 ] final -177.80 input   66.30 | X-H torsion
[ 10763 10752 10751 10750 ] final -164.14 input  -60.55 | X-H torsion
[ 11005 11000 10999 10996 ] final  150.98 input  -57.11 | X-H torsion

> <Gold.Protein.ActiveResidues>
 VAL166  LYS551  ARG553  GLY616  TRP617  ASP618  TYR619  PRO620  LYS621  CYS622 
 ASP623  PHE694  ASN695  SER759  ASP760  ASP761  ALA762  ILE779  LEU786  VAL792 
 PHE793  MET794  SER795  GLU796  ALA797  LYS798  CYS799  TRP800  GLU811  SER814 

> <Gold.Protein.RotatedAtoms>
  150.6934  134.1872  159.4270 H   0  0  0  0  0  0  0  0  0  0  0  0  # atno 6907 bound_to 6896
  151.9844  135.0009  160.0568 H   0  0  0  0  0  0  0  0  0  0  0  0  # atno 6908 bound_to 6896
  152.1725  133.4618  159.4953 H   0  0  0  0  0  0  0  0  0  0  0  0  # atno 6909 bound_to 6896
  144.9071  139.5343  143.5726 H   0  0  0  0  0  0  0  0  0  0  0  0  # atno 7974 bound_to 7965
  154.8960  140.2994  155.5344 H   0  0  0  0  0  0  0  0  0  0  0  0  # atno 8008 bound_to 7997
  156.3020  140.2415  156.3916 H   0  0  0  0  0  0  0  0  0  0  0  0  # atno 8009 bound_to 7997
  154.8570  140.0407  157.1629 H   0  0  0  0  0  0  0  0  0  0  0  0  # atno 8010 bound_to 7997
  139.4908  144.4120  151.9288 H   0  0  0  0  0  0  0  0  0  0  0  0  # atno 10167 bound_to 10162
  156.8349  130.9666  151.3104 H   0  0  0  0  0  0  0  0  0  0  0  0  # atno 10718 bound_to 10713
  154.7056  135.2996  154.9275 H   0  0  0  0  0  0  0  0  0  0  0  0  # atno 10763 bound_to 10752
  154.0193  135.6684  153.4775 H   0  0  0  0  0  0  0  0  0  0  0  0  # atno 10764 bound_to 10752
  153.0715  135.5058  154.8225 H   0  0  0  0  0  0  0  0  0  0  0  0  # atno 10765 bound_to 10752
  140.1178  134.8883  157.2029 H   0  0  0  0  0  0  0  0  0  0  0  0  # atno 11005 bound_to 11000
  146.3139  139.7848  142.8998 LP  0  0  0  0  0  0  0  0  0  0  0  0  # atno 17320 bound_to 7965
  145.3517  141.0309  143.3335 LP  0  0  0  0  0  0  0  0  0  0  0  0  # atno 17321 bound_to 7965
  140.3561  144.3029  150.5941 LP  0  0  0  0  0  0  0  0  0  0  0  0  # atno 17342 bound_to 10162
  140.5443  143.2217  151.8033 LP  0  0  0  0  0  0  0  0  0  0  0  0  # atno 17343 bound_to 10162
  157.6387  130.8788  149.9407 LP  0  0  0  0  0  0  0  0  0  0  0  0  # atno 17370 bound_to 10713
  156.0913  130.3663  150.0389 LP  0  0  0  0  0  0  0  0  0  0  0  0  # atno 17371 bound_to 10713
  140.3005  134.3138  155.7291 LP  0  0  0  0  0  0  0  0  0  0  0  0  # atno 17394 bound_to 11000
  141.2145  133.7589  156.9633 LP  0  0  0  0  0  0  0  0  0  0  0  0  # atno 17395 bound_to 11000

$$$$
