AV-unprocessed.smi:2390|AV-procd|sdf|9478|dock3
  -GOLD-   2272013103D 1   1.00000     0.00000
 Structure written by MMmdl.
 46 47  0  0  0  0  0  0  0  0  2 V2000
  152.4984  142.8053  161.8654 C   0  0  0  0  0  0  0  0  0  0  0  0
  152.1840  143.2630  160.4567 C   0  0  0  0  0  0  0  0  0  0  0  0
  153.2040  143.7152  159.5967 C   0  0  0  0  0  0  0  0  0  0  0  0
  152.8456  144.1220  158.2991 C   0  0  0  0  0  0  0  0  0  0  0  0
  151.4919  144.0584  157.9166 C   0  0  0  0  0  0  0  0  0  0  0  0
  150.5298  143.5935  158.8410 C   0  0  0  0  0  0  0  0  0  0  0  0
  149.1957  143.5585  158.3556 N   0  0  0  0  0  0  0  0  0  0  0  0
  148.0546  143.6238  159.0633 C   0  0  0  0  0  0  0  0  0  0  0  0
  147.9782  143.7962  160.2804 O   0  0  0  0  0  0  0  0  0  0  0  0
  146.9816  143.4804  158.2710 N   0  0  0  0  0  0  0  0  0  0  0  0
  145.5890  143.5095  158.7181 C   0  0  1  0  0  0  0  0  0  0  0  0
  145.2264  142.1271  159.2890 C   0  0  0  0  0  0  0  0  0  0  0  0
  145.3153  144.6810  159.7170 C   0  0  2  0  0  0  0  0  0  0  0  0
  143.9173  144.5453  160.3729 C   0  0  0  0  0  0  0  0  0  0  0  0
  145.5309  146.0304  159.0932 N   0  3  0  0  0  0  0  0  0  0  0  0
  144.5305  146.3859  158.0472 C   0  0  0  0  0  0  0  0  0  0  0  0
  144.8117  147.7721  157.4429 C   0  0  0  0  0  0  0  0  0  0  0  0
  144.8348  148.7500  158.4701 O   0  0  0  0  0  0  0  0  0  0  0  0
  145.8724  148.4905  159.4017 C   0  0  0  0  0  0  0  0  0  0  0  0
  145.6267  147.1364  160.0873 C   0  0  0  0  0  0  0  0  0  0  0  0
  150.8853  143.2034  160.0905 N   0  0  0  0  0  0  0  0  0  0  0  0
  153.5341  143.0210  162.1291 H   0  0  0  0  0  0  0  0  0  0  0  0
  152.3395  141.7304  161.9572 H   0  0  0  0  0  0  0  0  0  0  0  0
  151.8533  143.3115  162.5843 H   0  0  0  0  0  0  0  0  0  0  0  0
  154.2341  143.7498  159.9193 H   0  0  0  0  0  0  0  0  0  0  0  0
  153.5958  144.4757  157.6073 H   0  0  0  0  0  0  0  0  0  0  0  0
  151.2003  144.3655  156.9226 H   0  0  0  0  0  0  0  0  0  0  0  0
  149.1014  143.4558  157.3561 H   0  0  0  0  0  0  0  0  0  0  0  0
  147.1377  143.3454  157.2825 H   0  0  0  0  0  0  0  0  0  0  0  0
  145.0023  143.6505  157.8113 H   0  0  0  0  0  0  0  0  0  0  0  0
  144.1762  142.0750  159.5762 H   0  0  0  0  0  0  0  0  0  0  0  0
  145.8246  141.8826  160.1671 H   0  0  0  0  0  0  0  0  0  0  0  0
  145.3964  141.3438  158.5492 H   0  0  0  0  0  0  0  0  0  0  0  0
  146.0427  144.6026  160.5264 H   0  0  0  0  0  0  0  0  0  0  0  0
  143.7316  143.5385  160.7452 H   0  0  0  0  0  0  0  0  0  0  0  0
  143.1188  144.7866  159.6710 H   0  0  0  0  0  0  0  0  0  0  0  0
  143.8114  145.1956  161.2412 H   0  0  0  0  0  0  0  0  0  0  0  0
  144.5508  145.6694  157.2275 H   0  0  0  0  0  0  0  0  0  0  0  0
  143.5283  146.3620  158.4780 H   0  0  0  0  0  0  0  0  0  0  0  0
  145.7564  147.7751  156.8966 H   0  0  0  0  0  0  0  0  0  0  0  0
  144.0320  148.0334  156.7274 H   0  0  0  0  0  0  0  0  0  0  0  0
  146.8428  148.5051  158.9024 H   0  0  0  0  0  0  0  0  0  0  0  0
  145.8861  149.2891  160.1436 H   0  0  0  0  0  0  0  0  0  0  0  0
  144.7095  147.1787  160.6770 H   0  0  0  0  0  0  0  0  0  0  0  0
  146.4484  146.9747  160.7813 H   0  0  0  0  0  0  0  0  0  0  0  0
  146.4243  145.9870  158.6239 H   0  0  0  0  0  0  0  0  0  0  0  0
  1  2  1  0  0  0  0
  1 22  1  0  0  0  0
  1 23  1  0  0  0  0
  1 24  1  0  0  0  0
  2 21  1  0  0  0  0
  2  3  2  0  0  0  0
  3  4  1  0  0  0  0
  3 25  1  0  0  0  0
  4  5  2  0  0  0  0
  4 26  1  0  0  0  0
  5  6  1  0  0  0  0
  5 27  1  0  0  0  0
  6  7  1  0  0  0  0
  6 21  2  0  0  0  0
  7  8  1  0  0  0  0
  7 28  1  0  0  0  0
  8  9  2  0  0  0  0
  8 10  1  0  0  0  0
 10 11  1  0  0  0  0
 10 29  1  0  0  0  0
 11 12  1  0  0  0  0
 11 13  1  0  0  0  0
 11 30  1  0  0  0  0
 12 31  1  0  0  0  0
 12 32  1  0  0  0  0
 12 33  1  0  0  0  0
 13 14  1  0  0  0  0
 13 15  1  0  0  0  0
 13 34  1  0  0  0  0
 14 35  1  0  0  0  0
 14 36  1  0  0  0  0
 14 37  1  0  0  0  0
 15 20  1  0  0  0  0
 15 16  1  0  0  0  0
 15 46  1  0  0  0  0
 16 17  1  0  0  0  0
 16 38  1  0  0  0  0
 16 39  1  0  0  0  0
 17 18  1  0  0  0  0
 17 40  1  0  0  0  0
 17 41  1  0  0  0  0
 18 19  1  0  0  0  0
 19 20  1  0  0  0  0
 19 42  1  0  0  0  0
 19 43  1  0  0  0  0
 20 44  1  0  0  0  0
 20 45  1  0  0  0  0
M  CHG  1  15   1
M  END
> <s_m_source_file>
AV-unprocessed.smi

> <i_m_source_file_index>
2390

> <i_lp_mmshare_version>
43012

> <i_f3d_flags>
0

> <s_epik_input>
W0NIM11jMVtjSF1bY0hdW2NIXWMobjEpW05IXUMoPU8pW05IXVtDQEhdKFtDSDNdKVtDQEhdKFtDSDNdKU4yW0NIMl1bQ0gyXU9bQ0gyXVtDSDJdMg==

> <s_epik_cmdline>
J2VwaWtfcHl0aG9uJywgJy1waCcsICc3LjAnLCAnLXRuJywgJzgnLCAnLW1hJywgJzIwMCcsICctbWV0YWxfYmluZGluZycsICctaW1hZScsICc8aW5maWxlLm1hZT4nLCAnLW9tYWUnLCAnPG91dGZpbGUubWFlPic=

> <r_epik_Ionization_Penalty>
0.60259

> <r_epik_Ionization_Penalty_Charging>
0.602531

> <r_epik_Ionization_Penalty_Neutral>
5.9516e-05

> <r_epik_State_Penalty>
0.617039

> <r_epik_Charging_Adjusted_Penalty>
1.21957

> <i_epik_Tot_Q>
1

> <i_epik_Tot_abs_Q>
1

> <r_epik_Metal_State_Penalty>
0.617047

> <b_epik_Metal_Only>
0

> <s_lp_Force_Field>
OPLS_2005

> <r_lp_Energy>
24.4942

> <b_lp_Chiralities_Consistent>
1

> <s_lp_Variant>
AV-unprocessed.smi:2390-6

> <Gold.Version>
5.8.1

> <Gold.Id.Protein>
6NUR|6NUR_protein|mol2

> <Gold.PLP.Fitness>
47.2482

> <Gold.PLP.PLP>
-36.9904

> <Gold.PLP.part.hbond>
-6.3347

> <Gold.PLP.part.metal>
0.0000

> <Gold.PLP.part.buried>
-0.8028

> <Gold.PLP.part.nonpolar>
-29.7122

> <Gold.PLP.part.repulsive>
0.3716

> <Gold.PLP.ligand.clash>
0.0000

> <Gold.PLP.ligand.torsion>
0.5580

> <Gold.PLP.Chemscore.Hbond>
3.7517

> <Gold.PLP.Chemscore.CHOScore>
0.0000

> <Gold.PLP.Chemscore.Metal>
0.0000

> <Gold.Chemscore.Hbonds>
donor molecule, donor type, donor heavy atom, donor atom, acceptor molecule, acceptor atom, score
      L1  H     7    28       P1  8028  0.59
      L1  H    15    46       P1  8029  2.00
      P1  H  6933  6944       L1     9  1.00

> <Gold.PLP.Chemscore.Internal.Correction>
0.1187

> <Gold.Rescore>
     Score         DG    S(hbond)    S(metal)    S(lipo)     H(rot)  DE(clash)    DE(int)     intcor
     17.58     -21.26       2.43        0.00      97.94       1.48       0.57       3.10       ----

> <Gold.Chemscore.Fitness>
17.5826

> <Gold.Chemscore.DG>
-21.2573

> <Gold.Chemscore.ZeroCoef>
-5.4800

> <Gold.Chemscore.Hbond>
2.4305

> <Gold.Chemscore.Metal>
0.0000

> <Gold.Chemscore.Lipo>
97.9445

> <Gold.Chemscore.Internal_Hbond>
0.0000

> <Gold.Chemscore.DEClash>
0.5722

> <Gold.Chemscore.DEInternal>
3.1025

> <Gold.Chemscore.Rot>
1.4844

> <Gold.Chemscore.Internal.Correction>
   9.000000E+99

> <Gold.Chemscore.Hbonds>
donor molecule, donor type, donor heavy atom, donor atom, acceptor molecule, acceptor atom, score
      L1  H     7    28       P1  8028  0.29
      L1  H    15    46       P1  8029  0.99
      P1  H  6933  6944       L1     9  0.94

> <Gold.Chemscore.Hbond.Weighted>
-8.1178

> <Gold.Chemscore.Metal.Weighted>
-0.0000

> <Gold.Chemscore.Lipo.Weighted>
-11.4595

> <Gold.Chemscore.Internal_Hbond.Weighted>
0.0000

> <Gold.Chemscore.DEClash.Weighted>
0.5722

> <Gold.Chemscore.DEInternal.Weighted>
3.1025

> <Gold.Chemscore.Rot.Weighted>
3.8000

> <Gold.Chemscore.Internal.Correction.Weighted>
   9.000000E+99

> <Gold.Protein.RotatedTorsions>
[ 6907 6896 6895 6894 ] final -164.99 input  -60.11 | X-H torsion
[ 7974 7965 7964 7962 ] final   81.26 input  175.53 | X-H torsion
[ 8008 7997 7996 7995 ] final  -30.08 input   59.86 | X-H torsion
[ 10167 10162 10161 10158 ] final    7.86 input  -65.29 | X-H torsion
[ 10718 10713 10712 10709 ] final   49.83 input   66.30 | X-H torsion
[ 10763 10752 10751 10750 ] final  159.73 input  -60.55 | X-H torsion
[ 11005 11000 10999 10996 ] final   27.41 input  -57.11 | X-H torsion

> <Gold.Protein.ActiveResidues>
 VAL166  LYS551  ARG553  GLY616  TRP617  ASP618  TYR619  PRO620  LYS621  CYS622 
 ASP623  PHE694  ASN695  SER759  ASP760  ASP761  ALA762  ILE779  LEU786  VAL792 
 PHE793  MET794  SER795  GLU796  ALA797  LYS798  CYS799  TRP800  GLU811  SER814 

> <Gold.Protein.RotatedAtoms>
  151.4206  133.3699  159.2755 H   0  0  0  0  0  0  0  0  0  0  0  0  # atno 6907 bound_to 6896
  150.9296  134.8713  159.7553 H   0  0  0  0  0  0  0  0  0  0  0  0  # atno 6908 bound_to 6896
  152.5022  134.4149  159.9513 H   0  0  0  0  0  0  0  0  0  0  0  0  # atno 6909 bound_to 6896
  145.6405  139.2424  143.2033 H   0  0  0  0  0  0  0  0  0  0  0  0  # atno 7974 bound_to 7965
  154.4264  140.1801  156.1350 H   0  0  0  0  0  0  0  0  0  0  0  0  # atno 8008 bound_to 7997
  156.0037  140.3357  155.6846 H   0  0  0  0  0  0  0  0  0  0  0  0  # atno 8009 bound_to 7997
  155.6207  140.0659  157.2669 H   0  0  0  0  0  0  0  0  0  0  0  0  # atno 8010 bound_to 7997
  140.6348  143.7912  150.7344 H   0  0  0  0  0  0  0  0  0  0  0  0  # atno 10167 bound_to 10162
  157.4825  130.8324  149.8110 H   0  0  0  0  0  0  0  0  0  0  0  0  # atno 10718 bound_to 10713
  154.2364  135.2776  155.2871 H   0  0  0  0  0  0  0  0  0  0  0  0  # atno 10763 bound_to 10752
  154.5582  135.5655  153.6986 H   0  0  0  0  0  0  0  0  0  0  0  0  # atno 10764 bound_to 10752
  153.0009  135.6291  154.2507 H   0  0  0  0  0  0  0  0  0  0  0  0  # atno 10765 bound_to 10752
  140.3265  134.2485  155.7709 H   0  0  0  0  0  0  0  0  0  0  0  0  # atno 11005 bound_to 11000
  146.1284  140.7217  142.9424 LP  0  0  0  0  0  0  0  0  0  0  0  0  # atno 17320 bound_to 7965
  144.7159  140.4208  143.7045 LP  0  0  0  0  0  0  0  0  0  0  0  0  # atno 17321 bound_to 7965
  140.1531  143.4340  152.2118 LP  0  0  0  0  0  0  0  0  0  0  0  0  # atno 17342 bound_to 10162
  139.5559  144.7372  151.4297 LP  0  0  0  0  0  0  0  0  0  0  0  0  # atno 17343 bound_to 10162
  156.0129  130.3825  150.2204 LP  0  0  0  0  0  0  0  0  0  0  0  0  # atno 17370 bound_to 10713
  157.0391  131.0030  151.3289 LP  0  0  0  0  0  0  0  0  0  0  0  0  # atno 17371 bound_to 10713
  141.2074  133.7807  157.0122 LP  0  0  0  0  0  0  0  0  0  0  0  0  # atno 17394 bound_to 11000
  140.0897  134.9600  157.1756 LP  0  0  0  0  0  0  0  0  0  0  0  0  # atno 17395 bound_to 11000

$$$$
