AV-unprocessed.smi:980|AV-procd|sdf|4312|dock1
  -GOLD-   22720 2213D 1   1.00000     0.00000
 Structure written by MMmdl.
 44 45  0  0  0  0  0  0  0  0  1 V2000
  150.4938  144.5857  159.5135 C   0  0  0  0  0  0  0  0  0  0  0  0
  151.6137  143.7932  158.8059 C   0  0  0  0  0  0  0  0  0  0  0  0
  150.9515  142.8217  157.8089 C   0  0  0  0  0  0  0  0  0  0  0  0
  152.5016  144.7993  158.0471 C   0  0  0  0  0  0  0  0  0  0  0  0
  152.4506  143.0185  159.8049 C   0  0  0  0  0  0  0  0  0  0  0  0
  153.0347  143.4802  160.9628 C   0  0  0  0  0  0  0  0  0  0  0  0
  153.9267  142.2379  161.7965 S   0  0  0  0  0  0  0  0  0  0  0  0
  153.4586  141.1039  160.5394 C   0  0  0  0  0  0  0  0  0  0  0  0
  153.9060  139.6813  160.5132 C   0  0  0  0  0  0  0  0  0  0  0  0
  155.2114  139.4671  161.2963 C   0  0  0  0  0  0  0  0  0  0  0  0
  156.3091  140.2559  160.7495 N   0  0  0  0  0  0  0  0  0  0  0  0
  156.7512  140.1935  159.4839 C   0  0  0  0  0  0  0  0  0  0  0  0
  156.2730  139.4365  158.6385 O   0  0  0  0  0  0  0  0  0  0  0  0
  157.9062  141.1347  159.1158 C   0  0  1  0  0  0  0  0  0  0  0  0
  159.2154  140.7216  159.8262 C   0  0  0  0  0  0  0  0  0  0  0  0
  160.4193  141.4768  159.2901 C   0  0  0  0  0  0  0  0  0  0  0  0
  160.4111  142.1519  158.1277 C   0  0  0  0  0  0  0  0  0  0  0  0
  159.1999  142.2305  157.2152 C   0  0  0  0  0  0  0  0  0  0  0  0
  158.1199  141.1976  157.5897 C   0  0  0  0  0  0  0  0  0  0  0  0
  152.7119  141.6596  159.5827 N   0  0  0  0  0  0  0  0  0  0  0  0
  149.8883  145.1428  158.7976 H   0  0  0  0  0  0  0  0  0  0  0  0
  150.9002  145.3076  160.2230 H   0  0  0  0  0  0  0  0  0  0  0  0
  149.8201  143.9248  160.0605 H   0  0  0  0  0  0  0  0  0  0  0  0
  150.3153  142.0998  158.3225 H   0  0  0  0  0  0  0  0  0  0  0  0
  151.6939  142.2592  157.2414 H   0  0  0  0  0  0  0  0  0  0  0  0
  150.3299  143.3540  157.0882 H   0  0  0  0  0  0  0  0  0  0  0  0
  151.9209  145.3816  157.3309 H   0  0  0  0  0  0  0  0  0  0  0  0
  153.2929  144.2969  157.4897 H   0  0  0  0  0  0  0  0  0  0  0  0
  152.9782  145.5017  158.7320 H   0  0  0  0  0  0  0  0  0  0  0  0
  153.0028  144.4767  161.3774 H   0  0  0  0  0  0  0  0  0  0  0  0
  153.1118  139.0615  160.9309 H   0  0  0  0  0  0  0  0  0  0  0  0
  154.0276  139.3743  159.4735 H   0  0  0  0  0  0  0  0  0  0  0  0
  155.0683  139.7074  162.3513 H   0  0  0  0  0  0  0  0  0  0  0  0
  155.5003  138.4166  161.2536 H   0  0  0  0  0  0  0  0  0  0  0  0
  156.7588  140.9070  161.3766 H   0  0  0  0  0  0  0  0  0  0  0  0
  157.6444  142.1401  159.4514 H   0  0  0  0  0  0  0  0  0  0  0  0
  159.1316  140.9171  160.8959 H   0  0  0  0  0  0  0  0  0  0  0  0
  159.4098  139.6540  159.7130 H   0  0  0  0  0  0  0  0  0  0  0  0
  161.3194  141.4457  159.8863 H   0  0  0  0  0  0  0  0  0  0  0  0
  161.2963  142.6822  157.8086 H   0  0  0  0  0  0  0  0  0  0  0  0
  158.7937  143.2403  157.2799 H   0  0  0  0  0  0  0  0  0  0  0  0
  159.5161  142.0802  156.1827 H   0  0  0  0  0  0  0  0  0  0  0  0
  158.4255  140.2157  157.2241 H   0  0  0  0  0  0  0  0  0  0  0  0
  157.1880  141.4396  157.0766 H   0  0  0  0  0  0  0  0  0  0  0  0
  1  2  1  0  0  0  0
  1 21  1  0  0  0  0
  1 22  1  0  0  0  0
  1 23  1  0  0  0  0
  2  3  1  0  0  0  0
  2  4  1  0  0  0  0
  2  5  1  0  0  0  0
  3 24  1  0  0  0  0
  3 25  1  0  0  0  0
  3 26  1  0  0  0  0
  4 27  1  0  0  0  0
  4 28  1  0  0  0  0
  4 29  1  0  0  0  0
  5 20  1  0  0  0  0
  5  6  2  0  0  0  0
  6  7  1  0  0  0  0
  6 30  1  0  0  0  0
  7  8  1  0  0  0  0
  8  9  1  0  0  0  0
  8 20  2  0  0  0  0
  9 10  1  0  0  0  0
  9 31  1  0  0  0  0
  9 32  1  0  0  0  0
 10 11  1  0  0  0  0
 10 33  1  0  0  0  0
 10 34  1  0  0  0  0
 11 12  1  0  0  0  0
 11 35  1  0  0  0  0
 12 13  2  0  0  0  0
 12 14  1  0  0  0  0
 14 19  1  0  0  0  0
 14 15  1  0  0  0  0
 14 36  1  0  0  0  0
 15 16  1  0  0  0  0
 15 37  1  0  0  0  0
 15 38  1  0  0  0  0
 16 17  2  0  0  0  0
 16 39  1  0  0  0  0
 17 18  1  0  0  0  0
 17 40  1  0  0  0  0
 18 19  1  0  0  0  0
 18 41  1  0  0  0  0
 18 42  1  0  0  0  0
 19 43  1  0  0  0  0
 19 44  1  0  0  0  0
M  END
> <s_m_source_file>
AV-unprocessed.smi

> <i_m_source_file_index>
980

> <i_lp_mmshare_version>
43012

> <i_f3d_flags>
0

> <s_epik_input>
W0NIM11DKFtDSDNdKShbQ0gzXSljMVtjSF1zYyhuMSlbQ0gyXVtDSDJdW05IXUMoPU8pW0NAQEhdMltDSDJdW0NIXT1bQ0hdW0NIMl1bQ0gyXTI=

> <s_epik_cmdline>
J2VwaWtfcHl0aG9uJywgJy1waCcsICc3LjAnLCAnLXRuJywgJzgnLCAnLW1hJywgJzIwMCcsICctbWV0YWxfYmluZGluZycsICctaW1hZScsICc8aW5maWxlLm1hZT4nLCAnLW9tYWUnLCAnPG91dGZpbGUubWFlPic=

> <r_epik_Ionization_Penalty>
0.000809238

> <r_epik_Ionization_Penalty_Charging>
0

> <r_epik_Ionization_Penalty_Neutral>
0.000809238

> <r_epik_State_Penalty>
0.000520038

> <r_epik_Charging_Adjusted_Penalty>
0.000520038

> <i_epik_Tot_Q>
0

> <i_epik_Tot_abs_Q>
0

> <r_epik_Metal_State_Penalty>
-0

> <b_epik_Metal_Only>
0

> <s_lp_Force_Field>
OPLS_2005

> <r_lp_Energy>
-0.741004

> <b_lp_Chiralities_Consistent>
1

> <s_lp_Variant>
AV-unprocessed.smi:980-2

> <Gold.Version>
5.8.1

> <Gold.Id.Protein>
6NUR|6NUR_protein|mol2

> <Gold.PLP.Fitness>
47.7189

> <Gold.PLP.PLP>
-46.3553

> <Gold.PLP.part.hbond>
-1.1279

> <Gold.PLP.part.metal>
0.0000

> <Gold.PLP.part.buried>
-3.2991

> <Gold.PLP.part.nonpolar>
-42.2285

> <Gold.PLP.part.repulsive>
0.0792

> <Gold.PLP.ligand.clash>
0.0000

> <Gold.PLP.ligand.torsion>
0.8514

> <Gold.PLP.Chemscore.Hbond>
1.0000

> <Gold.PLP.Chemscore.CHOScore>
0.0000

> <Gold.PLP.Chemscore.Metal>
0.0000

> <Gold.Chemscore.Hbonds>
donor molecule, donor type, donor heavy atom, donor atom, acceptor molecule, acceptor atom, score
      P1  H  7997  8009       L1    13  0.90

> <Gold.PLP.Chemscore.Internal.Correction>
0.0664

> <Gold.Rescore>
     Score         DG    S(hbond)    S(metal)    S(lipo)     H(rot)  DE(clash)    DE(int)     intcor
     20.27     -23.32       0.98        0.00     155.29       1.41       0.96       2.09       ----

> <Gold.Chemscore.Fitness>
20.2694

> <Gold.Chemscore.DG>
-23.3191

> <Gold.Chemscore.ZeroCoef>
-5.4800

> <Gold.Chemscore.Hbond>
0.9817

> <Gold.Chemscore.Metal>
0.0000

> <Gold.Chemscore.Lipo>
155.2908

> <Gold.Chemscore.Internal_Hbond>
0.0000

> <Gold.Chemscore.DEClash>
0.9554

> <Gold.Chemscore.DEInternal>
2.0943

> <Gold.Chemscore.Rot>
1.4097

> <Gold.Chemscore.Internal.Correction>
   9.000000E+99

> <Gold.Chemscore.Hbonds>
donor molecule, donor type, donor heavy atom, donor atom, acceptor molecule, acceptor atom, score
      P1  H  7997  8009       L1    13  0.82

> <Gold.Chemscore.Hbond.Weighted>
-3.2788

> <Gold.Chemscore.Metal.Weighted>
-0.0000

> <Gold.Chemscore.Lipo.Weighted>
-18.1690

> <Gold.Chemscore.Internal_Hbond.Weighted>
0.0000

> <Gold.Chemscore.DEClash.Weighted>
0.9554

> <Gold.Chemscore.DEInternal.Weighted>
2.0943

> <Gold.Chemscore.Rot.Weighted>
3.6087

> <Gold.Chemscore.Internal.Correction.Weighted>
   9.000000E+99

> <Gold.Protein.RotatedTorsions>
[ 6907 6896 6895 6894 ] final  -62.93 input  -60.11 | X-H torsion
[ 7974 7965 7964 7962 ] final  100.95 input  175.53 | X-H torsion
[ 8008 7997 7996 7995 ] final   62.30 input   59.86 | X-H torsion
[ 10167 10162 10161 10158 ] final  -79.22 input  -65.29 | X-H torsion
[ 10718 10713 10712 10709 ] final  -64.87 input   66.30 | X-H torsion
[ 10763 10752 10751 10750 ] final -125.01 input  -60.55 | X-H torsion
[ 11005 11000 10999 10996 ] final  -51.34 input  -57.11 | X-H torsion

> <Gold.Protein.ActiveResidues>
 VAL166  LYS551  ARG553  GLY616  TRP617  ASP618  TYR619  PRO620  LYS621  CYS622 
 ASP623  PHE694  ASN695  SER759  ASP760  ASP761  ALA762  ILE779  LEU786  VAL792 
 PHE793  MET794  SER795  GLU796  ALA797  LYS798  CYS799  TRP800  GLU811  SER814 

> <Gold.Protein.RotatedAtoms>
  150.7683  134.6504  159.6284 H   0  0  0  0  0  0  0  0  0  0  0  0  # atno 6907 bound_to 6896
  152.3724  134.6711  160.0180 H   0  0  0  0  0  0  0  0  0  0  0  0  # atno 6908 bound_to 6896
  151.7066  133.3275  159.3316 H   0  0  0  0  0  0  0  0  0  0  0  0  # atno 6909 bound_to 6896
  145.3788  139.2383  143.3414 H   0  0  0  0  0  0  0  0  0  0  0  0  # atno 7974 bound_to 7965
  155.6121  140.3495  155.4625 H   0  0  0  0  0  0  0  0  0  0  0  0  # atno 8008 bound_to 7997
  156.0146  140.1240  157.0443 H   0  0  0  0  0  0  0  0  0  0  0  0  # atno 8009 bound_to 7997
  154.4293  140.1075  156.5864 H   0  0  0  0  0  0  0  0  0  0  0  0  # atno 8010 bound_to 7997
  140.4613  143.2453  151.8344 H   0  0  0  0  0  0  0  0  0  0  0  0  # atno 10167 bound_to 10162
  156.0703  130.4239  150.1482 H   0  0  0  0  0  0  0  0  0  0  0  0  # atno 10718 bound_to 10713
  154.8731  135.4044  154.3199 H   0  0  0  0  0  0  0  0  0  0  0  0  # atno 10763 bound_to 10752
  153.4029  135.7018  153.6419 H   0  0  0  0  0  0  0  0  0  0  0  0  # atno 10764 bound_to 10752
  153.5154  135.3698  155.2577 H   0  0  0  0  0  0  0  0  0  0  0  0  # atno 10765 bound_to 10752
  141.0865  133.6641  156.3862 H   0  0  0  0  0  0  0  0  0  0  0  0  # atno 11005 bound_to 11000
  146.2851  140.4452  142.8761 LP  0  0  0  0  0  0  0  0  0  0  0  0  # atno 17320 bound_to 7965
  144.8522  140.7018  143.6161 LP  0  0  0  0  0  0  0  0  0  0  0  0  # atno 17321 bound_to 7965
  139.4806  144.5004  151.9068 LP  0  0  0  0  0  0  0  0  0  0  0  0  # atno 17342 bound_to 10162
  140.4090  144.2394  150.5889 LP  0  0  0  0  0  0  0  0  0  0  0  0  # atno 17343 bound_to 10162
  156.9534  130.9782  151.3493 LP  0  0  0  0  0  0  0  0  0  0  0  0  # atno 17370 bound_to 10713
  157.5770  130.8350  149.8469 LP  0  0  0  0  0  0  0  0  0  0  0  0  # atno 17371 bound_to 10713
  140.5350  134.6176  157.5362 LP  0  0  0  0  0  0  0  0  0  0  0  0  # atno 17394 bound_to 11000
  139.9684  134.7333  156.0090 LP  0  0  0  0  0  0  0  0  0  0  0  0  # atno 17395 bound_to 11000

$$$$
