#       Name:                AV-unprocessed.smi:1196
#       Creating user name   scv26
#       Creation time:       Fri Mar 27 04:00:30 2020


#       File generated by GOLD software.
#

@<TRIPOS>MOLECULE
AV-unprocessed.smi:1196
    44    45     1
SMALL
NO_CHARGES


@<TRIPOS>ATOM
      1 ****        -3.3571  -1.4206   1.6988 C.3            1 S1                 0.0000
      2 ****        -2.7744  -0.7542   0.4428 C.3            1 S1                 0.0000
      3 ****        -3.3139  -1.4073  -0.8449 C.3            1 S1                 0.0000
      4 ****        -2.8611  -0.7266  -2.0454 N.pl3          1 S1                 0.0000
      5 ****        -1.9231  -1.1449  -2.9660 C.2            1 S1                 0.0000
      6 ****        -1.8285  -0.1726  -3.9198 C.2            1 S1                 0.0000
      7 ****        -2.7617   0.8126  -3.4918 C.2            1 S1                 0.0000
      8 ****        -3.3794   0.4773  -2.3707 N.2            1 S1                 0.0000
      9 ****        -1.3147  -0.8295   0.4677 N.am           1 S1                 0.0000
     10 ****        -0.4999   0.0524   1.0657 C.2            1 S1                 0.0000
     11 ****        -0.9082   1.0237   1.7033 O.2            1 S1                 0.0000
     12 ****         1.0000  -0.2141   0.9044 C.3            1 S1                 0.0000
     13 ****         1.8932   0.8052   1.6391 C.3            1 S1                 0.0000
     14 ****         3.3983   0.5204   1.4731 C.3            1 S1                 0.0000
     15 ****         3.8461   0.6494   0.0967 N.am           1 S1                 0.0000
     16 ****         4.7920   1.5872  -0.0492 C.2            1 S1                 0.0000
     17 ****         5.3436   1.8983  -1.1021 O.2            1 S1                 0.0000
     18 ****         5.0290   2.1245   1.1523 N.am           1 S1                 0.0000
     19 ****         4.2712   1.5888   2.1075 C.2            1 S1                 0.0000
     20 ****         4.2604   1.8896   3.2996 O.2            1 S1                 0.0000
     21 ****        -4.4458  -1.3622   1.7030 H              1 S1                 0.0000
     22 ****        -3.0005  -0.9334   2.6069 H              1 S1                 0.0000
     23 ****        -3.0801  -2.4737   1.7546 H              1 S1                 0.0000
     24 ****        -3.0807   0.2937   0.4440 H              1 S1                 0.0000
     25 ****        -3.0110  -2.4539  -0.9008 H              1 S1                 0.0000
     26 ****        -4.4048  -1.3994  -0.8422 H              1 S1                 0.0000
     27 ****        -1.4050  -2.0871  -2.8650 H              1 S1                 0.0000
     28 ****        -1.1901  -0.1656  -4.7907 H              1 S1                 0.0000
     29 ****        -3.0068   1.7549  -3.9591 H              1 S1                 0.0000
     30 ****        -0.8917  -1.5984  -0.0315 H              1 S1                 0.0000
     31 ****         1.2149  -1.2192   1.2698 H              1 S1                 0.0000
     32 ****         1.2293  -0.2114  -0.1618 H              1 S1                 0.0000
     33 ****         1.6692   1.8132   1.2845 H              1 S1                 0.0000
     34 ****         1.6474   0.7946   2.7023 H              1 S1                 0.0000
     35 ****         3.6653  -0.4619   1.8652 H              1 S1                 0.0000
     36 ****         3.4767   0.0882  -0.6570 H              1 S1                 0.0000
     37 ****         5.7001   2.8610   1.3150 H              1 S1                 0.0000
     38 ****        -4.0743   0.9986  -1.8753 LP             1 S1                 0.0000
     39 ****        -1.8909   1.1848   1.7944 LP             1 S1                 0.0000
     40 ****        -0.2570   1.6513   2.1301 LP             1 S1                 0.0000
     41 ****         5.0949   1.4351  -1.9527 LP             1 S1                 0.0000
     42 ****         6.0413   2.6147  -1.1084 LP             1 S1                 0.0000
     43 ****         3.6438   1.4168   3.9291 LP             1 S1                 0.0000
     44 ****         4.8684   2.6071   3.6398 LP             1 S1                 0.0000
@<TRIPOS>BOND
    1    1    2 1     
    2    1   21 1     
    3    1   22 1     
    4    1   23 1     
    5    2    3 1     
    6    2    9 1     
    7    2   24 1     
    8    3    4 1     
    9    3   25 1     
   10    3   26 1     
   11    4    8 1     
   12    4    5 1     
   13    5    6 2     
   14    5   27 1     
   15    6    7 1     
   16    6   28 1     
   17    7    8 2     
   18    7   29 1     
   19    9   10 am    
   20    9   30 1     
   21   10   11 2     
   22   10   12 1     
   23   12   13 1     
   24   12   31 1     
   25   12   32 1     
   26   13   14 1     
   27   13   33 1     
   28   13   34 1     
   29   14   19 1     
   30   14   15 1     
   31   14   35 1     
   32   15   16 am    
   33   15   36 1     
   34   16   17 2     
   35   16   18 am    
   36   18   19 am    
   37   18   37 1     
   38   19   20 2     
   39    8   38 1     
   40   11   39 1     
   41   11   40 1     
   42   17   41 1     
   43   17   42 1     
   44   20   43 1     
   45   20   44 1     
@<TRIPOS>SUBSTRUCTURE
      1 S1             1
@<TRIPOS>SET
LONE_PAIRS      STATIC     ATOMS    <user>   **** ""
7 38 39 40 41 42 43 44
DONOR_HYDROGENS      STATIC     ATOMS    <user>   **** ""
3 30 36 37
ATOM$BLUE        STATIC     ATOMS    COLORGROUP SYSTEM
7 38 39 40 41 42 43 44
ATOM$RED        STATIC     ATOMS    COLORGROUP SYSTEM
3 30 36 37
