AV-unprocessed.smi:2213|AV-procd|sdf|8956|dock3
  -GOLD-   2272012173D 1   1.00000     0.00000
 Structure written by MMmdl.
 38 39  0  0  0  0  0  0  0  0  1 V2000
  144.1598  143.0268  156.7912 C   0  0  0  0  0  0  0  0  0  0  0  0
  145.4419  142.2731  156.4845 C   0  0  0  0  0  0  0  0  0  0  0  0
  146.0623  141.6658  157.5801 N   0  0  0  0  0  0  0  0  0  0  0  0
  147.1633  141.0085  157.4151 C   0  0  0  0  0  0  0  0  0  0  0  0
  147.7646  140.8819  156.1523 N   0  0  0  0  0  0  0  0  0  0  0  0
  149.0197  140.1137  156.1020 C   0  0  0  0  0  0  0  0  0  0  0  0
  150.1680  140.9077  155.4391 C   0  0  2  0  0  0  0  0  0  0  0  0
  151.1725  140.0292  154.9726 O   0  0  0  0  0  0  0  0  0  0  0  0
  150.8329  141.9136  156.3944 C   0  0  0  0  0  0  0  0  0  0  0  0
  151.4762  141.2173  157.4548 O   0  0  0  0  0  0  0  0  0  0  0  0
  151.8835  141.9308  158.5624 C   0  0  0  0  0  0  0  0  0  0  0  0
  151.5214  143.2791  158.8124 C   0  0  0  0  0  0  0  0  0  0  0  0
  151.9813  143.9408  159.9679 C   0  0  0  0  0  0  0  0  0  0  0  0
  151.5329  145.5816  160.2572 Cl  0  0  0  0  0  0  0  0  0  0  0  0
  152.8059  143.2660  160.8868 C   0  0  0  0  0  0  0  0  0  0  0  0
  153.1693  141.9281  160.6491 C   0  0  0  0  0  0  0  0  0  0  0  0
  152.7104  141.2645  159.4944 C   0  0  0  0  0  0  0  0  0  0  0  0
  153.1696  139.6206  159.2272 Cl  0  0  0  0  0  0  0  0  0  0  0  0
  147.2182  141.4303  155.0287 C   0  0  0  0  0  0  0  0  0  0  0  0
  147.7439  141.2954  153.9221 O   0  0  0  0  0  0  0  0  0  0  0  0
  145.9698  142.1826  155.2332 C   0  0  0  0  0  0  0  0  0  0  0  0
  145.3390  142.8235  154.0033 C   0  0  0  0  0  0  0  0  0  0  0  0
  144.2696  144.0826  156.5429 H   0  0  0  0  0  0  0  0  0  0  0  0
  143.9021  142.9579  157.8490 H   0  0  0  0  0  0  0  0  0  0  0  0
  143.3281  142.6169  156.2179 H   0  0  0  0  0  0  0  0  0  0  0  0
  147.6851  140.5143  158.2363 H   0  0  0  0  0  0  0  0  0  0  0  0
  149.3050  139.8562  157.1239 H   0  0  0  0  0  0  0  0  0  0  0  0
  148.8906  139.1471  155.6098 H   0  0  0  0  0  0  0  0  0  0  0  0
  149.7976  141.4637  154.5771 H   0  0  0  0  0  0  0  0  0  0  0  0
  151.9781  140.2245  155.4261 H   0  0  0  0  0  0  0  0  0  0  0  0
  151.5372  142.5464  155.8514 H   0  0  0  0  0  0  0  0  0  0  0  0
  150.0607  142.5607  156.8136 H   0  0  0  0  0  0  0  0  0  0  0  0
  150.8897  143.8285  158.1311 H   0  0  0  0  0  0  0  0  0  0  0  0
  153.1595  143.7719  161.7732 H   0  0  0  0  0  0  0  0  0  0  0  0
  153.8017  141.4100  161.3550 H   0  0  0  0  0  0  0  0  0  0  0  0
  145.0861  142.0583  153.2690 H   0  0  0  0  0  0  0  0  0  0  0  0
  146.0394  143.5194  153.5403 H   0  0  0  0  0  0  0  0  0  0  0  0
  144.4282  143.3767  154.2261 H   0  0  0  0  0  0  0  0  0  0  0  0
  1  2  1  0  0  0  0
  1 23  1  0  0  0  0
  1 24  1  0  0  0  0
  1 25  1  0  0  0  0
  2 21  2  0  0  0  0
  2  3  1  0  0  0  0
  3  4  2  0  0  0  0
  4  5  1  0  0  0  0
  4 26  1  0  0  0  0
  5  6  1  0  0  0  0
  5 19  1  0  0  0  0
  6  7  1  0  0  0  0
  6 27  1  0  0  0  0
  6 28  1  0  0  0  0
  7  8  1  0  0  0  0
  7  9  1  0  0  0  0
  7 29  1  0  0  0  0
  8 30  1  0  0  0  0
  9 10  1  0  0  0  0
  9 31  1  0  0  0  0
  9 32  1  0  0  0  0
 10 11  1  0  0  0  0
 11 17  1  0  0  0  0
 11 12  2  0  0  0  0
 12 13  1  0  0  0  0
 12 33  1  0  0  0  0
 13 14  1  0  0  0  0
 13 15  2  0  0  0  0
 15 16  1  0  0  0  0
 15 34  1  0  0  0  0
 16 17  2  0  0  0  0
 16 35  1  0  0  0  0
 17 18  1  0  0  0  0
 19 20  2  0  0  0  0
 19 21  1  0  0  0  0
 21 22  1  0  0  0  0
 22 36  1  0  0  0  0
 22 37  1  0  0  0  0
 22 38  1  0  0  0  0
M  END
> <s_m_source_file>
AV-unprocessed.smi

> <i_m_source_file_index>
2213

> <i_lp_mmshare_version>
43012

> <i_f3d_flags>
0

> <s_epik_input>
W0NIM11jMW5bY0hdbihjKD1PKWMxW0NIM10pW0NIMl1bQ0BIXShbT0hdKVtDSDJdT2MyW2NIXWMoQ2wpW2NIXVtjSF1jMkNs

> <s_epik_cmdline>
J2VwaWtfcHl0aG9uJywgJy1waCcsICc3LjAnLCAnLXRuJywgJzgnLCAnLW1hJywgJzIwMCcsICctbWV0YWxfYmluZGluZycsICctaW1hZScsICc8aW5maWxlLm1hZT4nLCAnLW9tYWUnLCAnPG91dGZpbGUubWFlPic=

> <r_lp_tautomer_probability>
1

> <r_epik_Ionization_Penalty>
3.50205e-05

> <r_epik_Ionization_Penalty_Charging>
7.87908e-08

> <r_epik_Ionization_Penalty_Neutral>
3.49418e-05

> <r_epik_State_Penalty>
-0

> <r_epik_Charging_Adjusted_Penalty>
7.87908e-08

> <i_epik_Tot_Q>
0

> <i_epik_Tot_abs_Q>
0

> <r_epik_Metal_State_Penalty>
-0

> <b_epik_Metal_Only>
0

> <s_lp_Force_Field>
OPLS_2005

> <r_lp_Energy>
24.8727

> <b_lp_Chiralities_Consistent>
1

> <s_lp_Variant>
AV-unprocessed.smi:2213-1

> <Gold.Version>
5.8.1

> <Gold.Id.Protein>
6NUR|6NUR_protein|mol2

> <Gold.PLP.Fitness>
48.0447

> <Gold.PLP.PLP>
-46.3516

> <Gold.PLP.part.hbond>
-2.0000

> <Gold.PLP.part.metal>
0.0000

> <Gold.PLP.part.buried>
-5.1011

> <Gold.PLP.part.nonpolar>
-37.5348

> <Gold.PLP.part.repulsive>
0.3048

> <Gold.PLP.ligand.clash>
0.0000

> <Gold.PLP.ligand.torsion>
0.3860

> <Gold.PLP.Chemscore.Hbond>
0.7911

> <Gold.PLP.Chemscore.CHOScore>
0.0000

> <Gold.PLP.Chemscore.Metal>
0.0000

> <Gold.Chemscore.Hbonds>
donor molecule, donor type, donor heavy atom, donor atom, acceptor molecule, acceptor atom, score
      P1  H  7989  7998       L1     8  0.70

> <Gold.PLP.Chemscore.Internal.Correction>
0.0917

> <Gold.Rescore>
     Score         DG    S(hbond)    S(metal)    S(lipo)     H(rot)  DE(clash)    DE(int)     intcor
     12.15     -14.08       0.18        0.00     120.44       2.38       0.09       1.84       ----

> <Gold.Chemscore.Fitness>
12.1494

> <Gold.Chemscore.DG>
-14.0842

> <Gold.Chemscore.ZeroCoef>
-5.4800

> <Gold.Chemscore.Hbond>
0.1834

> <Gold.Chemscore.Metal>
0.0000

> <Gold.Chemscore.Lipo>
120.4388

> <Gold.Chemscore.Internal_Hbond>
0.0000

> <Gold.Chemscore.DEClash>
0.0904

> <Gold.Chemscore.DEInternal>
1.8444

> <Gold.Chemscore.Rot>
2.3826

> <Gold.Chemscore.Internal.Correction>
   9.000000E+99

> <Gold.Chemscore.Hbonds>
donor molecule, donor type, donor heavy atom, donor atom, acceptor molecule, acceptor atom, score
      P1  H  7989  7998       L1     8  0.02

> <Gold.Chemscore.Hbond.Weighted>
-0.6124

> <Gold.Chemscore.Metal.Weighted>
-0.0000

> <Gold.Chemscore.Lipo.Weighted>
-14.0913

> <Gold.Chemscore.Internal_Hbond.Weighted>
0.0000

> <Gold.Chemscore.DEClash.Weighted>
0.0904

> <Gold.Chemscore.DEInternal.Weighted>
1.8444

> <Gold.Chemscore.Rot.Weighted>
6.0996

> <Gold.Chemscore.Internal.Correction.Weighted>
   9.000000E+99

> <Gold.Protein.RotatedTorsions>
[ 6907 6896 6895 6894 ] final -169.26 input  -60.11 | X-H torsion
[ 7974 7965 7964 7962 ] final   -4.30 input  175.53 | X-H torsion
[ 8008 7997 7996 7995 ] final   -5.51 input   59.86 | X-H torsion
[ 10167 10162 10161 10158 ] final  153.43 input  -65.29 | X-H torsion
[ 10718 10713 10712 10709 ] final -177.08 input   66.30 | X-H torsion
[ 10763 10752 10751 10750 ] final   32.34 input  -60.55 | X-H torsion
[ 11005 11000 10999 10996 ] final -113.29 input  -57.11 | X-H torsion

> <Gold.Protein.ActiveResidues>
 VAL166  LYS551  ARG553  GLY616  TRP617  ASP618  TYR619  PRO620  LYS621  CYS622 
 ASP623  PHE694  ASN695  SER759  ASP760  ASP761  ALA762  ILE779  LEU786  VAL792 
 PHE793  MET794  SER795  GLU796  ALA797  LYS798  CYS799  TRP800  GLU811  SER814 

> <Gold.Protein.RotatedAtoms>
  151.4888  133.3529  159.2849 H   0  0  0  0  0  0  0  0  0  0  0  0  # atno 6907 bound_to 6896
  150.8848  134.8247  159.7262 H   0  0  0  0  0  0  0  0  0  0  0  0  # atno 6908 bound_to 6896
  152.4786  134.4790  159.9711 H   0  0  0  0  0  0  0  0  0  0  0  0  # atno 6909 bound_to 6896
  146.2375  140.1851  142.8332 H   0  0  0  0  0  0  0  0  0  0  0  0  # atno 7974 bound_to 7965
  154.6032  140.2456  155.7765 H   0  0  0  0  0  0  0  0  0  0  0  0  # atno 8008 bound_to 7997
  156.2324  140.2962  156.0175 H   0  0  0  0  0  0  0  0  0  0  0  0  # atno 8009 bound_to 7997
  155.2176  140.0399  157.2934 H   0  0  0  0  0  0  0  0  0  0  0  0  # atno 8010 bound_to 7997
  139.4827  144.5273  151.7779 H   0  0  0  0  0  0  0  0  0  0  0  0  # atno 10167 bound_to 10162
  156.8242  130.9630  151.3110 H   0  0  0  0  0  0  0  0  0  0  0  0  # atno 10718 bound_to 10713
  153.0267  135.6415  154.1340 H   0  0  0  0  0  0  0  0  0  0  0  0  # atno 10763 bound_to 10752
  154.1068  135.2855  155.3241 H   0  0  0  0  0  0  0  0  0  0  0  0  # atno 10764 bound_to 10752
  154.6360  135.5476  153.7797 H   0  0  0  0  0  0  0  0  0  0  0  0  # atno 10765 bound_to 10752
  141.0623  133.9515  157.2644 H   0  0  0  0  0  0  0  0  0  0  0  0  # atno 11005 bound_to 11000
  144.9903  140.8541  143.5343 LP  0  0  0  0  0  0  0  0  0  0  0  0  # atno 17320 bound_to 7965
  145.1856  139.2328  143.5269 LP  0  0  0  0  0  0  0  0  0  0  0  0  # atno 17321 bound_to 7965
  140.4795  144.1470  150.5930 LP  0  0  0  0  0  0  0  0  0  0  0  0  # atno 17342 bound_to 10162
  140.4294  143.2575  151.9615 LP  0  0  0  0  0  0  0  0  0  0  0  0  # atno 17343 bound_to 10162
  157.6441  130.8829  149.9504 LP  0  0  0  0  0  0  0  0  0  0  0  0  # atno 17370 bound_to 10713
  156.0971  130.3658  150.0286 LP  0  0  0  0  0  0  0  0  0  0  0  0  # atno 17371 bound_to 10713
  139.9444  135.0186  156.8807 LP  0  0  0  0  0  0  0  0  0  0  0  0  # atno 17394 bound_to 11000
  140.5843  134.0322  155.7476 LP  0  0  0  0  0  0  0  0  0  0  0  0  # atno 17395 bound_to 11000

$$$$
