#       Name:                AV-unprocessed.smi:2243
#       Creating user name   scv26
#       Creation time:       Fri Mar 27 12:27:06 2020


#       File generated by GOLD software.
#

@<TRIPOS>MOLECULE
AV-unprocessed.smi:2243
    41    42     1
SMALL
NO_CHARGES


@<TRIPOS>ATOM
      1 ****        -1.5803  -1.0352  -2.2073 C.3            1 S1                 0.0000
      2 ****        -1.1485  -0.3173  -0.9169 C.3            1 S1                 0.0000
      3 ****         0.3140  -0.2583  -0.9010 N.am           1 S1                 0.0000
      4 ****         1.0574   0.8594  -0.8975 C.2            1 S1                 0.0000
      5 ****         0.5880   1.9978  -0.8985 O.2            1 S1                 0.0000
      6 ****         2.3694   0.5784  -0.8899 N.am           1 S1                 0.0000
      7 ****         3.4162   1.5290  -0.8828 C.2            1 S1                 0.0000
      8 ****         4.7103   1.2127  -0.8788 N.pl3          1 S1                 1.0000
      9 ****         5.4471   2.3712  -0.8722 C.2            1 S1                 0.0000
     10 ****         4.5316   3.3962  -0.8725 C.2            1 S1                 0.0000
     11 ****         3.2502   2.8824  -0.8792 O.3            1 S1                 0.0000
     12 ****        -1.6816  -0.9975   0.3726 C.3            1 S1                 0.0000
     13 ****        -3.2228  -1.0354   0.4272 C.3            1 S1                 0.0000
     14 ****        -3.7235  -1.6400   1.7491 C.3            1 S1                 0.0000
     15 ****        -3.2017  -0.9065   2.8497 O.3            1 S1                 0.0000
     16 ****        -1.7823  -0.9552   2.9159 C.3            1 S1                 0.0000
     17 ****        -1.1747  -0.3111   1.6594 C.3            1 S1                 0.0000
     18 ****        -2.6599  -0.9972  -2.3495 H              1 S1                 0.0000
     19 ****        -1.2792  -2.0832  -2.2006 H              1 S1                 0.0000
     20 ****        -1.1315  -0.5669  -3.0842 H              1 S1                 0.0000
     21 ****        -1.5582   0.6936  -0.9559 H              1 S1                 0.0000
     22 ****         0.7944  -1.1464  -0.8984 H              1 S1                 0.0000
     23 ****         5.1232   0.2883  -0.8804 H              1 S1                 0.0000
     24 ****         6.5275   2.3516  -0.8682 H              1 S1                 0.0000
     25 ****         4.6166   4.4732  -0.8687 H              1 S1                 0.0000
     26 ****        -1.3223  -2.0278   0.3844 H              1 S1                 0.0000
     27 ****        -3.6216  -0.0259   0.3192 H              1 S1                 0.0000
     28 ****        -3.6260  -1.6213  -0.3982 H              1 S1                 0.0000
     29 ****        -4.8123  -1.6018   1.7877 H              1 S1                 0.0000
     30 ****        -3.4394  -2.6905   1.8293 H              1 S1                 0.0000
     31 ****        -1.4543  -0.4191   3.8067 H              1 S1                 0.0000
     32 ****        -1.4468  -1.9879   3.0250 H              1 S1                 0.0000
     33 ****        -0.0883  -0.3660   1.7273 H              1 S1                 0.0000
     34 ****        -1.4317   0.7488   1.6364 H              1 S1                 0.0000
     35 ****         2.6414  -0.3935  -0.8897 H              1 S1                 0.0000
     36 ****        -0.4032   2.1300  -0.9021 LP             1 S1                 0.0000
     37 ****         1.1980   2.7902  -0.8957 LP             1 S1                 0.0000
     38 ****         2.7499   3.1736  -0.0638 LP             1 S1                 0.0000
     39 ****         2.7564   3.1787  -1.6967 LP             1 S1                 0.0000
     40 ****        -3.5750  -1.2886   3.6951 LP             1 S1                 0.0000
     41 ****        -3.4856   0.0483   2.7617 LP             1 S1                 0.0000
@<TRIPOS>BOND
    1    1    2 1     
    2    1   18 1     
    3    1   19 1     
    4    1   20 1     
    5    2    3 1     
    6    2   12 1     
    7    2   21 1     
    8    3   22 1     
    9    3    4 am    
   10    4    6 am    
   11    4    5 2     
   12    6    7 1     
   13    6   35 1     
   14    7   11 1     
   15    7    8 2     
   16    8   23 1     
   17    8    9 1     
   18    9   24 1     
   19    9   10 2     
   20   10   25 1     
   21   10   11 1     
   22   12   17 1     
   23   12   13 1     
   24   12   26 1     
   25   13   14 1     
   26   13   27 1     
   27   13   28 1     
   28   14   15 1     
   29   14   29 1     
   30   14   30 1     
   31   15   16 1     
   32   16   17 1     
   33   16   31 1     
   34   16   32 1     
   35   17   33 1     
   36   17   34 1     
   37    5   36 1     
   38    5   37 1     
   39   11   38 1     
   40   11   39 1     
   41   15   40 1     
   42   15   41 1     
@<TRIPOS>SUBSTRUCTURE
      1 S1             1
@<TRIPOS>SET
LONE_PAIRS      STATIC     ATOMS    <user>   **** ""
6 36 37 38 39 40 41
DONOR_HYDROGENS      STATIC     ATOMS    <user>   **** ""
3 22 35 23
ATOM$BLUE        STATIC     ATOMS    COLORGROUP SYSTEM
6 36 37 38 39 40 41
ATOM$RED        STATIC     ATOMS    COLORGROUP SYSTEM
3 22 35 23
