AV-unprocessed.smi:370|AV-procd|sdf|2436|dock9
  -GOLD-   2262022373D 1   1.00000     0.00000
 Structure written by MMmdl.
 42 43  0  0  0  0  0  0  0  0  1 V2000
  137.9610  137.1520  154.0863 C   0  0  0  0  0  0  0  0  0  0  0  0
  139.4388  137.3056  154.2008 C   0  0  0  0  0  0  0  0  0  0  0  0
  140.3157  138.2390  153.7249 C   0  0  0  0  0  0  0  0  0  0  0  0
  141.5729  137.7709  154.2067 C   0  0  0  0  0  0  0  0  0  0  0  0
  142.8360  138.3776  153.9851 N   0  0  0  0  0  0  0  0  0  0  0  0
  144.0311  138.0248  154.4876 C   0  0  0  0  0  0  0  0  0  0  0  0
  144.2369  137.0630  155.2277 O   0  0  0  0  0  0  0  0  0  0  0  0
  144.9945  138.8566  154.0673 N   0  0  0  0  0  0  0  0  0  0  0  0
  146.4172  138.7562  154.3928 C   0  0  0  0  0  0  0  0  0  0  0  0
  147.1414  140.1341  154.3539 C   0  0  0  0  0  0  0  0  0  0  0  0
  147.0870  140.6370  152.8909 C   0  0  0  0  0  0  0  0  0  0  0  0
  146.2829  141.1070  155.2020 C   0  0  0  0  0  0  0  0  0  0  0  0
  148.5300  140.0410  154.8871 N   0  0  0  0  0  0  0  0  0  0  0  0
  149.3996  139.0905  154.1834 C   0  0  0  0  0  0  0  0  0  0  0  0
  150.7738  138.9533  154.8601 C   0  0  0  0  0  0  0  0  0  0  0  0
  151.3957  140.2297  154.9420 O   0  0  0  0  0  0  0  0  0  0  0  0
  150.6126  141.1681  155.6692 C   0  0  0  0  0  0  0  0  0  0  0  0
  149.2348  141.3227  155.0029 C   0  0  0  0  0  0  0  0  0  0  0  0
  141.4667  136.6543  154.9035 N   0  0  0  0  0  0  0  0  0  0  0  0
  140.1004  136.3504  154.9077 O   0  0  0  0  0  0  0  0  0  0  0  0
  137.5093  138.0441  153.6519 H   0  0  0  0  0  0  0  0  0  0  0  0
  137.5113  136.9886  155.0657 H   0  0  0  0  0  0  0  0  0  0  0  0
  137.7095  136.3023  153.4514 H   0  0  0  0  0  0  0  0  0  0  0  0
  140.0789  139.1068  153.1282 H   0  0  0  0  0  0  0  0  0  0  0  0
  142.8280  139.1743  153.3654 H   0  0  0  0  0  0  0  0  0  0  0  0
  144.7302  139.6108  153.4505 H   0  0  0  0  0  0  0  0  0  0  0  0
  146.5004  138.2993  155.3785 H   0  0  0  0  0  0  0  0  0  0  0  0
  146.9161  138.0501  153.7264 H   0  0  0  0  0  0  0  0  0  0  0  0
  146.0569  140.7017  152.5384 H   0  0  0  0  0  0  0  0  0  0  0  0
  147.6106  139.9701  152.2064 H   0  0  0  0  0  0  0  0  0  0  0  0
  147.5178  141.6317  152.7793 H   0  0  0  0  0  0  0  0  0  0  0  0
  145.2270  141.0443  154.9359 H   0  0  0  0  0  0  0  0  0  0  0  0
  146.5709  142.1478  155.0555 H   0  0  0  0  0  0  0  0  0  0  0  0
  146.3622  140.8906  156.2678 H   0  0  0  0  0  0  0  0  0  0  0  0
  148.9486  138.1007  154.1493 H   0  0  0  0  0  0  0  0  0  0  0  0
  149.5472  139.4072  153.1509 H   0  0  0  0  0  0  0  0  0  0  0  0
  150.6714  138.5244  155.8583 H   0  0  0  0  0  0  0  0  0  0  0  0
  151.4132  138.2818  154.2873 H   0  0  0  0  0  0  0  0  0  0  0  0
  150.5062  140.8401  156.7044 H   0  0  0  0  0  0  0  0  0  0  0  0
  151.1329  142.1256  155.6892 H   0  0  0  0  0  0  0  0  0  0  0  0
  149.3701  141.7693  154.0177 H   0  0  0  0  0  0  0  0  0  0  0  0
  148.6590  142.0308  155.5960 H   0  0  0  0  0  0  0  0  0  0  0  0
  1  2  1  0  0  0  0
  1 21  1  0  0  0  0
  1 22  1  0  0  0  0
  1 23  1  0  0  0  0
  2 20  1  0  0  0  0
  2  3  2  0  0  0  0
  3  4  1  0  0  0  0
  3 24  1  0  0  0  0
  4  5  1  0  0  0  0
  4 19  2  0  0  0  0
  5  6  1  0  0  0  0
  5 25  1  0  0  0  0
  6  7  2  0  0  0  0
  6  8  1  0  0  0  0
  8  9  1  0  0  0  0
  8 26  1  0  0  0  0
  9 10  1  0  0  0  0
  9 27  1  0  0  0  0
  9 28  1  0  0  0  0
 10 11  1  0  0  0  0
 10 12  1  0  0  0  0
 10 13  1  0  0  0  0
 11 29  1  0  0  0  0
 11 30  1  0  0  0  0
 11 31  1  0  0  0  0
 12 32  1  0  0  0  0
 12 33  1  0  0  0  0
 12 34  1  0  0  0  0
 13 18  1  0  0  0  0
 13 14  1  0  0  0  0
 14 15  1  0  0  0  0
 14 35  1  0  0  0  0
 14 36  1  0  0  0  0
 15 16  1  0  0  0  0
 15 37  1  0  0  0  0
 15 38  1  0  0  0  0
 16 17  1  0  0  0  0
 17 18  1  0  0  0  0
 17 39  1  0  0  0  0
 17 40  1  0  0  0  0
 18 41  1  0  0  0  0
 18 42  1  0  0  0  0
 19 20  1  0  0  0  0
M  END
> <s_m_source_file>
AV-unprocessed.smi

> <i_m_source_file_index>
370

> <i_lp_mmshare_version>
43012

> <i_f3d_flags>
0

> <s_epik_input>
W0NIM11jMVtjSF1jKG5vMSlbTkhdQyg9TylbTkhdW0NIMl1DKFtDSDNdKShbQ0gzXSlOMltDSDJdW0NIMl1PW0NIMl1bQ0gyXTI=

> <s_epik_cmdline>
J2VwaWtfcHl0aG9uJywgJy1waCcsICc3LjAnLCAnLXRuJywgJzgnLCAnLW1hJywgJzIwMCcsICctbWV0YWxfYmluZGluZycsICctaW1hZScsICc8aW5maWxlLm1hZT4nLCAnLW9tYWUnLCAnPG91dGZpbGUubWFlPic=

> <r_epik_Ionization_Penalty>
0.214074

> <r_epik_Ionization_Penalty_Charging>
0

> <r_epik_Ionization_Penalty_Neutral>
0.214074

> <r_epik_State_Penalty>
0.204211

> <r_epik_Charging_Adjusted_Penalty>
0.204211

> <i_epik_Tot_Q>
0

> <i_epik_Tot_abs_Q>
0

> <r_epik_Metal_State_Penalty>
0.217151

> <b_epik_Metal_Only>
0

> <s_lp_Force_Field>
OPLS_2005

> <r_lp_Energy>
40.6457

> <b_lp_Chiralities_Consistent>
1

> <s_lp_Variant>
AV-unprocessed.smi:370-1

> <Gold.Version>
5.8.1

> <Gold.Id.Protein>
6NUR|6NUR_protein|mol2

> <Gold.PLP.Fitness>
41.6273

> <Gold.PLP.PLP>
-30.0959

> <Gold.PLP.part.hbond>
-4.0306

> <Gold.PLP.part.metal>
0.0000

> <Gold.PLP.part.buried>
-2.8155

> <Gold.PLP.part.nonpolar>
-22.3970

> <Gold.PLP.part.repulsive>
0.2214

> <Gold.PLP.ligand.clash>
0.0000

> <Gold.PLP.ligand.torsion>
0.2611

> <Gold.PLP.Chemscore.Hbond>
4.0000

> <Gold.PLP.Chemscore.CHOScore>
0.0000

> <Gold.PLP.Chemscore.Metal>
0.0000

> <Gold.Chemscore.Hbonds>
donor molecule, donor type, donor heavy atom, donor atom, acceptor molecule, acceptor atom, score
      L1  H     5    25       P1 10175  1.00
      L1  H     8    26       P1 10175  1.00
      P1  H  7989  7998       L1    16  1.00
      P1  H 11000 11005       L1    20  1.00

> <Gold.PLP.Chemscore.Internal.Correction>
0.0536

> <Gold.Rescore>
     Score         DG    S(hbond)    S(metal)    S(lipo)     H(rot)  DE(clash)    DE(int)     intcor
     18.49     -20.23       3.24        0.00      67.51       1.55       0.08       1.67       ----

> <Gold.Chemscore.Fitness>
18.4892

> <Gold.Chemscore.DG>
-20.2319

> <Gold.Chemscore.ZeroCoef>
-5.4800

> <Gold.Chemscore.Hbond>
3.2435

> <Gold.Chemscore.Metal>
0.0000

> <Gold.Chemscore.Lipo>
67.5120

> <Gold.Chemscore.Internal_Hbond>
0.0000

> <Gold.Chemscore.DEClash>
0.0774

> <Gold.Chemscore.DEInternal>
1.6652

> <Gold.Chemscore.Rot>
1.5548

> <Gold.Chemscore.Internal.Correction>
   9.000000E+99

> <Gold.Chemscore.Hbonds>
donor molecule, donor type, donor heavy atom, donor atom, acceptor molecule, acceptor atom, score
      L1  H     5    25       P1 10175  0.97
      L1  H     8    26       P1 10175  0.97
      P1  H  7989  7998       L1    16  0.45
      P1  H 11000 11005       L1    20  0.43

> <Gold.Chemscore.Hbond.Weighted>
-10.8332

> <Gold.Chemscore.Metal.Weighted>
-0.0000

> <Gold.Chemscore.Lipo.Weighted>
-7.8989

> <Gold.Chemscore.Internal_Hbond.Weighted>
0.0000

> <Gold.Chemscore.DEClash.Weighted>
0.0774

> <Gold.Chemscore.DEInternal.Weighted>
1.6652

> <Gold.Chemscore.Rot.Weighted>
3.9802

> <Gold.Chemscore.Internal.Correction.Weighted>
   9.000000E+99

> <Gold.Protein.RotatedTorsions>
[ 6907 6896 6895 6894 ] final  -59.36 input  -60.11 | X-H torsion
[ 7974 7965 7964 7962 ] final  -29.45 input  175.53 | X-H torsion
[ 8008 7997 7996 7995 ] final   90.78 input   59.86 | X-H torsion
[ 10167 10162 10161 10158 ] final   26.45 input  -65.29 | X-H torsion
[ 10718 10713 10712 10709 ] final   23.68 input   66.30 | X-H torsion
[ 10763 10752 10751 10750 ] final  133.16 input  -60.55 | X-H torsion
[ 11005 11000 10999 10996 ] final   71.16 input  -57.11 | X-H torsion

> <Gold.Protein.ActiveResidues>
 VAL166  LYS551  ARG553  GLY616  TRP617  ASP618  TYR619  PRO620  LYS621  CYS622 
 ASP623  PHE694  ASN695  SER759  ASP760  ASP761  ALA762  ILE779  LEU786  VAL792 
 PHE793  MET794  SER795  GLU796  ALA797  LYS798  CYS799  TRP800  GLU811  SER814 

> <Gold.Protein.RotatedAtoms>
  150.7936  134.6979  159.6533 H   0  0  0  0  0  0  0  0  0  0  0  0  # atno 6907 bound_to 6896
  152.4045  134.6226  160.0064 H   0  0  0  0  0  0  0  0  0  0  0  0  # atno 6908 bound_to 6896
  151.6487  133.3285  159.3183 H   0  0  0  0  0  0  0  0  0  0  0  0  # atno 6909 bound_to 6896
  146.1215  140.5414  142.8733 H   0  0  0  0  0  0  0  0  0  0  0  0  # atno 7974 bound_to 7965
  156.0160  140.3345  155.6989 H   0  0  0  0  0  0  0  0  0  0  0  0  # atno 8008 bound_to 7997
  155.6090  140.0663  157.2729 H   0  0  0  0  0  0  0  0  0  0  0  0  # atno 8009 bound_to 7997
  154.4298  140.1797  156.1240 H   0  0  0  0  0  0  0  0  0  0  0  0  # atno 8010 bound_to 7997
  140.5022  144.0297  150.6337 H   0  0  0  0  0  0  0  0  0  0  0  0  # atno 10167 bound_to 10162
  157.1693  130.6752  149.6072 H   0  0  0  0  0  0  0  0  0  0  0  0  # atno 10718 bound_to 10713
  153.8025  135.3140  155.3392 H   0  0  0  0  0  0  0  0  0  0  0  0  # atno 10763 bound_to 10752
  154.8083  135.4683  154.0453 H   0  0  0  0  0  0  0  0  0  0  0  0  # atno 10764 bound_to 10752
  153.1805  135.6893  153.8572 H   0  0  0  0  0  0  0  0  0  0  0  0  # atno 10765 bound_to 10752
  139.9558  134.7146  156.0756 H   0  0  0  0  0  0  0  0  0  0  0  0  # atno 11005 bound_to 11000
  144.7602  140.5403  143.6741 LP  0  0  0  0  0  0  0  0  0  0  0  0  # atno 17320 bound_to 7965
  145.5455  139.1476  143.3423 LP  0  0  0  0  0  0  0  0  0  0  0  0  # atno 17321 bound_to 7965
  140.3596  143.2915  152.0398 LP  0  0  0  0  0  0  0  0  0  0  0  0  # atno 17342 bound_to 10162
  139.4875  144.6313  151.7065 LP  0  0  0  0  0  0  0  0  0  0  0  0  # atno 17343 bound_to 10162
  155.9741  130.4684  150.6360 LP  0  0  0  0  0  0  0  0  0  0  0  0  # atno 17370 bound_to 10713
  157.4058  131.0816  151.1267 LP  0  0  0  0  0  0  0  0  0  0  0  0  # atno 17371 bound_to 10713
  141.1229  133.6607  156.3262 LP  0  0  0  0  0  0  0  0  0  0  0  0  # atno 17394 bound_to 11000
  140.5612  134.5932  157.5434 LP  0  0  0  0  0  0  0  0  0  0  0  0  # atno 17395 bound_to 11000

$$$$
