#       Name:                AV-unprocessed.smi:837
#       Creating user name   scv26
#       Creation time:       Fri Mar 27 01:35:31 2020


#       File generated by GOLD software.
#

@<TRIPOS>MOLECULE
AV-unprocessed.smi:837
    56    58     1
SMALL
NO_CHARGES


@<TRIPOS>ATOM
      1 ****         0.7133   2.7928  -1.3543 C.3            1 S1                 0.0000
      2 ****        -0.7626   2.9491  -1.7801 C.3            1 S1                 0.0000
      3 ****        -1.3571   4.2406  -1.1772 C.3            1 S1                 0.0000
      4 ****        -2.8058   4.4746  -1.6338 C.3            1 S1                 0.0000
      5 ****        -3.6983   3.2710  -1.3004 C.3            1 S1                 0.0000
      6 ****        -3.1270   1.9794  -1.9075 C.3            1 S1                 0.0000
      7 ****        -1.6700   1.7222  -1.4535 C.3            1 S1                 0.0000
      8 ****        -1.6222   1.3612  -0.0463 N.am           1 S1                 0.0000
      9 ****        -1.1782   0.1150   0.1575 C.2            1 S1                 0.0000
     10 ****        -1.0433  -0.4182   1.2582 O.2            1 S1                 0.0000
     11 ****        -0.8982  -0.4361  -1.0377 N.am           1 S1                 0.0000
     12 ****        -0.3368  -1.7817  -1.2123 C.3            1 S1                 0.0000
     13 ****         1.1793  -1.8286  -0.9775 C.2            1 S1                 0.0000
     14 ****         1.8819  -0.8386  -1.1856 O.2            1 S1                 0.0000
     15 ****         1.6693  -2.9963  -0.5356 N.am           1 S1                 0.0000
     16 ****         3.0681  -3.2522  -0.2040 C.3            1 S1                 0.0000
     17 ****         3.5267  -2.5361   1.0837 C.3            1 S1                 0.0000
     18 ****         2.5750  -2.7181   2.2541 C.ar           1 S1                 0.0000
     19 ****         2.5330  -3.9381   2.9643 C.ar           1 S1                 0.0000
     20 ****         1.6263  -4.0840   4.0349 C.ar           1 S1                 0.0000
     21 ****         0.7821  -3.0060   4.3717 C.ar           1 S1                 0.0000
     22 ****         0.8525  -1.8528   3.6711 N.pl3          1 S1                 1.0000
     23 ****         1.7083  -1.6729   2.6416 C.ar           1 S1                 0.0000
     24 ****        -1.1459   0.4175  -2.0410 C.2            1 S1                 0.0000
     25 ****        -0.9789   0.2200  -3.2447 O.2            1 S1                 0.0000
     26 ****         0.8110   2.6613  -0.2766 H              1 S1                 0.0000
     27 ****         1.2913   3.6754  -1.6291 H              1 S1                 0.0000
     28 ****         1.1886   1.9403  -1.8393 H              1 S1                 0.0000
     29 ****        -0.7632   3.0758  -2.8642 H              1 S1                 0.0000
     30 ****        -1.3222   4.1927  -0.0880 H              1 S1                 0.0000
     31 ****        -0.7482   5.0988  -1.4638 H              1 S1                 0.0000
     32 ****        -3.2031   5.3738  -1.1623 H              1 S1                 0.0000
     33 ****        -2.8247   4.6560  -2.7092 H              1 S1                 0.0000
     34 ****        -3.7869   3.1665  -0.2184 H              1 S1                 0.0000
     35 ****        -4.7073   3.4425  -1.6762 H              1 S1                 0.0000
     36 ****        -3.7679   1.1372  -1.6415 H              1 S1                 0.0000
     37 ****        -3.1647   2.0556  -2.9954 H              1 S1                 0.0000
     38 ****        -1.8972   1.9965   0.6886 H              1 S1                 0.0000
     39 ****        -0.8345  -2.4712  -0.5279 H              1 S1                 0.0000
     40 ****        -0.5424  -2.1585  -2.2156 H              1 S1                 0.0000
     41 ****         1.0225  -3.7606  -0.4036 H              1 S1                 0.0000
     42 ****         3.1732  -4.3295  -0.0732 H              1 S1                 0.0000
     43 ****         3.7113  -2.9799  -1.0421 H              1 S1                 0.0000
     44 ****         4.5151  -2.8960   1.3719 H              1 S1                 0.0000
     45 ****         3.6441  -1.4695   0.8886 H              1 S1                 0.0000
     46 ****         3.1842  -4.7550   2.6889 H              1 S1                 0.0000
     47 ****         1.5778  -5.0107   4.5880 H              1 S1                 0.0000
     48 ****         0.0576  -3.0313   5.1727 H              1 S1                 0.0000
     49 ****         1.6647  -0.7091   2.1549 H              1 S1                 0.0000
     50 ****         0.2307  -1.0854   3.9280 H              1 S1                 0.0000
     51 ****        -1.2730   0.0871   2.0900 LP             1 S1                 0.0000
     52 ****        -0.7040  -1.3568   1.3209 LP             1 S1                 0.0000
     53 ****         1.4658   0.0102  -1.5119 LP             1 S1                 0.0000
     54 ****         2.8684  -0.8836  -1.0283 LP             1 S1                 0.0000
     55 ****        -1.1913   0.9413  -3.9039 LP             1 S1                 0.0000
     56 ****        -0.6309  -0.6617  -3.5632 LP             1 S1                 0.0000
@<TRIPOS>BOND
    1    1    2 1     
    2    1   26 1     
    3    1   27 1     
    4    1   28 1     
    5    2    7 1     
    6    2    3 1     
    7    2   29 1     
    8    3    4 1     
    9    3   30 1     
   10    3   31 1     
   11    4    5 1     
   12    4   32 1     
   13    4   33 1     
   14    5    6 1     
   15    5   34 1     
   16    5   35 1     
   17    6    7 1     
   18    6   36 1     
   19    6   37 1     
   20    7   24 1     
   21    7    8 1     
   22    8    9 am    
   23    8   38 1     
   24    9   10 2     
   25    9   11 am    
   26   11   12 1     
   27   11   24 am    
   28   12   13 1     
   29   12   39 1     
   30   12   40 1     
   31   13   14 2     
   32   13   15 am    
   33   15   16 1     
   34   15   41 1     
   35   16   17 1     
   36   16   42 1     
   37   16   43 1     
   38   17   18 1     
   39   17   44 1     
   40   17   45 1     
   41   18   23 ar    
   42   18   19 ar    
   43   19   20 ar    
   44   19   46 1     
   45   20   21 ar    
   46   20   47 1     
   47   21   22 ar    
   48   21   48 1     
   49   22   23 ar    
   50   22   50 1     
   51   23   49 1     
   52   24   25 2     
   53   10   51 1     
   54   10   52 1     
   55   14   53 1     
   56   14   54 1     
   57   25   55 1     
   58   25   56 1     
@<TRIPOS>SUBSTRUCTURE
      1 S1             1
@<TRIPOS>SET
LONE_PAIRS      STATIC     ATOMS    <user>   **** ""
6 51 52 53 54 55 56
DONOR_HYDROGENS      STATIC     ATOMS    <user>   **** ""
3 38 41 50
ATOM$BLUE        STATIC     ATOMS    COLORGROUP SYSTEM
6 51 52 53 54 55 56
ATOM$RED        STATIC     ATOMS    COLORGROUP SYSTEM
3 38 41 50
