AV-unprocessed.smi:234|AV-procd|sdf|1797|dock8
  -GOLD-   2262020363D 1   1.00000     0.00000
 Structure written by MMmdl.
 59 62  0  0  0  0  0  0  0  0  1 V2000
  151.2122  143.2817  159.9493 C   0  0  0  0  0  0  0  0  0  0  0  0
  151.2517  142.8223  158.4855 C   0  0  0  0  0  0  0  0  0  0  0  0
  150.5955  141.5749  158.3102 O   0  0  0  0  0  0  0  0  0  0  0  0
  151.0424  140.8292  157.1813 C   0  0  2  0  0  0  0  0  0  0  0  0
  150.4998  141.4553  155.8961 C   0  0  0  0  0  0  0  0  0  0  0  0
  149.2753  140.5463  156.0742 C   0  0  1  0  0  0  0  0  0  0  0  0
  148.7487  139.9941  154.8215 N   0  0  0  0  0  0  0  0  0  0  0  0
  149.6664  139.8561  153.6954 C   0  0  0  0  0  0  0  0  0  0  0  0
  147.8822  138.9543  154.9017 C   0  0  0  0  0  0  0  0  0  0  0  0
  147.6292  138.3648  156.1007 N   0  0  0  0  0  0  0  0  0  0  0  0
  146.7839  137.3328  156.1768 C   0  0  0  0  0  0  0  0  0  0  0  0
  146.0968  136.7429  155.1967 N   0  0  0  0  0  0  0  0  0  0  0  0
  146.3497  137.3294  153.9914 C   0  0  0  0  0  0  0  0  0  0  0  0
  147.2272  138.4249  153.7563 C   0  0  0  0  0  0  0  0  0  0  0  0
  147.2340  138.7476  152.4050 N   0  0  0  0  0  0  0  0  0  0  0  0
  146.4028  137.8941  151.8718 C   0  0  0  0  0  0  0  0  0  0  0  0
  145.8187  137.0120  152.7534 N   0  0  0  0  0  0  0  0  0  0  0  0
  144.8522  135.9725  152.4321 C   0  0  0  0  0  0  0  0  0  0  0  0
  145.5105  134.6311  152.0137 C   0  0  2  0  0  0  0  0  0  0  0  0
  146.6926  134.9351  151.2911 O   0  0  0  0  0  0  0  0  0  0  0  0
  144.6260  133.7658  151.1212 C   0  0  0  0  0  0  0  0  0  0  0  0
  145.1239  132.3584  151.4110 C   0  0  0  0  0  0  0  0  0  0  0  0
  145.3481  132.3946  152.8094 O   0  0  0  0  0  0  0  0  0  0  0  0
  145.9008  133.6608  153.1641 C   0  0  2  0  0  0  0  0  0  0  0  0
  145.3817  134.0102  154.5676 C   0  0  0  0  0  0  0  0  0  0  0  0
  150.1769  139.5759  156.8877 C   0  0  0  0  0  0  0  0  0  0  0  0
  150.9199  138.4741  156.1143 C   0  0  0  0  0  0  0  0  0  0  0  0
  149.5355  138.9004  158.1030 C   0  0  0  0  0  0  0  0  0  0  0  0
  151.6725  144.2637  160.0584 H   0  0  0  0  0  0  0  0  0  0  0  0
  151.7464  142.5926  160.6034 H   0  0  0  0  0  0  0  0  0  0  0  0
  150.1849  143.3548  160.3068 H   0  0  0  0  0  0  0  0  0  0  0  0
  150.7355  143.5581  157.8687 H   0  0  0  0  0  0  0  0  0  0  0  0
  152.2770  142.7728  158.1152 H   0  0  0  0  0  0  0  0  0  0  0  0
  152.1188  140.6507  157.1456 H   0  0  0  0  0  0  0  0  0  0  0  0
  150.2900  142.5236  155.9606 H   0  0  0  0  0  0  0  0  0  0  0  0
  151.1049  141.2174  155.0195 H   0  0  0  0  0  0  0  0  0  0  0  0
  148.5131  141.0161  156.6989 H   0  0  0  0  0  0  0  0  0  0  0  0
  149.7929  138.8138  153.3972 H   0  0  0  0  0  0  0  0  0  0  0  0
  150.6540  140.2446  153.9410 H   0  0  0  0  0  0  0  0  0  0  0  0
  149.2897  140.4123  152.8369 H   0  0  0  0  0  0  0  0  0  0  0  0
  146.6368  136.9217  157.1646 H   0  0  0  0  0  0  0  0  0  0  0  0
  146.1828  137.8899  150.8140 H   0  0  0  0  0  0  0  0  0  0  0  0
  144.2108  135.8263  153.3022 H   0  0  0  0  0  0  0  0  0  0  0  0
  144.2111  136.3512  151.6358 H   0  0  0  0  0  0  0  0  0  0  0  0
  147.4174  134.9532  151.8975 H   0  0  0  0  0  0  0  0  0  0  0  0
  143.5859  133.8386  151.4406 H   0  0  0  0  0  0  0  0  0  0  0  0
  144.6688  134.0311  150.0638 H   0  0  0  0  0  0  0  0  0  0  0  0
  144.4012  131.5893  151.1383 H   0  0  0  0  0  0  0  0  0  0  0  0
  146.0610  132.1560  150.8903 H   0  0  0  0  0  0  0  0  0  0  0  0
  146.9853  133.5480  153.2173 H   0  0  0  0  0  0  0  0  0  0  0  0
  145.7774  134.9653  154.9134 H   0  0  0  0  0  0  0  0  0  0  0  0
  145.6873  133.2521  155.2891 H   0  0  0  0  0  0  0  0  0  0  0  0
  144.2929  134.0620  154.5906 H   0  0  0  0  0  0  0  0  0  0  0  0
  150.2569  137.6533  155.8404 H   0  0  0  0  0  0  0  0  0  0  0  0
  151.7298  138.0513  156.7095 H   0  0  0  0  0  0  0  0  0  0  0  0
  151.3643  138.8478  155.1914 H   0  0  0  0  0  0  0  0  0  0  0  0
  148.8772  138.0822  157.8109 H   0  0  0  0  0  0  0  0  0  0  0  0
  148.9346  139.6002  158.6838 H   0  0  0  0  0  0  0  0  0  0  0  0
  150.2891  138.4866  158.7731 H   0  0  0  0  0  0  0  0  0  0  0  0
  1  2  1  0  0  0  0
  1 29  1  0  0  0  0
  1 30  1  0  0  0  0
  1 31  1  0  0  0  0
  2  3  1  0  0  0  0
  2 32  1  0  0  0  0
  2 33  1  0  0  0  0
  3  4  1  0  0  0  0
  4 26  1  0  0  0  0
  4  5  1  0  0  0  0
  4 34  1  0  0  0  0
  5  6  1  0  0  0  0
  5 35  1  0  0  0  0
  5 36  1  0  0  0  0
  6  7  1  0  0  0  0
  6 26  1  0  0  0  0
  6 37  1  0  0  0  0
  7  8  1  0  0  0  0
  7  9  1  0  0  0  0
  8 38  1  0  0  0  0
  8 39  1  0  0  0  0
  8 40  1  0  0  0  0
  9 14  1  0  0  0  0
  9 10  2  0  0  0  0
 10 11  1  0  0  0  0
 11 12  2  0  0  0  0
 11 41  1  0  0  0  0
 12 13  1  0  0  0  0
 13 17  1  0  0  0  0
 13 14  2  0  0  0  0
 14 15  1  0  0  0  0
 15 16  2  0  0  0  0
 16 17  1  0  0  0  0
 16 42  1  0  0  0  0
 17 18  1  0  0  0  0
 18 19  1  0  0  0  0
 18 43  1  0  0  0  0
 18 44  1  0  0  0  0
 19 24  1  0  0  0  0
 19 20  1  0  0  0  0
 19 21  1  0  0  0  0
 20 45  1  0  0  0  0
 21 22  1  0  0  0  0
 21 46  1  0  0  0  0
 21 47  1  0  0  0  0
 22 23  1  0  0  0  0
 22 48  1  0  0  0  0
 22 49  1  0  0  0  0
 23 24  1  0  0  0  0
 24 25  1  0  0  0  0
 24 50  1  0  0  0  0
 25 51  1  0  0  0  0
 25 52  1  0  0  0  0
 25 53  1  0  0  0  0
 26 27  1  0  0  0  0
 26 28  1  0  0  0  0
 27 54  1  0  0  0  0
 27 55  1  0  0  0  0
 27 56  1  0  0  0  0
 28 57  1  0  0  0  0
 28 58  1  0  0  0  0
 28 59  1  0  0  0  0
M  END
> <s_m_source_file>
AV-unprocessed.smi

> <i_m_source_file_index>
234

> <i_lp_mmshare_version>
43012

> <i_f3d_flags>
0

> <s_epik_input>
W0NIM11bQ0gyXU9bQ0BASF0oQzEoW0NIM10pW0NIM10pW0NIMl1bQ0BIXTFOKFtDSDNdKWMobltjSF1uMiljKGMyMyluW2NIXW4zW0NIMl1bQ0BAXTQoW09IXSlbQ0gyXVtDSDJdT1tDQEhdNFtDSDNd

> <s_epik_cmdline>
J2VwaWtfcHl0aG9uJywgJy1waCcsICc3LjAnLCAnLXRuJywgJzgnLCAnLW1hJywgJzIwMCcsICctbWV0YWxfYmluZGluZycsICctaW1hZScsICc8aW5maWxlLm1hZT4nLCAnLW9tYWUnLCAnPG91dGZpbGUubWFlPic=

> <r_lp_tautomer_probability>
1

> <r_epik_Ionization_Penalty>
0.00349132

> <r_epik_Ionization_Penalty_Charging>
0

> <r_epik_Ionization_Penalty_Neutral>
0.00349132

> <r_epik_State_Penalty>
0.00242418

> <r_epik_Charging_Adjusted_Penalty>
0.00242418

> <i_epik_Tot_Q>
0

> <i_epik_Tot_abs_Q>
0

> <r_epik_Metal_State_Penalty>
-0

> <b_epik_Metal_Only>
0

> <s_lp_Force_Field>
OPLS_2005

> <r_lp_Energy>
49.2938

> <b_lp_Chiralities_Consistent>
1

> <s_lp_Variant>
AV-unprocessed.smi:234-13

> <Gold.Version>
5.8.1

> <Gold.Id.Protein>
6NUR|6NUR_protein|mol2

> <Gold.PLP.Fitness>
37.3374

> <Gold.PLP.PLP>
-31.1076

> <Gold.PLP.part.hbond>
-1.0592

> <Gold.PLP.part.metal>
0.0000

> <Gold.PLP.part.buried>
-0.4736

> <Gold.PLP.part.nonpolar>
-28.7873

> <Gold.PLP.part.repulsive>
0.5463

> <Gold.PLP.ligand.clash>
0.0000

> <Gold.PLP.ligand.torsion>
1.5784

> <Gold.PLP.Chemscore.Hbond>
1.0000

> <Gold.PLP.Chemscore.CHOScore>
1.7369

> <Gold.PLP.Chemscore.Metal>
0.0000

> <Gold.Chemscore.Hbonds>
donor molecule, donor type, donor heavy atom, donor atom, acceptor molecule, acceptor atom, score
      L1  H    20    45       P1  7948  0.51
      L1  C    16    42       P1 10171  0.72

> <Gold.PLP.Chemscore.Internal.Correction>
1.1761

> <Gold.Rescore>
     Score         DG    S(hbond)    S(metal)    S(lipo)     H(rot)  DE(clash)    DE(int)     intcor
      6.32     -13.27       1.00        0.00      95.54       2.62       0.38       6.56       ----

> <Gold.Chemscore.Fitness>
6.3238

> <Gold.Chemscore.DG>
-13.2709

> <Gold.Chemscore.ZeroCoef>
-5.4800

> <Gold.Chemscore.Hbond>
0.9954

> <Gold.Chemscore.Metal>
0.0000

> <Gold.Chemscore.Lipo>
95.5430

> <Gold.Chemscore.Internal_Hbond>
0.0000

> <Gold.Chemscore.DEClash>
0.3850

> <Gold.Chemscore.DEInternal>
6.5621

> <Gold.Chemscore.Rot>
2.6219

> <Gold.Chemscore.Internal.Correction>
   9.000000E+99

> <Gold.Chemscore.Hbonds>
donor molecule, donor type, donor heavy atom, donor atom, acceptor molecule, acceptor atom, score
      L1  H    20    45       P1  7948  0.45

> <Gold.Chemscore.Hbond.Weighted>
-3.3245

> <Gold.Chemscore.Metal.Weighted>
-0.0000

> <Gold.Chemscore.Lipo.Weighted>
-11.1785

> <Gold.Chemscore.Internal_Hbond.Weighted>
0.0000

> <Gold.Chemscore.DEClash.Weighted>
0.3850

> <Gold.Chemscore.DEInternal.Weighted>
6.5621

> <Gold.Chemscore.Rot.Weighted>
6.7121

> <Gold.Chemscore.Internal.Correction.Weighted>
   9.000000E+99

> <Gold.Protein.RotatedTorsions>
[ 6907 6896 6895 6894 ] final   55.29 input  -60.11 | X-H torsion
[ 7974 7965 7964 7962 ] final  139.68 input  175.53 | X-H torsion
[ 8008 7997 7996 7995 ] final  175.19 input   59.86 | X-H torsion
[ 10167 10162 10161 10158 ] final   42.02 input  -65.29 | X-H torsion
[ 10718 10713 10712 10709 ] final  117.98 input   66.30 | X-H torsion
[ 10763 10752 10751 10750 ] final   43.09 input  -60.55 | X-H torsion
[ 11005 11000 10999 10996 ] final -103.07 input  -57.11 | X-H torsion

> <Gold.Protein.ActiveResidues>
 VAL166  LYS551  ARG553  GLY616  TRP617  ASP618  TYR619  PRO620  LYS621  CYS622 
 ASP623  PHE694  ASN695  SER759  ASP760  ASP761  ALA762  ILE779  LEU786  VAL792 
 PHE793  MET794  SER795  GLU796  ALA797  LYS798  CYS799  TRP800  GLU811  SER814 

> <Gold.Protein.RotatedAtoms>
  152.3524  134.6987  160.0231 H   0  0  0  0  0  0  0  0  0  0  0  0  # atno 6907 bound_to 6896
  151.7336  133.3313  159.3355 H   0  0  0  0  0  0  0  0  0  0  0  0  # atno 6908 bound_to 6896
  150.7549  134.6274  159.6213 H   0  0  0  0  0  0  0  0  0  0  0  0  # atno 6909 bound_to 6896
  144.9256  139.5112  143.5642 H   0  0  0  0  0  0  0  0  0  0  0  0  # atno 7974 bound_to 7965
  156.0897  140.1415  156.9608 H   0  0  0  0  0  0  0  0  0  0  0  0  # atno 8008 bound_to 7997
  154.4634  140.0935  156.7002 H   0  0  0  0  0  0  0  0  0  0  0  0  # atno 8009 bound_to 7997
  155.4941  140.3449  155.4362 H   0  0  0  0  0  0  0  0  0  0  0  0  # atno 8010 bound_to 7997
  140.3585  144.2259  150.6140 H   0  0  0  0  0  0  0  0  0  0  0  0  # atno 10167 bound_to 10162
  157.6060  131.1043  150.7692 H   0  0  0  0  0  0  0  0  0  0  0  0  # atno 10718 bound_to 10713
  152.9868  135.6112  154.3056 H   0  0  0  0  0  0  0  0  0  0  0  0  # atno 10763 bound_to 10752
  154.2774  135.2778  155.2714 H   0  0  0  0  0  0  0  0  0  0  0  0  # atno 10764 bound_to 10752
  154.5068  135.5852  153.6630 H   0  0  0  0  0  0  0  0  0  0  0  0  # atno 10765 bound_to 10752
  141.1162  133.8609  157.1439 H   0  0  0  0  0  0  0  0  0  0  0  0  # atno 11005 bound_to 11000
  146.3224  139.8168  142.8934 LP  0  0  0  0  0  0  0  0  0  0  0  0  # atno 17320 bound_to 7965
  145.3225  141.0247  143.3492 LP  0  0  0  0  0  0  0  0  0  0  0  0  # atno 17321 bound_to 7965
  140.5150  143.2280  151.8477 LP  0  0  0  0  0  0  0  0  0  0  0  0  # atno 17342 bound_to 10162
  139.4817  144.4905  151.9191 LP  0  0  0  0  0  0  0  0  0  0  0  0  # atno 17343 bound_to 10162
  156.8080  130.4943  149.5360 LP  0  0  0  0  0  0  0  0  0  0  0  0  # atno 17370 bound_to 10713
  156.1147  130.6066  151.0102 LP  0  0  0  0  0  0  0  0  0  0  0  0  # atno 17371 bound_to 10713
  140.0086  134.9998  157.0346 LP  0  0  0  0  0  0  0  0  0  0  0  0  # atno 17394 bound_to 11000
  140.4639  134.1456  155.7194 LP  0  0  0  0  0  0  0  0  0  0  0  0  # atno 17395 bound_to 11000

$$$$
