#       Name:                AV-unprocessed.smi:1592
#       Creating user name   scv26
#       Creation time:       Fri Mar 27 07:04:04 2020


#       File generated by GOLD software.
#

@<TRIPOS>MOLECULE
AV-unprocessed.smi:1592
    31    32     1
SMALL
NO_CHARGES


@<TRIPOS>ATOM
      1 ****        -0.0677   1.1456  -0.9337 O.2            1 S1                 0.0000
      2 ****         0.3816   0.2619  -0.2016 C.2            1 S1                 0.0000
      3 ****        -0.3679  -0.6487   0.4468 N.am           1 S1                 0.0000
      4 ****        -1.7810  -0.8139   0.4312 C.ar           1 S1                 0.0000
      5 ****        -2.5966   0.0087  -0.2754 N.pl3          1 S1                 1.0000
      6 ****        -3.9404  -0.1200  -0.3098 C.ar           1 S1                 0.0000
      7 ****        -4.5634  -1.1537   0.4151 C.ar           1 S1                 0.0000
      8 ****        -3.7638  -2.0377   1.1664 C.ar           1 S1                 0.0000
      9 ****        -2.3628  -1.8686   1.1761 C.ar           1 S1                 0.0000
     10 ****        -1.5882  -2.7273   1.9049 O.co2          1 S1                -1.0000
     11 ****         1.8930   0.1625   0.0323 C.3            1 S1                 0.0000
     12 ****         2.7377   0.3073  -1.2483 C.3            1 S1                 0.0000
     13 ****         3.4574   1.6291  -1.0608 C.3            1 S1                 0.0000
     14 ****         3.5478   1.7266   0.4552 C.3            1 S1                 0.0000
     15 ****         2.2830   1.2430   0.8776 O.3            1 S1                 0.0000
     16 ****         0.1299  -1.3140   1.0214 H              1 S1                 0.0000
     17 ****        -4.4714   0.6033  -0.9113 H              1 S1                 0.0000
     18 ****        -5.6372  -1.2679   0.3966 H              1 S1                 0.0000
     19 ****        -4.2224  -2.8375   1.7296 H              1 S1                 0.0000
     20 ****        -2.1688   0.7665  -0.8088 H              1 S1                 0.0000
     21 ****         2.1391  -0.7789   0.5271 H              1 S1                 0.0000
     22 ****         3.4617  -0.5066  -1.3037 H              1 S1                 0.0000
     23 ****         2.1577   0.2882  -2.1721 H              1 S1                 0.0000
     24 ****         4.4307   1.6613  -1.5510 H              1 S1                 0.0000
     25 ****         2.8483   2.4457  -1.4506 H              1 S1                 0.0000
     26 ****         4.3366   1.0804   0.8430 H              1 S1                 0.0000
     27 ****         3.7278   2.7436   0.8044 H              1 S1                 0.0000
     28 ****        -1.0542   1.2210  -1.0790 LP             1 S1                 0.0000
     29 ****         0.5542   1.7874  -1.3825 LP             1 S1                 0.0000
     30 ****         2.3449   0.9235   1.8231 LP             1 S1                 0.0000
     31 ****         1.6063   1.9769   0.8174 LP             1 S1                 0.0000
@<TRIPOS>BOND
    1    1    2 2     
    2    2    3 am    
    3    2   11 1     
    4    3   16 1     
    5    3    4 1     
    6    4    9 ar    
    7    4    5 ar    
    8    5   20 1     
    9    5    6 ar    
   10    6   17 1     
   11    6    7 ar    
   12    7   18 1     
   13    7    8 ar    
   14    8    9 ar    
   15    8   19 1     
   16    9   10 ar    
   17   11   15 1     
   18   11   12 1     
   19   11   21 1     
   20   12   13 1     
   21   12   22 1     
   22   12   23 1     
   23   13   14 1     
   24   13   24 1     
   25   13   25 1     
   26   14   15 1     
   27   14   26 1     
   28   14   27 1     
   29    1   28 1     
   30    1   29 1     
   31   15   30 1     
   32   15   31 1     
@<TRIPOS>SUBSTRUCTURE
      1 S1             1
@<TRIPOS>SET
LONE_PAIRS      STATIC     ATOMS    <user>   **** ""
5 28 29 10 30 31
DONOR_HYDROGENS      STATIC     ATOMS    <user>   **** ""
2 16 20
ATOM$BLUE        STATIC     ATOMS    COLORGROUP SYSTEM
5 28 29 10 30 31
ATOM$RED        STATIC     ATOMS    COLORGROUP SYSTEM
2 16 20
