#       Name:                AV-unprocessed.smi:1868
#       Creating user name   scv26
#       Creation time:       Fri Mar 27 09:29:47 2020


#       File generated by GOLD software.
#

@<TRIPOS>MOLECULE
AV-unprocessed.smi:1868
    50    52     1
SMALL
NO_CHARGES


@<TRIPOS>ATOM
      1 ****        -1.8870   1.4378  -3.5619 C.3            1 S1                 0.0000
      2 ****        -2.3356   1.6075  -2.1450 C.2            1 S1                 0.0000
      3 ****        -2.6214   2.8026  -1.6289 N.2            1 S1                 0.0000
      4 ****        -2.9976   2.4933  -0.3362 C.ar           1 S1                 0.0000
      5 ****        -3.4152   3.3289   0.7241 C.ar           1 S1                 0.0000
      6 ****        -3.7517   2.7773   1.9777 C.ar           1 S1                 0.0000
      7 ****        -3.6761   1.3853   2.1887 C.ar           1 S1                 0.0000
      8 ****        -3.2620   0.5347   1.1460 C.ar           1 S1                 0.0000
      9 ****        -2.9258   1.0905  -0.1032 C.ar           1 S1                 0.0000
     10 ****        -2.4788   0.5516  -1.3066 N.pl3          1 S1                 0.0000
     11 ****        -2.2275  -0.8553  -1.5866 C.3            1 S1                 0.0000
     12 ****        -0.7473  -1.2512  -1.4021 C.3            1 S1                 0.0000
     13 ****        -0.6418  -2.6297  -1.6963 O.3            1 S1                 0.0000
     14 ****        -0.2145  -0.9968   0.0270 C.3            1 S1                 0.0000
     15 ****         1.2350  -1.2868   0.1721 N.4            1 S1                 1.0000
     16 ****         1.6050  -1.5755   1.5819 C.3            1 S1                 0.0000
     17 ****         3.0783  -2.0048   1.6976 C.3            1 S1                 0.0000
     18 ****         4.0372  -0.9642   1.0923 C.3            1 S1                 0.0000
     19 ****         4.1892   0.2890   1.9724 C.3            1 S1                 0.0000
     20 ****         3.5909  -0.6337  -0.3434 C.3            1 S1                 0.0000
     21 ****         2.1061  -0.2342  -0.4161 C.3            1 S1                 0.0000
     22 ****        -1.8095   2.4067  -4.0562 H              1 S1                 0.0000
     23 ****        -2.6036   0.8296  -4.1139 H              1 S1                 0.0000
     24 ****        -0.9101   0.9573  -3.5994 H              1 S1                 0.0000
     25 ****        -3.4771   4.3966   0.5728 H              1 S1                 0.0000
     26 ****        -4.0699   3.4254   2.7811 H              1 S1                 0.0000
     27 ****        -3.9366   0.9713   3.1518 H              1 S1                 0.0000
     28 ****        -3.2021  -0.5312   1.3069 H              1 S1                 0.0000
     29 ****        -2.8617  -1.4541  -0.9315 H              1 S1                 0.0000
     30 ****        -2.5564  -1.0744  -2.6032 H              1 S1                 0.0000
     31 ****        -0.1529  -0.7081  -2.1345 H              1 S1                 0.0000
     32 ****         0.2713  -2.8604  -1.7710 H              1 S1                 0.0000
     33 ****        -0.3833   0.0360   0.3325 H              1 S1                 0.0000
     34 ****        -0.7883  -1.6146   0.7199 H              1 S1                 0.0000
     35 ****         1.4112  -0.6975   2.1997 H              1 S1                 0.0000
     36 ****         0.9737  -2.3760   1.9699 H              1 S1                 0.0000
     37 ****         3.3330  -2.1918   2.7414 H              1 S1                 0.0000
     38 ****         3.2107  -2.9562   1.1805 H              1 S1                 0.0000
     39 ****         5.0259  -1.4213   1.0338 H              1 S1                 0.0000
     40 ****         3.2503   0.8299   2.0879 H              1 S1                 0.0000
     41 ****         4.9160   0.9794   1.5438 H              1 S1                 0.0000
     42 ****         4.5408   0.0241   2.9699 H              1 S1                 0.0000
     43 ****         4.2128   0.1601  -0.7589 H              1 S1                 0.0000
     44 ****         3.7529  -1.5065  -0.9774 H              1 S1                 0.0000
     45 ****         1.8445  -0.0638  -1.4593 H              1 S1                 0.0000
     46 ****         1.9406   0.7115   0.1018 H              1 S1                 0.0000
     47 ****         1.4096  -2.1382  -0.3419 H              1 S1                 0.0000
     48 ****        -2.5751   3.6998  -2.0681 LP             1 S1                 0.0000
     49 ****        -1.1083  -2.8248  -2.5591 LP             1 S1                 0.0000
     50 ****        -1.0629  -3.1621  -0.9620 LP             1 S1                 0.0000
@<TRIPOS>BOND
    1    1    2 1     
    2    1   22 1     
    3    1   23 1     
    4    1   24 1     
    5    2   10 1     
    6    2    3 2     
    7    3    4 1     
    8    4    9 ar    
    9    4    5 ar    
   10    5    6 ar    
   11    5   25 1     
   12    6    7 ar    
   13    6   26 1     
   14    7    8 ar    
   15    7   27 1     
   16    8    9 ar    
   17    8   28 1     
   18    9   10 1     
   19   10   11 1     
   20   11   12 1     
   21   11   29 1     
   22   11   30 1     
   23   12   13 1     
   24   12   14 1     
   25   12   31 1     
   26   13   32 1     
   27   14   15 1     
   28   14   33 1     
   29   14   34 1     
   30   15   21 1     
   31   15   16 1     
   32   15   47 1     
   33   16   17 1     
   34   16   35 1     
   35   16   36 1     
   36   17   18 1     
   37   17   37 1     
   38   17   38 1     
   39   18   19 1     
   40   18   20 1     
   41   18   39 1     
   42   19   40 1     
   43   19   41 1     
   44   19   42 1     
   45   20   21 1     
   46   20   43 1     
   47   20   44 1     
   48   21   45 1     
   49   21   46 1     
   50    3   48 1     
   51   13   49 1     
   52   13   50 1     
@<TRIPOS>SUBSTRUCTURE
      1 S1             1
@<TRIPOS>SET
LONE_PAIRS      STATIC     ATOMS    <user>   **** ""
3 48 49 50
DONOR_HYDROGENS      STATIC     ATOMS    <user>   **** ""
2 32 47
ATOM$BLUE        STATIC     ATOMS    COLORGROUP SYSTEM
3 48 49 50
ATOM$RED        STATIC     ATOMS    COLORGROUP SYSTEM
2 32 47
