AV-unprocessed.smi:2108|AV-procd|sdf|8605|dock7
  -GOLD-   2272011343D 1   1.00000     0.00000
 Structure written by MMmdl.
 34 35  0  0  0  0  0  0  0  0  2 V2000
  154.0688  136.6452  157.0221 O   0  0  0  0  0  0  0  0  0  0  0  0
  153.1207  137.4051  157.8532 S   0  0  0  0  0  0  0  0  0  0  0  0
  152.3995  136.6774  158.9105 O   0  0  0  0  0  0  0  0  0  0  0  0
  153.7129  138.8370  158.3282 N   0  5  0  0  0  0  0  0  0  0  0  0
  152.9919  139.5961  159.3345 C   0  0  0  0  0  0  0  0  0  0  0  0
  153.2296  141.1065  159.1211 C   0  0  0  0  0  0  0  0  0  0  0  0
  153.0463  141.9515  160.3778 C   0  0  0  0  0  0  0  0  0  0  0  0
  153.7236  141.6200  161.5739 C   0  0  0  0  0  0  0  0  0  0  0  0
  153.5307  142.4335  162.7069 C   0  0  0  0  0  0  0  0  0  0  0  0
  152.6767  143.5481  162.6048 C   0  0  0  0  0  0  0  0  0  0  0  0
  152.0512  143.8011  161.3681 C   0  0  0  0  0  0  0  0  0  0  0  0
  152.2293  143.0285  160.2755 N   0  0  0  0  0  0  0  0  0  0  0  0
  151.9000  138.0131  156.7773 N   0  0  0  0  0  0  0  0  0  0  0  0
  152.3473  138.6909  155.5434 C   0  0  0  0  0  0  0  0  0  0  0  0
  151.1676  138.9517  154.5935 C   0  0  0  0  0  0  0  0  0  0  0  0
  150.1445  139.6668  155.2686 O   0  0  0  0  0  0  0  0  0  0  0  0
  149.6250  138.9182  156.3563 C   0  0  0  0  0  0  0  0  0  0  0  0
  150.7273  138.6557  157.3951 C   0  0  0  0  0  0  0  0  0  0  0  0
  151.9207  139.3961  159.2922 H   0  0  0  0  0  0  0  0  0  0  0  0
  153.3087  139.3238  160.3420 H   0  0  0  0  0  0  0  0  0  0  0  0
  154.2377  141.2703  158.7372 H   0  0  0  0  0  0  0  0  0  0  0  0
  152.5517  141.4804  158.3519 H   0  0  0  0  0  0  0  0  0  0  0  0
  154.3728  140.7578  161.6221 H   0  0  0  0  0  0  0  0  0  0  0  0
  154.0294  142.2070  163.6375 H   0  0  0  0  0  0  0  0  0  0  0  0
  152.5058  144.1943  163.4532 H   0  0  0  0  0  0  0  0  0  0  0  0
  151.3915  144.6481  161.2529 H   0  0  0  0  0  0  0  0  0  0  0  0
  152.8232  139.6341  155.8140 H   0  0  0  0  0  0  0  0  0  0  0  0
  153.0999  138.0934  155.0301 H   0  0  0  0  0  0  0  0  0  0  0  0
  151.5009  139.5388  153.7377 H   0  0  0  0  0  0  0  0  0  0  0  0
  150.7743  138.0134  154.1988 H   0  0  0  0  0  0  0  0  0  0  0  0
  148.8091  139.4789  156.8124 H   0  0  0  0  0  0  0  0  0  0  0  0
  149.2005  137.9795  155.9967 H   0  0  0  0  0  0  0  0  0  0  0  0
  150.3320  138.0233  158.1897 H   0  0  0  0  0  0  0  0  0  0  0  0
  151.0422  139.5925  157.8564 H   0  0  0  0  0  0  0  0  0  0  0  0
  1  2  2  0  0  0  0
  2  3  2  0  0  0  0
  2  4  1  0  0  0  0
  2 13  1  0  0  0  0
  4  5  1  0  0  0  0
  5  6  1  0  0  0  0
  5 19  1  0  0  0  0
  5 20  1  0  0  0  0
  6  7  1  0  0  0  0
  6 21  1  0  0  0  0
  6 22  1  0  0  0  0
  7 12  1  0  0  0  0
  7  8  2  0  0  0  0
  8  9  1  0  0  0  0
  8 23  1  0  0  0  0
  9 10  2  0  0  0  0
  9 24  1  0  0  0  0
 10 11  1  0  0  0  0
 10 25  1  0  0  0  0
 11 12  2  0  0  0  0
 11 26  1  0  0  0  0
 13 18  1  0  0  0  0
 13 14  1  0  0  0  0
 14 15  1  0  0  0  0
 14 27  1  0  0  0  0
 14 28  1  0  0  0  0
 15 16  1  0  0  0  0
 15 29  1  0  0  0  0
 15 30  1  0  0  0  0
 16 17  1  0  0  0  0
 17 18  1  0  0  0  0
 17 31  1  0  0  0  0
 17 32  1  0  0  0  0
 18 33  1  0  0  0  0
 18 34  1  0  0  0  0
M  CHG  1   4  -1
M  END
> <s_m_source_file>
AV-unprocessed.smi

> <i_m_source_file_index>
2108

> <i_lp_mmshare_version>
43012

> <i_f3d_flags>
0

> <s_epik_input>
W0NIMl0xW0NIMl1PW0NIMl1bQ0gyXU4xUyg9TykoPU8pW05IXVtDSDJdW0NIMl1jMltjSF1bY0hdW2NIXVtjSF1uMg==

> <s_epik_cmdline>
J2VwaWtfcHl0aG9uJywgJy1waCcsICc3LjAnLCAnLXRuJywgJzgnLCAnLW1hJywgJzIwMCcsICctbWV0YWxfYmluZGluZycsICctaW1hZScsICc8aW5maWxlLm1hZT4nLCAnLW9tYWUnLCAnPG91dGZpbGUubWFlPic=

> <r_epik_Ionization_Penalty>
1.27779

> <r_epik_Ionization_Penalty_Charging>
1.20871

> <r_epik_Ionization_Penalty_Neutral>
0.0690773

> <r_epik_State_Penalty>
1.64557

> <r_epik_Charging_Adjusted_Penalty>
2.85428

> <i_epik_Tot_Q>
-1

> <i_epik_Tot_abs_Q>
1

> <r_epik_Metal_State_Penalty>
0.643506

> <b_epik_Metal_Only>
0

> <s_lp_Force_Field>
OPLS_2005

> <r_lp_Energy>
7.47044

> <b_lp_Chiralities_Consistent>
1

> <s_lp_Variant>
AV-unprocessed.smi:2108-2

> <Gold.Version>
5.8.1

> <Gold.Id.Protein>
6NUR|6NUR_protein|mol2

> <Gold.PLP.Fitness>
44.9648

> <Gold.PLP.PLP>
-34.4004

> <Gold.PLP.part.hbond>
-3.0000

> <Gold.PLP.part.metal>
0.0000

> <Gold.PLP.part.buried>
-3.6558

> <Gold.PLP.part.nonpolar>
-27.3530

> <Gold.PLP.part.repulsive>
0.0576

> <Gold.PLP.ligand.clash>
0.0000

> <Gold.PLP.ligand.torsion>
1.1540

> <Gold.PLP.Chemscore.Hbond>
3.7835

> <Gold.PLP.Chemscore.CHOScore>
0.0000

> <Gold.PLP.Chemscore.Metal>
0.0000

> <Gold.Chemscore.Hbonds>
donor molecule, donor type, donor heavy atom, donor atom, acceptor molecule, acceptor atom, score
      P1  H  6896  6908       L1     3  0.83
      P1  H  7997  8009       L1     4  2.00
      P1  H 10752 10765       L1     1  0.85

> <Gold.PLP.Chemscore.Internal.Correction>
1.5221

> <Gold.Rescore>
     Score         DG    S(hbond)    S(metal)    S(lipo)     H(rot)  DE(clash)    DE(int)     intcor
     19.30     -20.49       2.44        0.00      92.68       1.56       0.08       1.10       ----

> <Gold.Chemscore.Fitness>
19.3006

> <Gold.Chemscore.DG>
-20.4865

> <Gold.Chemscore.ZeroCoef>
-5.4800

> <Gold.Chemscore.Hbond>
2.4445

> <Gold.Chemscore.Metal>
0.0000

> <Gold.Chemscore.Lipo>
92.6754

> <Gold.Chemscore.Internal_Hbond>
0.0000

> <Gold.Chemscore.DEClash>
0.0830

> <Gold.Chemscore.DEInternal>
1.1029

> <Gold.Chemscore.Rot>
1.5630

> <Gold.Chemscore.Internal.Correction>
   9.000000E+99

> <Gold.Chemscore.Hbonds>
donor molecule, donor type, donor heavy atom, donor atom, acceptor molecule, acceptor atom, score
      P1  H  6896  6908       L1     3  0.81
      P1  H  7997  8009       L1     4  0.80
      P1  H 10752 10765       L1     1  0.78

> <Gold.Chemscore.Hbond.Weighted>
-8.1648

> <Gold.Chemscore.Metal.Weighted>
-0.0000

> <Gold.Chemscore.Lipo.Weighted>
-10.8430

> <Gold.Chemscore.Internal_Hbond.Weighted>
0.0000

> <Gold.Chemscore.DEClash.Weighted>
0.0830

> <Gold.Chemscore.DEInternal.Weighted>
1.1029

> <Gold.Chemscore.Rot.Weighted>
4.0013

> <Gold.Chemscore.Internal.Correction.Weighted>
   9.000000E+99

> <Gold.Protein.RotatedTorsions>
[ 6907 6896 6895 6894 ] final -103.71 input  -60.11 | X-H torsion
[ 7974 7965 7964 7962 ] final  171.69 input  175.53 | X-H torsion
[ 8008 7997 7996 7995 ] final  153.31 input   59.86 | X-H torsion
[ 10167 10162 10161 10158 ] final   74.17 input  -65.29 | X-H torsion
[ 10718 10713 10712 10709 ] final -164.33 input   66.30 | X-H torsion
[ 10763 10752 10751 10750 ] final  -96.09 input  -60.55 | X-H torsion
[ 11005 11000 10999 10996 ] final -172.28 input  -57.11 | X-H torsion

> <Gold.Protein.ActiveResidues>
 VAL166  LYS551  ARG553  GLY616  TRP617  ASP618  TYR619  PRO620  LYS621  CYS622 
 ASP623  PHE694  ASN695  SER759  ASP760  ASP761  ALA762  ILE779  LEU786  VAL792 
 PHE793  MET794  SER795  GLU796  ALA797  LYS798  CYS799  TRP800  GLU811  SER814 

> <Gold.Protein.RotatedAtoms>
  150.7253  134.0388  159.3758 H   0  0  0  0  0  0  0  0  0  0  0  0  # atno 6907 bound_to 6896
  151.8360  135.0603  160.0452 H   0  0  0  0  0  0  0  0  0  0  0  0  # atno 6908 bound_to 6896
  152.2898  133.5514  159.5586 H   0  0  0  0  0  0  0  0  0  0  0  0  # atno 6909 bound_to 6896
  144.7288  139.9387  143.6427 H   0  0  0  0  0  0  0  0  0  0  0  0  # atno 7974 bound_to 7965
  156.2588  140.1997  156.6470 H   0  0  0  0  0  0  0  0  0  0  0  0  # atno 8008 bound_to 7997
  154.6566  140.0565  157.0040 H   0  0  0  0  0  0  0  0  0  0  0  0  # atno 8009 bound_to 7997
  155.1338  140.3236  155.4470 H   0  0  0  0  0  0  0  0  0  0  0  0  # atno 8010 bound_to 7997
  140.0165  144.5573  150.7616 H   0  0  0  0  0  0  0  0  0  0  0  0  # atno 10167 bound_to 10162
  156.6374  130.8955  151.2989 H   0  0  0  0  0  0  0  0  0  0  0  0  # atno 10718 bound_to 10713
  154.7208  135.5096  153.8809 H   0  0  0  0  0  0  0  0  0  0  0  0  # atno 10763 bound_to 10752
  153.0860  135.6645  153.9956 H   0  0  0  0  0  0  0  0  0  0  0  0  # atno 10764 bound_to 10752
  153.9779  135.3032  155.3402 H   0  0  0  0  0  0  0  0  0  0  0  0  # atno 10765 bound_to 10752
  140.4988  134.5913  157.4980 H   0  0  0  0  0  0  0  0  0  0  0  0  # atno 11005 bound_to 11000
  146.0801  139.3789  143.0469 LP  0  0  0  0  0  0  0  0  0  0  0  0  # atno 17320 bound_to 7965
  145.7852  140.9839  143.1078 LP  0  0  0  0  0  0  0  0  0  0  0  0  # atno 17321 bound_to 7965
  140.7360  143.2747  151.3777 LP  0  0  0  0  0  0  0  0  0  0  0  0  # atno 17342 bound_to 10162
  139.6169  144.0986  152.2354 LP  0  0  0  0  0  0  0  0  0  0  0  0  # atno 17343 bound_to 10162
  157.7181  130.9523  150.1333 LP  0  0  0  0  0  0  0  0  0  0  0  0  # atno 17370 bound_to 10713
  156.2186  130.3672  149.8583 LP  0  0  0  0  0  0  0  0  0  0  0  0  # atno 17371 bound_to 10713
  139.9725  134.7269  156.0013 LP  0  0  0  0  0  0  0  0  0  0  0  0  # atno 17394 bound_to 11000
  141.1446  133.6558  156.3830 LP  0  0  0  0  0  0  0  0  0  0  0  0  # atno 17395 bound_to 11000

$$$$
