AV-unprocessed.smi:3202|AV-procd|sdf|12247|dock3
  -GOLD-   2272018 83D 1   1.00000     0.00000
 Structure written by MMmdl.
 43 44  0  0  0  0  0  0  0  0  2 V2000
  144.0717  132.5697  150.3164 C   0  0  0  0  0  0  0  0  0  0  0  0
  144.8600  133.7537  150.7938 C   0  0  0  0  0  0  0  0  0  0  0  0
  144.4090  135.0921  150.9889 C   0  0  0  0  0  0  0  0  0  0  0  0
  145.5170  135.7617  151.4265 C   0  0  0  0  0  0  0  0  0  0  0  0
  145.7166  137.1949  151.8013 C   0  0  0  0  0  0  0  0  0  0  0  0
  145.3321  137.5238  153.2573 C   0  0  2  0  0  0  0  0  0  0  0  0
  143.8642  137.1968  153.5754 C   0  0  0  0  0  0  0  0  0  0  0  0
  145.5873  138.9558  153.5318 N   0  3  0  0  0  0  0  0  0  0  0  0
  147.0100  139.3671  153.5089 C   0  0  1  0  0  0  0  0  0  0  0  0
  147.2075  140.8868  153.4182 C   0  0  0  0  0  0  0  0  0  0  0  0
  148.5836  141.1567  154.0412 C   0  0  0  0  0  0  0  0  0  0  0  0
  149.0477  139.8280  154.6572 C   0  0  0  0  0  0  0  0  0  0  0  0
  147.7968  138.9371  154.7654 C   0  0  0  0  0  0  0  0  0  0  0  0
  147.0453  139.2467  156.0810 C   0  0  0  0  0  0  0  0  0  0  0  0
  148.1693  137.4433  154.7249 C   0  0  0  0  0  0  0  0  0  0  0  0
  146.5328  134.8335  151.4722 N   0  0  0  0  0  0  0  0  0  0  0  0
  146.1434  133.6051  151.0856 N   0  0  0  0  0  0  0  0  0  0  0  0
  147.4834  135.0201  151.7593 H   0  0  0  0  0  0  0  0  0  0  0  0
  143.0082  132.8025  150.2571 H   0  0  0  0  0  0  0  0  0  0  0  0
  144.1874  131.7209  150.9909 H   0  0  0  0  0  0  0  0  0  0  0  0
  144.3985  132.2559  149.3248 H   0  0  0  0  0  0  0  0  0  0  0  0
  143.4207  135.4974  150.8296 H   0  0  0  0  0  0  0  0  0  0  0  0
  145.1465  137.8294  151.1210 H   0  0  0  0  0  0  0  0  0  0  0  0
  146.7634  137.4527  151.6369 H   0  0  0  0  0  0  0  0  0  0  0  0
  145.9522  136.9144  153.9166 H   0  0  0  0  0  0  0  0  0  0  0  0
  143.6565  136.1329  153.4588 H   0  0  0  0  0  0  0  0  0  0  0  0
  143.1836  137.7429  152.9213 H   0  0  0  0  0  0  0  0  0  0  0  0
  143.6197  137.4607  154.6048 H   0  0  0  0  0  0  0  0  0  0  0  0
  145.0786  139.5135  152.8609 H   0  0  0  0  0  0  0  0  0  0  0  0
  147.4827  138.9090  152.6376 H   0  0  0  0  0  0  0  0  0  0  0  0
  147.1461  141.2469  152.3907 H   0  0  0  0  0  0  0  0  0  0  0  0
  146.4406  141.4088  153.9921 H   0  0  0  0  0  0  0  0  0  0  0  0
  149.2982  141.5088  153.2965 H   0  0  0  0  0  0  0  0  0  0  0  0
  148.5031  141.9297  154.8064 H   0  0  0  0  0  0  0  0  0  0  0  0
  149.7727  139.3690  153.9831 H   0  0  0  0  0  0  0  0  0  0  0  0
  149.5530  139.9689  155.6135 H   0  0  0  0  0  0  0  0  0  0  0  0
  147.6705  139.0303  156.9479 H   0  0  0  0  0  0  0  0  0  0  0  0
  146.1424  138.6438  156.1811 H   0  0  0  0  0  0  0  0  0  0  0  0
  146.7513  140.2941  156.1504 H   0  0  0  0  0  0  0  0  0  0  0  0
  148.7979  137.1713  155.5736 H   0  0  0  0  0  0  0  0  0  0  0  0
  148.7175  137.1888  153.8172 H   0  0  0  0  0  0  0  0  0  0  0  0
  147.2799  136.8131  154.7586 H   0  0  0  0  0  0  0  0  0  0  0  0
  145.2252  139.1600  154.4523 H   0  0  0  0  0  0  0  0  0  0  0  0
  1 19  1  0  0  0  0
  1 20  1  0  0  0  0
  1 21  1  0  0  0  0
  1  2  1  0  0  0  0
  2 17  2  0  0  0  0
  2  3  1  0  0  0  0
  3  4  2  0  0  0  0
  3 22  1  0  0  0  0
  4 16  1  0  0  0  0
  4  5  1  0  0  0  0
  5  6  1  0  0  0  0
  5 23  1  0  0  0  0
  5 24  1  0  0  0  0
  6  7  1  0  0  0  0
  6  8  1  0  0  0  0
  6 25  1  0  0  0  0
  7 26  1  0  0  0  0
  7 27  1  0  0  0  0
  7 28  1  0  0  0  0
  8  9  1  0  0  0  0
  8 29  1  0  0  0  0
  8 43  1  0  0  0  0
  9 13  1  0  0  0  0
  9 10  1  0  0  0  0
  9 30  1  0  0  0  0
 10 11  1  0  0  0  0
 10 31  1  0  0  0  0
 10 32  1  0  0  0  0
 11 12  1  0  0  0  0
 11 33  1  0  0  0  0
 11 34  1  0  0  0  0
 12 13  1  0  0  0  0
 12 35  1  0  0  0  0
 12 36  1  0  0  0  0
 13 14  1  0  0  0  0
 13 15  1  0  0  0  0
 14 37  1  0  0  0  0
 14 38  1  0  0  0  0
 14 39  1  0  0  0  0
 15 40  1  0  0  0  0
 15 41  1  0  0  0  0
 15 42  1  0  0  0  0
 16 17  1  0  0  0  0
 16 18  1  0  0  0  0
M  CHG  1   8   1
M  END
> <s_m_source_file>
AV-unprocessed.smi

> <i_m_source_file_index>
3202

> <i_lp_mmshare_version>
43012

> <i_f3d_flags>
0

> <s_epik_input>
W0NIM11jMVtjSF1jKG5bbkhdMSlbQ0gyXVtDQEhdKFtDSDNdKVtOSF1bQ0BASF0oQzIoW0NIM10pW0NIM10pW0NIMl1bQ0gyXVtDSDJdMg==

> <s_epik_cmdline>
J2VwaWtfcHl0aG9uJywgJy1waCcsICc3LjAnLCAnLXRuJywgJzgnLCAnLW1hJywgJzIwMCcsICctbWV0YWxfYmluZGluZycsICctaW1hZScsICc8aW5maWxlLm1hZT4nLCAnLW9tYWUnLCAnPG91dGZpbGUubWFlPic=

> <r_lp_tautomer_probability>
0.5

> <r_epik_Ionization_Penalty>
0.000449684

> <r_epik_Ionization_Penalty_Charging>
0.000404963

> <r_epik_Ionization_Penalty_Neutral>
4.47208e-05

> <r_epik_State_Penalty>
0.41068

> <r_epik_Charging_Adjusted_Penalty>
0.411085

> <i_epik_Tot_Q>
1

> <i_epik_Tot_abs_Q>
1

> <r_epik_Metal_State_Penalty>
0.410687

> <b_epik_Metal_Only>
0

> <s_lp_Force_Field>
OPLS_2005

> <r_lp_Energy>
32.0397

> <b_lp_Chiralities_Consistent>
1

> <s_lp_Variant>
AV-unprocessed.smi:3202-7

> <Gold.Version>
5.8.1

> <Gold.Id.Protein>
6NUR|6NUR_protein|mol2

> <Gold.PLP.Fitness>
35.0485

> <Gold.PLP.PLP>
-27.1108

> <Gold.PLP.part.hbond>
-2.0000

> <Gold.PLP.part.metal>
0.0000

> <Gold.PLP.part.buried>
-2.6714

> <Gold.PLP.part.nonpolar>
-23.5037

> <Gold.PLP.part.repulsive>
0.2591

> <Gold.PLP.ligand.clash>
0.0000

> <Gold.PLP.ligand.torsion>
0.5047

> <Gold.PLP.Chemscore.Hbond>
2.9760

> <Gold.PLP.Chemscore.CHOScore>
0.0000

> <Gold.PLP.Chemscore.Metal>
0.0000

> <Gold.Chemscore.Hbonds>
donor molecule, donor type, donor heavy atom, donor atom, acceptor molecule, acceptor atom, score
      L1  H     8    29       P1 10175  1.98
      L1  H    16    18       P1  7948  0.99

> <Gold.PLP.Chemscore.Internal.Correction>
0.0190

> <Gold.Rescore>
     Score         DG    S(hbond)    S(metal)    S(lipo)     H(rot)  DE(clash)    DE(int)     intcor
     15.47     -16.16       1.93        0.00      68.06       1.46       0.11       0.57       ----

> <Gold.Chemscore.Fitness>
15.4713

> <Gold.Chemscore.DG>
-16.1588

> <Gold.Chemscore.ZeroCoef>
-5.4800

> <Gold.Chemscore.Hbond>
1.9319

> <Gold.Chemscore.Metal>
0.0000

> <Gold.Chemscore.Lipo>
68.0571

> <Gold.Chemscore.Internal_Hbond>
0.0000

> <Gold.Chemscore.DEClash>
0.1133

> <Gold.Chemscore.DEInternal>
0.5741

> <Gold.Chemscore.Rot>
1.4596

> <Gold.Chemscore.Internal.Correction>
   9.000000E+99

> <Gold.Chemscore.Hbonds>
donor molecule, donor type, donor heavy atom, donor atom, acceptor molecule, acceptor atom, score
      L1  H     8    29       P1 10175  0.93
      L1  H    16    18       P1  7948  0.77

> <Gold.Chemscore.Hbond.Weighted>
-6.4526

> <Gold.Chemscore.Metal.Weighted>
-0.0000

> <Gold.Chemscore.Lipo.Weighted>
-7.9627

> <Gold.Chemscore.Internal_Hbond.Weighted>
0.0000

> <Gold.Chemscore.DEClash.Weighted>
0.1133

> <Gold.Chemscore.DEInternal.Weighted>
0.5741

> <Gold.Chemscore.Rot.Weighted>
3.7365

> <Gold.Chemscore.Internal.Correction.Weighted>
   9.000000E+99

> <Gold.Protein.RotatedTorsions>
[ 6907 6896 6895 6894 ] final  -95.20 input  -60.11 | X-H torsion
[ 7974 7965 7964 7962 ] final  -71.83 input  175.53 | X-H torsion
[ 8008 7997 7996 7995 ] final  -92.46 input   59.86 | X-H torsion
[ 10167 10162 10161 10158 ] final -178.80 input  -65.29 | X-H torsion
[ 10718 10713 10712 10709 ] final  -59.03 input   66.30 | X-H torsion
[ 10763 10752 10751 10750 ] final  156.63 input  -60.55 | X-H torsion
[ 11005 11000 10999 10996 ] final -123.57 input  -57.11 | X-H torsion

> <Gold.Protein.ActiveResidues>
 VAL166  LYS551  ARG553  GLY616  TRP617  ASP618  TYR619  PRO620  LYS621  CYS622 
 ASP623  PHE694  ASN695  SER759  ASP760  ASP761  ALA762  ILE779  LEU786  VAL792 
 PHE793  MET794  SER795  GLU796  ALA797  LYS798  CYS799  TRP800  GLU811  SER814 

> <Gold.Protein.RotatedAtoms>
  150.6958  134.1694  159.4206 H   0  0  0  0  0  0  0  0  0  0  0  0  # atno 6907 bound_to 6896
  151.9672  135.0092  160.0560 H   0  0  0  0  0  0  0  0  0  0  0  0  # atno 6908 bound_to 6896
  152.1874  133.4714  159.5027 H   0  0  0  0  0  0  0  0  0  0  0  0  # atno 6909 bound_to 6896
  145.6730  140.9214  143.0873 H   0  0  0  0  0  0  0  0  0  0  0  0  # atno 7974 bound_to 7965
  154.7234  140.0509  157.0661 H   0  0  0  0  0  0  0  0  0  0  0  0  # atno 8008 bound_to 7997
  155.0396  140.3167  155.4710 H   0  0  0  0  0  0  0  0  0  0  0  0  # atno 8009 bound_to 7997
  156.2822  140.2135  156.5520 H   0  0  0  0  0  0  0  0  0  0  0  0  # atno 8010 bound_to 7997
  139.5415  144.2349  152.0905 H   0  0  0  0  0  0  0  0  0  0  0  0  # atno 10167 bound_to 10162
  156.1091  130.4177  150.0659 H   0  0  0  0  0  0  0  0  0  0  0  0  # atno 10718 bound_to 10713
  154.1873  135.2796  155.3033 H   0  0  0  0  0  0  0  0  0  0  0  0  # atno 10763 bound_to 10752
  154.5956  135.5546  153.7325 H   0  0  0  0  0  0  0  0  0  0  0  0  # atno 10764 bound_to 10752
  153.0122  135.6379  154.2012 H   0  0  0  0  0  0  0  0  0  0  0  0  # atno 10765 bound_to 10752
  140.9908  134.0541  157.3656 H   0  0  0  0  0  0  0  0  0  0  0  0  # atno 11005 bound_to 11000
  144.7050  139.8597  143.7432 LP  0  0  0  0  0  0  0  0  0  0  0  0  # atno 17320 bound_to 7965
  146.1029  139.4026  143.0335 LP  0  0  0  0  0  0  0  0  0  0  0  0  # atno 17321 bound_to 7965
  140.1828  144.4828  150.6519 LP  0  0  0  0  0  0  0  0  0  0  0  0  # atno 17342 bound_to 10162
  140.6647  143.2264  151.5771 LP  0  0  0  0  0  0  0  0  0  0  0  0  # atno 17343 bound_to 10162
  156.8627  130.9497  151.3616 LP  0  0  0  0  0  0  0  0  0  0  0  0  # atno 17370 bound_to 10713
  157.6271  130.8700  149.9208 LP  0  0  0  0  0  0  0  0  0  0  0  0  # atno 17371 bound_to 10713
  139.8991  135.0157  156.7182 LP  0  0  0  0  0  0  0  0  0  0  0  0  # atno 17394 bound_to 11000
  140.7042  133.9279  155.8043 LP  0  0  0  0  0  0  0  0  0  0  0  0  # atno 17395 bound_to 11000

$$$$
