AV-unprocessed.smi:1536|AV-procd|sdf|6187|dock4
  -GOLD-   22720 6353D 1   1.00000     0.00000
 Structure written by MMmdl.
 48 49  0  0  0  0  0  0  0  0  2 V2000
  144.0634  136.0196  150.8384 C   0  0  0  0  0  0  0  0  0  0  0  0
  144.8751  135.2714  151.9048 C   0  0  2  0  0  0  0  0  0  0  0  0
  145.4417  136.2316  152.9659 C   0  0  0  0  0  0  0  0  0  0  0  0
  146.2752  135.4783  154.0157 C   0  0  0  0  0  0  0  0  0  0  0  0
  147.3647  134.7044  153.3624 N   0  3  1  0  0  0  0  0  0  0  0  0
  148.4207  134.1848  154.2890 C   0  0  1  0  0  0  0  0  0  0  0  0
  148.9268  135.2357  155.3182 C   0  0  0  0  0  0  0  0  0  0  0  0
  149.5318  136.4012  154.6822 N   0  0  0  0  0  0  0  0  0  0  0  0
  150.5354  137.1387  155.1847 C   0  0  0  0  0  0  0  0  0  0  0  0
  151.0900  136.8867  156.2533 O   0  0  0  0  0  0  0  0  0  0  0  0
  150.9570  138.3728  154.3818 C   0  0  0  0  0  0  0  0  0  0  0  0
  150.5064  139.6068  155.0000 N   0  0  0  0  0  0  0  0  0  0  0  0
  149.3261  139.9477  155.5214 C   0  0  0  0  0  0  0  0  0  0  0  0
  149.3432  141.1817  156.0018 N   0  0  0  0  0  0  0  0  0  0  0  0
  150.6366  141.6038  155.7418 N   0  0  0  0  0  0  0  0  0  0  0  0
  151.3314  140.6739  155.1465 N   0  0  0  0  0  0  0  0  0  0  0  0
  147.9329  132.8670  154.9588 C   0  0  0  0  0  0  0  0  0  0  0  0
  146.6823  133.0649  155.8358 C   0  0  0  0  0  0  0  0  0  0  0  0
  149.0389  132.2126  155.8115 C   0  0  0  0  0  0  0  0  0  0  0  0
  146.8470  133.7374  152.3571 C   0  0  0  0  0  0  0  0  0  0  0  0
  146.0269  134.4644  151.2796 C   0  0  0  0  0  0  0  0  0  0  0  0
  144.6828  136.7353  150.2970 H   0  0  0  0  0  0  0  0  0  0  0  0
  143.2360  136.5692  151.2882 H   0  0  0  0  0  0  0  0  0  0  0  0
  143.6409  135.3274  150.1093 H   0  0  0  0  0  0  0  0  0  0  0  0
  144.2021  134.5726  152.4041 H   0  0  0  0  0  0  0  0  0  0  0  0
  146.0619  136.9900  152.4856 H   0  0  0  0  0  0  0  0  0  0  0  0
  144.6284  136.7650  153.4595 H   0  0  0  0  0  0  0  0  0  0  0  0
  146.6975  136.1985  154.7172 H   0  0  0  0  0  0  0  0  0  0  0  0
  145.6243  134.8202  154.5895 H   0  0  0  0  0  0  0  0  0  0  0  0
  149.2794  133.9072  153.6754 H   0  0  0  0  0  0  0  0  0  0  0  0
  148.1156  135.5236  155.9886 H   0  0  0  0  0  0  0  0  0  0  0  0
  149.7023  134.8047  155.9503 H   0  0  0  0  0  0  0  0  0  0  0  0
  149.1485  136.6803  153.7903 H   0  0  0  0  0  0  0  0  0  0  0  0
  152.0437  138.3914  154.2871 H   0  0  0  0  0  0  0  0  0  0  0  0
  150.5468  138.3204  153.3724 H   0  0  0  0  0  0  0  0  0  0  0  0
  148.4646  139.2970  155.5525 H   0  0  0  0  0  0  0  0  0  0  0  0
  147.6620  132.1572  154.1768 H   0  0  0  0  0  0  0  0  0  0  0  0
  146.8426  133.8377  156.5884 H   0  0  0  0  0  0  0  0  0  0  0  0
  146.4209  132.1445  156.3592 H   0  0  0  0  0  0  0  0  0  0  0  0
  145.8095  133.3422  155.2454 H   0  0  0  0  0  0  0  0  0  0  0  0
  149.3804  132.8841  156.6000 H   0  0  0  0  0  0  0  0  0  0  0  0
  149.9062  131.9315  155.2140 H   0  0  0  0  0  0  0  0  0  0  0  0
  148.6788  131.3004  156.2883 H   0  0  0  0  0  0  0  0  0  0  0  0
  147.6734  133.2079  151.8834 H   0  0  0  0  0  0  0  0  0  0  0  0
  146.2231  132.9855  152.8393 H   0  0  0  0  0  0  0  0  0  0  0  0
  145.6319  133.7380  150.5684 H   0  0  0  0  0  0  0  0  0  0  0  0
  146.6803  135.1285  150.7115 H   0  0  0  0  0  0  0  0  0  0  0  0
  147.8551  135.4001  152.8186 H   0  0  0  0  0  0  0  0  0  0  0  0
  1  2  1  0  0  0  0
  1 22  1  0  0  0  0
  1 23  1  0  0  0  0
  1 24  1  0  0  0  0
  2 21  1  0  0  0  0
  2  3  1  0  0  0  0
  2 25  1  0  0  0  0
  3  4  1  0  0  0  0
  3 26  1  0  0  0  0
  3 27  1  0  0  0  0
  4  5  1  0  0  0  0
  4 28  1  0  0  0  0
  4 29  1  0  0  0  0
  5  6  1  0  0  0  0
  5 20  1  0  0  0  0
  5 48  1  0  0  0  0
  6  7  1  0  0  0  0
  6 17  1  0  0  0  0
  6 30  1  0  0  0  0
  7  8  1  0  0  0  0
  7 31  1  0  0  0  0
  7 32  1  0  0  0  0
  8  9  1  0  0  0  0
  8 33  1  0  0  0  0
  9 10  2  0  0  0  0
  9 11  1  0  0  0  0
 11 12  1  0  0  0  0
 11 34  1  0  0  0  0
 11 35  1  0  0  0  0
 12 16  1  0  0  0  0
 12 13  1  0  0  0  0
 13 14  2  0  0  0  0
 13 36  1  0  0  0  0
 14 15  1  0  0  0  0
 15 16  2  0  0  0  0
 17 18  1  0  0  0  0
 17 19  1  0  0  0  0
 17 37  1  0  0  0  0
 18 38  1  0  0  0  0
 18 39  1  0  0  0  0
 18 40  1  0  0  0  0
 19 41  1  0  0  0  0
 19 42  1  0  0  0  0
 19 43  1  0  0  0  0
 20 21  1  0  0  0  0
 20 44  1  0  0  0  0
 20 45  1  0  0  0  0
 21 46  1  0  0  0  0
 21 47  1  0  0  0  0
M  CHG  1   5   1
M  END
> <s_m_source_file>
AV-unprocessed.smi

> <i_m_source_file_index>
1536

> <i_lp_mmshare_version>
43012

> <i_f3d_flags>
0

> <s_epik_input>
W0NIM11bQ0hdMVtDSDJdW0NIMl1OKFtDSDJdW0NIMl0xKVtDQEBIXShbQ0hdKFtDSDNdKVtDSDNdKVtDSDJdW05IXUMoPU8pW0NIMl1uMltjSF1ubm4y

> <s_epik_cmdline>
J2VwaWtfcHl0aG9uJywgJy1waCcsICc3LjAnLCAnLXRuJywgJzgnLCAnLW1hJywgJzIwMCcsICctbWV0YWxfYmluZGluZycsICctaW1hZScsICc8aW5maWxlLm1hZT4nLCAnLW9tYWUnLCAnPG91dGZpbGUubWFlPic=

> <r_lp_tautomer_probability>
1

> <r_epik_Ionization_Penalty>
0.00109671

> <r_epik_Ionization_Penalty_Charging>
0.00109273

> <r_epik_Ionization_Penalty_Neutral>
3.97951e-06

> <r_epik_State_Penalty>
0.000716588

> <r_epik_Charging_Adjusted_Penalty>
0.00180932

> <i_epik_Tot_Q>
1

> <i_epik_Tot_abs_Q>
1

> <r_epik_Metal_State_Penalty>
-0

> <b_epik_Metal_Only>
0

> <s_lp_Force_Field>
OPLS_2005

> <r_lp_Energy>
35.3262

> <b_lp_Chiralities_Consistent>
1

> <s_lp_Variant>
AV-unprocessed.smi:1536-2

> <Gold.Version>
5.8.1

> <Gold.Id.Protein>
6NUR|6NUR_protein|mol2

> <Gold.PLP.Fitness>
48.4522

> <Gold.PLP.PLP>
-34.4413

> <Gold.PLP.part.hbond>
-5.6706

> <Gold.PLP.part.metal>
0.0000

> <Gold.PLP.part.buried>
-1.4001

> <Gold.PLP.part.nonpolar>
-26.4523

> <Gold.PLP.part.repulsive>
0.2287

> <Gold.PLP.ligand.clash>
0.0000

> <Gold.PLP.ligand.torsion>
0.7205

> <Gold.PLP.Chemscore.Hbond>
4.9840

> <Gold.PLP.Chemscore.CHOScore>
0.0000

> <Gold.PLP.Chemscore.Metal>
0.0000

> <Gold.Chemscore.Hbonds>
donor molecule, donor type, donor heavy atom, donor atom, acceptor molecule, acceptor atom, score
      L1  H     5    48       P1  7948  2.00
      L1  H     8    33       P1  7948  0.91
      P1  H  7989  7998       L1    16  0.71

> <Gold.PLP.Chemscore.Internal.Correction>
0.4999

> <Gold.Rescore>
     Score         DG    S(hbond)    S(metal)    S(lipo)     H(rot)  DE(clash)    DE(int)     intcor
     12.72     -13.36       2.53        0.00      55.85       2.77       0.01       0.62       ----

> <Gold.Chemscore.Fitness>
12.7223

> <Gold.Chemscore.DG>
-13.3586

> <Gold.Chemscore.ZeroCoef>
-5.4800

> <Gold.Chemscore.Hbond>
2.5261

> <Gold.Chemscore.Metal>
0.0000

> <Gold.Chemscore.Lipo>
55.8550

> <Gold.Chemscore.Internal_Hbond>
0.0000

> <Gold.Chemscore.DEClash>
0.0141

> <Gold.Chemscore.DEInternal>
0.6222

> <Gold.Chemscore.Rot>
2.7709

> <Gold.Chemscore.Internal.Correction>
   9.000000E+99

> <Gold.Chemscore.Hbonds>
donor molecule, donor type, donor heavy atom, donor atom, acceptor molecule, acceptor atom, score
      L1  H     5    48       P1  7948  1.00
      L1  H     8    33       P1  7948  0.86
      P1  H  7989  7998       L1    16  0.11

> <Gold.Chemscore.Hbond.Weighted>
-8.4371

> <Gold.Chemscore.Metal.Weighted>
-0.0000

> <Gold.Chemscore.Lipo.Weighted>
-6.5350

> <Gold.Chemscore.Internal_Hbond.Weighted>
0.0000

> <Gold.Chemscore.DEClash.Weighted>
0.0141

> <Gold.Chemscore.DEInternal.Weighted>
0.6222

> <Gold.Chemscore.Rot.Weighted>
7.0935

> <Gold.Chemscore.Internal.Correction.Weighted>
   9.000000E+99

> <Gold.Protein.RotatedTorsions>
[ 6907 6896 6895 6894 ] final  -11.75 input  -60.11 | X-H torsion
[ 7974 7965 7964 7962 ] final  -70.04 input  175.53 | X-H torsion
[ 8008 7997 7996 7995 ] final   96.75 input   59.86 | X-H torsion
[ 10167 10162 10161 10158 ] final  114.02 input  -65.29 | X-H torsion
[ 10718 10713 10712 10709 ] final   92.51 input   66.30 | X-H torsion
[ 10763 10752 10751 10750 ] final -138.27 input  -60.55 | X-H torsion
[ 11005 11000 10999 10996 ] final   59.72 input  -57.11 | X-H torsion

> <Gold.Protein.ActiveResidues>
 VAL166  LYS551  ARG553  GLY616  TRP617  ASP618  TYR619  PRO620  LYS621  CYS622 
 ASP623  PHE694  ASN695  SER759  ASP760  ASP761  ALA762  ILE779  LEU786  VAL792 
 PHE793  MET794  SER795  GLU796  ALA797  LYS798  CYS799  TRP800  GLU811  SER814 

> <Gold.Protein.RotatedAtoms>
  151.3813  135.0940  159.9496 H   0  0  0  0  0  0  0  0  0  0  0  0  # atno 6907 bound_to 6896
  152.5107  133.9069  159.7479 H   0  0  0  0  0  0  0  0  0  0  0  0  # atno 6908 bound_to 6896
  150.9503  133.6501  159.2802 H   0  0  0  0  0  0  0  0  0  0  0  0  # atno 6909 bound_to 6896
  145.6960  140.9135  143.0756 H   0  0  0  0  0  0  0  0  0  0  0  0  # atno 7974 bound_to 7965
  156.0829  140.3268  155.7717 H   0  0  0  0  0  0  0  0  0  0  0  0  # atno 8008 bound_to 7997
  155.5123  140.0578  157.2938 H   0  0  0  0  0  0  0  0  0  0  0  0  # atno 8009 bound_to 7997
  154.4592  140.1958  156.0308 H   0  0  0  0  0  0  0  0  0  0  0  0  # atno 8010 bound_to 7997
  139.6419  144.7124  151.2220 H   0  0  0  0  0  0  0  0  0  0  0  0  # atno 10167 bound_to 10162
  157.6958  131.0446  150.3893 H   0  0  0  0  0  0  0  0  0  0  0  0  # atno 10718 bound_to 10713
  154.8641  135.3617  154.5358 H   0  0  0  0  0  0  0  0  0  0  0  0  # atno 10763 bound_to 10752
  153.5981  135.7013  153.5400 H   0  0  0  0  0  0  0  0  0  0  0  0  # atno 10764 bound_to 10752
  153.3314  135.4123  155.1460 H   0  0  0  0  0  0  0  0  0  0  0  0  # atno 10765 bound_to 10752
  140.0283  134.6049  155.9542 H   0  0  0  0  0  0  0  0  0  0  0  0  # atno 11005 bound_to 11000
  144.6982  139.8884  143.7451 LP  0  0  0  0  0  0  0  0  0  0  0  0  # atno 17320 bound_to 7965
  146.0840  139.3828  143.0447 LP  0  0  0  0  0  0  0  0  0  0  0  0  # atno 17321 bound_to 7965
  140.7495  143.6297  150.8435 LP  0  0  0  0  0  0  0  0  0  0  0  0  # atno 17342 bound_to 10162
  139.9935  143.5821  152.2901 LP  0  0  0  0  0  0  0  0  0  0  0  0  # atno 17343 bound_to 10162
  156.4298  130.3970  149.6768 LP  0  0  0  0  0  0  0  0  0  0  0  0  # atno 17370 bound_to 10713
  156.3989  130.7665  151.2671 LP  0  0  0  0  0  0  0  0  0  0  0  0  # atno 17371 bound_to 10713
  141.1816  133.6547  156.5044 LP  0  0  0  0  0  0  0  0  0  0  0  0  # atno 17394 bound_to 11000
  140.4268  134.7138  157.4920 LP  0  0  0  0  0  0  0  0  0  0  0  0  # atno 17395 bound_to 11000

$$$$
