AV-unprocessed.smi:1820|AV-procd|sdf|7384|dock3
  -GOLD-   22720 9 53D 1   1.00000     0.00000
 Structure written by MMmdl.
 34 35  0  0  0  0  0  0  0  0  1 V2000
  147.5796  138.3011  155.6291 O   0  0  0  0  0  0  0  0  0  0  0  0
  147.9381  137.7833  154.5718 C   0  0  0  0  0  0  0  0  0  0  0  0
  147.1088  137.1182  153.7556 N   0  0  0  0  0  0  0  0  0  0  0  0
  145.6761  136.9374  153.9745 C   0  0  0  0  0  0  0  0  0  0  0  0
  144.8392  137.0805  152.6767 C   0  0  0  0  0  0  0  0  0  0  0  0
  145.0220  138.3888  152.1713 O   0  0  0  0  0  0  0  0  0  0  0  0
  145.1277  136.0200  151.6019 C   0  0  0  0  0  0  0  0  0  0  0  0
  144.3037  134.7994  152.0240 C   0  0  0  0  0  0  0  0  0  0  0  0
  143.1208  135.3484  152.8374 C   0  0  0  0  0  0  0  0  0  0  0  0
  143.3447  136.8626  152.9552 C   0  0  0  0  0  0  0  0  0  0  0  0
  149.1920  137.7872  154.0864 N   0  0  0  0  0  0  0  0  0  0  0  0
  150.3618  138.3781  154.6376 C   0  0  0  0  0  0  0  0  0  0  0  0
  151.6042  137.7956  154.3111 C   0  0  0  0  0  0  0  0  0  0  0  0
  152.7815  138.3680  154.8322 C   0  0  0  0  0  0  0  0  0  0  0  0
  152.7871  139.4580  155.6277 N   0  0  0  0  0  0  0  0  0  0  0  0
  151.5988  140.0229  155.9282 C   0  0  0  0  0  0  0  0  0  0  0  0
  150.3640  139.5310  155.4595 C   0  0  0  0  0  0  0  0  0  0  0  0
  147.4908  136.7217  152.9098 H   0  0  0  0  0  0  0  0  0  0  0  0
  145.5572  135.9317  154.3786 H   0  0  0  0  0  0  0  0  0  0  0  0
  145.3065  137.6095  154.7511 H   0  0  0  0  0  0  0  0  0  0  0  0
  144.4826  138.4931  151.4027 H   0  0  0  0  0  0  0  0  0  0  0  0
  144.7574  136.3694  150.6365 H   0  0  0  0  0  0  0  0  0  0  0  0
  146.1848  135.7906  151.4681 H   0  0  0  0  0  0  0  0  0  0  0  0
  143.9769  134.2162  151.1625 H   0  0  0  0  0  0  0  0  0  0  0  0
  144.9074  134.1431  152.6522 H   0  0  0  0  0  0  0  0  0  0  0  0
  142.1650  135.1294  152.3603 H   0  0  0  0  0  0  0  0  0  0  0  0
  143.1041  134.8873  153.8257 H   0  0  0  0  0  0  0  0  0  0  0  0
  143.0271  137.2605  153.9198 H   0  0  0  0  0  0  0  0  0  0  0  0
  142.7462  137.3610  152.1904 H   0  0  0  0  0  0  0  0  0  0  0  0
  149.3375  137.2568  153.2402 H   0  0  0  0  0  0  0  0  0  0  0  0
  151.6593  136.9229  153.6769 H   0  0  0  0  0  0  0  0  0  0  0  0
  153.7452  137.9385  154.6019 H   0  0  0  0  0  0  0  0  0  0  0  0
  151.6325  140.8994  156.5583 H   0  0  0  0  0  0  0  0  0  0  0  0
  149.4580  140.0510  155.7293 H   0  0  0  0  0  0  0  0  0  0  0  0
  1  2  2  0  0  0  0
  2  3  1  0  0  0  0
  2 11  1  0  0  0  0
  3  4  1  0  0  0  0
  3 18  1  0  0  0  0
  4  5  1  0  0  0  0
  4 19  1  0  0  0  0
  4 20  1  0  0  0  0
  5 10  1  0  0  0  0
  5  6  1  0  0  0  0
  5  7  1  0  0  0  0
  6 21  1  0  0  0  0
  7  8  1  0  0  0  0
  7 22  1  0  0  0  0
  7 23  1  0  0  0  0
  8  9  1  0  0  0  0
  8 24  1  0  0  0  0
  8 25  1  0  0  0  0
  9 10  1  0  0  0  0
  9 26  1  0  0  0  0
  9 27  1  0  0  0  0
 10 28  1  0  0  0  0
 10 29  1  0  0  0  0
 11 12  1  0  0  0  0
 11 30  1  0  0  0  0
 12 17  1  0  0  0  0
 12 13  2  0  0  0  0
 13 14  1  0  0  0  0
 13 31  1  0  0  0  0
 14 15  2  0  0  0  0
 14 32  1  0  0  0  0
 15 16  1  0  0  0  0
 16 17  2  0  0  0  0
 16 33  1  0  0  0  0
 17 34  1  0  0  0  0
M  END
> <s_m_source_file>
AV-unprocessed.smi

> <i_m_source_file_index>
1820

> <i_lp_mmshare_version>
43012

> <i_f3d_flags>
0

> <s_epik_input>
W2NIXTFbY0hdbltjSF1bY0hdYzFbTkhdQyg9TylbTkhdW0NIMl1DMihbT0hdKVtDSDJdW0NIMl1bQ0gyXVtDSDJdMg==

> <s_epik_cmdline>
J2VwaWtfcHl0aG9uJywgJy1waCcsICc3LjAnLCAnLXRuJywgJzgnLCAnLW1hJywgJzIwMCcsICctbWV0YWxfYmluZGluZycsICctaW1hZScsICc8aW5maWxlLm1hZT4nLCAnLW9tYWUnLCAnPG91dGZpbGUubWFlPic=

> <r_epik_Ionization_Penalty>
0.127626

> <r_epik_Ionization_Penalty_Charging>
0

> <r_epik_Ionization_Penalty_Neutral>
0.127626

> <r_epik_State_Penalty>
0.11702

> <r_epik_Charging_Adjusted_Penalty>
0.11702

> <i_epik_Tot_Q>
0

> <i_epik_Tot_abs_Q>
0

> <r_epik_Metal_State_Penalty>
0.0961027

> <b_epik_Metal_Only>
0

> <s_lp_Force_Field>
OPLS_2005

> <r_lp_Energy>
30.5055

> <b_lp_Chiralities_Consistent>
1

> <s_lp_Variant>
AV-unprocessed.smi:1820-1

> <Gold.Version>
5.8.1

> <Gold.Id.Protein>
6NUR|6NUR_protein|mol2

> <Gold.PLP.Fitness>
43.0497

> <Gold.PLP.PLP>
-31.6576

> <Gold.PLP.part.hbond>
-4.9462

> <Gold.PLP.part.metal>
0.0000

> <Gold.PLP.part.buried>
-4.2072

> <Gold.PLP.part.nonpolar>
-23.2358

> <Gold.PLP.part.repulsive>
0.0363

> <Gold.PLP.ligand.clash>
0.0000

> <Gold.PLP.ligand.torsion>
0.3088

> <Gold.PLP.Chemscore.Hbond>
4.0000

> <Gold.PLP.Chemscore.CHOScore>
0.0000

> <Gold.PLP.Chemscore.Metal>
0.0000

> <Gold.Chemscore.Hbonds>
donor molecule, donor type, donor heavy atom, donor atom, acceptor molecule, acceptor atom, score
      L1  H     3    18       P1  7948  1.00
      L1  H     6    21       P1 10171  1.00
      L1  H    11    30       P1  7948  1.00
      P1  H  7997  8010       L1    15  1.00

> <Gold.PLP.Chemscore.Internal.Correction>
0.0098

> <Gold.Rescore>
     Score         DG    S(hbond)    S(metal)    S(lipo)     H(rot)  DE(clash)    DE(int)     intcor
     20.69     -21.11       3.88        0.00      61.17       1.76       0.00       0.41       ----

> <Gold.Chemscore.Fitness>
20.6946

> <Gold.Chemscore.DG>
-21.1076

> <Gold.Chemscore.ZeroCoef>
-5.4800

> <Gold.Chemscore.Hbond>
3.8823

> <Gold.Chemscore.Metal>
0.0000

> <Gold.Chemscore.Lipo>
61.1706

> <Gold.Chemscore.Internal_Hbond>
0.0000

> <Gold.Chemscore.DEClash>
0.0000

> <Gold.Chemscore.DEInternal>
0.4130

> <Gold.Chemscore.Rot>
1.7564

> <Gold.Chemscore.Internal.Correction>
   9.000000E+99

> <Gold.Chemscore.Hbonds>
donor molecule, donor type, donor heavy atom, donor atom, acceptor molecule, acceptor atom, score
      L1  H     3    18       P1  7948  0.95
      L1  H     6    21       P1 10171  1.00
      L1  H    11    30       P1  7948  0.95
      P1  H  7997  8010       L1    15  0.94

> <Gold.Chemscore.Hbond.Weighted>
-12.9670

> <Gold.Chemscore.Metal.Weighted>
-0.0000

> <Gold.Chemscore.Lipo.Weighted>
-7.1570

> <Gold.Chemscore.Internal_Hbond.Weighted>
0.0000

> <Gold.Chemscore.DEClash.Weighted>
0.0000

> <Gold.Chemscore.DEInternal.Weighted>
0.4130

> <Gold.Chemscore.Rot.Weighted>
4.4963

> <Gold.Chemscore.Internal.Correction.Weighted>
   9.000000E+99

> <Gold.Protein.RotatedTorsions>
[ 6907 6896 6895 6894 ] final -103.87 input  -60.11 | X-H torsion
[ 7974 7965 7964 7962 ] final  -45.40 input  175.53 | X-H torsion
[ 8008 7997 7996 7995 ] final   94.10 input   59.86 | X-H torsion
[ 10167 10162 10161 10158 ] final   88.33 input  -65.29 | X-H torsion
[ 10718 10713 10712 10709 ] final   27.28 input   66.30 | X-H torsion
[ 10763 10752 10751 10750 ] final -105.47 input  -60.55 | X-H torsion
[ 11005 11000 10999 10996 ] final  162.08 input  -57.11 | X-H torsion

> <Gold.Protein.ActiveResidues>
 VAL166  LYS551  ARG553  GLY616  TRP617  ASP618  TYR619  PRO620  LYS621  CYS622 
 ASP623  PHE694  ASN695  SER759  ASP760  ASP761  ALA762  ILE779  LEU786  VAL792 
 PHE793  MET794  SER795  GLU796  ALA797  LYS798  CYS799  TRP800  GLU811  SER814 

> <Gold.Protein.RotatedAtoms>
  150.7260  134.0364  159.3750 H   0  0  0  0  0  0  0  0  0  0  0  0  # atno 6907 bound_to 6896
  151.8335  135.0611  160.0449 H   0  0  0  0  0  0  0  0  0  0  0  0  # atno 6908 bound_to 6896
  152.2916  133.5530  159.5597 H   0  0  0  0  0  0  0  0  0  0  0  0  # atno 6909 bound_to 6896
  145.9824  140.7269  142.9357 H   0  0  0  0  0  0  0  0  0  0  0  0  # atno 7974 bound_to 7965
  156.0542  140.3304  155.7386 H   0  0  0  0  0  0  0  0  0  0  0  0  # atno 8008 bound_to 7997
  155.5554  140.0614  157.2858 H   0  0  0  0  0  0  0  0  0  0  0  0  # atno 8009 bound_to 7997
  154.4450  140.1886  156.0717 H   0  0  0  0  0  0  0  0  0  0  0  0  # atno 8010 bound_to 7997
  139.8683  144.6506  150.8978 H   0  0  0  0  0  0  0  0  0  0  0  0  # atno 10167 bound_to 10162
  157.2181  130.6966  149.6258 H   0  0  0  0  0  0  0  0  0  0  0  0  # atno 10718 bound_to 10713
  154.7949  135.4748  154.0137 H   0  0  0  0  0  0  0  0  0  0  0  0  # atno 10763 bound_to 10752
  153.1687  135.6821  153.8645 H   0  0  0  0  0  0  0  0  0  0  0  0  # atno 10764 bound_to 10752
  153.8234  135.3201  155.3390 H   0  0  0  0  0  0  0  0  0  0  0  0  # atno 10765 bound_to 10752
  140.2222  134.8188  157.3231 H   0  0  0  0  0  0  0  0  0  0  0  0  # atno 11005 bound_to 11000
  144.6865  140.2931  143.7275 LP  0  0  0  0  0  0  0  0  0  0  0  0  # atno 17320 bound_to 7965
  145.7749  139.1870  143.2191 LP  0  0  0  0  0  0  0  0  0  0  0  0  # atno 17321 bound_to 7965
  140.7764  143.3685  151.1693 LP  0  0  0  0  0  0  0  0  0  0  0  0  # atno 17342 bound_to 10162
  139.7308  143.9076  152.3018 LP  0  0  0  0  0  0  0  0  0  0  0  0  # atno 17343 bound_to 10162
  155.9684  130.4529  150.5791 LP  0  0  0  0  0  0  0  0  0  0  0  0  # atno 17370 bound_to 10713
  157.3604  131.0749  151.1641 LP  0  0  0  0  0  0  0  0  0  0  0  0  # atno 17371 bound_to 10713
  140.1838  134.4456  155.7756 LP  0  0  0  0  0  0  0  0  0  0  0  0  # atno 17394 bound_to 11000
  141.2222  133.6996  156.7913 LP  0  0  0  0  0  0  0  0  0  0  0  0  # atno 17395 bound_to 11000

$$$$
