AV-unprocessed.smi:2992|AV-procd|sdf|11401|dock1
  -GOLD-   2272016323D 1   1.00000     0.00000
 Structure written by MMmdl.
 46 47  0  0  0  0  0  0  0  0  1 V2000
  144.8811  144.1208  154.0807 C   0  0  0  0  0  0  0  0  0  0  0  0
  144.6001  143.6558  155.5256 C   0  0  0  0  0  0  0  0  0  0  0  0
  144.1905  144.8859  156.3585 C   0  0  0  0  0  0  0  0  0  0  0  0
  143.4218  142.6578  155.5164 C   0  0  0  0  0  0  0  0  0  0  0  0
  145.8619  143.0272  156.1842 C   0  0  0  0  0  0  0  0  0  0  0  0
  146.4509  141.8117  155.4565 C   0  0  0  0  0  0  0  0  0  0  0  0
  145.7453  140.8331  155.2129 O   0  0  0  0  0  0  0  0  0  0  0  0
  147.7445  141.8953  155.1093 N   0  0  0  0  0  0  0  0  0  0  0  0
  148.5246  140.8360  154.4798 C   0  0  0  0  0  0  0  0  0  0  0  0
  149.8546  140.6059  155.1766 C   0  0  0  0  0  0  0  0  0  0  0  0
  150.7247  139.5805  154.7551 C   0  0  0  0  0  0  0  0  0  0  0  0
  151.9343  139.4025  155.4506 C   0  0  0  0  0  0  0  0  0  0  0  0
  152.3042  140.1674  156.4986 N   0  0  0  0  0  0  0  0  0  0  0  0
  151.4796  141.1632  156.9088 C   0  0  0  0  0  0  0  0  0  0  0  0
  151.8822  141.9562  158.0057 N   0  0  0  0  0  0  0  0  0  0  0  0
  152.1476  141.2340  159.2477 C   0  0  0  0  0  0  0  0  0  0  0  0
  152.8660  142.1477  160.2560 C   0  0  0  0  0  0  0  0  0  0  0  0
  152.1076  143.3355  160.4578 O   0  0  0  0  0  0  0  0  0  0  0  0
  151.9602  144.0791  159.2530 C   0  0  0  0  0  0  0  0  0  0  0  0
  151.2043  143.2347  158.2135 C   0  0  0  0  0  0  0  0  0  0  0  0
  150.2399  141.4084  156.2704 C   0  0  0  0  0  0  0  0  0  0  0  0
  144.0277  144.6580  153.6655 H   0  0  0  0  0  0  0  0  0  0  0  0
  145.0814  143.2827  153.4128 H   0  0  0  0  0  0  0  0  0  0  0  0
  145.7408  144.7905  154.0396 H   0  0  0  0  0  0  0  0  0  0  0  0
  144.9858  145.6319  156.3828 H   0  0  0  0  0  0  0  0  0  0  0  0
  143.9668  144.6120  157.3902 H   0  0  0  0  0  0  0  0  0  0  0  0
  143.3024  145.3687  155.9489 H   0  0  0  0  0  0  0  0  0  0  0  0
  142.5125  143.1237  155.1352 H   0  0  0  0  0  0  0  0  0  0  0  0
  143.2051  142.2904  156.5201 H   0  0  0  0  0  0  0  0  0  0  0  0
  143.6248  141.7916  154.8859 H   0  0  0  0  0  0  0  0  0  0  0  0
  146.6485  143.7796  156.2569 H   0  0  0  0  0  0  0  0  0  0  0  0
  145.6352  142.7423  157.2131 H   0  0  0  0  0  0  0  0  0  0  0  0
  148.2406  142.7430  155.3430 H   0  0  0  0  0  0  0  0  0  0  0  0
  147.9676  139.8981  154.4523 H   0  0  0  0  0  0  0  0  0  0  0  0
  148.6970  141.1165  153.4404 H   0  0  0  0  0  0  0  0  0  0  0  0
  150.4732  138.9403  153.9225 H   0  0  0  0  0  0  0  0  0  0  0  0
  152.6232  138.6239  155.1584 H   0  0  0  0  0  0  0  0  0  0  0  0
  151.1994  140.8919  159.6644 H   0  0  0  0  0  0  0  0  0  0  0  0
  152.7569  140.3474  159.0787 H   0  0  0  0  0  0  0  0  0  0  0  0
  152.9814  141.6346  161.2108 H   0  0  0  0  0  0  0  0  0  0  0  0
  153.8691  142.3986  159.9067 H   0  0  0  0  0  0  0  0  0  0  0  0
  151.4087  144.9949  159.4655 H   0  0  0  0  0  0  0  0  0  0  0  0
  152.9393  144.3776  158.8746 H   0  0  0  0  0  0  0  0  0  0  0  0
  151.1427  143.7875  157.2753 H   0  0  0  0  0  0  0  0  0  0  0  0
  150.1841  143.0513  158.5532 H   0  0  0  0  0  0  0  0  0  0  0  0
  149.5790  142.1871  156.6204 H   0  0  0  0  0  0  0  0  0  0  0  0
  1  2  1  0  0  0  0
  1 22  1  0  0  0  0
  1 23  1  0  0  0  0
  1 24  1  0  0  0  0
  2  3  1  0  0  0  0
  2  4  1  0  0  0  0
  2  5  1  0  0  0  0
  3 25  1  0  0  0  0
  3 26  1  0  0  0  0
  3 27  1  0  0  0  0
  4 28  1  0  0  0  0
  4 29  1  0  0  0  0
  4 30  1  0  0  0  0
  5  6  1  0  0  0  0
  5 31  1  0  0  0  0
  5 32  1  0  0  0  0
  6  7  2  0  0  0  0
  6  8  1  0  0  0  0
  8  9  1  0  0  0  0
  8 33  1  0  0  0  0
  9 10  1  0  0  0  0
  9 34  1  0  0  0  0
  9 35  1  0  0  0  0
 10 21  1  0  0  0  0
 10 11  2  0  0  0  0
 11 12  1  0  0  0  0
 11 36  1  0  0  0  0
 12 13  2  0  0  0  0
 12 37  1  0  0  0  0
 13 14  1  0  0  0  0
 14 15  1  0  0  0  0
 14 21  2  0  0  0  0
 15 20  1  0  0  0  0
 15 16  1  0  0  0  0
 16 17  1  0  0  0  0
 16 38  1  0  0  0  0
 16 39  1  0  0  0  0
 17 18  1  0  0  0  0
 17 40  1  0  0  0  0
 17 41  1  0  0  0  0
 18 19  1  0  0  0  0
 19 20  1  0  0  0  0
 19 42  1  0  0  0  0
 19 43  1  0  0  0  0
 20 44  1  0  0  0  0
 20 45  1  0  0  0  0
 21 46  1  0  0  0  0
M  END
> <s_m_source_file>
AV-unprocessed.smi

> <i_m_source_file_index>
2992

> <i_lp_mmshare_version>
43012

> <i_f3d_flags>
0

> <s_epik_input>
W0NIM11DKFtDSDNdKShbQ0gzXSlbQ0gyXUMoPU8pW05IXVtDSDJdYzFbY0hdW2NIXW5jKFtjSF0xKU4yW0NIMl1bQ0gyXU9bQ0gyXVtDSDJdMg==

> <s_epik_cmdline>
J2VwaWtfcHl0aG9uJywgJy1waCcsICc3LjAnLCAnLXRuJywgJzgnLCAnLW1hJywgJzIwMCcsICctbWV0YWxfYmluZGluZycsICctaW1hZScsICc8aW5maWxlLm1hZT4nLCAnLW9tYWUnLCAnPG91dGZpbGUubWFlPic=

> <r_lp_tautomer_probability>
1

> <r_epik_Ionization_Penalty>
0.00548609

> <r_epik_Ionization_Penalty_Charging>
0

> <r_epik_Ionization_Penalty_Neutral>
0.00548609

> <r_epik_State_Penalty>
0.00401348

> <r_epik_Charging_Adjusted_Penalty>
0.00401348

> <i_epik_Tot_Q>
0

> <i_epik_Tot_abs_Q>
0

> <r_epik_Metal_State_Penalty>
-0

> <b_epik_Metal_Only>
0

> <s_lp_Force_Field>
OPLS_2005

> <r_lp_Energy>
16.2272

> <b_lp_Chiralities_Consistent>
1

> <s_lp_Variant>
AV-unprocessed.smi:2992-1

> <Gold.Version>
5.8.1

> <Gold.Id.Protein>
6NUR|6NUR_protein|mol2

> <Gold.PLP.Fitness>
45.2239

> <Gold.PLP.PLP>
-39.4701

> <Gold.PLP.part.hbond>
-2.0000

> <Gold.PLP.part.metal>
0.0000

> <Gold.PLP.part.buried>
-3.8369

> <Gold.PLP.part.nonpolar>
-33.3561

> <Gold.PLP.part.repulsive>
0.2868

> <Gold.PLP.ligand.clash>
0.0000

> <Gold.PLP.ligand.torsion>
0.3198

> <Gold.PLP.Chemscore.Hbond>
1.9913

> <Gold.PLP.Chemscore.CHOScore>
0.0000

> <Gold.PLP.Chemscore.Metal>
0.0000

> <Gold.Chemscore.Hbonds>
donor molecule, donor type, donor heavy atom, donor atom, acceptor molecule, acceptor atom, score
      L1  H     8    33       P1  8028  0.86
      P1  H  7997  8010       L1    13  1.00

> <Gold.PLP.Chemscore.Internal.Correction>
0.4196

> <Gold.Rescore>
     Score         DG    S(hbond)    S(metal)    S(lipo)     H(rot)  DE(clash)    DE(int)     intcor
     16.95     -18.46       1.73        0.00      96.93       1.62       0.10       1.41       ----

> <Gold.Chemscore.Fitness>
16.9539

> <Gold.Chemscore.DG>
-18.4606

> <Gold.Chemscore.ZeroCoef>
-5.4800

> <Gold.Chemscore.Hbond>
1.7299

> <Gold.Chemscore.Metal>
0.0000

> <Gold.Chemscore.Lipo>
96.9296

> <Gold.Chemscore.Internal_Hbond>
0.0000

> <Gold.Chemscore.DEClash>
0.0997

> <Gold.Chemscore.DEInternal>
1.4070

> <Gold.Chemscore.Rot>
1.6164

> <Gold.Chemscore.Internal.Correction>
   9.000000E+99

> <Gold.Chemscore.Hbonds>
donor molecule, donor type, donor heavy atom, donor atom, acceptor molecule, acceptor atom, score
      L1  H     8    33       P1  8028  0.83
      P1  H  7997  8010       L1    13  0.37

> <Gold.Chemscore.Hbond.Weighted>
-5.7779

> <Gold.Chemscore.Metal.Weighted>
-0.0000

> <Gold.Chemscore.Lipo.Weighted>
-11.3408

> <Gold.Chemscore.Internal_Hbond.Weighted>
0.0000

> <Gold.Chemscore.DEClash.Weighted>
0.0997

> <Gold.Chemscore.DEInternal.Weighted>
1.4070

> <Gold.Chemscore.Rot.Weighted>
4.1381

> <Gold.Chemscore.Internal.Correction.Weighted>
   9.000000E+99

> <Gold.Protein.RotatedTorsions>
[ 6907 6896 6895 6894 ] final -168.10 input  -60.11 | X-H torsion
[ 7974 7965 7964 7962 ] final  -32.34 input  175.53 | X-H torsion
[ 8008 7997 7996 7995 ] final   75.31 input   59.86 | X-H torsion
[ 10167 10162 10161 10158 ] final -140.05 input  -65.29 | X-H torsion
[ 10718 10713 10712 10709 ] final   25.34 input   66.30 | X-H torsion
[ 10763 10752 10751 10750 ] final   75.56 input  -60.55 | X-H torsion
[ 11005 11000 10999 10996 ] final  -40.68 input  -57.11 | X-H torsion

> <Gold.Protein.ActiveResidues>
 VAL166  LYS551  ARG553  GLY616  TRP617  ASP618  TYR619  PRO620  LYS621  CYS622 
 ASP623  PHE694  ASN695  SER759  ASP760  ASP761  ALA762  ILE779  LEU786  VAL792 
 PHE793  MET794  SER795  GLU796  ALA797  LYS798  CYS799  TRP800  GLU811  SER814 

> <Gold.Protein.RotatedAtoms>
  151.4702  133.3571  159.2822 H   0  0  0  0  0  0  0  0  0  0  0  0  # atno 6907 bound_to 6896
  150.8966  134.8377  159.7342 H   0  0  0  0  0  0  0  0  0  0  0  0  # atno 6908 bound_to 6896
  152.4855  134.4618  159.9659 H   0  0  0  0  0  0  0  0  0  0  0  0  # atno 6909 bound_to 6896
  146.0997  140.5781  142.8826 H   0  0  0  0  0  0  0  0  0  0  0  0  # atno 7974 bound_to 7965
  155.8111  140.3473  155.5458 H   0  0  0  0  0  0  0  0  0  0  0  0  # atno 8008 bound_to 7997
  155.8439  140.0946  157.1737 H   0  0  0  0  0  0  0  0  0  0  0  0  # atno 8009 bound_to 7997
  154.4006  140.1389  156.3750 H   0  0  0  0  0  0  0  0  0  0  0  0  # atno 8010 bound_to 7997
  139.8319  143.7435  152.2665 H   0  0  0  0  0  0  0  0  0  0  0  0  # atno 10167 bound_to 10162
  157.1920  130.6850  149.6154 H   0  0  0  0  0  0  0  0  0  0  0  0  # atno 10718 bound_to 10713
  153.0664  135.4984  154.8208 H   0  0  0  0  0  0  0  0  0  0  0  0  # atno 10763 bound_to 10752
  154.6959  135.2993  154.9415 H   0  0  0  0  0  0  0  0  0  0  0  0  # atno 10764 bound_to 10752
  154.0154  135.6749  153.4821 H   0  0  0  0  0  0  0  0  0  0  0  0  # atno 10765 bound_to 10752
  141.0192  133.6871  156.2354 H   0  0  0  0  0  0  0  0  0  0  0  0  # atno 11005 bound_to 11000
  144.7423  140.4975  143.6860 LP  0  0  0  0  0  0  0  0  0  0  0  0  # atno 17320 bound_to 7965
  145.5879  139.1493  143.3199 LP  0  0  0  0  0  0  0  0  0  0  0  0  # atno 17321 bound_to 7965
  139.7645  144.7496  151.0314 LP  0  0  0  0  0  0  0  0  0  0  0  0  # atno 17342 bound_to 10162
  140.7806  143.4713  151.0142 LP  0  0  0  0  0  0  0  0  0  0  0  0  # atno 17343 bound_to 10162
  155.9710  130.4611  150.6098 LP  0  0  0  0  0  0  0  0  0  0  0  0  # atno 17370 bound_to 10713
  157.3851  131.0787  151.1443 LP  0  0  0  0  0  0  0  0  0  0  0  0  # atno 17371 bound_to 10713
  140.6603  134.4975  157.5583 LP  0  0  0  0  0  0  0  0  0  0  0  0  # atno 17394 bound_to 11000
  139.9135  134.8294  156.1445 LP  0  0  0  0  0  0  0  0  0  0  0  0  # atno 17395 bound_to 11000

$$$$
