#       Name:                AV-unprocessed.smi:814
#       Creating user name   scv26
#       Creation time:       Fri Mar 27 01:26:16 2020


#       File generated by GOLD software.
#

@<TRIPOS>MOLECULE
AV-unprocessed.smi:814
    39    40     1
SMALL
NO_CHARGES


@<TRIPOS>ATOM
      1 ****        -2.2774   3.0929  -2.6691 C.3            1 S1                 0.0000
      2 ****        -2.3150   3.5530  -1.2794 N.pl3          1 S1                 0.0000
      3 ****        -2.7255   4.7848  -0.8373 C.2            1 S1                 0.0000
      4 ****        -2.5919   4.7775   0.5266 C.2            1 S1                 0.0000
      5 ****        -2.1044   3.5433   0.8604 N.pl3          1 S1                 1.0000
      6 ****        -1.9396   2.7944  -0.2363 C.2            1 S1                 0.0000
      7 ****        -1.4126   1.3940  -0.2564 C.3            1 S1                 0.0000
      8 ****         0.1081   1.3359  -0.4719 C.3            1 S1                 0.0000
      9 ****         0.5968  -0.0372  -0.4653 N.am           1 S1                 0.0000
     10 ****         0.8390  -0.7607   0.6389 C.2            1 S1                 0.0000
     11 ****         0.6553  -0.3305   1.7782 O.2            1 S1                 0.0000
     12 ****         1.3734  -2.1829   0.4240 C.3            1 S1                 0.0000
     13 ****         0.4098  -3.2428   1.0067 C.3            1 S1                 0.0000
     14 ****         1.0319  -4.6282   1.0342 C.2            1 S1                 0.0000
     15 ****         2.3505  -4.8492   0.8961 C.2            1 S1                 0.0000
     16 ****         3.3681  -3.7388   0.7032 C.3            1 S1                 0.0000
     17 ****         2.7830  -2.3505   1.0256 C.3            1 S1                 0.0000
     18 ****        -2.5995   3.8987  -3.3295 H              1 S1                 0.0000
     19 ****        -2.9483   2.2416  -2.7867 H              1 S1                 0.0000
     20 ****        -1.2595   2.8016  -2.9285 H              1 S1                 0.0000
     21 ****        -3.0731   5.5571  -1.5086 H              1 S1                 0.0000
     22 ****        -2.8002   5.5379   1.2653 H              1 S1                 0.0000
     23 ****        -1.6900   0.9412   0.6964 H              1 S1                 0.0000
     24 ****        -1.9444   0.8505  -1.0377 H              1 S1                 0.0000
     25 ****         0.3702   1.7836  -1.4304 H              1 S1                 0.0000
     26 ****         0.6254   1.9183   0.2926 H              1 S1                 0.0000
     27 ****         0.7763  -0.4652  -1.3625 H              1 S1                 0.0000
     28 ****         1.4526  -2.3563  -0.6512 H              1 S1                 0.0000
     29 ****         0.1092  -2.9918   2.0249 H              1 S1                 0.0000
     30 ****        -0.5010  -3.2826   0.4079 H              1 S1                 0.0000
     31 ****         0.3611  -5.4611   1.1863 H              1 S1                 0.0000
     32 ****         2.7301  -5.8604   0.9110 H              1 S1                 0.0000
     33 ****         4.2366  -3.9316   1.3335 H              1 S1                 0.0000
     34 ****         3.7122  -3.7722  -0.3309 H              1 S1                 0.0000
     35 ****         3.4568  -1.5749   0.6588 H              1 S1                 0.0000
     36 ****         2.7338  -2.2277   2.1090 H              1 S1                 0.0000
     37 ****        -1.8960   3.2367   1.8025 H              1 S1                 0.0000
     38 ****         0.3100   0.5984   1.9123 LP             1 S1                 0.0000
     39 ****         0.8513  -0.9100   2.5692 LP             1 S1                 0.0000
@<TRIPOS>BOND
    1    1    2 1     
    2    1   18 1     
    3    1   19 1     
    4    1   20 1     
    5    2    6 1     
    6    2    3 1     
    7    3    4 2     
    8    3   21 1     
    9    4    5 1     
   10    4   22 1     
   11    5    6 2     
   12    5   37 1     
   13    6    7 1     
   14    7    8 1     
   15    7   23 1     
   16    7   24 1     
   17    8    9 1     
   18    8   25 1     
   19    8   26 1     
   20    9   10 am    
   21    9   27 1     
   22   10   11 2     
   23   10   12 1     
   24   12   17 1     
   25   12   13 1     
   26   12   28 1     
   27   13   14 1     
   28   13   29 1     
   29   13   30 1     
   30   14   15 2     
   31   14   31 1     
   32   15   16 1     
   33   15   32 1     
   34   16   17 1     
   35   16   33 1     
   36   16   34 1     
   37   17   35 1     
   38   17   36 1     
   39   11   38 1     
   40   11   39 1     
@<TRIPOS>SUBSTRUCTURE
      1 S1             1
@<TRIPOS>SET
LONE_PAIRS      STATIC     ATOMS    <user>   **** ""
2 38 39
DONOR_HYDROGENS      STATIC     ATOMS    <user>   **** ""
2 37 27
ATOM$BLUE        STATIC     ATOMS    COLORGROUP SYSTEM
2 38 39
ATOM$RED        STATIC     ATOMS    COLORGROUP SYSTEM
2 37 27
