#       Name:                AV-unprocessed.smi:1801
#       Creating user name   scv26
#       Creation time:       Fri Mar 27 08:52:43 2020


#       File generated by GOLD software.
#

@<TRIPOS>MOLECULE
AV-unprocessed.smi:1801
    42    43     1
SMALL
NO_CHARGES


@<TRIPOS>ATOM
      1 ****        -0.0790  -1.4725  -2.9101 C.3            1 S1                 0.0000
      2 ****         0.4190  -0.7930  -1.6237 C.3            1 S1                 0.0000
      3 ****         1.9640  -0.7805  -1.5910 C.3            1 S1                 0.0000
      4 ****         2.4993  -0.1906  -0.3667 N.am           1 S1                 0.0000
      5 ****         2.4710  -0.7432   0.8544 C.2            1 S1                 0.0000
      6 ****         1.9975  -1.8709   1.0093 O.2            1 S1                 0.0000
      7 ****         2.9805   0.0522   1.8211 N.pl3          1 S1                -1.0000
      8 ****         3.0094  -0.3737   3.0948 C.2            1 S1                 0.0000
      9 ****         4.1181  -0.8802   3.6575 N.2            1 S1                 0.0000
     10 ****         3.9360  -1.2549   4.9818 N.2            1 S1                 0.0000
     11 ****         2.6899  -1.0130   5.3881 C.2            1 S1                 0.0000
     12 ****         1.6265  -0.3038   4.1910 S.3            1 S1                 0.0000
     13 ****        -0.1804   0.6248  -1.4684 C.3            1 S1                 0.0000
     14 ****        -1.6366   0.5948  -1.1956 N.4            1 S1                 1.0000
     15 ****        -2.0147   0.0739   0.1417 C.3            1 S1                 0.0000
     16 ****        -3.0791   1.0235   0.7060 C.3            1 S1                 0.0000
     17 ****        -3.5607   1.8176  -0.5036 C.3            1 S1                 0.0000
     18 ****        -2.3098   1.8976  -1.3719 C.3            1 S1                 0.0000
     19 ****         0.2237  -0.9147  -3.7968 H              1 S1                 0.0000
     20 ****        -1.1659  -1.5556  -2.9234 H              1 S1                 0.0000
     21 ****         0.3242  -2.4817  -3.0004 H              1 S1                 0.0000
     22 ****         0.0833  -1.4069  -0.7877 H              1 S1                 0.0000
     23 ****         2.3565  -1.7928  -1.7017 H              1 S1                 0.0000
     24 ****         2.3497  -0.2075  -2.4347 H              1 S1                 0.0000
     25 ****         2.9122   0.7273  -0.4460 H              1 S1                 0.0000
     26 ****         2.3957  -1.2515   6.3991 H              1 S1                 0.0000
     27 ****         0.3022   1.1778  -0.6614 H              1 S1                 0.0000
     28 ****         0.0045   1.1945  -2.3803 H              1 S1                 0.0000
     29 ****        -2.4147  -0.9332   0.0206 H              1 S1                 0.0000
     30 ****        -1.1618   0.0100   0.8196 H              1 S1                 0.0000
     31 ****        -3.8874   0.4970   1.2143 H              1 S1                 0.0000
     32 ****        -2.6190   1.7009   1.4268 H              1 S1                 0.0000
     33 ****        -4.3429   1.2648  -1.0260 H              1 S1                 0.0000
     34 ****        -3.9578   2.7980  -0.2383 H              1 S1                 0.0000
     35 ****        -1.6642   2.6991  -1.0084 H              1 S1                 0.0000
     36 ****        -2.5364   2.0948  -2.4199 H              1 S1                 0.0000
     37 ****        -2.0545  -0.0287  -1.8715 H              1 S1                 0.0000
     38 ****         1.6348  -2.3730   0.2243 LP             1 S1                 0.0000
     39 ****         1.9762  -2.2835   1.9200 LP             1 S1                 0.0000
     40 ****         3.3359   0.9575   1.5883 LP             1 S1                 0.0000
     41 ****         4.9869  -0.9777   3.1720 LP             1 S1                 0.0000
     42 ****         4.6490  -1.6553   5.5575 LP             1 S1                 0.0000
@<TRIPOS>BOND
    1    1    2 1     
    2    1   19 1     
    3    1   20 1     
    4    1   21 1     
    5    2    3 1     
    6    2   13 1     
    7    2   22 1     
    8    3    4 1     
    9    3   23 1     
   10    3   24 1     
   11    4    5 am    
   12    4   25 1     
   13    5    6 2     
   14    5    7 1     
   15    7    8 1     
   16    8   12 1     
   17    8    9 2     
   18    9   10 1     
   19   10   11 2     
   20   11   12 1     
   21   11   26 1     
   22   13   14 1     
   23   13   27 1     
   24   13   28 1     
   25   14   18 1     
   26   14   15 1     
   27   14   37 1     
   28   15   16 1     
   29   15   29 1     
   30   15   30 1     
   31   16   17 1     
   32   16   31 1     
   33   16   32 1     
   34   17   18 1     
   35   17   33 1     
   36   17   34 1     
   37   18   35 1     
   38   18   36 1     
   39    6   38 1     
   40    6   39 1     
   41    7   40 1     
   42    9   41 1     
   43   10   42 1     
@<TRIPOS>SUBSTRUCTURE
      1 S1             1
@<TRIPOS>SET
LONE_PAIRS      STATIC     ATOMS    <user>   **** ""
5 38 39 40 41 42
DONOR_HYDROGENS      STATIC     ATOMS    <user>   **** ""
2 25 37
ATOM$BLUE        STATIC     ATOMS    COLORGROUP SYSTEM
5 38 39 40 41 42
ATOM$RED        STATIC     ATOMS    COLORGROUP SYSTEM
2 25 37
