#       Name:                AV-unprocessed.smi:429
#       Creating user name   scv26
#       Creation time:       Thu Mar 26 22:50:55 2020


#       File generated by GOLD software.
#

@<TRIPOS>MOLECULE
AV-unprocessed.smi:429
    49    50     1
SMALL
NO_CHARGES


@<TRIPOS>ATOM
      1 ****        -4.6762   5.6931  -1.0492 C.3            1 S1                 0.0000
      2 ****        -4.0080   4.8137   0.0132 C.3            1 S1                 0.0000
      3 ****        -2.7011   4.1788  -0.4834 C.3            1 S1                 0.0000
      4 ****        -2.0373   3.2891   0.5835 C.3            1 S1                 0.0000
      5 ****        -0.6935   2.7091   0.1312 C.2            1 S1                 0.0000
      6 ****        -0.5000   2.4222  -1.0505 O.2            1 S1                 0.0000
      7 ****         0.2289   2.5324   1.0898 N.am           1 S1                 0.0000
      8 ****         1.5681   1.9939   0.8720 C.3            1 S1                 0.0000
      9 ****         1.6138   0.4842   0.6833 C.ar           1 S1                 0.0000
     10 ****         0.7261  -0.3810   1.3562 C.ar           1 S1                 0.0000
     11 ****         0.8258  -1.7681   1.1375 C.ar           1 S1                 0.0000
     12 ****         1.8136  -2.2592   0.2507 C.ar           1 S1                 0.0000
     13 ****         1.9270  -3.6461   0.0095 N.3            1 S1                 0.0000
     14 ****         3.1011  -4.1204  -0.7213 C.3            1 S1                 0.0000
     15 ****         3.2005  -5.6530  -0.6418 C.3            1 S1                 0.0000
     16 ****         1.9896  -6.2368  -1.1099 O.3            1 S1                 0.0000
     17 ****         0.8746  -5.8503  -0.3139 C.3            1 S1                 0.0000
     18 ****         0.6919  -4.3240  -0.3775 C.3            1 S1                 0.0000
     19 ****         2.6756  -1.4242  -0.3811 N.ar           1 S1                 0.0000
     20 ****         2.5749  -0.0953  -0.1688 C.ar           1 S1                 0.0000
     21 ****        -5.5977   6.1322  -0.6665 H              1 S1                 0.0000
     22 ****        -4.9279   5.1140  -1.9382 H              1 S1                 0.0000
     23 ****        -4.0206   6.5089  -1.3547 H              1 S1                 0.0000
     24 ****        -3.8084   5.4142   0.9013 H              1 S1                 0.0000
     25 ****        -4.7023   4.0304   0.3191 H              1 S1                 0.0000
     26 ****        -2.9084   3.5898  -1.3782 H              1 S1                 0.0000
     27 ****        -2.0099   4.9673  -0.7850 H              1 S1                 0.0000
     28 ****        -1.8881   3.8667   1.4974 H              1 S1                 0.0000
     29 ****        -2.6984   2.4610   0.8412 H              1 S1                 0.0000
     30 ****        -0.0118   2.7923   2.0354 H              1 S1                 0.0000
     31 ****         2.0266   2.4893   0.0142 H              1 S1                 0.0000
     32 ****         2.1806   2.2474   1.7374 H              1 S1                 0.0000
     33 ****        -0.0209   0.0049   2.0340 H              1 S1                 0.0000
     34 ****         0.1567  -2.4347   1.6606 H              1 S1                 0.0000
     35 ****         3.0301  -3.8050  -1.7632 H              1 S1                 0.0000
     36 ****         4.0082  -3.6788  -0.3070 H              1 S1                 0.0000
     37 ****         4.0270  -6.0079  -1.2574 H              1 S1                 0.0000
     38 ****         3.4027  -5.9775   0.3803 H              1 S1                 0.0000
     39 ****        -0.0186  -6.3506  -0.6882 H              1 S1                 0.0000
     40 ****         1.0167  -6.1820   0.7159 H              1 S1                 0.0000
     41 ****        -0.1429  -4.0423   0.2624 H              1 S1                 0.0000
     42 ****         0.4290  -4.0221  -1.3922 H              1 S1                 0.0000
     43 ****         3.2841   0.5233  -0.6987 H              1 S1                 0.0000
     44 ****        -1.2237   2.5673  -1.7252 LP             1 S1                 0.0000
     45 ****         0.3808   2.0441  -1.3355 LP             1 S1                 0.0000
     46 ****         2.1195  -3.9503   0.9425 LP             1 S1                 0.0000
     47 ****         2.0780  -7.2324  -1.0815 LP             1 S1                 0.0000
     48 ****         1.8317  -5.9429  -2.0526 LP             1 S1                 0.0000
     49 ****         3.3757  -1.7880  -0.9954 LP             1 S1                 0.0000
@<TRIPOS>BOND
    1    1    2 1     
    2    1   21 1     
    3    1   22 1     
    4    1   23 1     
    5    2    3 1     
    6    2   24 1     
    7    2   25 1     
    8    3    4 1     
    9    3   26 1     
   10    3   27 1     
   11    4    5 1     
   12    4   28 1     
   13    4   29 1     
   14    5    6 2     
   15    5    7 am    
   16    7    8 1     
   17    7   30 1     
   18    8    9 1     
   19    8   31 1     
   20    8   32 1     
   21    9   20 ar    
   22    9   10 ar    
   23   10   11 ar    
   24   10   33 1     
   25   11   12 ar    
   26   11   34 1     
   27   12   13 1     
   28   12   19 ar    
   29   13   18 1     
   30   13   14 1     
   31   14   15 1     
   32   14   35 1     
   33   14   36 1     
   34   15   16 1     
   35   15   37 1     
   36   15   38 1     
   37   16   17 1     
   38   17   18 1     
   39   17   39 1     
   40   17   40 1     
   41   18   41 1     
   42   18   42 1     
   43   19   20 ar    
   44   20   43 1     
   45    6   44 1     
   46    6   45 1     
   47   13   46 1     
   48   16   47 1     
   49   16   48 1     
   50   19   49 1     
@<TRIPOS>SUBSTRUCTURE
      1 S1             1
@<TRIPOS>SET
LONE_PAIRS      STATIC     ATOMS    <user>   **** ""
6 44 45 46 47 48 49
DONOR_HYDROGENS      STATIC     ATOMS    <user>   **** ""
1 30
ATOM$BLUE        STATIC     ATOMS    COLORGROUP SYSTEM
6 44 45 46 47 48 49
ATOM$RED        STATIC     ATOMS    COLORGROUP SYSTEM
1 30
