AV-unprocessed.smi:1905|AV-procd|sdf|7726|dock10
  -GOLD-   22720 9463D 1   1.00000     0.00000
 Structure written by MMmdl.
 38 39  0  0  0  0  0  0  0  0  1 V2000
  151.7616  138.7458  155.9415 C   0  0  0  0  0  0  0  0  0  0  0  0
  151.6775  138.3476  154.4663 C   0  0  0  0  0  0  0  0  0  0  0  0
  150.3051  138.2700  154.0938 O   0  0  0  0  0  0  0  0  0  0  0  0
  149.5282  139.4103  154.1744 C   0  0  0  0  0  0  0  0  0  0  0  0
  150.0838  140.5342  154.6925 N   0  0  0  0  0  0  0  0  0  0  0  0
  149.3282  141.6484  154.7681 C   0  0  0  0  0  0  0  0  0  0  0  0
  147.9928  141.7039  154.3299 C   0  0  0  0  0  0  0  0  0  0  0  0
  147.4137  140.5395  153.7919 C   0  0  0  0  0  0  0  0  0  0  0  0
  148.1906  139.3571  153.7167 C   0  0  0  0  0  0  0  0  0  0  0  0
  147.7223  138.1236  153.1822 N   0  0  0  0  0  0  0  0  0  0  0  0
  146.4729  137.6307  153.1388 C   0  0  0  0  0  0  0  0  0  0  0  0
  145.4675  138.1830  153.5839 O   0  0  0  0  0  0  0  0  0  0  0  0
  146.4531  136.4271  152.5494 N   0  0  0  0  0  0  0  0  0  0  0  0
  145.2610  135.6129  152.3377 C   0  0  0  0  0  0  0  0  0  0  0  0
  145.3046  134.8424  151.0034 C   0  0  1  0  0  0  0  0  0  0  0  0
  146.4931  133.8962  150.8746 C   0  0  0  0  0  0  0  0  0  0  0  0
  145.9238  132.6624  150.1655 C   0  0  0  0  0  0  0  0  0  0  0  0
  144.6055  133.0230  149.7788 O   0  0  0  0  0  0  0  0  0  0  0  0
  144.1112  133.9208  150.7571 C   0  0  0  0  0  0  0  0  0  0  0  0
  152.7993  138.8121  156.2693 H   0  0  0  0  0  0  0  0  0  0  0  0
  151.2572  138.0145  156.5735 H   0  0  0  0  0  0  0  0  0  0  0  0
  151.2940  139.7159  156.1117 H   0  0  0  0  0  0  0  0  0  0  0  0
  152.1990  139.0882  153.8577 H   0  0  0  0  0  0  0  0  0  0  0  0
  152.1657  137.3828  154.3191 H   0  0  0  0  0  0  0  0  0  0  0  0
  149.8039  142.5229  155.1868 H   0  0  0  0  0  0  0  0  0  0  0  0
  147.4259  142.6203  154.4019 H   0  0  0  0  0  0  0  0  0  0  0  0
  146.3952  140.5870  153.4418 H   0  0  0  0  0  0  0  0  0  0  0  0
  148.4446  137.5173  152.8218 H   0  0  0  0  0  0  0  0  0  0  0  0
  147.3273  136.0477  152.2160 H   0  0  0  0  0  0  0  0  0  0  0  0
  145.1353  134.9188  153.1703 H   0  0  0  0  0  0  0  0  0  0  0  0
  144.3968  136.2774  152.3571 H   0  0  0  0  0  0  0  0  0  0  0  0
  145.3550  135.5523  150.1760 H   0  0  0  0  0  0  0  0  0  0  0  0
  147.2975  134.3579  150.3008 H   0  0  0  0  0  0  0  0  0  0  0  0
  146.8997  133.6152  151.8469 H   0  0  0  0  0  0  0  0  0  0  0  0
  146.5170  132.3659  149.3003 H   0  0  0  0  0  0  0  0  0  0  0  0
  145.8762  131.8155  150.8514 H   0  0  0  0  0  0  0  0  0  0  0  0
  143.8398  133.3687  151.6586 H   0  0  0  0  0  0  0  0  0  0  0  0
  143.2310  134.4566  150.4007 H   0  0  0  0  0  0  0  0  0  0  0  0
  1  2  1  0  0  0  0
  1 20  1  0  0  0  0
  1 21  1  0  0  0  0
  1 22  1  0  0  0  0
  2  3  1  0  0  0  0
  2 23  1  0  0  0  0
  2 24  1  0  0  0  0
  3  4  1  0  0  0  0
  4  9  1  0  0  0  0
  4  5  2  0  0  0  0
  5  6  1  0  0  0  0
  6  7  2  0  0  0  0
  6 25  1  0  0  0  0
  7  8  1  0  0  0  0
  7 26  1  0  0  0  0
  8  9  2  0  0  0  0
  8 27  1  0  0  0  0
  9 10  1  0  0  0  0
 10 11  1  0  0  0  0
 10 28  1  0  0  0  0
 11 12  2  0  0  0  0
 11 13  1  0  0  0  0
 13 14  1  0  0  0  0
 13 29  1  0  0  0  0
 14 15  1  0  0  0  0
 14 30  1  0  0  0  0
 14 31  1  0  0  0  0
 15 19  1  0  0  0  0
 15 16  1  0  0  0  0
 15 32  1  0  0  0  0
 16 17  1  0  0  0  0
 16 33  1  0  0  0  0
 16 34  1  0  0  0  0
 17 18  1  0  0  0  0
 17 35  1  0  0  0  0
 17 36  1  0  0  0  0
 18 19  1  0  0  0  0
 19 37  1  0  0  0  0
 19 38  1  0  0  0  0
M  END
> <s_m_source_file>
AV-unprocessed.smi

> <i_m_source_file_index>
1905

> <i_lp_mmshare_version>
43012

> <i_f3d_flags>
0

> <s_epik_input>
W0NIM11bQ0gyXU9jMW5bY0hdW2NIXVtjSF1jMVtOSF1DKD1PKVtOSF1bQ0gyXVtDQEBIXTJbQ0gyXVtDSDJdT1tDSDJdMg==

> <s_epik_cmdline>
J2VwaWtfcHl0aG9uJywgJy1waCcsICc3LjAnLCAnLXRuJywgJzgnLCAnLW1hJywgJzIwMCcsICctbWV0YWxfYmluZGluZycsICctaW1hZScsICc8aW5maWxlLm1hZT4nLCAnLW9tYWUnLCAnPG91dGZpbGUubWFlPic=

> <r_lp_tautomer_probability>
1

> <r_epik_Ionization_Penalty>
0.000115153

> <r_epik_Ionization_Penalty_Charging>
0

> <r_epik_Ionization_Penalty_Neutral>
0.000115153

> <r_epik_State_Penalty>
-0

> <r_epik_Charging_Adjusted_Penalty>
0

> <i_epik_Tot_Q>
0

> <i_epik_Tot_abs_Q>
0

> <r_epik_Metal_State_Penalty>
-0

> <b_epik_Metal_Only>
0

> <s_lp_Force_Field>
OPLS_2005

> <r_lp_Energy>
21.5364

> <b_lp_Chiralities_Consistent>
1

> <s_lp_Variant>
AV-unprocessed.smi:1905-2

> <Gold.Version>
5.8.1

> <Gold.Id.Protein>
6NUR|6NUR_protein|mol2

> <Gold.PLP.Fitness>
43.5892

> <Gold.PLP.PLP>
-32.6046

> <Gold.PLP.part.hbond>
-3.0000

> <Gold.PLP.part.metal>
0.0000

> <Gold.PLP.part.buried>
-2.4657

> <Gold.PLP.part.nonpolar>
-27.0269

> <Gold.PLP.part.repulsive>
0.7670

> <Gold.PLP.ligand.clash>
0.0000

> <Gold.PLP.ligand.torsion>
0.3542

> <Gold.PLP.Chemscore.Hbond>
2.8960

> <Gold.PLP.Chemscore.CHOScore>
0.9998

> <Gold.PLP.Chemscore.Metal>
0.0000

> <Gold.Chemscore.Hbonds>
donor molecule, donor type, donor heavy atom, donor atom, acceptor molecule, acceptor atom, score
      L1  H    10    28       P1  7948  1.00
      L1  H    13    29       P1  7948  1.00
      P1  H  7989  7998       L1     5  0.90
      L1  C     6    25       P1  8028  1.00

> <Gold.PLP.Chemscore.Internal.Correction>
0.0055

> <Gold.Rescore>
     Score         DG    S(hbond)    S(metal)    S(lipo)     H(rot)  DE(clash)    DE(int)     intcor
     15.08     -17.78       2.40        0.00      71.99       1.61       0.27       2.44       ----

> <Gold.Chemscore.Fitness>
15.0760

> <Gold.Chemscore.DG>
-17.7829

> <Gold.Chemscore.ZeroCoef>
-5.4800

> <Gold.Chemscore.Hbond>
2.3982

> <Gold.Chemscore.Metal>
0.0000

> <Gold.Chemscore.Lipo>
71.9888

> <Gold.Chemscore.Internal_Hbond>
0.0000

> <Gold.Chemscore.DEClash>
0.2699

> <Gold.Chemscore.DEInternal>
2.4371

> <Gold.Chemscore.Rot>
1.6131

> <Gold.Chemscore.Internal.Correction>
   9.000000E+99

> <Gold.Chemscore.Hbonds>
donor molecule, donor type, donor heavy atom, donor atom, acceptor molecule, acceptor atom, score
      L1  H    10    28       P1  7948  0.96
      L1  H    13    29       P1  7948  0.95
      P1  H  7989  7998       L1     5  0.27

> <Gold.Chemscore.Hbond.Weighted>
-8.0099

> <Gold.Chemscore.Metal.Weighted>
-0.0000

> <Gold.Chemscore.Lipo.Weighted>
-8.4227

> <Gold.Chemscore.Internal_Hbond.Weighted>
0.0000

> <Gold.Chemscore.DEClash.Weighted>
0.2699

> <Gold.Chemscore.DEInternal.Weighted>
2.4371

> <Gold.Chemscore.Rot.Weighted>
4.1296

> <Gold.Chemscore.Internal.Correction.Weighted>
   9.000000E+99

> <Gold.Protein.RotatedTorsions>
[ 6907 6896 6895 6894 ] final   35.64 input  -60.11 | X-H torsion
[ 7974 7965 7964 7962 ] final -174.92 input  175.53 | X-H torsion
[ 8008 7997 7996 7995 ] final   95.54 input   59.86 | X-H torsion
[ 10167 10162 10161 10158 ] final   33.45 input  -65.29 | X-H torsion
[ 10718 10713 10712 10709 ] final -146.82 input   66.30 | X-H torsion
[ 10763 10752 10751 10750 ] final -124.52 input  -60.55 | X-H torsion
[ 11005 11000 10999 10996 ] final -176.43 input  -57.11 | X-H torsion

> <Gold.Protein.ActiveResidues>
 VAL166  LYS551  ARG553  GLY616  TRP617  ASP618  TYR619  PRO620  LYS621  CYS622 
 ASP623  PHE694  ASN695  SER759  ASP760  ASP761  ALA762  ILE779  LEU786  VAL792 
 PHE793  MET794  SER795  GLU796  ALA797  LYS798  CYS799  TRP800  GLU811  SER814 

> <Gold.Protein.RotatedAtoms>
  152.1190  134.9220  160.0563 H   0  0  0  0  0  0  0  0  0  0  0  0  # atno 6907 bound_to 6896
  152.0368  133.3955  159.4328 H   0  0  0  0  0  0  0  0  0  0  0  0  # atno 6908 bound_to 6896
  150.6848  134.3380  159.4899 H   0  0  0  0  0  0  0  0  0  0  0  0  # atno 6909 bound_to 6896
  144.7130  140.1399  143.6392 H   0  0  0  0  0  0  0  0  0  0  0  0  # atno 7974 bound_to 7965
  156.0699  140.3285  155.7563 H   0  0  0  0  0  0  0  0  0  0  0  0  # atno 8008 bound_to 7997
  155.5321  140.0594  157.2904 H   0  0  0  0  0  0  0  0  0  0  0  0  # atno 8009 bound_to 7997
  154.4525  140.1925  156.0495 H   0  0  0  0  0  0  0  0  0  0  0  0  # atno 8010 bound_to 7997
  140.4406  144.1193  150.6173 H   0  0  0  0  0  0  0  0  0  0  0  0  # atno 10167 bound_to 10162
  156.3997  130.7927  151.2137 H   0  0  0  0  0  0  0  0  0  0  0  0  # atno 10718 bound_to 10713
  154.8724  135.4061  154.3119 H   0  0  0  0  0  0  0  0  0  0  0  0  # atno 10763 bound_to 10752
  153.3961  135.7016  153.6465 H   0  0  0  0  0  0  0  0  0  0  0  0  # atno 10764 bound_to 10752
  153.5227  135.3684  155.2610 H   0  0  0  0  0  0  0  0  0  0  0  0  # atno 10765 bound_to 10752
  140.4522  134.6332  157.4806 H   0  0  0  0  0  0  0  0  0  0  0  0  # atno 11005 bound_to 11000
  145.9211  139.2546  143.1380 LP  0  0  0  0  0  0  0  0  0  0  0  0  # atno 17320 bound_to 7965
  145.9619  140.8829  143.0206 LP  0  0  0  0  0  0  0  0  0  0  0  0  # atno 17321 bound_to 7965
  140.4323  143.2563  151.9580 LP  0  0  0  0  0  0  0  0  0  0  0  0  # atno 17342 bound_to 10162
  139.4789  144.5732  151.8054 LP  0  0  0  0  0  0  0  0  0  0  0  0  # atno 17343 bound_to 10162
  157.7503  131.0290  150.4076 LP  0  0  0  0  0  0  0  0  0  0  0  0  # atno 17370 bound_to 10713
  156.4353  130.3980  149.6733 LP  0  0  0  0  0  0  0  0  0  0  0  0  # atno 17371 bound_to 10713
  139.9999  134.6852  155.9547 LP  0  0  0  0  0  0  0  0  0  0  0  0  # atno 17394 bound_to 11000
  141.1659  133.6537  156.4477 LP  0  0  0  0  0  0  0  0  0  0  0  0  # atno 17395 bound_to 11000

$$$$
