AV-unprocessed.smi:2353|AV-procd|sdf|9382|dock3
  -GOLD-   2272013 13D 1   1.00000     0.00000
 Structure written by MMmdl.
 46 48  0  0  0  0  0  0  0  0  2 V2000
  151.5234  143.8040  157.7027 C   0  0  0  0  0  0  0  0  0  0  0  0
  151.9238  142.3993  158.1043 C   0  0  0  0  0  0  0  0  0  0  0  0
  152.6424  142.1776  159.2949 C   0  0  0  0  0  0  0  0  0  0  0  0
  153.0052  140.8695  159.6625 C   0  0  0  0  0  0  0  0  0  0  0  0
  152.6539  139.7766  158.8434 C   0  0  0  0  0  0  0  0  0  0  0  0
  153.0558  138.3725  159.2547 C   0  0  0  0  0  0  0  0  0  0  0  0
  151.9345  139.9851  157.6439 C   0  0  0  0  0  0  0  0  0  0  0  0
  151.6248  138.8730  156.8881 O   0  0  0  0  0  0  0  0  0  0  0  0
  150.9974  139.0603  155.6266 C   0  0  0  0  0  0  0  0  0  0  0  0
  150.6598  137.6820  155.0342 C   0  0  2  0  0  0  0  0  0  0  0  0
  149.4918  137.8374  154.2507 O   0  0  0  0  0  0  0  0  0  0  0  0
  150.3548  136.6415  156.1348 C   0  0  0  0  0  0  0  0  0  0  0  0
  150.2499  135.2822  155.5909 N   0  0  0  0  0  0  0  0  0  0  0  0
  149.1329  135.0783  154.8004 N   0  0  0  0  0  0  0  0  0  0  0  0
  148.9178  133.9330  154.2371 C   0  0  0  0  0  0  0  0  0  0  0  0
  147.7668  133.6699  153.3897 N   0  0  0  0  0  0  0  0  0  0  0  0
  147.5743  132.7031  152.4320 C   0  0  0  0  0  0  0  0  0  0  0  0
  146.3125  132.9044  151.9333 C   0  0  0  0  0  0  0  0  0  0  0  0
  145.7915  133.9795  152.6040 N   0  3  0  0  0  0  0  0  0  0  0  0
  146.6766  134.4473  153.4912 C   0  0  0  0  0  0  0  0  0  0  0  0
  149.8544  132.8388  154.4422 C   0  0  0  0  0  0  0  0  0  0  0  0
  150.9417  133.0477  155.2156 C   0  0  0  0  0  0  0  0  0  0  0  0
  151.2032  134.3388  155.8494 C   0  0  0  0  0  0  0  0  0  0  0  0
  152.1924  134.5594  156.5472 O   0  0  0  0  0  0  0  0  0  0  0  0
  151.5717  141.3084  157.2842 C   0  0  0  0  0  0  0  0  0  0  0  0
  152.0119  144.5511  158.3292 H   0  0  0  0  0  0  0  0  0  0  0  0
  150.4448  143.9297  157.7992 H   0  0  0  0  0  0  0  0  0  0  0  0
  151.8007  143.9971  156.6661 H   0  0  0  0  0  0  0  0  0  0  0  0
  152.9170  143.0072  159.9302 H   0  0  0  0  0  0  0  0  0  0  0  0
  153.5557  140.7087  160.5779 H   0  0  0  0  0  0  0  0  0  0  0  0
  153.7319  137.9424  158.5152 H   0  0  0  0  0  0  0  0  0  0  0  0
  152.1762  137.7325  159.3298 H   0  0  0  0  0  0  0  0  0  0  0  0
  153.5615  138.3678  160.2207 H   0  0  0  0  0  0  0  0  0  0  0  0
  150.0756  139.6219  155.7858 H   0  0  0  0  0  0  0  0  0  0  0  0
  151.6258  139.6343  154.9428 H   0  0  0  0  0  0  0  0  0  0  0  0
  151.4870  137.3439  154.4085 H   0  0  0  0  0  0  0  0  0  0  0  0
  149.6021  137.3510  153.4480 H   0  0  0  0  0  0  0  0  0  0  0  0
  151.1451  136.6540  156.8877 H   0  0  0  0  0  0  0  0  0  0  0  0
  149.4491  136.9134  156.6807 H   0  0  0  0  0  0  0  0  0  0  0  0
  148.3130  131.9601  152.1717 H   0  0  0  0  0  0  0  0  0  0  0  0
  145.7601  132.3758  151.1700 H   0  0  0  0  0  0  0  0  0  0  0  0
  146.5260  135.2855  154.1492 H   0  0  0  0  0  0  0  0  0  0  0  0
  149.7002  131.8709  153.9922 H   0  0  0  0  0  0  0  0  0  0  0  0
  151.6408  132.2390  155.3710 H   0  0  0  0  0  0  0  0  0  0  0  0
  151.0188  141.5127  156.3799 H   0  0  0  0  0  0  0  0  0  0  0  0
  144.8689  134.3675  152.4512 H   0  0  0  0  0  0  0  0  0  0  0  0
  1  2  1  0  0  0  0
  1 26  1  0  0  0  0
  1 27  1  0  0  0  0
  1 28  1  0  0  0  0
  2 25  1  0  0  0  0
  2  3  2  0  0  0  0
  3  4  1  0  0  0  0
  3 29  1  0  0  0  0
  4  5  2  0  0  0  0
  4 30  1  0  0  0  0
  5  6  1  0  0  0  0
  5  7  1  0  0  0  0
  6 31  1  0  0  0  0
  6 32  1  0  0  0  0
  6 33  1  0  0  0  0
  7  8  1  0  0  0  0
  7 25  2  0  0  0  0
  8  9  1  0  0  0  0
  9 10  1  0  0  0  0
  9 34  1  0  0  0  0
  9 35  1  0  0  0  0
 10 11  1  0  0  0  0
 10 12  1  0  0  0  0
 10 36  1  0  0  0  0
 11 37  1  0  0  0  0
 12 13  1  0  0  0  0
 12 38  1  0  0  0  0
 12 39  1  0  0  0  0
 13 23  1  0  0  0  0
 13 14  1  0  0  0  0
 14 15  2  0  0  0  0
 15 16  1  0  0  0  0
 15 21  1  0  0  0  0
 16 20  1  0  0  0  0
 16 17  1  0  0  0  0
 17 18  2  0  0  0  0
 17 40  1  0  0  0  0
 18 19  1  0  0  0  0
 18 41  1  0  0  0  0
 19 20  2  0  0  0  0
 19 46  1  0  0  0  0
 20 42  1  0  0  0  0
 21 22  2  0  0  0  0
 21 43  1  0  0  0  0
 22 23  1  0  0  0  0
 22 44  1  0  0  0  0
 23 24  2  0  0  0  0
 25 45  1  0  0  0  0
M  CHG  1  19   1
M  END
> <s_m_source_file>
AV-unprocessed.smi

> <i_m_source_file_index>
2353

> <i_lp_mmshare_version>
43012

> <i_f3d_flags>
0

> <s_epik_input>
W0NIM11jMVtjSF1bY0hdYyhbQ0gzXSljKFtjSF0xKU9bQ0gyXVtDQEhdKFtPSF0pW0NIMl1uMm5jKFtjSF1bY0hdYzI9TyktbjNbY0hdW2NIXW5bY0hdMw==

> <s_epik_cmdline>
J2VwaWtfcHl0aG9uJywgJy1waCcsICc3LjAnLCAnLXRuJywgJzgnLCAnLW1hJywgJzIwMCcsICctbWV0YWxfYmluZGluZycsICctaW1hZScsICc8aW5maWxlLm1hZT4nLCAnLW9tYWUnLCAnPG91dGZpbGUubWFlPic=

> <r_lp_tautomer_probability>
1

> <r_epik_Ionization_Penalty>
1.66053

> <r_epik_Ionization_Penalty_Charging>
2.43903e-09

> <r_epik_Ionization_Penalty_Neutral>
1.66053

> <r_epik_State_Penalty>
1.76336

> <r_epik_Charging_Adjusted_Penalty>
1.76336

> <i_epik_Tot_Q>
1

> <i_epik_Tot_abs_Q>
1

> <r_epik_Metal_State_Penalty>
1.79856

> <b_epik_Metal_Only>
0

> <s_lp_Force_Field>
OPLS_2005

> <r_lp_Energy>
37.6947

> <b_lp_Chiralities_Consistent>
1

> <s_lp_Variant>
AV-unprocessed.smi:2353-3

> <Gold.Version>
5.8.1

> <Gold.Id.Protein>
6NUR|6NUR_protein|mol2

> <Gold.PLP.Fitness>
46.0141

> <Gold.PLP.PLP>
-40.7569

> <Gold.PLP.part.hbond>
-2.2646

> <Gold.PLP.part.metal>
0.0000

> <Gold.PLP.part.buried>
-4.2811

> <Gold.PLP.part.nonpolar>
-33.5036

> <Gold.PLP.part.repulsive>
0.1487

> <Gold.PLP.ligand.clash>
0.0000

> <Gold.PLP.ligand.torsion>
0.7455

> <Gold.PLP.Chemscore.Hbond>
1.2260

> <Gold.PLP.Chemscore.CHOScore>
1.0000

> <Gold.PLP.Chemscore.Metal>
0.0000

> <Gold.Chemscore.Hbonds>
donor molecule, donor type, donor heavy atom, donor atom, acceptor molecule, acceptor atom, score
      L1  H    11    37       P1  7948  1.00
      P1  H 10752 10764       L1    24  0.69
      L1  C    17    40       P1 10747  1.00

> <Gold.PLP.Chemscore.Internal.Correction>
0.0700

> <Gold.Rescore>
     Score         DG    S(hbond)    S(metal)    S(lipo)     H(rot)  DE(clash)    DE(int)     intcor
     12.71     -15.29       1.46        0.00     100.26       2.65       0.42       2.16       ----

> <Gold.Chemscore.Fitness>
12.7066

> <Gold.Chemscore.DG>
-15.2937

> <Gold.Chemscore.ZeroCoef>
-5.4800

> <Gold.Chemscore.Hbond>
1.4601

> <Gold.Chemscore.Metal>
0.0000

> <Gold.Chemscore.Lipo>
100.2616

> <Gold.Chemscore.Internal_Hbond>
0.0000

> <Gold.Chemscore.DEClash>
0.4238

> <Gold.Chemscore.DEInternal>
2.1633

> <Gold.Chemscore.Rot>
2.6537

> <Gold.Chemscore.Internal.Correction>
   9.000000E+99

> <Gold.Chemscore.Hbonds>
donor molecule, donor type, donor heavy atom, donor atom, acceptor molecule, acceptor atom, score
      L1  H    11    37       P1  7948  0.77
      P1  H 10752 10764       L1    24  0.12

> <Gold.Chemscore.Hbond.Weighted>
-4.8766

> <Gold.Chemscore.Metal.Weighted>
-0.0000

> <Gold.Chemscore.Lipo.Weighted>
-11.7306

> <Gold.Chemscore.Internal_Hbond.Weighted>
0.0000

> <Gold.Chemscore.DEClash.Weighted>
0.4238

> <Gold.Chemscore.DEInternal.Weighted>
2.1633

> <Gold.Chemscore.Rot.Weighted>
6.7935

> <Gold.Chemscore.Internal.Correction.Weighted>
   9.000000E+99

> <Gold.Protein.RotatedTorsions>
[ 6907 6896 6895 6894 ] final   -8.66 input  -60.11 | X-H torsion
[ 7974 7965 7964 7962 ] final   36.78 input  175.53 | X-H torsion
[ 8008 7997 7996 7995 ] final -156.92 input   59.86 | X-H torsion
[ 10167 10162 10161 10158 ] final  -59.08 input  -65.29 | X-H torsion
[ 10718 10713 10712 10709 ] final  112.54 input   66.30 | X-H torsion
[ 10763 10752 10751 10750 ] final  -18.73 input  -60.55 | X-H torsion
[ 11005 11000 10999 10996 ] final  116.56 input  -57.11 | X-H torsion

> <Gold.Protein.ActiveResidues>
 VAL166  LYS551  ARG553  GLY616  TRP617  ASP618  TYR619  PRO620  LYS621  CYS622 
 ASP623  PHE694  ASN695  SER759  ASP760  ASP761  ALA762  ILE779  LEU786  VAL792 
 PHE793  MET794  SER795  GLU796  ALA797  LYS798  CYS799  TRP800  GLU811  SER814 

> <Gold.Protein.RotatedAtoms>
  151.4301  135.1008  159.9639 H   0  0  0  0  0  0  0  0  0  0  0  0  # atno 6907 bound_to 6896
  152.4959  133.8626  159.7268 H   0  0  0  0  0  0  0  0  0  0  0  0  # atno 6908 bound_to 6896
  150.9161  133.6879  159.2871 H   0  0  0  0  0  0  0  0  0  0  0  0  # atno 6909 bound_to 6896
  146.1186  139.5975  142.9305 H   0  0  0  0  0  0  0  0  0  0  0  0  # atno 7974 bound_to 7965
  155.7246  140.0794  157.2316 H   0  0  0  0  0  0  0  0  0  0  0  0  # atno 8008 bound_to 7997
  154.4040  140.1606  156.2494 H   0  0  0  0  0  0  0  0  0  0  0  0  # atno 8009 bound_to 7997
  155.9165  140.3400  155.6142 H   0  0  0  0  0  0  0  0  0  0  0  0  # atno 8010 bound_to 7997
  140.6157  143.2402  151.5602 H   0  0  0  0  0  0  0  0  0  0  0  0  # atno 10167 bound_to 10162
  157.6387  131.0969  150.6911 H   0  0  0  0  0  0  0  0  0  0  0  0  # atno 10718 bound_to 10713
  153.5939  135.7001  153.5412 H   0  0  0  0  0  0  0  0  0  0  0  0  # atno 10763 bound_to 10752
  153.3155  135.4089  155.1372 H   0  0  0  0  0  0  0  0  0  0  0  0  # atno 10764 bound_to 10752
  154.8595  135.3682  154.5472 H   0  0  0  0  0  0  0  0  0  0  0  0  # atno 10765 bound_to 10752
  139.9045  134.9599  156.7216 H   0  0  0  0  0  0  0  0  0  0  0  0  # atno 11005 bound_to 11000
  145.5514  141.0413  143.2276 LP  0  0  0  0  0  0  0  0  0  0  0  0  # atno 17320 bound_to 7965
  144.7576  139.7036  143.7247 LP  0  0  0  0  0  0  0  0  0  0  0  0  # atno 17321 bound_to 7965
  139.5397  144.2682  152.1325 LP  0  0  0  0  0  0  0  0  0  0  0  0  # atno 17342 bound_to 10162
  140.1891  144.4769  150.6488 LP  0  0  0  0  0  0  0  0  0  0  0  0  # atno 17343 bound_to 10162
  156.7238  130.4688  149.5516 LP  0  0  0  0  0  0  0  0  0  0  0  0  # atno 17370 bound_to 10713
  156.1648  130.6398  151.0764 LP  0  0  0  0  0  0  0  0  0  0  0  0  # atno 17371 bound_to 10713
  140.6996  133.9318  155.8016 LP  0  0  0  0  0  0  0  0  0  0  0  0  # atno 17394 bound_to 11000
  141.0382  134.0660  157.3934 LP  0  0  0  0  0  0  0  0  0  0  0  0  # atno 17395 bound_to 11000

$$$$
