AV-unprocessed.smi:2061|AV-procd|sdf|8364|dock4
  -GOLD-   2272011 33D 1   1.00000     0.00000
 Structure written by MMmdl.
 45 46  0  0  0  0  0  0  0  0  1 V2000
  144.2078  143.9120  162.7199 C   0  0  0  0  0  0  0  0  0  0  0  0
  144.8149  143.9433  161.3588 C   0  0  0  0  0  0  0  0  0  0  0  0
  146.0323  143.5545  160.8748 C   0  0  0  0  0  0  0  0  0  0  0  0
  145.9437  143.8729  159.4934 C   0  0  0  0  0  0  0  0  0  0  0  0
  147.0305  143.6226  158.6172 N   0  0  0  0  0  0  0  0  0  0  0  0
  147.4592  142.4323  158.1637 C   0  0  0  0  0  0  0  0  0  0  0  0
  146.9706  141.3422  158.4633 O   0  0  0  0  0  0  0  0  0  0  0  0
  148.5041  142.5756  157.3358 N   0  0  0  0  0  0  0  0  0  0  0  0
  149.2244  141.4872  156.6771 C   0  0  0  0  0  0  0  0  0  0  0  0
  150.4619  141.0199  157.4878 C   0  0  2  0  0  0  0  0  0  0  0  0
  150.1114  139.6874  158.1880 C   0  0  0  0  0  0  0  0  0  0  0  0
  151.0031  142.0457  158.4067 N   0  0  0  0  0  0  0  0  0  0  0  0
  151.6134  143.1724  157.6943 C   0  0  0  0  0  0  0  0  0  0  0  0
  152.1931  144.2476  158.6343 C   0  0  1  0  0  0  0  0  0  0  0  0
  151.1128  145.0982  159.3245 C   0  0  0  0  0  0  0  0  0  0  0  0
  153.0850  143.6530  159.5750 O   0  0  0  0  0  0  0  0  0  0  0  0
  152.5406  142.5610  160.3096 C   0  0  2  0  0  0  0  0  0  0  0  0
  153.6447  141.9997  161.2119 C   0  0  0  0  0  0  0  0  0  0  0  0
  151.9980  141.5017  159.3332 C   0  0  0  0  0  0  0  0  0  0  0  0
  144.7771  144.4064  159.1639 N   0  0  0  0  0  0  0  0  0  0  0  0
  144.0480  144.4545  160.3578 O   0  0  0  0  0  0  0  0  0  0  0  0
  144.7050  143.1751  163.3509 H   0  0  0  0  0  0  0  0  0  0  0  0
  143.1501  143.6526  162.6683 H   0  0  0  0  0  0  0  0  0  0  0  0
  144.2947  144.8852  163.2028 H   0  0  0  0  0  0  0  0  0  0  0  0
  146.8522  143.1153  161.4236 H   0  0  0  0  0  0  0  0  0  0  0  0
  147.5304  144.4380  158.2951 H   0  0  0  0  0  0  0  0  0  0  0  0
  148.8416  143.5098  157.1565 H   0  0  0  0  0  0  0  0  0  0  0  0
  148.5607  140.6418  156.4877 H   0  0  0  0  0  0  0  0  0  0  0  0
  149.5157  141.8254  155.6834 H   0  0  0  0  0  0  0  0  0  0  0  0
  151.2354  140.7858  156.7547 H   0  0  0  0  0  0  0  0  0  0  0  0
  149.5976  139.0066  157.5088 H   0  0  0  0  0  0  0  0  0  0  0  0
  149.4600  139.8465  159.0481 H   0  0  0  0  0  0  0  0  0  0  0  0
  150.9998  139.1586  158.5316 H   0  0  0  0  0  0  0  0  0  0  0  0
  152.4100  142.8010  157.0477 H   0  0  0  0  0  0  0  0  0  0  0  0
  150.8886  143.6588  157.0437 H   0  0  0  0  0  0  0  0  0  0  0  0
  152.7957  144.9282  158.0321 H   0  0  0  0  0  0  0  0  0  0  0  0
  150.5193  145.6416  158.5891 H   0  0  0  0  0  0  0  0  0  0  0  0
  151.5641  145.8324  159.9920 H   0  0  0  0  0  0  0  0  0  0  0  0
  150.4245  144.4906  159.9117 H   0  0  0  0  0  0  0  0  0  0  0  0
  151.7301  142.9193  160.9448 H   0  0  0  0  0  0  0  0  0  0  0  0
  153.2746  141.1706  161.8155 H   0  0  0  0  0  0  0  0  0  0  0  0
  154.0183  142.7652  161.8925 H   0  0  0  0  0  0  0  0  0  0  0  0
  154.4882  141.6362  160.6242 H   0  0  0  0  0  0  0  0  0  0  0  0
  151.5649  140.7015  159.9314 H   0  0  0  0  0  0  0  0  0  0  0  0
  152.8239  141.0631  158.7709 H   0  0  0  0  0  0  0  0  0  0  0  0
  1  2  1  0  0  0  0
  1 22  1  0  0  0  0
  1 23  1  0  0  0  0
  1 24  1  0  0  0  0
  2 21  1  0  0  0  0
  2  3  2  0  0  0  0
  3  4  1  0  0  0  0
  3 25  1  0  0  0  0
  4  5  1  0  0  0  0
  4 20  2  0  0  0  0
  5  6  1  0  0  0  0
  5 26  1  0  0  0  0
  6  7  2  0  0  0  0
  6  8  1  0  0  0  0
  8  9  1  0  0  0  0
  8 27  1  0  0  0  0
  9 10  1  0  0  0  0
  9 28  1  0  0  0  0
  9 29  1  0  0  0  0
 10 11  1  0  0  0  0
 10 12  1  0  0  0  0
 10 30  1  0  0  0  0
 11 31  1  0  0  0  0
 11 32  1  0  0  0  0
 11 33  1  0  0  0  0
 12 19  1  0  0  0  0
 12 13  1  0  0  0  0
 13 14  1  0  0  0  0
 13 34  1  0  0  0  0
 13 35  1  0  0  0  0
 14 15  1  0  0  0  0
 14 16  1  0  0  0  0
 14 36  1  0  0  0  0
 15 37  1  0  0  0  0
 15 38  1  0  0  0  0
 15 39  1  0  0  0  0
 16 17  1  0  0  0  0
 17 18  1  0  0  0  0
 17 19  1  0  0  0  0
 17 40  1  0  0  0  0
 18 41  1  0  0  0  0
 18 42  1  0  0  0  0
 18 43  1  0  0  0  0
 19 44  1  0  0  0  0
 19 45  1  0  0  0  0
 20 21  1  0  0  0  0
M  END
> <s_m_source_file>
AV-unprocessed.smi

> <i_m_source_file_index>
2061

> <i_lp_mmshare_version>
43012

> <i_f3d_flags>
0

> <s_epik_input>
W0NIM11jMVtjSF1jKG5vMSlbTkhdQyg9TylbTkhdW0NIMl1bQ0BIXShbQ0gzXSlOMltDSDJdW0NAQEhdKFtDSDNdKU9bQ0BASF0oW0NIM10pW0NIMl0y

> <s_epik_cmdline>
J2VwaWtfcHl0aG9uJywgJy1waCcsICc3LjAnLCAnLXRuJywgJzgnLCAnLW1hJywgJzIwMCcsICctbWV0YWxfYmluZGluZycsICctaW1hZScsICc8aW5maWxlLm1hZT4nLCAnLW9tYWUnLCAnPG91dGZpbGUubWFlPic=

> <r_epik_Ionization_Penalty>
0.214073

> <r_epik_Ionization_Penalty_Charging>
0

> <r_epik_Ionization_Penalty_Neutral>
0.214073

> <r_epik_State_Penalty>
0.204211

> <r_epik_Charging_Adjusted_Penalty>
0.204211

> <i_epik_Tot_Q>
0

> <i_epik_Tot_abs_Q>
0

> <r_epik_Metal_State_Penalty>
0.217067

> <b_epik_Metal_Only>
0

> <s_lp_Force_Field>
OPLS_2005

> <r_lp_Energy>
31.479

> <b_lp_Chiralities_Consistent>
1

> <s_lp_Variant>
AV-unprocessed.smi:2061-5

> <Gold.Version>
5.8.1

> <Gold.Id.Protein>
6NUR|6NUR_protein|mol2

> <Gold.PLP.Fitness>
44.0863

> <Gold.PLP.PLP>
-41.4060

> <Gold.PLP.part.hbond>
-3.0000

> <Gold.PLP.part.metal>
0.0000

> <Gold.PLP.part.buried>
-7.1033

> <Gold.PLP.part.nonpolar>
-31.9025

> <Gold.PLP.part.repulsive>
0.3120

> <Gold.PLP.ligand.clash>
0.0000

> <Gold.PLP.ligand.torsion>
1.5734

> <Gold.PLP.Chemscore.Hbond>
1.9293

> <Gold.PLP.Chemscore.CHOScore>
0.0000

> <Gold.PLP.Chemscore.Metal>
0.0000

> <Gold.Chemscore.Hbonds>
donor molecule, donor type, donor heavy atom, donor atom, acceptor molecule, acceptor atom, score
      L1  H     5    26       P1  8029  1.00
      L1  H     8    27       P1  8028  0.75
      P1  H  6934  6946       L1     7  0.14

> <Gold.PLP.Chemscore.Internal.Correction>
0.0390

> <Gold.Rescore>
     Score         DG    S(hbond)    S(metal)    S(lipo)     H(rot)  DE(clash)    DE(int)     intcor
     16.26     -18.01       1.34        0.00     102.80       1.55       0.18       1.56       ----

> <Gold.Chemscore.Fitness>
16.2627

> <Gold.Chemscore.DG>
-18.0106

> <Gold.Chemscore.ZeroCoef>
-5.4800

> <Gold.Chemscore.Hbond>
1.3366

> <Gold.Chemscore.Metal>
0.0000

> <Gold.Chemscore.Lipo>
102.7995

> <Gold.Chemscore.Internal_Hbond>
0.0000

> <Gold.Chemscore.DEClash>
0.1830

> <Gold.Chemscore.DEInternal>
1.5649

> <Gold.Chemscore.Rot>
1.5474

> <Gold.Chemscore.Internal.Correction>
   9.000000E+99

> <Gold.Chemscore.Hbonds>
donor molecule, donor type, donor heavy atom, donor atom, acceptor molecule, acceptor atom, score
      L1  H     5    26       P1  8029  0.74
      L1  H     8    27       P1  8028  0.26
      P1  H  6934  6946       L1     7  0.14

> <Gold.Chemscore.Hbond.Weighted>
-4.4643

> <Gold.Chemscore.Metal.Weighted>
-0.0000

> <Gold.Chemscore.Lipo.Weighted>
-12.0275

> <Gold.Chemscore.Internal_Hbond.Weighted>
0.0000

> <Gold.Chemscore.DEClash.Weighted>
0.1830

> <Gold.Chemscore.DEInternal.Weighted>
1.5649

> <Gold.Chemscore.Rot.Weighted>
3.9612

> <Gold.Chemscore.Internal.Correction.Weighted>
   9.000000E+99

> <Gold.Protein.RotatedTorsions>
[ 6907 6896 6895 6894 ] final  122.39 input  -60.11 | X-H torsion
[ 7974 7965 7964 7962 ] final  102.31 input  175.53 | X-H torsion
[ 8008 7997 7996 7995 ] final  113.98 input   59.86 | X-H torsion
[ 10167 10162 10161 10158 ] final -130.21 input  -65.29 | X-H torsion
[ 10718 10713 10712 10709 ] final   -1.81 input   66.30 | X-H torsion
[ 10763 10752 10751 10750 ] final  -36.43 input  -60.55 | X-H torsion
[ 11005 11000 10999 10996 ] final   93.69 input  -57.11 | X-H torsion

> <Gold.Protein.ActiveResidues>
 VAL166  LYS551  ARG553  GLY616  TRP617  ASP618  TYR619  PRO620  LYS621  CYS622 
 ASP623  PHE694  ASN695  SER759  ASP760  ASP761  ALA762  ILE779  LEU786  VAL792 
 PHE793  MET794  SER795  GLU796  ALA797  LYS798  CYS799  TRP800  GLU811  SER814 

> <Gold.Protein.RotatedAtoms>
  152.4246  133.7174  159.6513 H   0  0  0  0  0  0  0  0  0  0  0  0  # atno 6907 bound_to 6896
  150.8123  133.8389  159.3182 H   0  0  0  0  0  0  0  0  0  0  0  0  # atno 6908 bound_to 6896
  151.6096  135.1043  160.0130 H   0  0  0  0  0  0  0  0  0  0  0  0  # atno 6909 bound_to 6896
  145.3608  139.2418  143.3508 H   0  0  0  0  0  0  0  0  0  0  0  0  # atno 7974 bound_to 7965
  156.2292  140.2968  156.0145 H   0  0  0  0  0  0  0  0  0  0  0  0  # atno 8008 bound_to 7997
  155.2271  140.0417  157.2974 H   0  0  0  0  0  0  0  0  0  0  0  0  # atno 8009 bound_to 7997
  154.5967  140.2416  155.7855 H   0  0  0  0  0  0  0  0  0  0  0  0  # atno 8010 bound_to 7997
  139.9317  143.6264  152.2528 H   0  0  0  0  0  0  0  0  0  0  0  0  # atno 10167 bound_to 10162
  156.8001  130.5390  149.5723 H   0  0  0  0  0  0  0  0  0  0  0  0  # atno 10718 bound_to 10713
  153.8796  135.6823  153.4768 H   0  0  0  0  0  0  0  0  0  0  0  0  # atno 10763 bound_to 10752
  153.1241  135.4727  154.9241 H   0  0  0  0  0  0  0  0  0  0  0  0  # atno 10764 bound_to 10752
  154.7675  135.3228  154.8209 H   0  0  0  0  0  0  0  0  0  0  0  0  # atno 10765 bound_to 10752
  139.8807  134.8804  156.3755 H   0  0  0  0  0  0  0  0  0  0  0  0  # atno 11005 bound_to 11000
  146.2928  140.4241  142.8733 LP  0  0  0  0  0  0  0  0  0  0  0  0  # atno 17320 bound_to 7965
  144.8648  140.7190  143.6084 LP  0  0  0  0  0  0  0  0  0  0  0  0  # atno 17321 bound_to 7965
  139.6777  144.7657  151.1666 LP  0  0  0  0  0  0  0  0  0  0  0  0  # atno 17342 bound_to 10162
  140.7635  143.5771  150.8934 LP  0  0  0  0  0  0  0  0  0  0  0  0  # atno 17343 bound_to 10162
  156.1107  130.6038  151.0042 LP  0  0  0  0  0  0  0  0  0  0  0  0  # atno 17370 bound_to 10713
  157.6558  131.0889  150.7950 LP  0  0  0  0  0  0  0  0  0  0  0  0  # atno 17371 bound_to 10713
  140.9435  133.7498  156.0177 LP  0  0  0  0  0  0  0  0  0  0  0  0  # atno 17394 bound_to 11000
  140.8191  134.3310  157.5387 LP  0  0  0  0  0  0  0  0  0  0  0  0  # atno 17395 bound_to 11000

$$$$
