#       Name:                AV-unprocessed.smi:3202
#       Creating user name   scv26
#       Creation time:       Fri Mar 27 18:08:20 2020


#       File generated by GOLD software.
#

@<TRIPOS>MOLECULE
AV-unprocessed.smi:3202
    44    45     1
SMALL
NO_CHARGES


@<TRIPOS>ATOM
      1 ****        -6.0872  -2.2959  -1.1410 C.3            1 S1                 0.0000
      2 ****        -4.7622  -1.5925  -1.1664 C.2            1 S1                 0.0000
      3 ****        -3.4617  -2.1597  -1.0271 C.2            1 S1                 0.0000
      4 ****        -2.6153  -1.0903  -1.1151 C.2            1 S1                 0.0000
      5 ****        -1.1255  -1.0038  -1.0339 C.3            1 S1                 0.0000
      6 ****        -0.5993  -0.4154   0.2896 C.3            1 S1                 0.0000
      7 ****        -1.0590  -1.2135   1.5205 C.3            1 S1                 0.0000
      8 ****         0.8793  -0.3631   0.2591 N.4            1 S1                 1.0000
      9 ****         1.4705   0.9940   0.2367 C.3            1 S1                 0.0000
     10 ****         1.2982   1.7495   1.5624 C.3            1 S1                 0.0000
     11 ****         2.4633   2.7455   1.6239 C.3            1 S1                 0.0000
     12 ****         3.3789   2.4131   0.4367 C.3            1 S1                 0.0000
     13 ****         2.9908   0.9990  -0.0320 C.3            1 S1                 0.0000
     14 ****         3.7522  -0.0574   0.8025 C.3            1 S1                 0.0000
     15 ****         3.3077   0.8012  -1.5262 C.3            1 S1                 0.0000
     16 ****        -3.4128   0.0163  -1.2992 N.pl3          1 S1                 0.0000
     17 ****        -4.7253  -0.2788  -1.3313 N.2            1 S1                 0.0000
     18 ****        -3.0827   0.9654  -1.4034 H              1 S1                 0.0000
     19 ****        -5.9586  -3.3780  -1.1071 H              1 S1                 0.0000
     20 ****        -6.6766  -2.0603  -2.0276 H              1 S1                 0.0000
     21 ****        -6.6681  -2.0046  -0.2657 H              1 S1                 0.0000
     22 ****        -3.1936  -3.1954  -0.8788 H              1 S1                 0.0000
     23 ****        -0.7606  -0.4018  -1.8673 H              1 S1                 0.0000
     24 ****        -0.7050  -1.9994  -1.1809 H              1 S1                 0.0000
     25 ****        -0.9953   0.5963   0.3897 H              1 S1                 0.0000
     26 ****        -2.1454  -1.2174   1.6128 H              1 S1                 0.0000
     27 ****        -0.6604  -0.7798   2.4384 H              1 S1                 0.0000
     28 ****        -0.7252  -2.2504   1.4698 H              1 S1                 0.0000
     29 ****         1.2370  -0.8492   1.0689 H              1 S1                 0.0000
     30 ****         0.9819   1.5691  -0.5527 H              1 S1                 0.0000
     31 ****         0.3308   2.2487   1.6261 H              1 S1                 0.0000
     32 ****         1.3638   1.0622   2.4073 H              1 S1                 0.0000
     33 ****         2.1130   3.7765   1.5665 H              1 S1                 0.0000
     34 ****         2.9995   2.6364   2.5674 H              1 S1                 0.0000
     35 ****         3.1877   3.1340  -0.3598 H              1 S1                 0.0000
     36 ****         4.4356   2.5009   0.6928 H              1 S1                 0.0000
     37 ****         4.8305   0.0492   0.6777 H              1 S1                 0.0000
     38 ****         3.4957  -1.0726   0.4985 H              1 S1                 0.0000
     39 ****         3.5411   0.0304   1.8684 H              1 S1                 0.0000
     40 ****         4.3780   0.8888  -1.7166 H              1 S1                 0.0000
     41 ****         2.8040   1.5429  -2.1471 H              1 S1                 0.0000
     42 ****         2.9911  -0.1835  -1.8711 H              1 S1                 0.0000
     43 ****         1.1891  -0.8548  -0.5670 H              1 S1                 0.0000
     44 ****        -5.4947   0.3485  -1.4517 LP             1 S1                 0.0000
@<TRIPOS>BOND
    1    1   19 1     
    2    1   20 1     
    3    1   21 1     
    4    1    2 1     
    5    2   17 2     
    6    2    3 1     
    7    3    4 2     
    8    3   22 1     
    9    4   16 1     
   10    4    5 1     
   11    5    6 1     
   12    5   23 1     
   13    5   24 1     
   14    6    7 1     
   15    6    8 1     
   16    6   25 1     
   17    7   26 1     
   18    7   27 1     
   19    7   28 1     
   20    8    9 1     
   21    8   29 1     
   22    8   43 1     
   23    9   13 1     
   24    9   10 1     
   25    9   30 1     
   26   10   11 1     
   27   10   31 1     
   28   10   32 1     
   29   11   12 1     
   30   11   33 1     
   31   11   34 1     
   32   12   13 1     
   33   12   35 1     
   34   12   36 1     
   35   13   14 1     
   36   13   15 1     
   37   14   37 1     
   38   14   38 1     
   39   14   39 1     
   40   15   40 1     
   41   15   41 1     
   42   15   42 1     
   43   16   17 1     
   44   16   18 1     
   45   17   44 1     
@<TRIPOS>SUBSTRUCTURE
      1 S1             1
@<TRIPOS>SET
LONE_PAIRS      STATIC     ATOMS    <user>   **** ""
1 44
DONOR_HYDROGENS      STATIC     ATOMS    <user>   **** ""
3 29 43 18
ATOM$BLUE        STATIC     ATOMS    COLORGROUP SYSTEM
1 44
ATOM$RED        STATIC     ATOMS    COLORGROUP SYSTEM
3 29 43 18
