AV-unprocessed.smi:2276|AV-procd|sdf|9172|dock10
  -GOLD-   2272012383D 1   1.00000     0.00000
 Structure written by MMmdl.
 53 54  0  0  0  0  0  0  0  0  2 V2000
  153.8925  141.6093  162.1693 C   0  0  0  0  0  0  0  0  0  0  0  0
  153.0962  142.2156  161.0330 C   0  0  0  0  0  0  0  0  0  0  0  0
  152.5283  143.4986  161.1517 C   0  0  0  0  0  0  0  0  0  0  0  0
  151.7990  144.0067  160.0594 C   0  0  0  0  0  0  0  0  0  0  0  0
  151.1597  145.3780  160.1210 C   0  0  0  0  0  0  0  0  0  0  0  0
  151.6181  143.3196  158.9114 N   0  0  0  0  0  0  0  0  0  0  0  0
  152.1674  142.0860  158.7824 C   0  0  0  0  0  0  0  0  0  0  0  0
  152.0164  141.2784  157.6244 N   0  0  0  0  0  0  0  0  0  0  0  0
  151.0191  141.3170  156.7242 C   0  0  0  0  0  0  0  0  0  0  0  0
  150.1997  142.2299  156.6148 O   0  0  0  0  0  0  0  0  0  0  0  0
  151.0067  140.2133  155.9624 N   0  0  0  0  0  0  0  0  0  0  0  0
  149.9773  139.8586  154.9866 C   0  0  0  0  0  0  0  0  0  0  0  0
  149.3514  138.4766  155.2845 C   0  0  2  0  0  0  0  0  0  0  0  0
  150.4475  137.4077  155.4170 C   0  0  0  0  0  0  0  0  0  0  0  0
  148.3240  138.0578  154.2027 C   0  0  0  0  0  0  0  0  0  0  0  0
  147.4225  139.1370  153.7880 N   0  0  0  0  0  0  0  0  0  0  0  0
  146.9627  139.0602  152.3944 C   0  0  0  0  0  0  0  0  0  0  0  0
  146.0287  137.8569  152.1418 C   0  0  0  0  0  0  0  0  0  0  0  0
  144.8610  137.9005  153.0513 N   0  3  0  0  0  0  0  0  0  0  0  0
  143.9279  136.7765  152.8256 C   0  0  0  0  0  0  0  0  0  0  0  0
  145.2965  138.0058  154.4637 C   0  0  0  0  0  0  0  0  0  0  0  0
  146.2419  139.2137  154.6540 C   0  0  0  0  0  0  0  0  0  0  0  0
  152.9100  141.5011  159.8323 C   0  0  0  0  0  0  0  0  0  0  0  0
  153.8679  142.2456  163.0545 H   0  0  0  0  0  0  0  0  0  0  0  0
  154.9328  141.4768  161.8722 H   0  0  0  0  0  0  0  0  0  0  0  0
  153.4851  140.6349  162.4395 H   0  0  0  0  0  0  0  0  0  0  0  0
  152.6494  144.0783  162.0553 H   0  0  0  0  0  0  0  0  0  0  0  0
  151.5554  145.9594  160.9542 H   0  0  0  0  0  0  0  0  0  0  0  0
  150.0813  145.2868  160.2500 H   0  0  0  0  0  0  0  0  0  0  0  0
  151.3507  145.9320  159.2014 H   0  0  0  0  0  0  0  0  0  0  0  0
  152.6810  140.5247  157.5308 H   0  0  0  0  0  0  0  0  0  0  0  0
  151.7344  139.5298  156.1129 H   0  0  0  0  0  0  0  0  0  0  0  0
  149.2049  140.6273  154.9264 H   0  0  0  0  0  0  0  0  0  0  0  0
  150.4622  139.8396  154.0102 H   0  0  0  0  0  0  0  0  0  0  0  0
  148.8695  138.5587  156.2575 H   0  0  0  0  0  0  0  0  0  0  0  0
  151.0105  137.2979  154.4897 H   0  0  0  0  0  0  0  0  0  0  0  0
  150.0200  136.4356  155.6645 H   0  0  0  0  0  0  0  0  0  0  0  0
  151.1548  137.6639  156.2062 H   0  0  0  0  0  0  0  0  0  0  0  0
  148.8222  137.6583  153.3270 H   0  0  0  0  0  0  0  0  0  0  0  0
  147.7330  137.2282  154.5934 H   0  0  0  0  0  0  0  0  0  0  0  0
  146.4296  139.9831  152.1619 H   0  0  0  0  0  0  0  0  0  0  0  0
  147.8047  139.0279  151.7055 H   0  0  0  0  0  0  0  0  0  0  0  0
  145.6766  137.8864  151.1102 H   0  0  0  0  0  0  0  0  0  0  0  0
  146.5580  136.9115  152.2554 H   0  0  0  0  0  0  0  0  0  0  0  0
  144.4112  135.8218  153.0353 H   0  0  0  0  0  0  0  0  0  0  0  0
  143.5834  136.7643  151.7913 H   0  0  0  0  0  0  0  0  0  0  0  0
  143.0526  136.8661  153.4696 H   0  0  0  0  0  0  0  0  0  0  0  0
  144.4185  138.1332  155.0979 H   0  0  0  0  0  0  0  0  0  0  0  0
  145.7719  137.0767  154.7807 H   0  0  0  0  0  0  0  0  0  0  0  0
  146.5549  139.2880  155.6961 H   0  0  0  0  0  0  0  0  0  0  0  0
  145.7048  140.1367  154.4312 H   0  0  0  0  0  0  0  0  0  0  0  0
  153.3358  140.5143  159.7209 H   0  0  0  0  0  0  0  0  0  0  0  0
  144.3584  138.7503  152.8385 H   0  0  0  0  0  0  0  0  0  0  0  0
  1  2  1  0  0  0  0
  1 24  1  0  0  0  0
  1 25  1  0  0  0  0
  1 26  1  0  0  0  0
  2 23  1  0  0  0  0
  2  3  2  0  0  0  0
  3  4  1  0  0  0  0
  3 27  1  0  0  0  0
  4  5  1  0  0  0  0
  4  6  2  0  0  0  0
  5 28  1  0  0  0  0
  5 29  1  0  0  0  0
  5 30  1  0  0  0  0
  6  7  1  0  0  0  0
  7  8  1  0  0  0  0
  7 23  2  0  0  0  0
  8  9  1  0  0  0  0
  8 31  1  0  0  0  0
  9 10  2  0  0  0  0
  9 11  1  0  0  0  0
 11 12  1  0  0  0  0
 11 32  1  0  0  0  0
 12 13  1  0  0  0  0
 12 33  1  0  0  0  0
 12 34  1  0  0  0  0
 13 14  1  0  0  0  0
 13 15  1  0  0  0  0
 13 35  1  0  0  0  0
 14 36  1  0  0  0  0
 14 37  1  0  0  0  0
 14 38  1  0  0  0  0
 15 16  1  0  0  0  0
 15 39  1  0  0  0  0
 15 40  1  0  0  0  0
 16 22  1  0  0  0  0
 16 17  1  0  0  0  0
 17 18  1  0  0  0  0
 17 41  1  0  0  0  0
 17 42  1  0  0  0  0
 18 19  1  0  0  0  0
 18 43  1  0  0  0  0
 18 44  1  0  0  0  0
 19 20  1  0  0  0  0
 19 21  1  0  0  0  0
 19 53  1  0  0  0  0
 20 45  1  0  0  0  0
 20 46  1  0  0  0  0
 20 47  1  0  0  0  0
 21 22  1  0  0  0  0
 21 48  1  0  0  0  0
 21 49  1  0  0  0  0
 22 50  1  0  0  0  0
 22 51  1  0  0  0  0
 23 52  1  0  0  0  0
M  CHG  1  19   1
M  END
> <s_m_source_file>
AV-unprocessed.smi

> <i_m_source_file_index>
2276

> <i_lp_mmshare_version>
43012

> <i_f3d_flags>
0

> <s_epik_input>
W0NIM11jMVtjSF1jKFtDSDNdKW5jKFtjSF0xKVtOSF1DKD1PKVtOSF1bQ0gyXVtDQEhdKFtDSDNdKVtDSDJdTjJbQ0gyXVtDSDJdTihbQ0gzXSlbQ0gyXVtDSDJdMg==

> <s_epik_cmdline>
J2VwaWtfcHl0aG9uJywgJy1waCcsICc3LjAnLCAnLXRuJywgJzgnLCAnLW1hJywgJzIwMCcsICctbWV0YWxfYmluZGluZycsICctaW1hZScsICc8aW5maWxlLm1hZT4nLCAnLW9tYWUnLCAnPG91dGZpbGUubWFlPic=

> <r_epik_Ionization_Penalty>
0.0247364

> <r_epik_Ionization_Penalty_Charging>
0.0230248

> <r_epik_Ionization_Penalty_Neutral>
0.00171164

> <r_epik_State_Penalty>
0.239056

> <r_epik_Charging_Adjusted_Penalty>
0.262081

> <i_epik_Tot_Q>
1

> <i_epik_Tot_abs_Q>
1

> <r_epik_Metal_State_Penalty>
0.239048

> <b_epik_Metal_Only>
0

> <s_lp_Force_Field>
OPLS_2005

> <r_lp_Energy>
20.3682

> <b_lp_Chiralities_Consistent>
1

> <s_lp_Variant>
AV-unprocessed.smi:2276-1

> <Gold.Version>
5.8.1

> <Gold.Id.Protein>
6NUR|6NUR_protein|mol2

> <Gold.PLP.Fitness>
44.6656

> <Gold.PLP.PLP>
-39.8906

> <Gold.PLP.part.hbond>
-1.0000

> <Gold.PLP.part.metal>
0.0000

> <Gold.PLP.part.buried>
-4.1686

> <Gold.PLP.part.nonpolar>
-36.1319

> <Gold.PLP.part.repulsive>
1.7566

> <Gold.PLP.ligand.clash>
0.0000

> <Gold.PLP.ligand.torsion>
0.6283

> <Gold.PLP.Chemscore.Hbond>
2.0000

> <Gold.PLP.Chemscore.CHOScore>
0.0000

> <Gold.PLP.Chemscore.Metal>
0.0000

> <Gold.Chemscore.Hbonds>
donor molecule, donor type, donor heavy atom, donor atom, acceptor molecule, acceptor atom, score
      L1  H    19    53       P1 10175  2.00

> <Gold.PLP.Chemscore.Internal.Correction>
0.0316

> <Gold.Rescore>
     Score         DG    S(hbond)    S(metal)    S(lipo)     H(rot)  DE(clash)    DE(int)     intcor
     14.34     -16.32       1.00        0.00      99.77       1.63       0.04       1.95       ----

> <Gold.Chemscore.Fitness>
14.3403

> <Gold.Chemscore.DG>
-16.3241

> <Gold.Chemscore.ZeroCoef>
-5.4800

> <Gold.Chemscore.Hbond>
0.9999

> <Gold.Chemscore.Metal>
0.0000

> <Gold.Chemscore.Lipo>
99.7651

> <Gold.Chemscore.Internal_Hbond>
0.0000

> <Gold.Chemscore.DEClash>
0.0383

> <Gold.Chemscore.DEInternal>
1.9455

> <Gold.Chemscore.Rot>
1.6282

> <Gold.Chemscore.Internal.Correction>
   9.000000E+99

> <Gold.Chemscore.Hbonds>
donor molecule, donor type, donor heavy atom, donor atom, acceptor molecule, acceptor atom, score
      L1  H    19    53       P1 10175  1.00

> <Gold.Chemscore.Hbond.Weighted>
-3.3398

> <Gold.Chemscore.Metal.Weighted>
-0.0000

> <Gold.Chemscore.Lipo.Weighted>
-11.6725

> <Gold.Chemscore.Internal_Hbond.Weighted>
0.0000

> <Gold.Chemscore.DEClash.Weighted>
0.0383

> <Gold.Chemscore.DEInternal.Weighted>
1.9455

> <Gold.Chemscore.Rot.Weighted>
4.1682

> <Gold.Chemscore.Internal.Correction.Weighted>
   9.000000E+99

> <Gold.Protein.RotatedTorsions>
[ 6907 6896 6895 6894 ] final -135.51 input  -60.11 | X-H torsion
[ 7974 7965 7964 7962 ] final  -54.53 input  175.53 | X-H torsion
[ 8008 7997 7996 7995 ] final  141.98 input   59.86 | X-H torsion
[ 10167 10162 10161 10158 ] final   -6.62 input  -65.29 | X-H torsion
[ 10718 10713 10712 10709 ] final -168.71 input   66.30 | X-H torsion
[ 10763 10752 10751 10750 ] final  165.89 input  -60.55 | X-H torsion
[ 11005 11000 10999 10996 ] final -142.10 input  -57.11 | X-H torsion

> <Gold.Protein.ActiveResidues>
 VAL166  LYS551  ARG553  GLY616  TRP617  ASP618  TYR619  PRO620  LYS621  CYS622 
 ASP623  PHE694  ASN695  SER759  ASP760  ASP761  ALA762  ILE779  LEU786  VAL792 
 PHE793  MET794  SER795  GLU796  ALA797  LYS798  CYS799  TRP800  GLU811  SER814 

> <Gold.Protein.RotatedAtoms>
  150.9988  133.6077  159.2697 H   0  0  0  0  0  0  0  0  0  0  0  0  # atno 6907 bound_to 6896
  151.3271  135.0832  159.9335 H   0  0  0  0  0  0  0  0  0  0  0  0  # atno 6908 bound_to 6896
  152.5267  133.9624  159.7777 H   0  0  0  0  0  0  0  0  0  0  0  0  # atno 6909 bound_to 6896
  145.8845  140.8119  142.9823 H   0  0  0  0  0  0  0  0  0  0  0  0  # atno 7974 bound_to 7965
  156.2957  140.2301  156.4653 H   0  0  0  0  0  0  0  0  0  0  0  0  # atno 8008 bound_to 7997
  154.7982  140.0450  157.1274 H   0  0  0  0  0  0  0  0  0  0  0  0  # atno 8009 bound_to 7997
  154.9564  140.3048  155.5054 H   0  0  0  0  0  0  0  0  0  0  0  0  # atno 8010 bound_to 7997
  140.7003  143.6173  150.8646 H   0  0  0  0  0  0  0  0  0  0  0  0  # atno 10167 bound_to 10162
  156.7009  130.9196  151.3079 H   0  0  0  0  0  0  0  0  0  0  0  0  # atno 10718 bound_to 10713
  154.3308  135.2755  155.2473 H   0  0  0  0  0  0  0  0  0  0  0  0  # atno 10763 bound_to 10752
  154.4786  135.5864  153.6376 H   0  0  0  0  0  0  0  0  0  0  0  0  # atno 10764 bound_to 10752
  152.9867  135.6105  154.3500 H   0  0  0  0  0  0  0  0  0  0  0  0  # atno 10765 bound_to 10752
  140.8259  134.2575  157.4879 H   0  0  0  0  0  0  0  0  0  0  0  0  # atno 11005 bound_to 11000
  144.6728  140.1434  143.7435 LP  0  0  0  0  0  0  0  0  0  0  0  0  # atno 17320 bound_to 7965
  145.8983  139.2416  143.1508 LP  0  0  0  0  0  0  0  0  0  0  0  0  # atno 17321 bound_to 7965
  139.9894  143.5863  152.2915 LP  0  0  0  0  0  0  0  0  0  0  0  0  # atno 17342 bound_to 10162
  139.6513  144.7661  151.2142 LP  0  0  0  0  0  0  0  0  0  0  0  0  # atno 17343 bound_to 10162
  157.6973  130.9296  150.0682 LP  0  0  0  0  0  0  0  0  0  0  0  0  # atno 17370 bound_to 10713
  156.1729  130.3647  149.9139 LP  0  0  0  0  0  0  0  0  0  0  0  0  # atno 17371 bound_to 10713
  139.8706  134.9560  156.4224 LP  0  0  0  0  0  0  0  0  0  0  0  0  # atno 17394 bound_to 11000
  140.9050  133.7752  155.9724 LP  0  0  0  0  0  0  0  0  0  0  0  0  # atno 17395 bound_to 11000

$$$$
