AV-unprocessed.smi:1000|AV-procd|sdf|4356|dock1
  -GOLD-   22720 2253D 1   1.00000     0.00000
 Structure written by MMmdl.
 40 41  0  0  0  0  0  0  0  0  1 V2000
  149.2268  137.3050  158.9094 C   0  0  0  0  0  0  0  0  0  0  0  0
  148.1465  137.4023  157.4045 S   0  0  1  0  0  0  0  0  0  0  0  0
  147.8760  138.8850  157.1404 O   0  0  0  0  0  0  0  0  0  0  0  0
  149.4778  136.9658  156.2310 C   0  0  0  0  0  0  0  0  0  0  0  0
  150.3340  135.9570  156.4173 N   0  0  0  0  0  0  0  0  0  0  0  0
  151.1590  135.9804  155.3085 N   0  0  0  0  0  0  0  0  0  0  0  0
  150.7105  136.9999  154.5735 C   0  0  0  0  0  0  0  0  0  0  0  0
  149.6602  137.6573  155.0900 N   0  0  0  0  0  0  0  0  0  0  0  0
  148.9443  138.7984  154.5482 C   0  0  0  0  0  0  0  0  0  0  0  0
  149.6348  140.1081  154.9272 C   0  0  0  0  0  0  0  0  0  0  0  0
  150.5430  140.5469  154.2226 O   0  0  0  0  0  0  0  0  0  0  0  0
  149.1948  140.7165  156.0401 N   0  0  0  0  0  0  0  0  0  0  0  0
  149.7129  141.9666  156.5892 C   0  0  0  0  0  0  0  0  0  0  0  0
  151.2028  141.8573  156.9660 C   0  0  0  0  0  0  0  0  0  0  0  0
  151.6068  142.7546  158.1255 C   0  0  0  0  0  0  0  0  0  0  0  0
  151.7109  144.0910  157.9895 C   0  0  0  0  0  0  0  0  0  0  0  0
  152.0676  145.0373  159.1216 C   0  0  0  0  0  0  0  0  0  0  0  0
  151.9494  144.3666  160.5002 C   0  0  0  0  0  0  0  0  0  0  0  0
  152.5656  142.9623  160.4844 C   0  0  0  0  0  0  0  0  0  0  0  0
  151.8674  142.0552  159.4554 C   0  0  0  0  0  0  0  0  0  0  0  0
  150.0626  136.6229  158.7528 H   0  0  0  0  0  0  0  0  0  0  0  0
  148.6478  136.9464  159.7603 H   0  0  0  0  0  0  0  0  0  0  0  0
  149.6240  138.2908  159.1521 H   0  0  0  0  0  0  0  0  0  0  0  0
  151.1624  137.2746  153.6317 H   0  0  0  0  0  0  0  0  0  0  0  0
  148.8891  138.7018  153.4630 H   0  0  0  0  0  0  0  0  0  0  0  0
  147.9194  138.7908  154.9207 H   0  0  0  0  0  0  0  0  0  0  0  0
  148.4426  140.2773  156.5507 H   0  0  0  0  0  0  0  0  0  0  0  0
  149.5396  142.8004  155.9073 H   0  0  0  0  0  0  0  0  0  0  0  0
  149.1353  142.1904  157.4862 H   0  0  0  0  0  0  0  0  0  0  0  0
  151.4386  140.8271  157.2340 H   0  0  0  0  0  0  0  0  0  0  0  0
  151.8150  142.0875  156.0928 H   0  0  0  0  0  0  0  0  0  0  0  0
  151.5309  144.5486  157.0278 H   0  0  0  0  0  0  0  0  0  0  0  0
  153.0858  145.3919  158.9588 H   0  0  0  0  0  0  0  0  0  0  0  0
  151.4158  145.9103  159.0785 H   0  0  0  0  0  0  0  0  0  0  0  0
  152.4294  144.9850  161.2593 H   0  0  0  0  0  0  0  0  0  0  0  0
  150.8977  144.2920  160.7808 H   0  0  0  0  0  0  0  0  0  0  0  0
  153.6259  143.0405  160.2406 H   0  0  0  0  0  0  0  0  0  0  0  0
  152.5097  142.5115  161.4756 H   0  0  0  0  0  0  0  0  0  0  0  0
  150.9135  141.7139  159.8570 H   0  0  0  0  0  0  0  0  0  0  0  0
  152.4736  141.1646  159.2873 H   0  0  0  0  0  0  0  0  0  0  0  0
  1  2  1  0  0  0  0
  1 21  1  0  0  0  0
  1 22  1  0  0  0  0
  1 23  1  0  0  0  0
  2  3  2  0  0  0  0
  2  4  1  0  0  0  0
  4  8  1  0  0  0  0
  4  5  2  0  0  0  0
  5  6  1  0  0  0  0
  6  7  2  0  0  0  0
  7  8  1  0  0  0  0
  7 24  1  0  0  0  0
  8  9  1  0  0  0  0
  9 10  1  0  0  0  0
  9 25  1  0  0  0  0
  9 26  1  0  0  0  0
 10 11  2  0  0  0  0
 10 12  1  0  0  0  0
 12 13  1  0  0  0  0
 12 27  1  0  0  0  0
 13 14  1  0  0  0  0
 13 28  1  0  0  0  0
 13 29  1  0  0  0  0
 14 15  1  0  0  0  0
 14 30  1  0  0  0  0
 14 31  1  0  0  0  0
 15 20  1  0  0  0  0
 15 16  2  0  0  0  0
 16 17  1  0  0  0  0
 16 32  1  0  0  0  0
 17 18  1  0  0  0  0
 17 33  1  0  0  0  0
 17 34  1  0  0  0  0
 18 19  1  0  0  0  0
 18 35  1  0  0  0  0
 18 36  1  0  0  0  0
 19 20  1  0  0  0  0
 19 37  1  0  0  0  0
 19 38  1  0  0  0  0
 20 39  1  0  0  0  0
 20 40  1  0  0  0  0
M  END
> <s_m_source_file>
AV-unprocessed.smi

> <i_m_source_file_index>
1000

> <i_lp_mmshare_version>
43012

> <i_f3d_flags>
0

> <s_epik_input>
W0NIM11bU0BdKD1PKWMxbm5bY0hdbjFbQ0gyXUMoPU8pW05IXVtDSDJdW0NIMl1DMj1bQ0hdW0NIMl1bQ0gyXVtDSDJdW0NIMl0y

> <s_epik_cmdline>
J2VwaWtfcHl0aG9uJywgJy1waCcsICc3LjAnLCAnLXRuJywgJzgnLCAnLW1hJywgJzIwMCcsICctbWV0YWxfYmluZGluZycsICctaW1hZScsICc8aW5maWxlLm1hZT4nLCAnLW9tYWUnLCAnPG91dGZpbGUubWFlPic=

> <r_lp_tautomer_probability>
1

> <r_epik_Ionization_Penalty>
9.22166e-08

> <r_epik_Ionization_Penalty_Charging>
0

> <r_epik_Ionization_Penalty_Neutral>
9.22166e-08

> <r_epik_State_Penalty>
-0

> <r_epik_Charging_Adjusted_Penalty>
0

> <i_epik_Tot_Q>
0

> <i_epik_Tot_abs_Q>
0

> <r_epik_Metal_State_Penalty>
-0

> <b_epik_Metal_Only>
0

> <s_lp_Force_Field>
OPLS_2005

> <r_lp_Energy>
7.40605

> <b_lp_Chiralities_Consistent>
1

> <s_lp_Variant>
AV-unprocessed.smi:1000-2

> <Gold.Version>
5.8.1

> <Gold.Id.Protein>
6NUR|6NUR_protein|mol2

> <Gold.PLP.Fitness>
43.2549

> <Gold.PLP.PLP>
-36.2717

> <Gold.PLP.part.hbond>
-1.7421

> <Gold.PLP.part.metal>
0.0000

> <Gold.PLP.part.buried>
-4.7989

> <Gold.PLP.part.nonpolar>
-30.1482

> <Gold.PLP.part.repulsive>
0.2348

> <Gold.PLP.ligand.clash>
0.0000

> <Gold.PLP.ligand.torsion>
1.5733

> <Gold.PLP.Chemscore.Hbond>
1.9920

> <Gold.PLP.Chemscore.CHOScore>
1.0000

> <Gold.PLP.Chemscore.Metal>
0.0000

> <Gold.Chemscore.Hbonds>
donor molecule, donor type, donor heavy atom, donor atom, acceptor molecule, acceptor atom, score
      P1  H  7989  7998       L1    11  0.49
      P1  H 10752 10763       L1     6  1.00
      L1  C     7    24       P1  7949  0.96

> <Gold.PLP.Chemscore.Internal.Correction>
1.1538

> <Gold.Rescore>
     Score         DG    S(hbond)    S(metal)    S(lipo)     H(rot)  DE(clash)    DE(int)     intcor
     14.08     -16.88       1.87        0.00      93.68       2.26       0.02       2.78       ----

> <Gold.Chemscore.Fitness>
14.0788

> <Gold.Chemscore.DG>
-16.8789

> <Gold.Chemscore.ZeroCoef>
-5.4800

> <Gold.Chemscore.Hbond>
1.8665

> <Gold.Chemscore.Metal>
0.0000

> <Gold.Chemscore.Lipo>
93.6805

> <Gold.Chemscore.Internal_Hbond>
0.0000

> <Gold.Chemscore.DEClash>
0.0201

> <Gold.Chemscore.DEInternal>
2.7799

> <Gold.Chemscore.Rot>
2.2640

> <Gold.Chemscore.Internal.Correction>
   9.000000E+99

> <Gold.Chemscore.Hbonds>
donor molecule, donor type, donor heavy atom, donor atom, acceptor molecule, acceptor atom, score
      P1  H  7989  7998       L1    11  0.47
      P1  H 10752 10763       L1     6  0.44

> <Gold.Chemscore.Hbond.Weighted>
-6.2340

> <Gold.Chemscore.Metal.Weighted>
-0.0000

> <Gold.Chemscore.Lipo.Weighted>
-10.9606

> <Gold.Chemscore.Internal_Hbond.Weighted>
0.0000

> <Gold.Chemscore.DEClash.Weighted>
0.0201

> <Gold.Chemscore.DEInternal.Weighted>
2.7799

> <Gold.Chemscore.Rot.Weighted>
5.7957

> <Gold.Chemscore.Internal.Correction.Weighted>
   9.000000E+99

> <Gold.Protein.RotatedTorsions>
[ 6907 6896 6895 6894 ] final  103.47 input  -60.11 | X-H torsion
[ 7974 7965 7964 7962 ] final  120.52 input  175.53 | X-H torsion
[ 8008 7997 7996 7995 ] final   -6.99 input   59.86 | X-H torsion
[ 10167 10162 10161 10158 ] final  -47.57 input  -65.29 | X-H torsion
[ 10718 10713 10712 10709 ] final   61.75 input   66.30 | X-H torsion
[ 10763 10752 10751 10750 ] final   55.76 input  -60.55 | X-H torsion
[ 11005 11000 10999 10996 ] final  147.02 input  -57.11 | X-H torsion

> <Gold.Protein.ActiveResidues>
 VAL166  LYS551  ARG553  GLY616  TRP617  ASP618  TYR619  PRO620  LYS621  CYS622 
 ASP623  PHE694  ASN695  SER759  ASP760  ASP761  ALA762  ILE779  LEU786  VAL792 
 PHE793  MET794  SER795  GLU796  ALA797  LYS798  CYS799  TRP800  GLU811  SER814 

> <Gold.Protein.RotatedAtoms>
  152.5294  133.9821  159.7811 H   0  0  0  0  0  0  0  0  0  0  0  0  # atno 6907 bound_to 6896
  151.0073  133.5991  159.2694 H   0  0  0  0  0  0  0  0  0  0  0  0  # atno 6908 bound_to 6896
  151.3078  135.0792  159.9315 H   0  0  0  0  0  0  0  0  0  0  0  0  # atno 6909 bound_to 6896
  145.1302  139.3332  143.4669 H   0  0  0  0  0  0  0  0  0  0  0  0  # atno 7974 bound_to 7965
  154.5882  140.2418  155.7957 H   0  0  0  0  0  0  0  0  0  0  0  0  # atno 8008 bound_to 7997
  156.2229  140.2992  155.9950 H   0  0  0  0  0  0  0  0  0  0  0  0  # atno 8009 bound_to 7997
  155.2420  140.0407  157.2966 H   0  0  0  0  0  0  0  0  0  0  0  0  # atno 8010 bound_to 7997
  140.6769  143.2778  151.3946 H   0  0  0  0  0  0  0  0  0  0  0  0  # atno 10167 bound_to 10162
  157.5851  130.9012  149.9500 H   0  0  0  0  0  0  0  0  0  0  0  0  # atno 10718 bound_to 10713
  152.9821  135.5699  154.5119 H   0  0  0  0  0  0  0  0  0  0  0  0  # atno 10763 bound_to 10752
  154.4622  135.2782  155.1706 H   0  0  0  0  0  0  0  0  0  0  0  0  # atno 10764 bound_to 10752
  154.3289  135.6253  153.5596 H   0  0  0  0  0  0  0  0  0  0  0  0  # atno 10765 bound_to 10752
  140.0841  134.9080  157.1547 H   0  0  0  0  0  0  0  0  0  0  0  0  # atno 11005 bound_to 11000
  146.3514  140.1297  142.8597 LP  0  0  0  0  0  0  0  0  0  0  0  0  # atno 17320 bound_to 7965
  145.0644  140.9111  143.4919 LP  0  0  0  0  0  0  0  0  0  0  0  0  # atno 17321 bound_to 7965
  139.6067  144.1183  152.2256 LP  0  0  0  0  0  0  0  0  0  0  0  0  # atno 17342 bound_to 10162
  140.0584  144.5876  150.7282 LP  0  0  0  0  0  0  0  0  0  0  0  0  # atno 17343 bound_to 10162
  156.0899  130.3664  150.0415 LP  0  0  0  0  0  0  0  0  0  0  0  0  # atno 17370 bound_to 10713
  156.8548  130.9471  151.3623 LP  0  0  0  0  0  0  0  0  0  0  0  0  # atno 17371 bound_to 10713
  140.3446  134.2666  155.7207 LP  0  0  0  0  0  0  0  0  0  0  0  0  # atno 17394 bound_to 11000
  141.2056  133.7854  157.0221 LP  0  0  0  0  0  0  0  0  0  0  0  0  # atno 17395 bound_to 11000

$$$$
