AV-unprocessed.smi:2489|AV-procd|sdf|9799|dock3
  -GOLD-   2272013433D 1   1.00000     0.00000
 Structure written by MMmdl.
 33 34  0  0  0  0  0  0  0  0  1 V2000
  152.4406  143.4272  162.1547 C   0  0  0  0  0  0  0  0  0  0  0  0
  153.1596  142.8008  161.1018 O   0  0  0  0  0  0  0  0  0  0  0  0
  152.5274  142.6794  159.8856 C   0  0  0  0  0  0  0  0  0  0  0  0
  151.5947  143.6739  159.3609 C   0  0  0  0  0  0  0  0  0  0  0  0
  151.0329  143.4487  158.1639 C   0  0  0  0  0  0  0  0  0  0  0  0
  151.3099  142.3122  157.4180 N   0  0  0  0  0  0  0  0  0  0  0  0
  152.2000  141.3171  157.8599 C   0  0  0  0  0  0  0  0  0  0  0  0
  152.5039  140.2322  157.2086 N   0  0  0  0  0  0  0  0  0  0  0  0
  151.9574  139.9223  155.9662 C   0  0  0  0  0  0  0  0  0  0  0  0
  151.2867  140.6292  155.2082 O   0  0  0  0  0  0  0  0  0  0  0  0
  152.2792  138.4810  155.5458 C   0  0  2  0  0  0  0  0  0  0  0  0
  151.6794  138.1093  154.1785 C   0  0  0  0  0  0  0  0  0  0  0  0
  151.0194  136.7693  154.4342 C   0  0  0  0  0  0  0  0  0  0  0  0
  150.6038  136.8946  155.8948 C   0  0  1  0  0  0  0  0  0  0  0  0
  150.3593  135.5547  156.5963 C   0  0  0  0  0  0  0  0  0  0  0  0
  151.7029  137.5733  156.4870 O   0  0  0  0  0  0  0  0  0  0  0  0
  152.8036  141.5698  159.1611 C   0  0  0  0  0  0  0  0  0  0  0  0
  153.0631  143.4507  163.0490 H   0  0  0  0  0  0  0  0  0  0  0  0
  151.5319  142.8770  162.4029 H   0  0  0  0  0  0  0  0  0  0  0  0
  152.1853  144.4583  161.9066 H   0  0  0  0  0  0  0  0  0  0  0  0
  151.3443  144.5761  159.8979 H   0  0  0  0  0  0  0  0  0  0  0  0
  150.3336  144.1294  157.7013 H   0  0  0  0  0  0  0  0  0  0  0  0
  153.3576  138.3127  155.5479 H   0  0  0  0  0  0  0  0  0  0  0  0
  150.9287  138.8332  153.8570 H   0  0  0  0  0  0  0  0  0  0  0  0
  152.4362  138.0495  153.3960 H   0  0  0  0  0  0  0  0  0  0  0  0
  150.1807  136.5707  153.7665 H   0  0  0  0  0  0  0  0  0  0  0  0
  151.7497  135.9678  154.3143 H   0  0  0  0  0  0  0  0  0  0  0  0
  149.7186  137.5281  155.9735 H   0  0  0  0  0  0  0  0  0  0  0  0
  149.5349  135.0135  156.1315 H   0  0  0  0  0  0  0  0  0  0  0  0
  150.1089  135.7063  157.6463 H   0  0  0  0  0  0  0  0  0  0  0  0
  151.2445  134.9195  156.5535 H   0  0  0  0  0  0  0  0  0  0  0  0
  153.4990  140.8617  159.5889 H   0  0  0  0  0  0  0  0  0  0  0  0
  150.8373  142.2310  156.5288 H   0  0  0  0  0  0  0  0  0  0  0  0
  1  2  1  0  0  0  0
  1 18  1  0  0  0  0
  1 19  1  0  0  0  0
  1 20  1  0  0  0  0
  2  3  1  0  0  0  0
  3 17  2  0  0  0  0
  3  4  1  0  0  0  0
  4  5  2  0  0  0  0
  4 21  1  0  0  0  0
  5  6  1  0  0  0  0
  5 22  1  0  0  0  0
  6  7  1  0  0  0  0
  6 33  1  0  0  0  0
  7  8  2  0  0  0  0
  7 17  1  0  0  0  0
  8  9  1  0  0  0  0
  9 10  2  0  0  0  0
  9 11  1  0  0  0  0
 11 16  1  0  0  0  0
 11 12  1  0  0  0  0
 11 23  1  0  0  0  0
 12 13  1  0  0  0  0
 12 24  1  0  0  0  0
 12 25  1  0  0  0  0
 13 14  1  0  0  0  0
 13 26  1  0  0  0  0
 13 27  1  0  0  0  0
 14 15  1  0  0  0  0
 14 16  1  0  0  0  0
 14 28  1  0  0  0  0
 15 29  1  0  0  0  0
 15 30  1  0  0  0  0
 15 31  1  0  0  0  0
 17 32  1  0  0  0  0
M  END
> <s_m_source_file>
AV-unprocessed.smi

> <i_m_source_file_index>
2489

> <i_lp_mmshare_version>
43012

> <i_f3d_flags>
0

> <s_epik_input>
W0NIM11PYzFbY0hdW2NIXW5jKFtjSF0xKVtOSF1DKD1PKVtDQEBIXTJbQ0gyXVtDSDJdW0NASF0oTzIpW0NIM10=

> <s_epik_cmdline>
J2VwaWtfcHl0aG9uJywgJy1waCcsICc3LjAnLCAnLXRuJywgJzgnLCAnLW1hJywgJzIwMCcsICctbWV0YWxfYmluZGluZycsICctaW1hZScsICc8aW5maWxlLm1hZT4nLCAnLW9tYWUnLCAnPG91dGZpbGUubWFlPic=

> <r_epik_Ionization_Penalty>
0.410206

> <r_epik_Ionization_Penalty_Charging>
0.410206

> <r_epik_Ionization_Penalty_Neutral>
6.57528e-13

> <r_epik_State_Penalty>
1.30987

> <r_epik_Charging_Adjusted_Penalty>
1.72007

> <i_epik_Tot_Q>
0

> <i_epik_Tot_abs_Q>
0

> <r_epik_Metal_State_Penalty>
1.32171

> <b_epik_Metal_Only>
0

> <s_lp_Force_Field>
OPLS_2005

> <r_lp_Energy>
36.165

> <b_lp_Chiralities_Consistent>
1

> <s_lp_Variant>
AV-unprocessed.smi:2489-5

> <Gold.Version>
5.8.1

> <Gold.Id.Protein>
6NUR|6NUR_protein|mol2

> <Gold.PLP.Fitness>
39.3585

> <Gold.PLP.PLP>
-31.4050

> <Gold.PLP.part.hbond>
-2.0000

> <Gold.PLP.part.metal>
0.0000

> <Gold.PLP.part.buried>
-2.9669

> <Gold.PLP.part.nonpolar>
-25.8910

> <Gold.PLP.part.repulsive>
0.0957

> <Gold.PLP.ligand.clash>
0.0000

> <Gold.PLP.ligand.torsion>
0.3851

> <Gold.PLP.Chemscore.Hbond>
1.9040

> <Gold.PLP.Chemscore.CHOScore>
1.0000

> <Gold.PLP.Chemscore.Metal>
0.0000

> <Gold.Chemscore.Hbonds>
donor molecule, donor type, donor heavy atom, donor atom, acceptor molecule, acceptor atom, score
      P1  H  7989  7998       L1    10  0.85
      P1  H  7997  8010       L1     8  0.90
      L1  C     5    22       P1  8028  0.97

> <Gold.PLP.Chemscore.Internal.Correction>
0.0116

> <Gold.Rescore>
     Score         DG    S(hbond)    S(metal)    S(lipo)     H(rot)  DE(clash)    DE(int)     intcor
     14.41     -16.13       1.22        0.00      83.15       1.23       0.04       1.68       ----

> <Gold.Chemscore.Fitness>
14.4082

> <Gold.Chemscore.DG>
-16.1321

> <Gold.Chemscore.ZeroCoef>
-5.4800

> <Gold.Chemscore.Hbond>
1.2167

> <Gold.Chemscore.Metal>
0.0000

> <Gold.Chemscore.Lipo>
83.1454

> <Gold.Chemscore.Internal_Hbond>
0.0000

> <Gold.Chemscore.DEClash>
0.0437

> <Gold.Chemscore.DEInternal>
1.6803

> <Gold.Chemscore.Rot>
1.2264

> <Gold.Chemscore.Internal.Correction>
   9.000000E+99

> <Gold.Chemscore.Hbonds>
donor molecule, donor type, donor heavy atom, donor atom, acceptor molecule, acceptor atom, score
      P1  H  7989  7998       L1    10  0.85
      P1  H  7997  8010       L1     8  0.25

> <Gold.Chemscore.Hbond.Weighted>
-4.0636

> <Gold.Chemscore.Metal.Weighted>
-0.0000

> <Gold.Chemscore.Lipo.Weighted>
-9.7280

> <Gold.Chemscore.Internal_Hbond.Weighted>
0.0000

> <Gold.Chemscore.DEClash.Weighted>
0.0437

> <Gold.Chemscore.DEInternal.Weighted>
1.6803

> <Gold.Chemscore.Rot.Weighted>
3.1396

> <Gold.Chemscore.Internal.Correction.Weighted>
   9.000000E+99

> <Gold.Protein.RotatedTorsions>
[ 6907 6896 6895 6894 ] final  141.19 input  -60.11 | X-H torsion
[ 7974 7965 7964 7962 ] final  169.46 input  175.53 | X-H torsion
[ 8008 7997 7996 7995 ] final   46.13 input   59.86 | X-H torsion
[ 10167 10162 10161 10158 ] final -127.11 input  -65.29 | X-H torsion
[ 10718 10713 10712 10709 ] final -118.13 input   66.30 | X-H torsion
[ 10763 10752 10751 10750 ] final  139.96 input  -60.55 | X-H torsion
[ 11005 11000 10999 10996 ] final   55.59 input  -57.11 | X-H torsion

> <Gold.Protein.ActiveResidues>
 VAL166  LYS551  ARG553  GLY616  TRP617  ASP618  TYR619  PRO620  LYS621  CYS622 
 ASP623  PHE694  ASN695  SER759  ASP760  ASP761  ALA762  ILE779  LEU786  VAL792 
 PHE793  MET794  SER795  GLU796  ALA797  LYS798  CYS799  TRP800  GLU811  SER814 

> <Gold.Protein.RotatedAtoms>
  152.2339  133.5081  159.5231 H   0  0  0  0  0  0  0  0  0  0  0  0  # atno 6907 bound_to 6896
  150.7045  134.1179  159.4033 H   0  0  0  0  0  0  0  0  0  0  0  0  # atno 6908 bound_to 6896
  151.9100  135.0343  160.0564 H   0  0  0  0  0  0  0  0  0  0  0  0  # atno 6909 bound_to 6896
  144.7354  139.9057  143.6412 H   0  0  0  0  0  0  0  0  0  0  0  0  # atno 7974 bound_to 7965
  155.3474  140.3411  155.4239 H   0  0  0  0  0  0  0  0  0  0  0  0  # atno 8008 bound_to 7997
  156.1782  140.1655  156.8359 H   0  0  0  0  0  0  0  0  0  0  0  0  # atno 8009 bound_to 7997
  154.5304  140.0746  156.8318 H   0  0  0  0  0  0  0  0  0  0  0  0  # atno 8010 bound_to 7997
  139.9643  143.5916  152.2434 H   0  0  0  0  0  0  0  0  0  0  0  0  # atno 10167 bound_to 10162
  156.1084  130.6229  150.9252 H   0  0  0  0  0  0  0  0  0  0  0  0  # atno 10718 bound_to 10713
  153.9148  135.3007  155.3448 H   0  0  0  0  0  0  0  0  0  0  0  0  # atno 10763 bound_to 10752
  154.7605  135.4936  153.9459 H   0  0  0  0  0  0  0  0  0  0  0  0  # atno 10764 bound_to 10752
  153.1173  135.6774  153.9498 H   0  0  0  0  0  0  0  0  0  0  0  0  # atno 10765 bound_to 10752
  140.0595  134.5623  155.9169 H   0  0  0  0  0  0  0  0  0  0  0  0  # atno 11005 bound_to 11000
  146.1038  139.4036  143.0330 LP  0  0  0  0  0  0  0  0  0  0  0  0  # atno 17320 bound_to 7965
  145.7540  140.9961  143.1235 LP  0  0  0  0  0  0  0  0  0  0  0  0  # atno 17321 bound_to 7965
  139.6530  144.7661  151.2111 LP  0  0  0  0  0  0  0  0  0  0  0  0  # atno 17342 bound_to 10162
  140.7543  143.6130  150.8586 LP  0  0  0  0  0  0  0  0  0  0  0  0  # atno 17343 bound_to 10162
  157.6263  131.0925  150.8527 LP  0  0  0  0  0  0  0  0  0  0  0  0  # atno 17370 bound_to 10713
  156.8643  130.5124  149.5301 LP  0  0  0  0  0  0  0  0  0  0  0  0  # atno 17371 bound_to 10713
  141.1967  133.6592  156.5703 LP  0  0  0  0  0  0  0  0  0  0  0  0  # atno 17394 bound_to 11000
  140.3792  134.7538  157.4650 LP  0  0  0  0  0  0  0  0  0  0  0  0  # atno 17395 bound_to 11000

$$$$
