#       Name:                AV-unprocessed.smi:2931
#       Creating user name   scv26
#       Creation time:       Fri Mar 27 16:13:52 2020


#       File generated by GOLD software.
#

@<TRIPOS>MOLECULE
AV-unprocessed.smi:2931
    45    46     1
SMALL
NO_CHARGES


@<TRIPOS>ATOM
      1 ****        -3.1960   0.6328  -2.7379 C.3            1 S1                 0.0000
      2 ****        -3.1202   0.4844  -1.2688 N.4            1 S1                 1.0000
      3 ****        -4.4213   0.0928  -0.6707 C.3            1 S1                 0.0000
      4 ****        -4.2777  -0.1805   0.8365 C.3            1 S1                 0.0000
      5 ****        -3.6541   1.0218   1.5658 C.3            1 S1                 0.0000
      6 ****        -2.3301   1.4447   0.9035 C.3            1 S1                 0.0000
      7 ****        -1.3027   0.4329   1.1528 N.am           1 S1                 0.0000
      8 ****         0.0169   0.6196   1.0079 C.2            1 S1                 0.0000
      9 ****         0.5238   1.6694   0.6130 O.2            1 S1                 0.0000
     10 ****         0.7158  -0.4741   1.3409 N.am           1 S1                 0.0000
     11 ****         2.1698  -0.5793   1.2953 C.3            1 S1                 0.0000
     12 ****         2.6754  -0.8544  -0.1304 C.3            1 S1                 0.0000
     13 ****         4.1845  -0.9914  -0.1829 C.ar           1 S1                 0.0000
     14 ****         4.9982   0.1129  -0.5095 C.ar           1 S1                 0.0000
     15 ****         6.3957  -0.0679  -0.5388 C.ar           1 S1                 0.0000
     16 ****         6.9971  -1.2466  -0.2681 N.ar           1 S1                 0.0000
     17 ****         6.2110  -2.2992   0.0453 C.ar           1 S1                 0.0000
     18 ****         4.8046  -2.2256   0.1015 C.ar           1 S1                 0.0000
     19 ****        -2.5496   1.6848  -0.6074 C.3            1 S1                 0.0000
     20 ****        -3.8718   1.4430  -3.0154 H              1 S1                 0.0000
     21 ****        -3.5554  -0.2872  -3.2000 H              1 S1                 0.0000
     22 ****        -2.2118   0.8503  -3.1540 H              1 S1                 0.0000
     23 ****        -5.1536   0.8838  -0.8409 H              1 S1                 0.0000
     24 ****        -4.7990  -0.8017  -1.1677 H              1 S1                 0.0000
     25 ****        -5.2531  -0.4096   1.2671 H              1 S1                 0.0000
     26 ****        -3.6611  -1.0671   0.9894 H              1 S1                 0.0000
     27 ****        -4.3531   1.8589   1.5392 H              1 S1                 0.0000
     28 ****        -3.4989   0.7875   2.6199 H              1 S1                 0.0000
     29 ****        -2.0017   2.3777   1.3651 H              1 S1                 0.0000
     30 ****        -1.6196  -0.4637   1.4921 H              1 S1                 0.0000
     31 ****         0.2106  -1.2885   1.6586 H              1 S1                 0.0000
     32 ****         2.6236   0.3301   1.6933 H              1 S1                 0.0000
     33 ****         2.4700  -1.3909   1.9588 H              1 S1                 0.0000
     34 ****         2.2248  -1.7691  -0.5180 H              1 S1                 0.0000
     35 ****         2.3694  -0.0518  -0.8031 H              1 S1                 0.0000
     36 ****         4.5654   1.0774  -0.7319 H              1 S1                 0.0000
     37 ****         7.0479   0.7567  -0.7856 H              1 S1                 0.0000
     38 ****         6.7178  -3.2286   0.2587 H              1 S1                 0.0000
     39 ****         4.2197  -3.0963   0.3592 H              1 S1                 0.0000
     40 ****        -1.6085   1.9563  -1.0873 H              1 S1                 0.0000
     41 ****        -3.2232   2.5307  -0.7546 H              1 S1                 0.0000
     42 ****        -2.4782  -0.2746  -1.0906 H              1 S1                 0.0000
     43 ****        -0.0579   2.4482   0.3782 LP             1 S1                 0.0000
     44 ****         1.5173   1.7435   0.5269 LP             1 S1                 0.0000
     45 ****         7.9925  -1.3370  -0.2988 LP             1 S1                 0.0000
@<TRIPOS>BOND
    1    1    2 1     
    2    1   20 1     
    3    1   21 1     
    4    1   22 1     
    5    2   19 1     
    6    2    3 1     
    7    2   42 1     
    8    3    4 1     
    9    3   23 1     
   10    3   24 1     
   11    4    5 1     
   12    4   25 1     
   13    4   26 1     
   14    5    6 1     
   15    5   27 1     
   16    5   28 1     
   17    6    7 1     
   18    6   19 1     
   19    6   29 1     
   20    7    8 am    
   21    7   30 1     
   22    8    9 2     
   23    8   10 am    
   24   10   11 1     
   25   10   31 1     
   26   11   12 1     
   27   11   32 1     
   28   11   33 1     
   29   12   13 1     
   30   12   34 1     
   31   12   35 1     
   32   13   18 ar    
   33   13   14 ar    
   34   14   15 ar    
   35   14   36 1     
   36   15   16 ar    
   37   15   37 1     
   38   16   17 ar    
   39   17   18 ar    
   40   17   38 1     
   41   18   39 1     
   42   19   40 1     
   43   19   41 1     
   44    9   43 1     
   45    9   44 1     
   46   16   45 1     
@<TRIPOS>SUBSTRUCTURE
      1 S1             1
@<TRIPOS>SET
LONE_PAIRS      STATIC     ATOMS    <user>   **** ""
3 43 44 45
DONOR_HYDROGENS      STATIC     ATOMS    <user>   **** ""
3 42 30 31
ATOM$BLUE        STATIC     ATOMS    COLORGROUP SYSTEM
3 43 44 45
ATOM$RED        STATIC     ATOMS    COLORGROUP SYSTEM
3 42 30 31
