AV-unprocessed.smi:1965|AV-procd|sdf|7945|dock5
  -GOLD-   2272010113D 1   1.00000     0.00000
 Structure written by MMmdl.
 36 38  0  0  0  0  0  0  0  0  3 V2000
  148.2479  135.4513  157.9208 O   0  0  0  0  0  0  0  0  0  0  0  0
  147.9058  136.6274  158.0372 C   0  0  0  0  0  0  0  0  0  0  0  0
  147.7976  137.2614  159.2338 N   0  5  0  0  0  0  0  0  0  0  0  0
  147.7048  136.5960  160.4001 C   0  0  0  0  0  0  0  0  0  0  0  0
  147.4987  137.2013  161.5755 N   0  0  0  0  0  0  0  0  0  0  0  0
  147.4411  136.3155  162.6532 C   0  0  0  0  0  0  0  0  0  0  0  0
  147.6050  135.0052  162.2893 C   0  0  0  0  0  0  0  0  0  0  0  0
  147.8329  134.8433  160.5716 S   0  0  0  0  0  0  0  0  0  0  0  0
  147.6199  137.3333  156.9276 N   0  0  0  0  0  0  0  0  0  0  0  0
  147.7051  136.8472  155.5566 C   0  0  1  0  0  0  0  0  0  0  0  0
  146.9197  135.5478  155.2932 C   0  0  0  0  0  0  0  0  0  0  0  0
  146.3182  135.7152  153.8837 C   0  0  0  0  0  0  0  0  0  0  0  0
  146.8341  137.0065  153.3895 N   0  3  1  0  0  0  0  0  0  0  0  0
  146.0375  137.7021  152.3552 C   0  0  0  0  0  0  0  0  0  0  0  0
  146.7738  138.9867  151.9226 C   0  0  0  0  0  0  0  0  0  0  0  0
  147.1302  139.8784  153.1301 C   0  0  0  0  0  0  0  0  0  0  0  0
  147.8810  139.0760  154.2104 C   0  0  0  0  0  0  0  0  0  0  0  0
  147.0607  137.8315  154.5845 C   0  0  2  0  0  0  0  0  0  0  0  0
  147.2790  136.7050  163.6473 H   0  0  0  0  0  0  0  0  0  0  0  0
  147.6016  134.1298  162.9213 H   0  0  0  0  0  0  0  0  0  0  0  0
  147.3329  138.2930  157.0545 H   0  0  0  0  0  0  0  0  0  0  0  0
  148.7517  136.7017  155.2810 H   0  0  0  0  0  0  0  0  0  0  0  0
  147.5711  134.6755  155.3581 H   0  0  0  0  0  0  0  0  0  0  0  0
  146.1191  135.4133  156.0225 H   0  0  0  0  0  0  0  0  0  0  0  0
  146.6011  134.9044  153.2119 H   0  0  0  0  0  0  0  0  0  0  0  0
  145.2290  135.7423  153.9434 H   0  0  0  0  0  0  0  0  0  0  0  0
  145.8941  137.0429  151.4987 H   0  0  0  0  0  0  0  0  0  0  0  0
  145.0484  137.9426  152.7477 H   0  0  0  0  0  0  0  0  0  0  0  0
  147.6895  138.7162  151.3951 H   0  0  0  0  0  0  0  0  0  0  0  0
  146.1640  139.5458  151.2124 H   0  0  0  0  0  0  0  0  0  0  0  0
  147.7326  140.7276  152.8061 H   0  0  0  0  0  0  0  0  0  0  0  0
  146.2159  140.2935  153.5566 H   0  0  0  0  0  0  0  0  0  0  0  0
  148.8637  138.7820  153.8391 H   0  0  0  0  0  0  0  0  0  0  0  0
  148.0502  139.6966  155.0911 H   0  0  0  0  0  0  0  0  0  0  0  0
  146.0906  138.1426  154.9804 H   0  0  0  0  0  0  0  0  0  0  0  0
  147.7458  136.8198  152.9969 H   0  0  0  0  0  0  0  0  0  0  0  0
  1  2  2  0  0  0  0
  2  3  1  0  0  0  0
  2  9  1  0  0  0  0
  3  4  1  0  0  0  0
  4  8  1  0  0  0  0
  4  5  2  0  0  0  0
  5  6  1  0  0  0  0
  6  7  2  0  0  0  0
  6 19  1  0  0  0  0
  7  8  1  0  0  0  0
  7 20  1  0  0  0  0
  9 10  1  0  0  0  0
  9 21  1  0  0  0  0
 10 18  1  0  0  0  0
 10 11  1  0  0  0  0
 10 22  1  0  0  0  0
 11 12  1  0  0  0  0
 11 23  1  0  0  0  0
 11 24  1  0  0  0  0
 12 13  1  0  0  0  0
 12 25  1  0  0  0  0
 12 26  1  0  0  0  0
 13 18  1  0  0  0  0
 13 14  1  0  0  0  0
 13 36  1  0  0  0  0
 14 15  1  0  0  0  0
 14 27  1  0  0  0  0
 14 28  1  0  0  0  0
 15 16  1  0  0  0  0
 15 29  1  0  0  0  0
 15 30  1  0  0  0  0
 16 17  1  0  0  0  0
 16 31  1  0  0  0  0
 16 32  1  0  0  0  0
 17 18  1  0  0  0  0
 17 33  1  0  0  0  0
 17 34  1  0  0  0  0
 18 35  1  0  0  0  0
M  CHG  1   3  -1
M  CHG  1  13   1
M  END
> <s_m_source_file>
AV-unprocessed.smi

> <i_m_source_file_index>
1965

> <i_lp_mmshare_version>
43012

> <i_f3d_flags>
0

> <s_epik_input>
czFbY0hdW2NIXW5jMVtOSF1DKD1PKVtOSF1bQ0BIXShbQ0gyXVtDSDJdMilbQ0BASF0oTjIzKVtDSDJdW0NIMl1bQ0gyXVtDSDJdMw==

> <s_epik_cmdline>
J2VwaWtfcHl0aG9uJywgJy1waCcsICc3LjAnLCAnLXRuJywgJzgnLCAnLW1hJywgJzIwMCcsICctbWV0YWxfYmluZGluZycsICctaW1hZScsICc8aW5maWxlLm1hZT4nLCAnLW9tYWUnLCAnPG91dGZpbGUubWFlPic=

> <r_lp_tautomer_probability>
1

> <r_epik_Ionization_Penalty>
7.4116

> <r_epik_Ionization_Penalty_Charging>
6.13869

> <r_epik_Ionization_Penalty_Neutral>
1.27291

> <r_epik_State_Penalty>
6.13761

> <r_epik_Charging_Adjusted_Penalty>
12.2763

> <i_epik_Tot_Q>
0

> <i_epik_Tot_abs_Q>
2

> <r_epik_Metal_State_Penalty>
2.08142

> <b_epik_Metal_Only>
1

> <s_lp_Force_Field>
OPLS_2005

> <r_lp_Energy>
26.2693

> <b_lp_Chiralities_Consistent>
1

> <s_lp_Variant>
AV-unprocessed.smi:1965-14

> <Gold.Version>
5.8.1

> <Gold.Id.Protein>
6NUR|6NUR_protein|mol2

> <Gold.PLP.Fitness>
37.6431

> <Gold.PLP.PLP>
-26.5492

> <Gold.PLP.part.hbond>
-3.2104

> <Gold.PLP.part.metal>
0.0000

> <Gold.PLP.part.buried>
-1.3356

> <Gold.PLP.part.nonpolar>
-21.6455

> <Gold.PLP.part.repulsive>
0.0101

> <Gold.PLP.ligand.clash>
0.0000

> <Gold.PLP.ligand.torsion>
0.1489

> <Gold.PLP.Chemscore.Hbond>
3.7920

> <Gold.PLP.Chemscore.CHOScore>
0.0000

> <Gold.PLP.Chemscore.Metal>
0.0000

> <Gold.Chemscore.Hbonds>
donor molecule, donor type, donor heavy atom, donor atom, acceptor molecule, acceptor atom, score
      L1  H    13    36       P1  7948  2.00
      P1  H  6931  6943       L1     5  0.94
      P1  H  6934  6947       L1     5  0.83

> <Gold.PLP.Chemscore.Internal.Correction>
0.0157

> <Gold.Rescore>
     Score         DG    S(hbond)    S(metal)    S(lipo)     H(rot)  DE(clash)    DE(int)     intcor
     13.12     -16.01       1.84        0.00      59.29       1.00       0.04       2.86       ----

> <Gold.Chemscore.Fitness>
13.1179

> <Gold.Chemscore.DG>
-16.0148

> <Gold.Chemscore.ZeroCoef>
-5.4800

> <Gold.Chemscore.Hbond>
1.8435

> <Gold.Chemscore.Metal>
0.0000

> <Gold.Chemscore.Lipo>
59.2950

> <Gold.Chemscore.Internal_Hbond>
0.0000

> <Gold.Chemscore.DEClash>
0.0398

> <Gold.Chemscore.DEInternal>
2.8571

> <Gold.Chemscore.Rot>
1.0000

> <Gold.Chemscore.Internal.Correction>
   9.000000E+99

> <Gold.Chemscore.Hbonds>
donor molecule, donor type, donor heavy atom, donor atom, acceptor molecule, acceptor atom, score
      L1  H    13    36       P1  7948  0.99
      P1  H  6931  6943       L1     5  0.27
      P1  H  6934  6947       L1     5  0.21

> <Gold.Chemscore.Hbond.Weighted>
-6.1573

> <Gold.Chemscore.Metal.Weighted>
-0.0000

> <Gold.Chemscore.Lipo.Weighted>
-6.9375

> <Gold.Chemscore.Internal_Hbond.Weighted>
0.0000

> <Gold.Chemscore.DEClash.Weighted>
0.0398

> <Gold.Chemscore.DEInternal.Weighted>
2.8571

> <Gold.Chemscore.Rot.Weighted>
2.5600

> <Gold.Chemscore.Internal.Correction.Weighted>
   9.000000E+99

> <Gold.Protein.RotatedTorsions>
[ 6907 6896 6895 6894 ] final  146.39 input  -60.11 | X-H torsion
[ 7974 7965 7964 7962 ] final   70.35 input  175.53 | X-H torsion
[ 8008 7997 7996 7995 ] final -107.33 input   59.86 | X-H torsion
[ 10167 10162 10161 10158 ] final  -47.35 input  -65.29 | X-H torsion
[ 10718 10713 10712 10709 ] final -135.36 input   66.30 | X-H torsion
[ 10763 10752 10751 10750 ] final  -71.12 input  -60.55 | X-H torsion
[ 11005 11000 10999 10996 ] final   50.33 input  -57.11 | X-H torsion

> <Gold.Protein.ActiveResidues>
 VAL166  LYS551  ARG553  GLY616  TRP617  ASP618  TYR619  PRO620  LYS621  CYS622 
 ASP623  PHE694  ASN695  SER759  ASP760  ASP761  ALA762  ILE779  LEU786  VAL792 
 PHE793  MET794  SER795  GLU796  ALA797  LYS798  CYS799  TRP800  GLU811  SER814 

> <Gold.Protein.RotatedAtoms>
  152.1685  133.4628  159.4896 H   0  0  0  0  0  0  0  0  0  0  0  0  # atno 6907 bound_to 6896
  150.6916  134.1983  159.4321 H   0  0  0  0  0  0  0  0  0  0  0  0  # atno 6908 bound_to 6896
  151.9888  134.9989  160.0611 H   0  0  0  0  0  0  0  0  0  0  0  0  # atno 6909 bound_to 6896
  145.7793  139.2880  143.1275 H   0  0  0  0  0  0  0  0  0  0  0  0  # atno 7974 bound_to 7965
  154.9278  140.0405  157.2032 H   0  0  0  0  0  0  0  0  0  0  0  0  # atno 8008 bound_to 7997
  154.8191  140.2880  155.5778 H   0  0  0  0  0  0  0  0  0  0  0  0  # atno 8009 bound_to 7997
  156.2978  140.2522  156.3094 H   0  0  0  0  0  0  0  0  0  0  0  0  # atno 8010 bound_to 7997
  140.6779  143.2788  151.3914 H   0  0  0  0  0  0  0  0  0  0  0  0  # atno 10167 bound_to 10162
  156.2653  130.7234  151.1182 H   0  0  0  0  0  0  0  0  0  0  0  0  # atno 10718 bound_to 10713
  154.4272  135.5972  153.6046 H   0  0  0  0  0  0  0  0  0  0  0  0  # atno 10763 bound_to 10752
  152.9797  135.5966  154.3883 H   0  0  0  0  0  0  0  0  0  0  0  0  # atno 10764 bound_to 10752
  154.3716  135.2841  155.2241 H   0  0  0  0  0  0  0  0  0  0  0  0  # atno 10765 bound_to 10752
  140.1027  134.5060  155.8748 H   0  0  0  0  0  0  0  0  0  0  0  0  # atno 11005 bound_to 11000
  146.0090  140.8452  142.9980 LP  0  0  0  0  0  0  0  0  0  0  0  0  # atno 17320 bound_to 7965
  144.6799  140.2463  143.7337 LP  0  0  0  0  0  0  0  0  0  0  0  0  # atno 17321 bound_to 7965
  139.6082  144.1153  152.2271 LP  0  0  0  0  0  0  0  0  0  0  0  0  # atno 17342 bound_to 10162
  140.0558  144.5896  150.7300 LP  0  0  0  0  0  0  0  0  0  0  0  0  # atno 17343 bound_to 10162
  157.7265  131.0645  150.5906 LP  0  0  0  0  0  0  0  0  0  0  0  0  # atno 17370 bound_to 10713
  156.5997  130.4351  149.5902 LP  0  0  0  0  0  0  0  0  0  0  0  0  # atno 17371 bound_to 10713
  141.2110  133.6701  156.6549 LP  0  0  0  0  0  0  0  0  0  0  0  0  # atno 17394 bound_to 11000
  140.3198  134.8017  157.4243 LP  0  0  0  0  0  0  0  0  0  0  0  0  # atno 17395 bound_to 11000

$$$$
