AV-unprocessed.smi:579|AV-procd|sdf|2987|dock2
  -GOLD-   2262023493D 1   1.00000     0.00000
 Structure written by MMmdl.
 26 27  0  0  0  0  0  0  0  0  1 V2000
  148.9285  138.7850  153.3731 N   0  0  0  0  0  0  0  0  0  0  0  0
  149.6489  139.4972  154.3307 C   0  0  0  0  0  0  0  0  0  0  0  0
  150.8757  139.0084  154.8212 C   0  0  0  0  0  0  0  0  0  0  0  0
  151.5682  139.7627  155.7877 C   0  0  0  0  0  0  0  0  0  0  0  0
  151.0068  140.9795  156.2290 C   0  0  0  0  0  0  0  0  0  0  0  0
  151.6938  141.7350  157.1896 N   0  0  0  0  0  0  0  0  0  0  0  0
  151.0153  142.9755  157.5438 C   0  0  0  0  0  0  0  0  0  0  0  0
  151.8921  143.7994  158.5027 C   0  0  0  0  0  0  0  0  0  0  0  0
  152.2195  143.0140  159.6456 O   0  0  0  0  0  0  0  0  0  0  0  0
  152.9462  141.8386  159.2977 C   0  0  0  0  0  0  0  0  0  0  0  0
  152.0951  140.9648  158.3604 C   0  0  0  0  0  0  0  0  0  0  0  0
  149.8269  141.4525  155.7596 N   0  0  0  0  0  0  0  0  0  0  0  0
  149.1687  140.7240  154.8326 C   0  0  0  0  0  0  0  0  0  0  0  0
  148.0480  139.1256  153.0142 H   0  0  0  0  0  0  0  0  0  0  0  0
  149.2672  137.9092  153.0007 H   0  0  0  0  0  0  0  0  0  0  0  0
  151.2822  138.0729  154.4653 H   0  0  0  0  0  0  0  0  0  0  0  0
  152.5113  139.4126  156.1813 H   0  0  0  0  0  0  0  0  0  0  0  0
  150.8020  143.5511  156.6423 H   0  0  0  0  0  0  0  0  0  0  0  0
  150.0589  142.7511  158.0184 H   0  0  0  0  0  0  0  0  0  0  0  0
  152.8038  144.1341  158.0050 H   0  0  0  0  0  0  0  0  0  0  0  0
  151.3587  144.6932  158.8262 H   0  0  0  0  0  0  0  0  0  0  0  0
  153.8917  142.1094  158.8251 H   0  0  0  0  0  0  0  0  0  0  0  0
  153.1898  141.2888  160.2068 H   0  0  0  0  0  0  0  0  0  0  0  0
  151.2106  140.6082  158.8900 H   0  0  0  0  0  0  0  0  0  0  0  0
  152.6618  140.0865  158.0485 H   0  0  0  0  0  0  0  0  0  0  0  0
  148.2325  141.1346  154.4833 H   0  0  0  0  0  0  0  0  0  0  0  0
  1  2  1  0  0  0  0
  1 14  1  0  0  0  0
  1 15  1  0  0  0  0
  2 13  1  0  0  0  0
  2  3  2  0  0  0  0
  3  4  1  0  0  0  0
  3 16  1  0  0  0  0
  4  5  2  0  0  0  0
  4 17  1  0  0  0  0
  5  6  1  0  0  0  0
  5 12  1  0  0  0  0
  6 11  1  0  0  0  0
  6  7  1  0  0  0  0
  7  8  1  0  0  0  0
  7 18  1  0  0  0  0
  7 19  1  0  0  0  0
  8  9  1  0  0  0  0
  8 20  1  0  0  0  0
  8 21  1  0  0  0  0
  9 10  1  0  0  0  0
 10 11  1  0  0  0  0
 10 22  1  0  0  0  0
 10 23  1  0  0  0  0
 11 24  1  0  0  0  0
 11 25  1  0  0  0  0
 12 13  2  0  0  0  0
 13 26  1  0  0  0  0
M  END
> <s_m_source_file>
AV-unprocessed.smi

> <i_m_source_file_index>
579

> <i_lp_mmshare_version>
43012

> <i_f3d_flags>
0

> <s_epik_input>
W05IMl1jMVtjSF1bY0hdYyhuW2NIXTEpTjJbQ0gyXVtDSDJdT1tDSDJdW0NIMl0y

> <s_epik_cmdline>
J2VwaWtfcHl0aG9uJywgJy1waCcsICc3LjAnLCAnLXRuJywgJzgnLCAnLW1hJywgJzIwMCcsICctbWV0YWxfYmluZGluZycsICctaW1hZScsICc8aW5maWxlLm1hZT4nLCAnLW9tYWUnLCAnPG91dGZpbGUubWFlPic=

> <r_lp_tautomer_probability>
1

> <r_epik_Ionization_Penalty>
0.00957298

> <r_epik_Ionization_Penalty_Charging>
0

> <r_epik_Ionization_Penalty_Neutral>
0.00957298

> <r_epik_State_Penalty>
0.00726246

> <r_epik_Charging_Adjusted_Penalty>
0.00726246

> <i_epik_Tot_Q>
0

> <i_epik_Tot_abs_Q>
0

> <r_epik_Metal_State_Penalty>
7.30711e-06

> <b_epik_Metal_Only>
0

> <s_lp_Force_Field>
OPLS_2005

> <r_lp_Energy>
21.013

> <b_lp_Chiralities_Consistent>
1

> <s_lp_Variant>
AV-unprocessed.smi:579-1

> <Gold.Version>
5.8.1

> <Gold.Id.Protein>
6NUR|6NUR_protein|mol2

> <Gold.PLP.Fitness>
30.3646

> <Gold.PLP.PLP>
-27.4547

> <Gold.PLP.part.hbond>
-1.9697

> <Gold.PLP.part.metal>
0.0000

> <Gold.PLP.part.buried>
-2.0247

> <Gold.PLP.part.nonpolar>
-24.6014

> <Gold.PLP.part.repulsive>
0.2164

> <Gold.PLP.ligand.clash>
0.0000

> <Gold.PLP.ligand.torsion>
0.0842

> <Gold.PLP.Chemscore.Hbond>
0.9920

> <Gold.PLP.Chemscore.CHOScore>
0.0000

> <Gold.PLP.Chemscore.Metal>
0.0000

> <Gold.Chemscore.Hbonds>
donor molecule, donor type, donor heavy atom, donor atom, acceptor molecule, acceptor atom, score
      L1  H     1    15       P1  7948  1.00

> <Gold.PLP.Chemscore.Internal.Correction>
0.1023

> <Gold.Rescore>
     Score         DG    S(hbond)    S(metal)    S(lipo)     H(rot)  DE(clash)    DE(int)     intcor
     13.53     -13.59       0.99        0.00      63.01       1.00       0.00       0.05       ----

> <Gold.Chemscore.Fitness>
13.5345

> <Gold.Chemscore.DG>
-13.5856

> <Gold.Chemscore.ZeroCoef>
-5.4800

> <Gold.Chemscore.Hbond>
0.9860

> <Gold.Chemscore.Metal>
0.0000

> <Gold.Chemscore.Lipo>
63.0121

> <Gold.Chemscore.Internal_Hbond>
0.0000

> <Gold.Chemscore.DEClash>
0.0000

> <Gold.Chemscore.DEInternal>
0.0511

> <Gold.Chemscore.Rot>
1.0000

> <Gold.Chemscore.Internal.Correction>
   9.000000E+99

> <Gold.Chemscore.Hbonds>
donor molecule, donor type, donor heavy atom, donor atom, acceptor molecule, acceptor atom, score
      L1  H     1    15       P1  7948  0.86

> <Gold.Chemscore.Hbond.Weighted>
-3.2932

> <Gold.Chemscore.Metal.Weighted>
-0.0000

> <Gold.Chemscore.Lipo.Weighted>
-7.3724

> <Gold.Chemscore.Internal_Hbond.Weighted>
0.0000

> <Gold.Chemscore.DEClash.Weighted>
0.0000

> <Gold.Chemscore.DEInternal.Weighted>
0.0511

> <Gold.Chemscore.Rot.Weighted>
2.5600

> <Gold.Chemscore.Internal.Correction.Weighted>
   9.000000E+99

> <Gold.Protein.RotatedTorsions>
[ 6907 6896 6895 6894 ] final -160.10 input  -60.11 | X-H torsion
[ 7974 7965 7964 7962 ] final   65.76 input  175.53 | X-H torsion
[ 8008 7997 7996 7995 ] final  -86.47 input   59.86 | X-H torsion
[ 10167 10162 10161 10158 ] final  -41.96 input  -65.29 | X-H torsion
[ 10718 10713 10712 10709 ] final  -87.96 input   66.30 | X-H torsion
[ 10763 10752 10751 10750 ] final  -44.61 input  -60.55 | X-H torsion
[ 11005 11000 10999 10996 ] final -109.53 input  -57.11 | X-H torsion

> <Gold.Protein.ActiveResidues>
 VAL166  LYS551  ARG553  GLY616  TRP617  ASP618  TYR619  PRO620  LYS621  CYS622 
 ASP623  PHE694  ASN695  SER759  ASP760  ASP761  ALA762  ILE779  LEU786  VAL792 
 PHE793  MET794  SER795  GLU796  ALA797  LYS798  CYS799  TRP800  GLU811  SER814 

> <Gold.Protein.RotatedAtoms>
  151.3439  133.3951  159.2673 H   0  0  0  0  0  0  0  0  0  0  0  0  # atno 6907 bound_to 6896
  150.9856  134.9203  159.7880 H   0  0  0  0  0  0  0  0  0  0  0  0  # atno 6908 bound_to 6896
  152.5231  134.3403  159.9267 H   0  0  0  0  0  0  0  0  0  0  0  0  # atno 6909 bound_to 6896
  145.8347  139.3159  143.0967 H   0  0  0  0  0  0  0  0  0  0  0  0  # atno 7974 bound_to 7965
  154.6522  140.0578  156.9969 H   0  0  0  0  0  0  0  0  0  0  0  0  # atno 8008 bound_to 7997
  155.1354  140.3260  155.4446 H   0  0  0  0  0  0  0  0  0  0  0  0  # atno 8009 bound_to 7997
  156.2581  140.1973  156.6471 H   0  0  0  0  0  0  0  0  0  0  0  0  # atno 8010 bound_to 7997
  140.6985  143.3065  151.3140 H   0  0  0  0  0  0  0  0  0  0  0  0  # atno 10167 bound_to 10162
  155.9984  130.4818  150.4946 H   0  0  0  0  0  0  0  0  0  0  0  0  # atno 10718 bound_to 10713
  154.0150  135.6676  153.4768 H   0  0  0  0  0  0  0  0  0  0  0  0  # atno 10763 bound_to 10752
  153.0604  135.5031  154.8077 H   0  0  0  0  0  0  0  0  0  0  0  0  # atno 10764 bound_to 10752
  154.6972  135.3072  154.9358 H   0  0  0  0  0  0  0  0  0  0  0  0  # atno 10765 bound_to 10752
  141.0843  133.9167  157.2221 H   0  0  0  0  0  0  0  0  0  0  0  0  # atno 11005 bound_to 11000
  145.9532  140.8892  143.0248 LP  0  0  0  0  0  0  0  0  0  0  0  0  # atno 17320 bound_to 7965
  144.6737  140.1709  143.7414 LP  0  0  0  0  0  0  0  0  0  0  0  0  # atno 17321 bound_to 7965
  139.6472  144.0429  152.2600 LP  0  0  0  0  0  0  0  0  0  0  0  0  # atno 17342 bound_to 10162
  139.9953  144.6332  150.7777 LP  0  0  0  0  0  0  0  0  0  0  0  0  # atno 17343 bound_to 10162
  157.2937  131.0631  151.2116 LP  0  0  0  0  0  0  0  0  0  0  0  0  # atno 17370 bound_to 10713
  157.3120  130.6894  149.6221 LP  0  0  0  0  0  0  0  0  0  0  0  0  # atno 17371 bound_to 10713
  139.9659  135.0142  156.9386 LP  0  0  0  0  0  0  0  0  0  0  0  0  # atno 17394 bound_to 11000
  140.5399  134.0730  155.7338 LP  0  0  0  0  0  0  0  0  0  0  0  0  # atno 17395 bound_to 11000

$$$$
