AV-unprocessed.smi:1007|AV-procd|sdf|4408|dock1
  -GOLD-   22720 2353D 1   1.00000     0.00000
 Structure written by MMmdl.
 57 59  0  0  0  0  0  0  0  0  3 V2000
  148.3808  132.9780  153.1977 C   0  0  0  0  0  0  0  0  0  0  0  0
  147.2269  133.7889  153.3359 O   0  0  0  0  0  0  0  0  0  0  0  0
  147.2698  134.6036  154.4956 C   0  0  0  0  0  0  0  0  0  0  0  0
  146.3663  135.8263  154.2738 C   0  0  0  0  0  0  0  0  0  0  0  0
  147.1055  136.9838  153.7087 N   0  3  2  0  0  0  0  0  0  0  0  0
  148.0146  137.6098  154.7011 C   0  0  0  0  0  0  0  0  0  0  0  0
  148.8425  138.7401  154.0598 C   0  0  0  0  0  0  0  0  0  0  0  0
  147.9754  139.7675  153.4311 N   0  3  2  0  0  0  0  0  0  0  0  0
  147.3268  140.6714  154.4187 C   0  0  0  0  0  0  0  0  0  0  0  0
  148.2977  141.1551  155.5191 C   0  0  2  0  0  0  0  0  0  0  0  0
  147.7859  142.3426  156.0884 O   0  0  0  0  0  0  0  0  0  0  0  0
  149.7184  141.4522  154.9995 C   0  0  0  0  0  0  0  0  0  0  0  0
  150.7449  141.0929  155.9609 N   0  0  0  0  0  0  0  0  0  0  0  0
  151.5911  140.0476  155.8886 C   0  0  0  0  0  0  0  0  0  0  0  0
  152.4775  139.9139  156.8705 N   0  0  0  0  0  0  0  0  0  0  0  0
  152.1631  140.9912  157.6809 C   0  0  0  0  0  0  0  0  0  0  0  0
  152.7394  141.4261  158.8943 C   0  0  0  0  0  0  0  0  0  0  0  0
  152.2562  142.5787  159.5541 C   0  0  0  0  0  0  0  0  0  0  0  0
  152.9062  143.0107  160.8569 C   0  0  0  0  0  0  0  0  0  0  0  0
  151.1782  143.3154  159.0005 C   0  0  0  0  0  0  0  0  0  0  0  0
  150.6413  144.5559  159.6923 C   0  0  0  0  0  0  0  0  0  0  0  0
  150.5897  142.8935  157.7903 C   0  0  0  0  0  0  0  0  0  0  0  0
  151.0807  141.7464  157.1421 C   0  0  0  0  0  0  0  0  0  0  0  0
  147.0467  139.1461  152.4497 C   0  0  0  0  0  0  0  0  0  0  0  0
  146.2252  137.9945  153.0665 C   0  0  0  0  0  0  0  0  0  0  0  0
  148.2982  132.3742  152.2938 H   0  0  0  0  0  0  0  0  0  0  0  0
  148.4908  132.3005  154.0455 H   0  0  0  0  0  0  0  0  0  0  0  0
  149.2830  133.5856  153.1154 H   0  0  0  0  0  0  0  0  0  0  0  0
  146.9683  134.0372  155.3769 H   0  0  0  0  0  0  0  0  0  0  0  0
  148.2939  134.9379  154.6675 H   0  0  0  0  0  0  0  0  0  0  0  0
  145.5287  135.5700  153.6234 H   0  0  0  0  0  0  0  0  0  0  0  0
  145.9332  136.1022  155.2364 H   0  0  0  0  0  0  0  0  0  0  0  0
  147.4338  137.9895  155.5432 H   0  0  0  0  0  0  0  0  0  0  0  0
  148.6929  136.8555  155.1019 H   0  0  0  0  0  0  0  0  0  0  0  0
  149.5040  139.1980  154.7964 H   0  0  0  0  0  0  0  0  0  0  0  0
  149.4922  138.3211  153.2901 H   0  0  0  0  0  0  0  0  0  0  0  0
  146.8858  141.5139  153.8891 H   0  0  0  0  0  0  0  0  0  0  0  0
  146.4954  140.1545  154.9002 H   0  0  0  0  0  0  0  0  0  0  0  0
  148.3761  140.4122  156.3120 H   0  0  0  0  0  0  0  0  0  0  0  0
  148.2501  143.0810  155.7232 H   0  0  0  0  0  0  0  0  0  0  0  0
  149.9087  140.9126  154.0706 H   0  0  0  0  0  0  0  0  0  0  0  0
  149.8231  142.5136  154.7692 H   0  0  0  0  0  0  0  0  0  0  0  0
  151.5615  139.3513  155.0629 H   0  0  0  0  0  0  0  0  0  0  0  0
  153.5600  140.8646  159.3165 H   0  0  0  0  0  0  0  0  0  0  0  0
  152.1698  143.0439  161.6601 H   0  0  0  0  0  0  0  0  0  0  0  0
  153.3501  144.0007  160.7524 H   0  0  0  0  0  0  0  0  0  0  0  0
  153.6951  142.3204  161.1568 H   0  0  0  0  0  0  0  0  0  0  0  0
  149.8350  145.0140  159.1189 H   0  0  0  0  0  0  0  0  0  0  0  0
  151.4296  145.2993  159.8132 H   0  0  0  0  0  0  0  0  0  0  0  0
  150.2492  144.3032  160.6778 H   0  0  0  0  0  0  0  0  0  0  0  0
  149.7676  143.4457  157.3596 H   0  0  0  0  0  0  0  0  0  0  0  0
  146.3838  139.8888  152.0082 H   0  0  0  0  0  0  0  0  0  0  0  0
  147.6440  138.7547  151.6251 H   0  0  0  0  0  0  0  0  0  0  0  0
  145.6331  137.5297  152.2790 H   0  0  0  0  0  0  0  0  0  0  0  0
  145.5144  138.3801  153.7986 H   0  0  0  0  0  0  0  0  0  0  0  0
  148.5951  140.3663  152.9026 H   0  0  0  0  0  0  0  0  0  0  0  0
  147.7005  136.6070  152.9841 H   0  0  0  0  0  0  0  0  0  0  0  0
  1  2  1  0  0  0  0
  1 26  1  0  0  0  0
  1 27  1  0  0  0  0
  1 28  1  0  0  0  0
  2  3  1  0  0  0  0
  3  4  1  0  0  0  0
  3 29  1  0  0  0  0
  3 30  1  0  0  0  0
  4  5  1  0  0  0  0
  4 31  1  0  0  0  0
  4 32  1  0  0  0  0
  5 25  1  0  0  0  0
  5  6  1  0  0  0  0
  5 57  1  0  0  0  0
  6  7  1  0  0  0  0
  6 33  1  0  0  0  0
  6 34  1  0  0  0  0
  7  8  1  0  0  0  0
  7 35  1  0  0  0  0
  7 36  1  0  0  0  0
  8  9  1  0  0  0  0
  8 24  1  0  0  0  0
  8 56  1  0  0  0  0
  9 10  1  0  0  0  0
  9 37  1  0  0  0  0
  9 38  1  0  0  0  0
 10 11  1  0  0  0  0
 10 12  1  0  0  0  0
 10 39  1  0  0  0  0
 11 40  1  0  0  0  0
 12 13  1  0  0  0  0
 12 41  1  0  0  0  0
 12 42  1  0  0  0  0
 13 23  1  0  0  0  0
 13 14  1  0  0  0  0
 14 15  2  0  0  0  0
 14 43  1  0  0  0  0
 15 16  1  0  0  0  0
 16 23  2  0  0  0  0
 16 17  1  0  0  0  0
 17 18  2  0  0  0  0
 17 44  1  0  0  0  0
 18 19  1  0  0  0  0
 18 20  1  0  0  0  0
 19 45  1  0  0  0  0
 19 46  1  0  0  0  0
 19 47  1  0  0  0  0
 20 21  1  0  0  0  0
 20 22  2  0  0  0  0
 21 48  1  0  0  0  0
 21 49  1  0  0  0  0
 21 50  1  0  0  0  0
 22 23  1  0  0  0  0
 22 51  1  0  0  0  0
 24 25  1  0  0  0  0
 24 52  1  0  0  0  0
 24 53  1  0  0  0  0
 25 54  1  0  0  0  0
 25 55  1  0  0  0  0
M  CHG  1   5   1
M  CHG  1   8   1
M  END
> <s_m_source_file>
AV-unprocessed.smi

> <i_m_source_file_index>
1007

> <i_lp_mmshare_version>
43012

> <i_f3d_flags>
0

> <s_epik_input>
W0NIM11PW0NIMl1bQ0gyXU4xW0NIMl1bQ0gyXU4oW0NIMl1bQ0gyXTEpW0NIMl1bQ0BIXShbT0hdKVtDSDJdbihbY0hdbjIpYyhjMjMpW2NIXWMoW0NIM10pYyhbY0hdMylbQ0gzXQ==

> <s_epik_cmdline>
J2VwaWtfcHl0aG9uJywgJy1waCcsICc3LjAnLCAnLXRuJywgJzgnLCAnLW1hJywgJzIwMCcsICctbWV0YWxfYmluZGluZycsICctaW1hZScsICc8aW5maWxlLm1hZT4nLCAnLW9tYWUnLCAnPG91dGZpbGUubWFlPic=

> <r_epik_Ionization_Penalty>
3.88944

> <r_epik_Ionization_Penalty_Charging>
3.80608

> <r_epik_Ionization_Penalty_Neutral>
0.0833653

> <r_epik_State_Penalty>
2.70739

> <r_epik_Charging_Adjusted_Penalty>
6.51347

> <i_epik_Tot_Q>
2

> <i_epik_Tot_abs_Q>
2

> <r_epik_Metal_State_Penalty>
2.62239

> <b_epik_Metal_Only>
0

> <s_lp_Force_Field>
OPLS_2005

> <r_lp_Energy>
30.4149

> <b_lp_Chiralities_Consistent>
1

> <s_lp_Variant>
AV-unprocessed.smi:1007-11

> <Gold.Version>
5.8.1

> <Gold.Id.Protein>
6NUR|6NUR_protein|mol2

> <Gold.PLP.Fitness>
57.1387

> <Gold.PLP.PLP>
-45.4096

> <Gold.PLP.part.hbond>
-4.0000

> <Gold.PLP.part.metal>
0.0000

> <Gold.PLP.part.buried>
-3.6561

> <Gold.PLP.part.nonpolar>
-37.3851

> <Gold.PLP.part.repulsive>
0.1801

> <Gold.PLP.ligand.clash>
0.0000

> <Gold.PLP.ligand.torsion>
1.3823

> <Gold.PLP.Chemscore.Hbond>
4.6400

> <Gold.PLP.Chemscore.CHOScore>
0.0000

> <Gold.PLP.Chemscore.Metal>
0.0000

> <Gold.Chemscore.Hbonds>
donor molecule, donor type, donor heavy atom, donor atom, acceptor molecule, acceptor atom, score
      L1  H     5    57       P1  7948  2.00
      L1  H     8    56       P1  7957  0.61
      L1  H    11    40       P1  8028  1.00
      P1  H  7997  8010       L1    15  1.00

> <Gold.PLP.Chemscore.Internal.Correction>
0.5736

> <Gold.Rescore>
     Score         DG    S(hbond)    S(metal)    S(lipo)     H(rot)  DE(clash)    DE(int)     intcor
     21.52     -23.86       3.37        0.00     118.52       2.63       0.40       1.94       ----

> <Gold.Chemscore.Fitness>
21.5209

> <Gold.Chemscore.DG>
-23.8579

> <Gold.Chemscore.ZeroCoef>
-5.4800

> <Gold.Chemscore.Hbond>
3.3700

> <Gold.Chemscore.Metal>
0.0000

> <Gold.Chemscore.Lipo>
118.5205

> <Gold.Chemscore.Internal_Hbond>
0.0000

> <Gold.Chemscore.DEClash>
0.4004

> <Gold.Chemscore.DEInternal>
1.9366

> <Gold.Chemscore.Rot>
2.6347

> <Gold.Chemscore.Internal.Correction>
   9.000000E+99

> <Gold.Chemscore.Hbonds>
donor molecule, donor type, donor heavy atom, donor atom, acceptor molecule, acceptor atom, score
      L1  H     5    57       P1  7948  1.00
      L1  H     8    56       P1  7957  0.57
      L1  H    11    40       P1  8028  0.90
      P1  H  7997  8010       L1    15  0.51

> <Gold.Chemscore.Hbond.Weighted>
-11.2558

> <Gold.Chemscore.Metal.Weighted>
-0.0000

> <Gold.Chemscore.Lipo.Weighted>
-13.8669

> <Gold.Chemscore.Internal_Hbond.Weighted>
0.0000

> <Gold.Chemscore.DEClash.Weighted>
0.4004

> <Gold.Chemscore.DEInternal.Weighted>
1.9366

> <Gold.Chemscore.Rot.Weighted>
6.7448

> <Gold.Chemscore.Internal.Correction.Weighted>
   9.000000E+99

> <Gold.Protein.RotatedTorsions>
[ 6907 6896 6895 6894 ] final  -14.08 input  -60.11 | X-H torsion
[ 7974 7965 7964 7962 ] final  -63.55 input  175.53 | X-H torsion
[ 8008 7997 7996 7995 ] final   74.30 input   59.86 | X-H torsion
[ 10167 10162 10161 10158 ] final -156.10 input  -65.29 | X-H torsion
[ 10718 10713 10712 10709 ] final   47.60 input   66.30 | X-H torsion
[ 10763 10752 10751 10750 ] final -174.71 input  -60.55 | X-H torsion
[ 11005 11000 10999 10996 ] final   17.44 input  -57.11 | X-H torsion

> <Gold.Protein.ActiveResidues>
 VAL166  LYS551  ARG553  GLY616  TRP617  ASP618  TYR619  PRO620  LYS621  CYS622 
 ASP623  PHE694  ASN695  SER759  ASP760  ASP761  ALA762  ILE779  LEU786  VAL792 
 PHE793  MET794  SER795  GLU796  ALA797  LYS798  CYS799  TRP800  GLU811  SER814 

> <Gold.Protein.RotatedAtoms>
  151.3449  135.0872  159.9383 H   0  0  0  0  0  0  0  0  0  0  0  0  # atno 6907 bound_to 6896
  152.5202  133.9410  159.7636 H   0  0  0  0  0  0  0  0  0  0  0  0  # atno 6908 bound_to 6896
  150.9774  133.6227  159.2757 H   0  0  0  0  0  0  0  0  0  0  0  0  # atno 6909 bound_to 6896
  145.7777  140.8779  143.0347 H   0  0  0  0  0  0  0  0  0  0  0  0  # atno 7974 bound_to 7965
  155.7964  140.3477  155.5378 H   0  0  0  0  0  0  0  0  0  0  0  0  # atno 8008 bound_to 7997
  155.8582  140.0967  157.1651 H   0  0  0  0  0  0  0  0  0  0  0  0  # atno 8009 bound_to 7997
  154.4010  140.1363  156.3916 H   0  0  0  0  0  0  0  0  0  0  0  0  # atno 8010 bound_to 7997
  139.6877  143.9473  152.2369 H   0  0  0  0  0  0  0  0  0  0  0  0  # atno 10167 bound_to 10162
  157.4601  130.8191  149.7877 H   0  0  0  0  0  0  0  0  0  0  0  0  # atno 10718 bound_to 10713
  154.5930  135.2847  155.0616 H   0  0  0  0  0  0  0  0  0  0  0  0  # atno 10763 bound_to 10752
  154.1909  135.6441  153.5063 H   0  0  0  0  0  0  0  0  0  0  0  0  # atno 10764 bound_to 10752
  153.0128  135.5446  154.6622 H   0  0  0  0  0  0  0  0  0  0  0  0  # atno 10765 bound_to 10752
  140.4359  134.1372  155.7685 H   0  0  0  0  0  0  0  0  0  0  0  0  # atno 11005 bound_to 11000
  144.6801  139.9945  143.7484 LP  0  0  0  0  0  0  0  0  0  0  0  0  # atno 17320 bound_to 7965
  146.0106  139.3166  143.0873 LP  0  0  0  0  0  0  0  0  0  0  0  0  # atno 17321 bound_to 7965
  139.9281  144.6758  150.8392 LP  0  0  0  0  0  0  0  0  0  0  0  0  # atno 17342 bound_to 10162
  140.7673  143.3328  151.2373 LP  0  0  0  0  0  0  0  0  0  0  0  0  # atno 17343 bound_to 10162
  156.0025  130.3872  150.2553 LP  0  0  0  0  0  0  0  0  0  0  0  0  # atno 17370 bound_to 10713
  157.0730  131.0122  151.3183 LP  0  0  0  0  0  0  0  0  0  0  0  0  # atno 17371 bound_to 10713
  141.1726  133.8578  157.1523 LP  0  0  0  0  0  0  0  0  0  0  0  0  # atno 17394 bound_to 11000
  140.0102  134.9991  157.0380 LP  0  0  0  0  0  0  0  0  0  0  0  0  # atno 17395 bound_to 11000

$$$$
