AV-unprocessed.smi:767|AV-procd|sdf|3664|dock8
  -GOLD-   22720 1 73D 1   1.00000     0.00000
 Structure written by MMmdl.
 47 49  0  0  0  0  0  0  0  0  1 V2000
  152.6257  141.8225  158.8707 C   0  0  0  0  0  0  0  0  0  0  0  0
  151.9042  141.1798  157.7049 C   0  0  0  0  0  0  0  0  0  0  0  0
  150.7231  141.7504  157.1867 C   0  0  0  0  0  0  0  0  0  0  0  0
  150.1014  141.1244  156.0895 C   0  0  0  0  0  0  0  0  0  0  0  0
  150.6780  139.9526  155.5575 C   0  0  0  0  0  0  0  0  0  0  0  0
  150.0651  139.2573  154.3531 C   0  0  0  0  0  0  0  0  0  0  0  0
  148.5240  139.2148  154.3718 C   0  0  0  0  0  0  0  0  0  0  0  0
  147.9809  138.2891  153.3793 N   0  0  0  0  0  0  0  0  0  0  0  0
  146.6762  138.0914  153.1391 C   0  0  0  0  0  0  0  0  0  0  0  0
  145.7686  138.7026  153.7038 O   0  0  0  0  0  0  0  0  0  0  0  0
  146.4729  137.1313  152.2281 N   0  0  0  0  0  0  0  0  0  0  0  0
  145.1513  136.6515  151.8423 C   0  0  1  0  0  0  0  0  0  0  0  0
  145.1098  135.1443  151.5957 C   0  0  2  0  0  0  0  0  0  0  0  0
  144.8847  134.2874  150.4013 C   0  0  0  0  0  0  0  0  0  0  0  0
  143.8644  133.3029  151.0332 C   0  0  0  0  0  0  0  0  0  0  0  0
  143.4945  133.8783  152.3101 O   0  0  0  0  0  0  0  0  0  0  0  0
  143.6910  135.2647  152.1226 C   0  0  1  0  0  0  0  0  0  0  0  0
  144.2089  136.3638  153.0717 C   0  0  0  0  0  0  0  0  0  0  0  0
  144.8186  135.9185  154.4164 C   0  0  0  0  0  0  0  0  0  0  0  0
  143.2181  137.4807  153.4023 C   0  0  0  0  0  0  0  0  0  0  0  0
  151.8520  139.4542  156.1620 C   0  0  0  0  0  0  0  0  0  0  0  0
  152.4584  140.0512  157.2104 N   0  0  0  0  0  0  0  0  0  0  0  0
  152.3877  142.8846  158.9377 H   0  0  0  0  0  0  0  0  0  0  0  0
  153.7065  141.7266  158.7600 H   0  0  0  0  0  0  0  0  0  0  0  0
  152.3303  141.3447  159.8050 H   0  0  0  0  0  0  0  0  0  0  0  0
  150.3085  142.6534  157.6101 H   0  0  0  0  0  0  0  0  0  0  0  0
  149.2043  141.5456  155.6601 H   0  0  0  0  0  0  0  0  0  0  0  0
  150.4061  139.7626  153.4490 H   0  0  0  0  0  0  0  0  0  0  0  0
  150.4536  138.2398  154.2951 H   0  0  0  0  0  0  0  0  0  0  0  0
  148.1725  138.9537  155.3713 H   0  0  0  0  0  0  0  0  0  0  0  0
  148.1289  140.2098  154.1665 H   0  0  0  0  0  0  0  0  0  0  0  0
  148.6480  137.7369  152.8605 H   0  0  0  0  0  0  0  0  0  0  0  0
  147.2723  136.6782  151.8103 H   0  0  0  0  0  0  0  0  0  0  0  0
  144.6810  137.2281  151.0401 H   0  0  0  0  0  0  0  0  0  0  0  0
  145.7836  134.6284  152.2835 H   0  0  0  0  0  0  0  0  0  0  0  0
  144.4527  134.8486  149.5715 H   0  0  0  0  0  0  0  0  0  0  0  0
  145.7921  133.7886  150.0608 H   0  0  0  0  0  0  0  0  0  0  0  0
  142.9862  133.1931  150.3959 H   0  0  0  0  0  0  0  0  0  0  0  0
  144.2952  132.3137  151.1902 H   0  0  0  0  0  0  0  0  0  0  0  0
  142.9774  135.6596  151.3902 H   0  0  0  0  0  0  0  0  0  0  0  0
  144.0420  135.6214  155.1217 H   0  0  0  0  0  0  0  0  0  0  0  0
  145.3815  136.7278  154.8792 H   0  0  0  0  0  0  0  0  0  0  0  0
  145.4972  135.0716  154.3336 H   0  0  0  0  0  0  0  0  0  0  0  0
  142.4179  137.1288  154.0540 H   0  0  0  0  0  0  0  0  0  0  0  0
  142.7496  137.8796  152.5024 H   0  0  0  0  0  0  0  0  0  0  0  0
  143.7096  138.3151  153.9037 H   0  0  0  0  0  0  0  0  0  0  0  0
  152.3279  138.5618  155.7828 H   0  0  0  0  0  0  0  0  0  0  0  0
  1  2  1  0  0  0  0
  1 23  1  0  0  0  0
  1 24  1  0  0  0  0
  1 25  1  0  0  0  0
  2 22  1  0  0  0  0
  2  3  2  0  0  0  0
  3  4  1  0  0  0  0
  3 26  1  0  0  0  0
  4  5  2  0  0  0  0
  4 27  1  0  0  0  0
  5  6  1  0  0  0  0
  5 21  1  0  0  0  0
  6  7  1  0  0  0  0
  6 28  1  0  0  0  0
  6 29  1  0  0  0  0
  7  8  1  0  0  0  0
  7 30  1  0  0  0  0
  7 31  1  0  0  0  0
  8  9  1  0  0  0  0
  8 32  1  0  0  0  0
  9 10  2  0  0  0  0
  9 11  1  0  0  0  0
 11 12  1  0  0  0  0
 11 33  1  0  0  0  0
 12 18  1  0  0  0  0
 12 13  1  0  0  0  0
 12 34  1  0  0  0  0
 13 17  1  0  0  0  0
 13 14  1  0  0  0  0
 13 35  1  0  0  0  0
 14 15  1  0  0  0  0
 14 36  1  0  0  0  0
 14 37  1  0  0  0  0
 15 16  1  0  0  0  0
 15 38  1  0  0  0  0
 15 39  1  0  0  0  0
 16 17  1  0  0  0  0
 17 18  1  0  0  0  0
 17 40  1  0  0  0  0
 18 19  1  0  0  0  0
 18 20  1  0  0  0  0
 19 41  1  0  0  0  0
 19 42  1  0  0  0  0
 19 43  1  0  0  0  0
 20 44  1  0  0  0  0
 20 45  1  0  0  0  0
 20 46  1  0  0  0  0
 21 22  2  0  0  0  0
 21 47  1  0  0  0  0
M  END
> <s_m_source_file>
AV-unprocessed.smi

> <i_m_source_file_index>
767

> <i_lp_mmshare_version>
43012

> <i_f3d_flags>
0

> <s_epik_input>
W0NIM11jMVtjSF1bY0hdYyhbY0hdbjEpW0NIMl1bQ0gyXVtOSF1DKD1PKVtOSF1bQ0BIXTJDKFtDSDNdKShbQ0gzXSlbQ0BIXShbQ0BASF0yMylPW0NIMl1bQ0gyXTM=

> <s_epik_cmdline>
J2VwaWtfcHl0aG9uJywgJy1waCcsICc3LjAnLCAnLXRuJywgJzgnLCAnLW1hJywgJzIwMCcsICctbWV0YWxfYmluZGluZycsICctaW1hZScsICc8aW5maWxlLm1hZT4nLCAnLW9tYWUnLCAnPG91dGZpbGUubWFlPic=

> <r_epik_Ionization_Penalty>
0.0567523

> <r_epik_Ionization_Penalty_Charging>
0

> <r_epik_Ionization_Penalty_Neutral>
0.0567523

> <r_epik_State_Penalty>
0.0489186

> <r_epik_Charging_Adjusted_Penalty>
0.0489186

> <i_epik_Tot_Q>
0

> <i_epik_Tot_abs_Q>
0

> <r_epik_Metal_State_Penalty>
0.044622

> <b_epik_Metal_Only>
0

> <s_lp_Force_Field>
OPLS_2005

> <r_lp_Energy>
55.1366

> <b_lp_Chiralities_Consistent>
1

> <s_lp_Variant>
AV-unprocessed.smi:767-8

> <Gold.Version>
5.8.1

> <Gold.Id.Protein>
6NUR|6NUR_protein|mol2

> <Gold.PLP.Fitness>
42.2843

> <Gold.PLP.PLP>
-34.2236

> <Gold.PLP.part.hbond>
-3.3604

> <Gold.PLP.part.metal>
0.0000

> <Gold.PLP.part.buried>
-2.3762

> <Gold.PLP.part.nonpolar>
-29.8934

> <Gold.PLP.part.repulsive>
1.3554

> <Gold.PLP.ligand.clash>
0.0000

> <Gold.PLP.ligand.torsion>
0.5731

> <Gold.PLP.Chemscore.Hbond>
2.9760

> <Gold.PLP.Chemscore.CHOScore>
0.0000

> <Gold.PLP.Chemscore.Metal>
0.0000

> <Gold.Chemscore.Hbonds>
donor molecule, donor type, donor heavy atom, donor atom, acceptor molecule, acceptor atom, score
      L1  H     8    32       P1  7948  0.96
      L1  H    11    33       P1  7948  1.00
      P1  H  7997  8010       L1    22  0.90

> <Gold.PLP.Chemscore.Internal.Correction>
0.2788

> <Gold.Rescore>
     Score         DG    S(hbond)    S(metal)    S(lipo)     H(rot)  DE(clash)    DE(int)     intcor
     17.28     -20.97       2.54        0.00      91.59       1.45       0.55       3.14       ----

> <Gold.Chemscore.Fitness>
17.2817

> <Gold.Chemscore.DG>
-20.9723

> <Gold.Chemscore.ZeroCoef>
-5.4800

> <Gold.Chemscore.Hbond>
2.5413

> <Gold.Chemscore.Metal>
0.0000

> <Gold.Chemscore.Lipo>
91.5876

> <Gold.Chemscore.Internal_Hbond>
0.0000

> <Gold.Chemscore.DEClash>
0.5530

> <Gold.Chemscore.DEInternal>
3.1376

> <Gold.Chemscore.Rot>
1.4497

> <Gold.Chemscore.Internal.Correction>
   9.000000E+99

> <Gold.Chemscore.Hbonds>
donor molecule, donor type, donor heavy atom, donor atom, acceptor molecule, acceptor atom, score
      L1  H     8    32       P1  7948  0.92
      L1  H    11    33       P1  7948  0.96
      P1  H  7997  8010       L1    22  0.15

> <Gold.Chemscore.Hbond.Weighted>
-8.4878

> <Gold.Chemscore.Metal.Weighted>
-0.0000

> <Gold.Chemscore.Lipo.Weighted>
-10.7158

> <Gold.Chemscore.Internal_Hbond.Weighted>
0.0000

> <Gold.Chemscore.DEClash.Weighted>
0.5530

> <Gold.Chemscore.DEInternal.Weighted>
3.1376

> <Gold.Chemscore.Rot.Weighted>
3.7112

> <Gold.Chemscore.Internal.Correction.Weighted>
   9.000000E+99

> <Gold.Protein.RotatedTorsions>
[ 6907 6896 6895 6894 ] final   23.35 input  -60.11 | X-H torsion
[ 7974 7965 7964 7962 ] final   -4.85 input  175.53 | X-H torsion
[ 8008 7997 7996 7995 ] final   71.52 input   59.86 | X-H torsion
[ 10167 10162 10161 10158 ] final -116.07 input  -65.29 | X-H torsion
[ 10718 10713 10712 10709 ] final -170.03 input   66.30 | X-H torsion
[ 10763 10752 10751 10750 ] final -111.50 input  -60.55 | X-H torsion
[ 11005 11000 10999 10996 ] final -129.12 input  -57.11 | X-H torsion

> <Gold.Protein.ActiveResidues>
 VAL166  LYS551  ARG553  GLY616  TRP617  ASP618  TYR619  PRO620  LYS621  CYS622 
 ASP623  PHE694  ASN695  SER759  ASP760  ASP761  ALA762  ILE779  LEU786  VAL792 
 PHE793  MET794  SER795  GLU796  ALA797  LYS798  CYS799  TRP800  GLU811  SER814 

> <Gold.Protein.RotatedAtoms>
  151.9411  135.0213  160.0535 H   0  0  0  0  0  0  0  0  0  0  0  0  # atno 6907 bound_to 6896
  152.2036  133.4854  159.5080 H   0  0  0  0  0  0  0  0  0  0  0  0  # atno 6908 bound_to 6896
  150.6960  134.1476  159.4171 H   0  0  0  0  0  0  0  0  0  0  0  0  # atno 6909 bound_to 6896
  146.2364  140.1933  142.8333 H   0  0  0  0  0  0  0  0  0  0  0  0  # atno 7974 bound_to 7965
  155.7551  140.3488  155.5170 H   0  0  0  0  0  0  0  0  0  0  0  0  # atno 8008 bound_to 7997
  155.8967  140.1027  157.1400 H   0  0  0  0  0  0  0  0  0  0  0  0  # atno 8009 bound_to 7997
  154.4039  140.1294  156.4371 H   0  0  0  0  0  0  0  0  0  0  0  0  # atno 8010 bound_to 7997
  140.0833  143.4768  152.1913 H   0  0  0  0  0  0  0  0  0  0  0  0  # atno 10167 bound_to 10162
  156.7202  130.9267  151.3097 H   0  0  0  0  0  0  0  0  0  0  0  0  # atno 10718 bound_to 10713
  154.8303  135.4525  154.1049 H   0  0  0  0  0  0  0  0  0  0  0  0  # atno 10763 bound_to 10752
  153.2328  135.6907  153.7877 H   0  0  0  0  0  0  0  0  0  0  0  0  # atno 10764 bound_to 10752
  153.7253  135.3335  155.3251 H   0  0  0  0  0  0  0  0  0  0  0  0  # atno 10765 bound_to 10752
  140.9458  134.1132  157.4108 H   0  0  0  0  0  0  0  0  0  0  0  0  # atno 11005 bound_to 11000
  144.9841  140.8486  143.5379 LP  0  0  0  0  0  0  0  0  0  0  0  0  # atno 17320 bound_to 7965
  145.1930  139.2291  143.5233 LP  0  0  0  0  0  0  0  0  0  0  0  0  # atno 17321 bound_to 7965
  139.5767  144.7491  151.3746 LP  0  0  0  0  0  0  0  0  0  0  0  0  # atno 17342 bound_to 10162
  140.7067  143.7496  150.7494 LP  0  0  0  0  0  0  0  0  0  0  0  0  # atno 17343 bound_to 10162
  157.6901  130.9225  150.0490 LP  0  0  0  0  0  0  0  0  0  0  0  0  # atno 17370 bound_to 10713
  156.1600  130.3644  149.9313 LP  0  0  0  0  0  0  0  0  0  0  0  0  # atno 17371 bound_to 10713
  139.8833  135.0051  156.6290 LP  0  0  0  0  0  0  0  0  0  0  0  0  # atno 17394 bound_to 11000
  140.7671  133.8769  155.8463 LP  0  0  0  0  0  0  0  0  0  0  0  0  # atno 17395 bound_to 11000

$$$$
