AV-unprocessed.smi:40|AV-procd|sdf|370|dock7
  -GOLD-   2262016213D 1   1.00000     0.00000
 Structure written by MMmdl.
 47 48  0  0  0  0  0  0  0  0  1 V2000
  151.8036  145.5943  159.7317 C   0  0  0  0  0  0  0  0  0  0  0  0
  151.7691  144.1151  160.1372 C   0  0  0  0  0  0  0  0  0  0  0  0
  153.0844  143.3671  159.8647 C   0  0  0  0  0  0  0  0  0  0  0  0
  153.0485  141.8795  160.2605 C   0  0  0  0  0  0  0  0  0  0  0  0
  154.4316  141.2154  160.2171 C   0  0  0  0  0  0  0  0  0  0  0  0
  154.3101  139.8723  160.6506 O   0  0  0  0  0  0  0  0  0  0  0  0
  154.7744  138.8594  159.8949 C   0  0  0  0  0  0  0  0  0  0  0  0
  155.3629  139.0032  158.8238 O   0  0  0  0  0  0  0  0  0  0  0  0
  154.4482  137.5839  160.5005 N   0  0  0  0  0  0  0  0  0  0  0  0
  154.7680  136.3714  159.9993 C   0  0  0  0  0  0  0  0  0  0  0  0
  154.9704  136.2775  158.6980 N   0  0  0  0  0  0  0  0  0  0  0  0
  155.2627  135.1012  158.0602 C   0  0  0  0  0  0  0  0  0  0  0  0
  155.4063  135.0673  156.8390 O   0  0  0  0  0  0  0  0  0  0  0  0
  155.3702  133.9369  158.8576 N   0  0  0  0  0  0  0  0  0  0  0  0
  155.6547  132.6073  158.1949 C   0  0  1  0  0  0  0  0  0  0  0  0
  156.7361  132.0074  158.8444 O   0  0  0  0  0  0  0  0  0  0  0  0
  156.4548  130.6306  159.0661 C   0  0  1  0  0  0  0  0  0  0  0  0
  157.3064  130.0637  160.2119 C   0  0  0  0  0  0  0  0  0  0  0  0
  154.9329  130.5708  159.2491 C   0  0  1  0  0  0  0  0  0  0  0  0
  154.5707  130.8587  160.5895 O   0  0  0  0  0  0  0  0  0  0  0  0
  154.4553  131.6354  158.2651 C   0  0  1  0  0  0  0  0  0  0  0  0
  153.2087  132.2123  158.6203 O   0  0  0  0  0  0  0  0  0  0  0  0
  155.1831  134.0220  160.2290 C   0  0  0  0  0  0  0  0  0  0  0  0
  154.8870  135.1904  160.8352 C   0  0  0  0  0  0  0  0  0  0  0  0
  154.7149  135.2433  162.1676 F   0  0  0  0  0  0  0  0  0  0  0  0
  155.9567  132.8280  157.1702 H   0  0  0  0  0  0  0  0  0  0  0  0
  156.7090  130.1013  158.1460 H   0  0  0  0  0  0  0  0  0  0  0  0
  154.5359  129.5867  158.9982 H   0  0  0  0  0  0  0  0  0  0  0  0
  154.3552  131.1840  157.2772 H   0  0  0  0  0  0  0  0  0  0  0  0
  150.8292  146.0587  159.8850 H   0  0  0  0  0  0  0  0  0  0  0  0
  152.0629  145.7081  158.6787 H   0  0  0  0  0  0  0  0  0  0  0  0
  152.5292  146.1554  160.3200 H   0  0  0  0  0  0  0  0  0  0  0  0
  151.5034  144.0264  161.1911 H   0  0  0  0  0  0  0  0  0  0  0  0
  150.9684  143.6240  159.5832 H   0  0  0  0  0  0  0  0  0  0  0  0
  153.3020  143.4464  158.7988 H   0  0  0  0  0  0  0  0  0  0  0  0
  153.9062  143.8677  160.3779 H   0  0  0  0  0  0  0  0  0  0  0  0
  152.6488  141.7781  161.2692 H   0  0  0  0  0  0  0  0  0  0  0  0
  152.3666  141.3379  159.6039 H   0  0  0  0  0  0  0  0  0  0  0  0
  154.8401  141.2484  159.2062 H   0  0  0  0  0  0  0  0  0  0  0  0
  155.1226  141.7499  160.8703 H   0  0  0  0  0  0  0  0  0  0  0  0
  154.0233  137.6366  161.4145 H   0  0  0  0  0  0  0  0  0  0  0  0
  157.0589  129.0197  160.4044 H   0  0  0  0  0  0  0  0  0  0  0  0
  157.1608  130.6218  161.1370 H   0  0  0  0  0  0  0  0  0  0  0  0
  158.3670  130.1139  159.9648 H   0  0  0  0  0  0  0  0  0  0  0  0
  154.8596  130.1459  161.1383 H   0  0  0  0  0  0  0  0  0  0  0  0
  152.5237  131.7457  158.1658 H   0  0  0  0  0  0  0  0  0  0  0  0
  155.2685  133.1387  160.8441 H   0  0  0  0  0  0  0  0  0  0  0  0
  1  2  1  0  0  0  0
  1 30  1  0  0  0  0
  1 31  1  0  0  0  0
  1 32  1  0  0  0  0
  2  3  1  0  0  0  0
  2 33  1  0  0  0  0
  2 34  1  0  0  0  0
  3  4  1  0  0  0  0
  3 35  1  0  0  0  0
  3 36  1  0  0  0  0
  4  5  1  0  0  0  0
  4 37  1  0  0  0  0
  4 38  1  0  0  0  0
  5  6  1  0  0  0  0
  5 39  1  0  0  0  0
  5 40  1  0  0  0  0
  6  7  1  0  0  0  0
  7  8  2  0  0  0  0
  7  9  1  0  0  0  0
  9 10  1  0  0  0  0
  9 41  1  0  0  0  0
 10 24  1  0  0  0  0
 10 11  2  0  0  0  0
 11 12  1  0  0  0  0
 12 13  2  0  0  0  0
 12 14  1  0  0  0  0
 14 15  1  0  0  0  0
 14 23  1  0  0  0  0
 15 26  1  0  0  0  0
 15 21  1  0  0  0  0
 15 16  1  0  0  0  0
 16 17  1  0  0  0  0
 17 27  1  0  0  0  0
 17 18  1  0  0  0  0
 17 19  1  0  0  0  0
 18 42  1  0  0  0  0
 18 43  1  0  0  0  0
 18 44  1  0  0  0  0
 19 28  1  0  0  0  0
 19 20  1  0  0  0  0
 19 21  1  0  0  0  0
 20 45  1  0  0  0  0
 21 29  1  0  0  0  0
 21 22  1  0  0  0  0
 22 46  1  0  0  0  0
 23 24  2  0  0  0  0
 23 47  1  0  0  0  0
 24 25  1  0  0  0  0
M  END
> <s_m_source_file>
AV-unprocessed.smi

> <i_m_source_file_index>
40

> <i_lp_mmshare_version>
43012

> <i_f3d_flags>
0

> <s_epik_input>
W0NIM11bQ0gyXVtDSDJdW0NIMl1bQ0gyXU9DKD1PKVtOSF1jMW5jKD1PKW4oW2NIXWMxRilbQ0BASF0yT1tDQEhdKFtDSDNdKVtDQEBIXShbT0hdKVtDQEhdMltPSF0=

> <s_epik_cmdline>
J2VwaWtfcHl0aG9uJywgJy1waCcsICc3LjAnLCAnLXRuJywgJzgnLCAnLW1hJywgJzIwMCcsICctbWV0YWxfYmluZGluZycsICctaW1hZScsICc8aW5maWxlLm1hZT4nLCAnLW9tYWUnLCAnPG91dGZpbGUubWFlPic=

> <r_lp_tautomer_probability>
1

> <r_epik_Ionization_Penalty>
2.29506e-06

> <r_epik_Ionization_Penalty_Charging>
8.26867e-09

> <r_epik_Ionization_Penalty_Neutral>
2.2868e-06

> <r_epik_State_Penalty>
-0

> <r_epik_Charging_Adjusted_Penalty>
8.26867e-09

> <i_epik_Tot_Q>
0

> <i_epik_Tot_abs_Q>
0

> <r_epik_Metal_State_Penalty>
-0

> <b_epik_Metal_Only>
0

> <s_epik_Chemistry_Notes>
This compound has an ester and may undergo hydrolysis at high or low pH. This compound contains an acetal/aminal-like group ( X-CH(R)-Y where X, Y are N, S, or O) that may be acid/base labile, releasing an aldehyde.

> <s_lp_Force_Field>
OPLS_2005

> <r_lp_Energy>
45.3247

> <b_lp_Chiralities_Consistent>
1

> <s_lp_Variant>
AV-unprocessed.smi:40-4

> <Gold.Version>
5.8.1

> <Gold.Id.Protein>
6NUR|6NUR_protein|mol2

> <Gold.PLP.Fitness>
38.8466

> <Gold.PLP.PLP>
-31.0479

> <Gold.PLP.part.hbond>
-3.0000

> <Gold.PLP.part.metal>
0.0000

> <Gold.PLP.part.buried>
-4.0595

> <Gold.PLP.part.nonpolar>
-23.9468

> <Gold.PLP.part.repulsive>
0.0235

> <Gold.PLP.ligand.clash>
0.0000

> <Gold.PLP.ligand.torsion>
0.6502

> <Gold.PLP.Chemscore.Hbond>
3.0000

> <Gold.PLP.Chemscore.CHOScore>
0.0000

> <Gold.PLP.Chemscore.Metal>
0.0000

> <Gold.Chemscore.Hbonds>
donor molecule, donor type, donor heavy atom, donor atom, acceptor molecule, acceptor atom, score
      P1  H  6896  6907       L1    22  1.00
      P1  H  7997  8008       L1     8  1.00
      P1  H 10752 10765       L1    13  1.00

> <Gold.PLP.Chemscore.Internal.Correction>
0.0992

> <Gold.Rescore>
     Score         DG    S(hbond)    S(metal)    S(lipo)     H(rot)  DE(clash)    DE(int)     intcor
     11.88     -14.17       2.91        0.00      72.17       3.70       0.10       2.20       ----

> <Gold.Chemscore.Fitness>
11.8766

> <Gold.Chemscore.DG>
-14.1724

> <Gold.Chemscore.ZeroCoef>
-5.4800

> <Gold.Chemscore.Hbond>
2.9071

> <Gold.Chemscore.Metal>
0.0000

> <Gold.Chemscore.Lipo>
72.1674

> <Gold.Chemscore.Internal_Hbond>
0.0000

> <Gold.Chemscore.DEClash>
0.0950

> <Gold.Chemscore.DEInternal>
2.2008

> <Gold.Chemscore.Rot>
3.6957

> <Gold.Chemscore.Internal.Correction>
   9.000000E+99

> <Gold.Chemscore.Hbonds>
donor molecule, donor type, donor heavy atom, donor atom, acceptor molecule, acceptor atom, score
      P1  H  6896  6907       L1    22  0.58
      P1  H  7997  8008       L1     8  1.00
      P1  H 10752 10765       L1    13  0.99

> <Gold.Chemscore.Hbond.Weighted>
-9.7098

> <Gold.Chemscore.Metal.Weighted>
-0.0000

> <Gold.Chemscore.Lipo.Weighted>
-8.4436

> <Gold.Chemscore.Internal_Hbond.Weighted>
0.0000

> <Gold.Chemscore.DEClash.Weighted>
0.0950

> <Gold.Chemscore.DEInternal.Weighted>
2.2008

> <Gold.Chemscore.Rot.Weighted>
9.4610

> <Gold.Chemscore.Internal.Correction.Weighted>
   9.000000E+99

> <Gold.Protein.RotatedTorsions>
[ 6907 6896 6895 6894 ] final  128.98 input  -60.11 | X-H torsion
[ 7974 7965 7964 7962 ] final  153.10 input  175.53 | X-H torsion
[ 8008 7997 7996 7995 ] final -132.64 input   59.86 | X-H torsion
[ 10167 10162 10161 10158 ] final   79.68 input  -65.29 | X-H torsion
[ 10718 10713 10712 10709 ] final  177.23 input   66.30 | X-H torsion
[ 10763 10752 10751 10750 ] final  -57.79 input  -60.55 | X-H torsion
[ 11005 11000 10999 10996 ] final   56.67 input  -57.11 | X-H torsion

> <Gold.Protein.ActiveResidues>
 VAL166  LYS551  ARG553  GLY616  TRP617  ASP618  TYR619  PRO620  LYS621  CYS622 
 ASP623  PHE694  ASN695  SER759  ASP760  ASP761  ALA762  ILE779  LEU786  VAL792 
 PHE793  MET794  SER795  GLU796  ALA797  LYS798  CYS799  TRP800  GLU811  SER814 

> <Gold.Protein.RotatedAtoms>
  152.3668  133.6367  159.6056 H   0  0  0  0  0  0  0  0  0  0  0  0  # atno 6907 bound_to 6896
  150.7640  133.9335  159.3443 H   0  0  0  0  0  0  0  0  0  0  0  0  # atno 6908 bound_to 6896
  151.7164  135.0904  160.0328 H   0  0  0  0  0  0  0  0  0  0  0  0  # atno 6909 bound_to 6896
  144.8177  139.6756  143.6114 H   0  0  0  0  0  0  0  0  0  0  0  0  # atno 7974 bound_to 7965
  155.3322  140.0467  157.3043 H   0  0  0  0  0  0  0  0  0  0  0  0  # atno 8008 bound_to 7997
  154.5322  140.2260  155.8750 H   0  0  0  0  0  0  0  0  0  0  0  0  # atno 8009 bound_to 7997
  156.1799  140.3076  155.9136 H   0  0  0  0  0  0  0  0  0  0  0  0  # atno 8010 bound_to 7997
  139.9577  144.5982  150.8101 H   0  0  0  0  0  0  0  0  0  0  0  0  # atno 10167 bound_to 10162
  156.9084  130.9901  151.3025 H   0  0  0  0  0  0  0  0  0  0  0  0  # atno 10718 bound_to 10713
  154.2279  135.6366  153.5166 H   0  0  0  0  0  0  0  0  0  0  0  0  # atno 10763 bound_to 10752
  152.9955  135.5512  154.6044 H   0  0  0  0  0  0  0  0  0  0  0  0  # atno 10764 bound_to 10752
  154.5520  135.2902  155.0974 H   0  0  0  0  0  0  0  0  0  0  0  0  # atno 10765 bound_to 10752
  140.0511  134.5736  155.9263 H   0  0  0  0  0  0  0  0  0  0  0  0  # atno 11005 bound_to 11000
  146.2481  139.6141  142.9445 LP  0  0  0  0  0  0  0  0  0  0  0  0  # atno 17320 bound_to 7965
  145.5176  141.0433  143.2453 LP  0  0  0  0  0  0  0  0  0  0  0  0  # atno 17321 bound_to 7965
  140.7563  143.3063  151.2954 LP  0  0  0  0  0  0  0  0  0  0  0  0  # atno 17342 bound_to 10162
  139.6578  144.0244  152.2672 LP  0  0  0  0  0  0  0  0  0  0  0  0  # atno 17343 bound_to 10162
  157.5983  130.8494  149.8763 LP  0  0  0  0  0  0  0  0  0  0  0  0  # atno 17370 bound_to 10713
  156.0548  130.3710  150.1117 LP  0  0  0  0  0  0  0  0  0  0  0  0  # atno 17371 bound_to 10713
  141.1930  133.6577  156.5530 LP  0  0  0  0  0  0  0  0  0  0  0  0  # atno 17394 bound_to 11000
  140.3916  134.7435  157.4725 LP  0  0  0  0  0  0  0  0  0  0  0  0  # atno 17395 bound_to 11000

$$$$
