AV-unprocessed.smi:1200|AV-procd|sdf|5025|dock5
  -GOLD-   22720 4 43D 1   1.00000     0.00000
 Structure written by MMmdl.
 42 43  0  0  0  0  0  0  0  0  3 V2000
  151.8027  140.5100  158.7332 C   0  0  0  0  0  0  0  0  0  0  0  0
  152.4649  140.1869  157.4751 N   0  5  0  0  0  0  0  0  0  0  0  0
  151.8770  140.3366  156.2580 C   0  0  0  0  0  0  0  0  0  0  0  0
  152.1318  139.8110  155.1693 O   0  0  0  0  0  0  0  0  0  0  0  0
  150.6971  141.3127  156.3298 C   0  0  0  0  0  0  0  0  0  0  0  0
  149.4868  140.6907  155.7382 N   0  3  2  0  0  0  0  0  0  0  0  0
  149.1174  141.2995  154.4354 C   0  0  0  0  0  0  0  0  0  0  0  0
  147.9580  140.5345  153.7753 C   0  0  0  0  0  0  0  0  0  0  0  0
  146.7342  140.4679  154.7033 C   0  0  1  0  0  0  0  0  0  0  0  0
  145.6880  139.6562  154.0879 N   0  0  0  0  0  0  0  0  0  0  0  0
  145.7730  138.3402  153.8454 C   0  0  0  0  0  0  0  0  0  0  0  0
  146.7554  137.6609  154.1404 O   0  0  0  0  0  0  0  0  0  0  0  0
  144.6533  137.8843  153.2571 N   0  0  0  0  0  0  0  0  0  0  0  0
  144.3401  136.5700  152.8121 C   0  0  0  0  0  0  0  0  0  0  0  0
  143.0802  135.9407  152.9679 C   0  0  0  0  0  0  0  0  0  0  0  0
  142.9117  134.6272  152.4890 C   0  0  0  0  0  0  0  0  0  0  0  0
  144.0069  133.9874  151.8774 C   0  0  0  0  0  0  0  0  0  0  0  0
  145.2150  134.5697  151.7300 N   0  0  0  0  0  0  0  0  0  0  0  0
  145.3688  135.8294  152.1911 C   0  0  0  0  0  0  0  0  0  0  0  0
  147.1498  139.8783  156.0634 C   0  0  0  0  0  0  0  0  0  0  0  0
  148.3291  140.6544  156.6720 C   0  0  0  0  0  0  0  0  0  0  0  0
  152.4405  140.3021  159.5920 H   0  0  0  0  0  0  0  0  0  0  0  0
  150.8872  139.9367  158.8819 H   0  0  0  0  0  0  0  0  0  0  0  0
  151.5298  141.5636  158.7998 H   0  0  0  0  0  0  0  0  0  0  0  0
  150.4920  141.6614  157.3445 H   0  0  0  0  0  0  0  0  0  0  0  0
  150.9836  142.1943  155.7547 H   0  0  0  0  0  0  0  0  0  0  0  0
  148.8450  142.3456  154.5852 H   0  0  0  0  0  0  0  0  0  0  0  0
  149.9784  141.2881  153.7659 H   0  0  0  0  0  0  0  0  0  0  0  0
  147.6885  141.0156  152.8341 H   0  0  0  0  0  0  0  0  0  0  0  0
  148.2895  139.5258  153.5234 H   0  0  0  0  0  0  0  0  0  0  0  0
  146.3631  141.4839  154.8529 H   0  0  0  0  0  0  0  0  0  0  0  0
  144.8410  140.1342  153.8172 H   0  0  0  0  0  0  0  0  0  0  0  0
  143.9162  138.5625  153.1311 H   0  0  0  0  0  0  0  0  0  0  0  0
  142.2448  136.4237  153.4486 H   0  0  0  0  0  0  0  0  0  0  0  0
  141.9639  134.1200  152.5919 H   0  0  0  0  0  0  0  0  0  0  0  0
  143.9108  132.9799  151.5008 H   0  0  0  0  0  0  0  0  0  0  0  0
  146.3501  136.2613  152.0577 H   0  0  0  0  0  0  0  0  0  0  0  0
  146.3066  139.8945  156.7551 H   0  0  0  0  0  0  0  0  0  0  0  0
  147.4308  138.8306  155.9441 H   0  0  0  0  0  0  0  0  0  0  0  0
  148.6148  140.1812  157.6117 H   0  0  0  0  0  0  0  0  0  0  0  0
  148.0229  141.6732  156.9140 H   0  0  0  0  0  0  0  0  0  0  0  0
  149.7401  139.7322  155.5443 H   0  0  0  0  0  0  0  0  0  0  0  0
  1  2  1  0  0  0  0
  1 22  1  0  0  0  0
  1 23  1  0  0  0  0
  1 24  1  0  0  0  0
  2  3  1  0  0  0  0
  3  4  2  0  0  0  0
  3  5  1  0  0  0  0
  5  6  1  0  0  0  0
  5 25  1  0  0  0  0
  5 26  1  0  0  0  0
  6 21  1  0  0  0  0
  6  7  1  0  0  0  0
  6 42  1  0  0  0  0
  7  8  1  0  0  0  0
  7 27  1  0  0  0  0
  7 28  1  0  0  0  0
  8  9  1  0  0  0  0
  8 29  1  0  0  0  0
  8 30  1  0  0  0  0
  9 10  1  0  0  0  0
  9 20  1  0  0  0  0
  9 31  1  0  0  0  0
 10 11  1  0  0  0  0
 10 32  1  0  0  0  0
 11 12  2  0  0  0  0
 11 13  1  0  0  0  0
 13 14  1  0  0  0  0
 13 33  1  0  0  0  0
 14 19  1  0  0  0  0
 14 15  2  0  0  0  0
 15 16  1  0  0  0  0
 15 34  1  0  0  0  0
 16 17  2  0  0  0  0
 16 35  1  0  0  0  0
 17 18  1  0  0  0  0
 17 36  1  0  0  0  0
 18 19  2  0  0  0  0
 19 37  1  0  0  0  0
 20 21  1  0  0  0  0
 20 38  1  0  0  0  0
 20 39  1  0  0  0  0
 21 40  1  0  0  0  0
 21 41  1  0  0  0  0
M  CHG  1   2  -1
M  CHG  1   6   1
M  END
> <s_m_source_file>
AV-unprocessed.smi

> <i_m_source_file_index>
1200

> <i_lp_mmshare_version>
43012

> <i_f3d_flags>
0

> <s_epik_input>
W0NIM11bTkhdQyg9TylbQ0gyXU4xW0NIMl1bQ0gyXVtDSF0oW0NIMl1bQ0gyXTEpW05IXUMoPU8pW05IXWMyW2NIXVtjSF1bY0hdbltjSF0y

> <s_epik_cmdline>
J2VwaWtfcHl0aG9uJywgJy1waCcsICc3LjAnLCAnLXRuJywgJzgnLCAnLW1hJywgJzIwMCcsICctbWV0YWxfYmluZGluZycsICctaW1hZScsICc8aW5maWxlLm1hZT4nLCAnLW9tYWUnLCAnPG91dGZpbGUubWFlPic=

> <r_epik_Ionization_Penalty>
6.14345

> <r_epik_Ionization_Penalty_Charging>
6.13946

> <r_epik_Ionization_Penalty_Neutral>
0.00398477

> <r_epik_State_Penalty>
6.94483

> <r_epik_Charging_Adjusted_Penalty>
13.0843

> <i_epik_Tot_Q>
0

> <i_epik_Tot_abs_Q>
2

> <r_epik_Metal_State_Penalty>
2.87819

> <b_epik_Metal_Only>
1

> <s_lp_Force_Field>
OPLS_2005

> <r_lp_Energy>
13.1486

> <b_lp_Chiralities_Consistent>
1

> <s_lp_Variant>
AV-unprocessed.smi:1200-4

> <Gold.Version>
5.8.1

> <Gold.Id.Protein>
6NUR|6NUR_protein|mol2

> <Gold.PLP.Fitness>
43.7326

> <Gold.PLP.PLP>
-29.6035

> <Gold.PLP.part.hbond>
-4.0000

> <Gold.PLP.part.metal>
0.0000

> <Gold.PLP.part.buried>
-3.8719

> <Gold.PLP.part.nonpolar>
-21.4009

> <Gold.PLP.part.repulsive>
0.3845

> <Gold.PLP.ligand.clash>
0.0000

> <Gold.PLP.ligand.torsion>
1.2224

> <Gold.PLP.Chemscore.Hbond>
4.5120

> <Gold.PLP.Chemscore.CHOScore>
1.0000

> <Gold.PLP.Chemscore.Metal>
0.0000

> <Gold.Chemscore.Hbonds>
donor molecule, donor type, donor heavy atom, donor atom, acceptor molecule, acceptor atom, score
      L1  H    10    32       P1 10175  0.93
      L1  H    13    33       P1 10175  0.80
      P1  H  7989  7998       L1     4  0.82
      P1  H  7997  8010       L1     2  1.49
      L1  C    19    37       P1  7948  0.86

> <Gold.PLP.Chemscore.Internal.Correction>
0.0379

> <Gold.Rescore>
     Score         DG    S(hbond)    S(metal)    S(lipo)     H(rot)  DE(clash)    DE(int)     intcor
     15.72     -19.67       3.50        0.00      57.13       1.63       0.06       3.89       ----

> <Gold.Chemscore.Fitness>
15.7155

> <Gold.Chemscore.DG>
-19.6676

> <Gold.Chemscore.ZeroCoef>
-5.4800

> <Gold.Chemscore.Hbond>
3.4975

> <Gold.Chemscore.Metal>
0.0000

> <Gold.Chemscore.Lipo>
57.1339

> <Gold.Chemscore.Internal_Hbond>
0.0000

> <Gold.Chemscore.DEClash>
0.0627

> <Gold.Chemscore.DEInternal>
3.8895

> <Gold.Chemscore.Rot>
1.6323

> <Gold.Chemscore.Internal.Correction>
   9.000000E+99

> <Gold.Chemscore.Hbonds>
donor molecule, donor type, donor heavy atom, donor atom, acceptor molecule, acceptor atom, score
      L1  H    10    32       P1 10175  0.91
      L1  H    13    33       P1 10175  0.76
      P1  H  7989  7998       L1     4  0.72
      P1  H  7997  8010       L1     2  0.12

> <Gold.Chemscore.Hbond.Weighted>
-11.6815

> <Gold.Chemscore.Metal.Weighted>
-0.0000

> <Gold.Chemscore.Lipo.Weighted>
-6.6847

> <Gold.Chemscore.Internal_Hbond.Weighted>
0.0000

> <Gold.Chemscore.DEClash.Weighted>
0.0627

> <Gold.Chemscore.DEInternal.Weighted>
3.8895

> <Gold.Chemscore.Rot.Weighted>
4.1786

> <Gold.Chemscore.Internal.Correction.Weighted>
   9.000000E+99

> <Gold.Protein.RotatedTorsions>
[ 6907 6896 6895 6894 ] final   28.14 input  -60.11 | X-H torsion
[ 7974 7965 7964 7962 ] final   74.65 input  175.53 | X-H torsion
[ 8008 7997 7996 7995 ] final   51.27 input   59.86 | X-H torsion
[ 10167 10162 10161 10158 ] final -143.25 input  -65.29 | X-H torsion
[ 10718 10713 10712 10709 ] final  171.50 input   66.30 | X-H torsion
[ 10763 10752 10751 10750 ] final -146.36 input  -60.55 | X-H torsion
[ 11005 11000 10999 10996 ] final  -93.22 input  -57.11 | X-H torsion

> <Gold.Protein.ActiveResidues>
 VAL166  LYS551  ARG553  GLY616  TRP617  ASP618  TYR619  PRO620  LYS621  CYS622 
 ASP623  PHE694  ASN695  SER759  ASP760  ASP761  ALA762  ILE779  LEU786  VAL792 
 PHE793  MET794  SER795  GLU796  ALA797  LYS798  CYS799  TRP800  GLU811  SER814 

> <Gold.Protein.RotatedAtoms>
  152.0126  134.9867  160.0568 H   0  0  0  0  0  0  0  0  0  0  0  0  # atno 6907 bound_to 6896
  152.1414  133.4461  159.4777 H   0  0  0  0  0  0  0  0  0  0  0  0  # atno 6908 bound_to 6896
  150.6865  134.2219  159.4443 H   0  0  0  0  0  0  0  0  0  0  0  0  # atno 6909 bound_to 6896
  145.7255  139.2664  143.1571 H   0  0  0  0  0  0  0  0  0  0  0  0  # atno 7974 bound_to 7965
  155.4325  140.3451  155.4281 H   0  0  0  0  0  0  0  0  0  0  0  0  # atno 8008 bound_to 7997
  156.1328  140.1519  156.9070 H   0  0  0  0  0  0  0  0  0  0  0  0  # atno 8009 bound_to 7997
  154.4908  140.0842  156.7570 H   0  0  0  0  0  0  0  0  0  0  0  0  # atno 8010 bound_to 7997
  139.8011  143.7832  152.2658 H   0  0  0  0  0  0  0  0  0  0  0  0  # atno 10167 bound_to 10162
  156.9926  131.0152  151.2852 H   0  0  0  0  0  0  0  0  0  0  0  0  # atno 10718 bound_to 10713
  154.8340  135.3388  154.6649 H   0  0  0  0  0  0  0  0  0  0  0  0  # atno 10763 bound_to 10752
  153.7266  135.6955  153.5004 H   0  0  0  0  0  0  0  0  0  0  0  0  # atno 10764 bound_to 10752
  153.2343  135.4406  155.0581 H   0  0  0  0  0  0  0  0  0  0  0  0  # atno 10765 bound_to 10752
  141.1502  133.7873  157.0129 H   0  0  0  0  0  0  0  0  0  0  0  0  # atno 11005 bound_to 11000
  146.0586  140.7994  142.9746 LP  0  0  0  0  0  0  0  0  0  0  0  0  # atno 17320 bound_to 7965
  144.6906  140.3162  143.7240 LP  0  0  0  0  0  0  0  0  0  0  0  0  # atno 17321 bound_to 7965
  139.7952  144.7395  150.9899 LP  0  0  0  0  0  0  0  0  0  0  0  0  # atno 17342 bound_to 10162
  140.7820  143.4401  151.0565 LP  0  0  0  0  0  0  0  0  0  0  0  0  # atno 17343 bound_to 10162
  157.5448  130.8143  149.8072 LP  0  0  0  0  0  0  0  0  0  0  0  0  # atno 17370 bound_to 10713
  156.0201  130.3798  150.1987 LP  0  0  0  0  0  0  0  0  0  0  0  0  # atno 17371 bound_to 10713
  140.0866  134.9617  157.1709 LP  0  0  0  0  0  0  0  0  0  0  0  0  # atno 17394 bound_to 11000
  140.3503  134.2605  155.7199 LP  0  0  0  0  0  0  0  0  0  0  0  0  # atno 17395 bound_to 11000

$$$$
