#       Name:                AV-unprocessed.smi:227
#       Creating user name   scv26
#       Creation time:       Thu Mar 26 20:22:20 2020


#       File generated by GOLD software.
#

@<TRIPOS>MOLECULE
AV-unprocessed.smi:227
    64    68     1
SMALL
NO_CHARGES


@<TRIPOS>ATOM
      1 ****        -2.0004   0.3279   0.5237 O.3            1 S1                 0.0000
      2 ****        -2.0446   0.4815   1.9283 C.3            1 S1                 0.0000
      3 ****        -1.2497   1.7273   2.4013 C.3            1 S1                 0.0000
      4 ****         0.2810   1.4729   2.4468 C.3            1 S1                 0.0000
      5 ****         0.8304   0.9837   1.1956 N.pl3          1 S1                 0.0000
      6 ****         1.0956   1.7277   0.0702 C.2            1 S1                 0.0000
      7 ****         1.5659   1.0519  -0.9417 N.2            1 S1                 0.0000
      8 ****         1.6262  -0.2595  -0.4832 C.ar           1 S1                 0.0000
      9 ****         2.0061  -1.5048  -1.0640 C.ar           1 S1                 0.0000
     10 ****         2.4097  -1.6480  -2.3557 N.3            1 S1                 0.0000
     11 ****         2.3716  -2.9445  -3.0152 C.3            1 S1                 0.0000
     12 ****         3.1164  -2.6620  -4.3312 C.3            1 S1                 0.0000
     13 ****         2.6808  -1.2154  -4.6180 C.3            1 S1                 0.0000
     14 ****         1.7325  -0.9439  -3.4359 C.3            1 S1                 0.0000
     15 ****         0.4180  -1.7308  -3.6726 C.3            1 S1                 0.0000
     16 ****        -0.7812  -1.2261  -2.8457 C.3            1 S1                 0.0000
     17 ****        -1.9569  -1.9084  -3.2264 O.3            1 S1                 0.0000
     18 ****         0.8737  -3.1608  -3.3169 C.3            1 S1                 0.0000
     19 ****         1.9606  -2.6031  -0.2636 N.ar           1 S1                 0.0000
     20 ****         1.5393  -2.5060   1.0000 C.ar           1 S1                 0.0000
     21 ****         1.1250  -1.4235   1.6592 N.ar           1 S1                 0.0000
     22 ****         1.1897  -0.3125   0.8716 C.ar           1 S1                 0.0000
     23 ****        -1.7503   2.2222   3.7841 C.3            1 S1                 0.0000
     24 ****        -3.1981   2.6858   3.8197 C.3            1 S1                 0.0000
     25 ****        -3.2454   3.5227   5.0935 C.3            1 S1                 0.0000
     26 ****        -1.9462   4.0838   5.2367 O.3            1 S1                 0.0000
     27 ****        -1.0528   3.4851   4.3044 C.3            1 S1                 0.0000
     28 ****        -2.4848  -0.4496   0.2904 H              1 S1                 0.0000
     29 ****        -3.0985   0.5575   2.1891 H              1 S1                 0.0000
     30 ****        -1.6700  -0.4227   2.4092 H              1 S1                 0.0000
     31 ****        -1.4353   2.5313   1.6870 H              1 S1                 0.0000
     32 ****         0.8166   2.3883   2.6979 H              1 S1                 0.0000
     33 ****         0.5174   0.7550   3.2329 H              1 S1                 0.0000
     34 ****         0.9166   2.7919   0.0202 H              1 S1                 0.0000
     35 ****         2.8214  -3.7616  -2.4500 H              1 S1                 0.0000
     36 ****         4.1964  -2.7167  -4.1895 H              1 S1                 0.0000
     37 ****         2.8411  -3.3549  -5.1272 H              1 S1                 0.0000
     38 ****         3.5406  -0.5448  -4.5857 H              1 S1                 0.0000
     39 ****         2.2001  -1.0992  -5.5899 H              1 S1                 0.0000
     40 ****         1.5776   0.1229  -3.2859 H              1 S1                 0.0000
     41 ****         0.1456  -1.6708  -4.7278 H              1 S1                 0.0000
     42 ****        -0.6276  -1.3688  -1.7767 H              1 S1                 0.0000
     43 ****        -0.9319  -0.1587  -3.0091 H              1 S1                 0.0000
     44 ****        -2.1152  -1.7460  -4.1438 H              1 S1                 0.0000
     45 ****         0.7058  -3.8706  -4.1277 H              1 S1                 0.0000
     46 ****         0.3525  -3.5366  -2.4353 H              1 S1                 0.0000
     47 ****         1.5268  -3.4288   1.5607 H              1 S1                 0.0000
     48 ****        -1.6228   1.4276   4.5214 H              1 S1                 0.0000
     49 ****        -3.4197   3.3116   2.9539 H              1 S1                 0.0000
     50 ****        -3.9189   1.8686   3.8441 H              1 S1                 0.0000
     51 ****        -4.0127   4.2960   5.0544 H              1 S1                 0.0000
     52 ****        -3.4458   2.8887   5.9579 H              1 S1                 0.0000
     53 ****        -0.0918   3.2707   4.7726 H              1 S1                 0.0000
     54 ****        -0.8818   4.1946   3.4934 H              1 S1                 0.0000
     55 ****        -1.0507   0.2358   0.2245 LP             1 S1                 0.0000
     56 ****        -2.4123   1.1262   0.0842 LP             1 S1                 0.0000
     57 ****         1.8246   1.3986  -1.8433 LP             1 S1                 0.0000
     58 ****         3.3061  -1.3039  -2.0761 LP             1 S1                 0.0000
     59 ****        -2.7299  -1.5749  -2.6868 LP             1 S1                 0.0000
     60 ****        -1.8418  -2.8898  -3.0728 LP             1 S1                 0.0000
     61 ****         2.2451  -3.4913  -0.6243 LP             1 S1                 0.0000
     62 ****         0.8082  -1.4262   2.6076 LP             1 S1                 0.0000
     63 ****        -1.6148   3.9193   6.1657 LP             1 S1                 0.0000
     64 ****        -1.9901   5.0685   5.0680 LP             1 S1                 0.0000
@<TRIPOS>BOND
    1    1    2 1     
    2    1   28 1     
    3    2    3 1     
    4    2   29 1     
    5    2   30 1     
    6    3    4 1     
    7    3   23 1     
    8    3   31 1     
    9    4    5 1     
   10    4   32 1     
   11    4   33 1     
   12    5   22 1     
   13    5    6 1     
   14    6    7 2     
   15    6   34 1     
   16    7    8 1     
   17    8   22 ar    
   18    8    9 ar    
   19    9   10 1     
   20    9   19 ar    
   21   10   14 1     
   22   10   11 1     
   23   11   18 1     
   24   11   12 1     
   25   11   35 1     
   26   12   13 1     
   27   12   36 1     
   28   12   37 1     
   29   13   14 1     
   30   13   38 1     
   31   13   39 1     
   32   14   15 1     
   33   14   40 1     
   34   15   16 1     
   35   15   18 1     
   36   15   41 1     
   37   16   17 1     
   38   16   42 1     
   39   16   43 1     
   40   17   44 1     
   41   18   45 1     
   42   18   46 1     
   43   19   20 ar    
   44   20   21 ar    
   45   20   47 1     
   46   21   22 ar    
   47   23   27 1     
   48   23   24 1     
   49   23   48 1     
   50   24   25 1     
   51   24   49 1     
   52   24   50 1     
   53   25   26 1     
   54   25   51 1     
   55   25   52 1     
   56   26   27 1     
   57   27   53 1     
   58   27   54 1     
   59    1   55 1     
   60    1   56 1     
   61    7   57 1     
   62   10   58 1     
   63   17   59 1     
   64   17   60 1     
   65   19   61 1     
   66   21   62 1     
   67   26   63 1     
   68   26   64 1     
@<TRIPOS>SUBSTRUCTURE
      1 S1             1
@<TRIPOS>SET
LONE_PAIRS      STATIC     ATOMS    <user>   **** ""
10 55 56 57 58 59 60 61 62 63 64
DONOR_HYDROGENS      STATIC     ATOMS    <user>   **** ""
2 28 44
ATOM$BLUE        STATIC     ATOMS    COLORGROUP SYSTEM
10 55 56 57 58 59 60 61 62 63 64
ATOM$RED        STATIC     ATOMS    COLORGROUP SYSTEM
2 28 44
