AV-unprocessed.smi:1366|AV-procd|sdf|5571|dock1
  -GOLD-   22720 5163D 1   1.00000     0.00000
 Structure written by MMmdl.
 31 32  0  0  0  0  0  0  0  0  1 V2000
  150.2334  134.9299  154.6414 N   0  0  0  0  0  0  0  0  0  0  0  0
  150.4573  136.0308  154.9182 C   0  0  0  0  0  0  0  0  0  0  0  0
  150.7391  137.4166  155.2667 C   0  0  0  0  0  0  0  0  0  0  0  0
  151.3892  137.7303  156.4801 C   0  0  0  0  0  0  0  0  0  0  0  0
  151.6637  139.0041  156.8354 N   0  0  0  0  0  0  0  0  0  0  0  0
  151.2837  139.9536  155.9770 C   0  0  0  0  0  0  0  0  0  0  0  0
  151.6329  141.6405  156.4267 S   0  0  0  0  0  0  0  0  0  0  0  0
  151.5046  141.5791  158.2413 C   0  0  0  0  0  0  0  0  0  0  0  0
  152.0788  142.8356  158.9176 C   0  0  1  0  0  0  0  0  0  0  0  0
  151.6373  144.1273  158.2035 C   0  0  0  0  0  0  0  0  0  0  0  0
  152.1690  145.3594  158.9449 C   0  0  0  0  0  0  0  0  0  0  0  0
  151.7677  145.2874  160.4222 C   0  0  0  0  0  0  0  0  0  0  0  0
  152.1890  143.9384  161.0263 C   0  0  0  0  0  0  0  0  0  0  0  0
  151.6253  142.8716  160.2694 O   0  0  0  0  0  0  0  0  0  0  0  0
  150.6726  139.7850  154.8029 N   0  0  0  0  0  0  0  0  0  0  0  0
  150.3929  138.5147  154.4385 C   0  0  0  0  0  0  0  0  0  0  0  0
  149.7484  138.3544  153.2105 N   0  0  0  0  0  0  0  0  0  0  0  0
  151.6917  136.9591  157.1737 H   0  0  0  0  0  0  0  0  0  0  0  0
  150.4607  141.4370  158.5216 H   0  0  0  0  0  0  0  0  0  0  0  0
  152.0410  140.6951  158.5870 H   0  0  0  0  0  0  0  0  0  0  0  0
  153.1685  142.7829  158.9095 H   0  0  0  0  0  0  0  0  0  0  0  0
  151.9933  144.1307  157.1729 H   0  0  0  0  0  0  0  0  0  0  0  0
  150.5482  144.1703  158.1589 H   0  0  0  0  0  0  0  0  0  0  0  0
  153.2558  145.3978  158.8611 H   0  0  0  0  0  0  0  0  0  0  0  0
  151.7858  146.2732  158.4902 H   0  0  0  0  0  0  0  0  0  0  0  0
  152.2211  146.1088  160.9774 H   0  0  0  0  0  0  0  0  0  0  0  0
  150.6873  145.4049  160.5146 H   0  0  0  0  0  0  0  0  0  0  0  0
  153.2758  143.8447  161.0529 H   0  0  0  0  0  0  0  0  0  0  0  0
  151.8385  143.8634  162.0559 H   0  0  0  0  0  0  0  0  0  0  0  0
  149.4998  137.4413  152.8579 H   0  0  0  0  0  0  0  0  0  0  0  0
  149.5240  139.1481  152.6280 H   0  0  0  0  0  0  0  0  0  0  0  0
  1  2  3  0  0  0  0
  2  3  1  0  0  0  0
  3 16  1  0  0  0  0
  3  4  2  0  0  0  0
  4  5  1  0  0  0  0
  4 18  1  0  0  0  0
  5  6  2  0  0  0  0
  6  7  1  0  0  0  0
  6 15  1  0  0  0  0
  7  8  1  0  0  0  0
  8  9  1  0  0  0  0
  8 19  1  0  0  0  0
  8 20  1  0  0  0  0
  9 14  1  0  0  0  0
  9 10  1  0  0  0  0
  9 21  1  0  0  0  0
 10 11  1  0  0  0  0
 10 22  1  0  0  0  0
 10 23  1  0  0  0  0
 11 12  1  0  0  0  0
 11 24  1  0  0  0  0
 11 25  1  0  0  0  0
 12 13  1  0  0  0  0
 12 26  1  0  0  0  0
 12 27  1  0  0  0  0
 13 14  1  0  0  0  0
 13 28  1  0  0  0  0
 13 29  1  0  0  0  0
 15 16  2  0  0  0  0
 16 17  1  0  0  0  0
 17 30  1  0  0  0  0
 17 31  1  0  0  0  0
M  END
> <s_m_source_file>
AV-unprocessed.smi

> <i_m_source_file_index>
1366

> <i_lp_mmshare_version>
43012

> <i_f3d_flags>
0

> <s_epik_input>
TiNDYzFbY0hdbmMobmMxW05IMl0pU1tDSDJdW0NAQEhdMltDSDJdW0NIMl1bQ0gyXVtDSDJdTzI=

> <s_epik_cmdline>
J2VwaWtfcHl0aG9uJywgJy1waCcsICc3LjAnLCAnLXRuJywgJzgnLCAnLW1hJywgJzIwMCcsICctbWV0YWxfYmluZGluZycsICctaW1hZScsICc8aW5maWxlLm1hZT4nLCAnLW9tYWUnLCAnPG91dGZpbGUubWFlPic=

> <r_lp_tautomer_probability>
1

> <r_epik_Ionization_Penalty>
5.69531e-05

> <r_epik_Ionization_Penalty_Charging>
0

> <r_epik_Ionization_Penalty_Neutral>
5.69531e-05

> <r_epik_State_Penalty>
-0

> <r_epik_Charging_Adjusted_Penalty>
0

> <i_epik_Tot_Q>
0

> <i_epik_Tot_abs_Q>
0

> <r_epik_Metal_State_Penalty>
-0

> <b_epik_Metal_Only>
0

> <s_lp_Force_Field>
OPLS_2005

> <r_lp_Energy>
5.10679

> <b_lp_Chiralities_Consistent>
1

> <s_lp_Variant>
AV-unprocessed.smi:1366-2

> <Gold.Version>
5.8.1

> <Gold.Id.Protein>
6NUR|6NUR_protein|mol2

> <Gold.PLP.Fitness>
43.0573

> <Gold.PLP.PLP>
-35.1083

> <Gold.PLP.part.hbond>
-3.9158

> <Gold.PLP.part.metal>
0.0000

> <Gold.PLP.part.buried>
-6.1731

> <Gold.PLP.part.nonpolar>
-26.0520

> <Gold.PLP.part.repulsive>
0.3701

> <Gold.PLP.ligand.clash>
0.0000

> <Gold.PLP.ligand.torsion>
0.5339

> <Gold.PLP.Chemscore.Hbond>
3.0000

> <Gold.PLP.Chemscore.CHOScore>
0.0000

> <Gold.PLP.Chemscore.Metal>
0.0000

> <Gold.Chemscore.Hbonds>
donor molecule, donor type, donor heavy atom, donor atom, acceptor molecule, acceptor atom, score
      L1  H    17    30       P1  7948  1.00
      L1  H    17    31       P1  7957  1.00
      P1  H  7989  7998       L1    15  1.00

> <Gold.PLP.Chemscore.Internal.Correction>
0.0169

> <Gold.Rescore>
     Score         DG    S(hbond)    S(metal)    S(lipo)     H(rot)  DE(clash)    DE(int)     intcor
     18.01     -19.80       2.65        0.00      84.53       1.73       1.31       0.48       ----

> <Gold.Chemscore.Fitness>
18.0146

> <Gold.Chemscore.DG>
-19.7992

> <Gold.Chemscore.ZeroCoef>
-5.4800

> <Gold.Chemscore.Hbond>
2.6493

> <Gold.Chemscore.Metal>
0.0000

> <Gold.Chemscore.Lipo>
84.5346

> <Gold.Chemscore.Internal_Hbond>
0.0000

> <Gold.Chemscore.DEClash>
1.3071

> <Gold.Chemscore.DEInternal>
0.4776

> <Gold.Chemscore.Rot>
1.7266

> <Gold.Chemscore.Internal.Correction>
   9.000000E+99

> <Gold.Chemscore.Hbonds>
donor molecule, donor type, donor heavy atom, donor atom, acceptor molecule, acceptor atom, score
      L1  H    17    30       P1  7948  0.78
      L1  H    17    31       P1  7957  0.94
      P1  H  7989  7998       L1    15  0.55

> <Gold.Chemscore.Hbond.Weighted>
-8.8486

> <Gold.Chemscore.Metal.Weighted>
-0.0000

> <Gold.Chemscore.Lipo.Weighted>
-9.8905

> <Gold.Chemscore.Internal_Hbond.Weighted>
0.0000

> <Gold.Chemscore.DEClash.Weighted>
1.3071

> <Gold.Chemscore.DEInternal.Weighted>
0.4776

> <Gold.Chemscore.Rot.Weighted>
4.4200

> <Gold.Chemscore.Internal.Correction.Weighted>
   9.000000E+99

> <Gold.Protein.RotatedTorsions>
[ 6907 6896 6895 6894 ] final  -30.84 input  -60.11 | X-H torsion
[ 7974 7965 7964 7962 ] final   39.64 input  175.53 | X-H torsion
[ 8008 7997 7996 7995 ] final  135.75 input   59.86 | X-H torsion
[ 10167 10162 10161 10158 ] final -144.57 input  -65.29 | X-H torsion
[ 10718 10713 10712 10709 ] final   21.17 input   66.30 | X-H torsion
[ 10763 10752 10751 10750 ] final -138.69 input  -60.55 | X-H torsion
[ 11005 11000 10999 10996 ] final   20.98 input  -57.11 | X-H torsion

> <Gold.Protein.ActiveResidues>
 VAL166  LYS551  ARG553  GLY616  TRP617  ASP618  TYR619  PRO620  LYS621  CYS622 
 ASP623  PHE694  ASN695  SER759  ASP760  ASP761  ALA762  ILE779  LEU786  VAL792 
 PHE793  MET794  SER795  GLU796  ALA797  LYS798  CYS799  TRP800  GLU811  SER814 

> <Gold.Protein.RotatedAtoms>
  151.1001  134.9967  159.8444 H   0  0  0  0  0  0  0  0  0  0  0  0  # atno 6907 bound_to 6896
  152.5436  134.1960  159.8703 H   0  0  0  0  0  0  0  0  0  0  0  0  # atno 6908 bound_to 6896
  151.2003  133.4571  159.2629 H   0  0  0  0  0  0  0  0  0  0  0  0  # atno 6909 bound_to 6896
  146.0968  139.5627  142.9440 H   0  0  0  0  0  0  0  0  0  0  0  0  # atno 7974 bound_to 7965
  156.3003  140.2463  156.3633 H   0  0  0  0  0  0  0  0  0  0  0  0  # atno 8008 bound_to 7997
  154.8857  140.0411  157.1828 H   0  0  0  0  0  0  0  0  0  0  0  0  # atno 8009 bound_to 7997
  154.8650  140.2926  155.5520 H   0  0  0  0  0  0  0  0  0  0  0  0  # atno 8010 bound_to 7997
  139.7886  143.7998  152.2647 H   0  0  0  0  0  0  0  0  0  0  0  0  # atno 10167 bound_to 10162
  157.1347  130.6606  149.5962 H   0  0  0  0  0  0  0  0  0  0  0  0  # atno 10718 bound_to 10713
  154.8630  135.3604  154.5426 H   0  0  0  0  0  0  0  0  0  0  0  0  # atno 10763 bound_to 10752
  153.6047  135.7011  153.5375 H   0  0  0  0  0  0  0  0  0  0  0  0  # atno 10764 bound_to 10752
  153.3261  135.4137  155.1418 H   0  0  0  0  0  0  0  0  0  0  0  0  # atno 10765 bound_to 10752
  140.3966  134.1762  155.7663 H   0  0  0  0  0  0  0  0  0  0  0  0  # atno 11005 bound_to 11000
  145.5933  141.0366  143.2058 LP  0  0  0  0  0  0  0  0  0  0  0  0  # atno 17320 bound_to 7965
  144.7401  139.7472  143.7314 LP  0  0  0  0  0  0  0  0  0  0  0  0  # atno 17321 bound_to 7965
  139.8082  144.7346  150.9732 LP  0  0  0  0  0  0  0  0  0  0  0  0  # atno 17342 bound_to 10162
  140.7820  143.4276  151.0743 LP  0  0  0  0  0  0  0  0  0  0  0  0  # atno 17343 bound_to 10162
  155.9800  130.4798  150.6751 LP  0  0  0  0  0  0  0  0  0  0  0  0  # atno 17370 bound_to 10713
  157.4361  131.0855  151.0990 LP  0  0  0  0  0  0  0  0  0  0  0  0  # atno 17371 bound_to 10713
  141.1872  133.8287  157.1042 LP  0  0  0  0  0  0  0  0  0  0  0  0  # atno 17394 bound_to 11000
  140.0367  134.9875  157.0884 LP  0  0  0  0  0  0  0  0  0  0  0  0  # atno 17395 bound_to 11000

$$$$
