#       Name:                AV-unprocessed.smi:265
#       Creating user name   scv26
#       Creation time:       Thu Mar 26 21:22:01 2020


#       File generated by GOLD software.
#

@<TRIPOS>MOLECULE
AV-unprocessed.smi:265
    64    68     1
SMALL
NO_CHARGES


@<TRIPOS>ATOM
      1 ****        -2.2720  -2.8274  -5.4615 C.3            1 S1                 0.0000
      2 ****        -3.1574  -1.8064  -4.7300 C.3            1 S1                 0.0000
      3 ****        -4.3012  -2.5035  -4.2414 O.3            1 S1                 0.0000
      4 ****        -4.7295  -1.9023  -3.0322 C.3            1 S1                 0.0000
      5 ****        -3.4135  -1.5770  -2.3434 C.3            1 S1                 0.0000
      6 ****        -2.5335  -1.0980  -3.4944 C.3            1 S1                 0.0000
      7 ****        -2.7409   0.2965  -3.6501 O.3            1 S1                 0.0000
      8 ****        -1.0183  -1.3315  -3.2579 C.3            1 S1                 0.0000
      9 ****        -0.5084  -0.6660  -2.0684 N.pl3          1 S1                 0.0000
     10 ****        -0.0426   0.6267  -1.9869 C.2            1 S1                 0.0000
     11 ****         0.3639   0.9984  -0.8041 N.2            1 S1                 0.0000
     12 ****         0.1731  -0.1264  -0.0103 C.ar           1 S1                 0.0000
     13 ****         0.3981  -0.4181   1.3648 C.ar           1 S1                 0.0000
     14 ****         0.9333   0.4833   2.2263 N.3            1 S1                 0.0000
     15 ****         0.6477   0.3157   3.6556 C.3            1 S1                 0.0000
     16 ****         1.0150   1.5826   4.4517 C.3            1 S1                 0.0000
     17 ****         2.4693   1.9777   4.1635 C.3            1 S1                 0.0000
     18 ****         2.8268   3.1981   4.7945 O.3            1 S1                 0.0000
     19 ****         4.2188   3.5124   4.6747 C.3            1 S1                 0.0000
     20 ****         4.7492   3.3432   3.2348 C.2            1 S1                 0.0000
     21 ****         5.8458   3.8050   2.9282 O.2            1 S1                 0.0000
     22 ****         4.0018   2.6492   2.3611 N.am           1 S1                 0.0000
     23 ****         2.6492   2.1946   2.6530 C.3            1 S1                 0.0000
     24 ****         2.2952   0.9073   1.8939 C.3            1 S1                 0.0000
     25 ****         0.0589  -1.6595   1.8048 N.ar           1 S1                 0.0000
     26 ****        -0.4502  -2.5596   0.9584 C.ar           1 S1                 0.0000
     27 ****        -0.7020  -2.4296  -0.3454 N.ar           1 S1                 0.0000
     28 ****        -0.3776  -1.1820  -0.7906 C.ar           1 S1                 0.0000
     29 ****         3.1261   1.1806   4.5195 H              1 S1                 0.0000
     30 ****         1.9745   2.9871   2.3235 H              1 S1                 0.0000
     31 ****        -1.3808  -2.3575  -5.8776 H              1 S1                 0.0000
     32 ****        -2.8155  -3.2822  -6.2898 H              1 S1                 0.0000
     33 ****        -1.9563  -3.6322  -4.7972 H              1 S1                 0.0000
     34 ****        -3.5037  -1.0696  -5.4573 H              1 S1                 0.0000
     35 ****        -5.2972  -0.9962  -3.2488 H              1 S1                 0.0000
     36 ****        -5.3574  -2.5752  -2.4479 H              1 S1                 0.0000
     37 ****        -3.5170  -0.8541  -1.5330 H              1 S1                 0.0000
     38 ****        -3.0084  -2.4964  -1.9196 H              1 S1                 0.0000
     39 ****        -3.6640   0.4477  -3.7847 H              1 S1                 0.0000
     40 ****        -0.8042  -2.3959  -3.1595 H              1 S1                 0.0000
     41 ****        -0.4425  -0.9778  -4.1142 H              1 S1                 0.0000
     42 ****        -0.0201   1.2917  -2.8380 H              1 S1                 0.0000
     43 ****        -0.4098   0.0906   3.8013 H              1 S1                 0.0000
     44 ****         1.2138  -0.5357   4.0362 H              1 S1                 0.0000
     45 ****         0.3464   2.3985   4.1739 H              1 S1                 0.0000
     46 ****         0.8735   1.4108   5.5189 H              1 S1                 0.0000
     47 ****         4.3827   4.5366   5.0107 H              1 S1                 0.0000
     48 ****         4.7918   2.8610   5.3355 H              1 S1                 0.0000
     49 ****         4.3559   2.5037   1.4267 H              1 S1                 0.0000
     50 ****         2.9876   0.1083   2.1632 H              1 S1                 0.0000
     51 ****         2.4111   1.0749   0.8237 H              1 S1                 0.0000
     52 ****        -0.6877  -3.5220   1.3871 H              1 S1                 0.0000
     53 ****        -4.0637  -3.4603  -4.0738 LP             1 S1                 0.0000
     54 ****        -5.0363  -2.4560  -4.9177 LP             1 S1                 0.0000
     55 ****        -2.2256   0.6284  -4.4402 LP             1 S1                 0.0000
     56 ****        -2.4363   0.7771  -2.8278 LP             1 S1                 0.0000
     57 ****         0.7291   1.8885  -0.5313 LP             1 S1                 0.0000
     58 ****         0.3715   1.2896   2.0411 LP             1 S1                 0.0000
     59 ****         2.5991   3.1315   5.7659 LP             1 S1                 0.0000
     60 ****         2.2977   3.9374   4.3780 LP             1 S1                 0.0000
     61 ****         6.3930   4.2894   3.6108 LP             1 S1                 0.0000
     62 ****         6.1912   3.6964   1.9960 LP             1 S1                 0.0000
     63 ****         0.1912  -1.8999   2.7664 LP             1 S1                 0.0000
     64 ****        -1.0800  -3.1539  -0.9221 LP             1 S1                 0.0000
@<TRIPOS>BOND
    1    1    2 1     
    2    1   31 1     
    3    1   32 1     
    4    1   33 1     
    5    2    6 1     
    6    2    3 1     
    7    2   34 1     
    8    3    4 1     
    9    4    5 1     
   10    4   35 1     
   11    4   36 1     
   12    5    6 1     
   13    5   37 1     
   14    5   38 1     
   15    6    7 1     
   16    6    8 1     
   17    7   39 1     
   18    8    9 1     
   19    8   40 1     
   20    8   41 1     
   21    9   28 1     
   22    9   10 1     
   23   10   11 2     
   24   10   42 1     
   25   11   12 1     
   26   12   28 ar    
   27   12   13 ar    
   28   13   14 1     
   29   13   25 ar    
   30   14   24 1     
   31   14   15 1     
   32   15   16 1     
   33   15   43 1     
   34   15   44 1     
   35   16   17 1     
   36   16   45 1     
   37   16   46 1     
   38   17   29 1     
   39   17   23 1     
   40   17   18 1     
   41   18   19 1     
   42   19   20 1     
   43   19   47 1     
   44   19   48 1     
   45   20   21 2     
   46   20   22 am    
   47   22   23 1     
   48   22   49 1     
   49   23   30 1     
   50   23   24 1     
   51   24   50 1     
   52   24   51 1     
   53   25   26 ar    
   54   26   27 ar    
   55   26   52 1     
   56   27   28 ar    
   57    3   53 1     
   58    3   54 1     
   59    7   55 1     
   60    7   56 1     
   61   11   57 1     
   62   14   58 1     
   63   18   59 1     
   64   18   60 1     
   65   21   61 1     
   66   21   62 1     
   67   25   63 1     
   68   27   64 1     
@<TRIPOS>SUBSTRUCTURE
      1 S1             1
@<TRIPOS>SET
LONE_PAIRS      STATIC     ATOMS    <user>   **** ""
12 53 54 55 56 57 58 59 60 61 62 63 64
DONOR_HYDROGENS      STATIC     ATOMS    <user>   **** ""
2 39 49
ATOM$BLUE        STATIC     ATOMS    COLORGROUP SYSTEM
12 53 54 55 56 57 58 59 60 61 62 63 64
ATOM$RED        STATIC     ATOMS    COLORGROUP SYSTEM
2 39 49
