AV-unprocessed.smi:1750|AV-procd|sdf|7054|dock7
  -GOLD-   22720 8273D 1   1.00000     0.00000
 Structure written by MMmdl.
 35 36  0  0  0  0  0  0  0  0  2 V2000
  152.2390  142.8178  159.9283 C   0  0  0  0  0  0  0  0  0  0  0  0
  152.9282  141.4540  159.8130 C   0  0  0  0  0  0  0  0  0  0  0  0
  152.1194  140.4529  158.9764 C   0  0  0  0  0  0  0  0  0  0  0  0
  152.7923  139.1254  158.8654 C   0  0  0  0  0  0  0  0  0  0  0  0
  153.9956  138.9663  158.3080 N   0  0  0  0  0  0  0  0  0  0  0  0
  154.3945  137.6376  158.2961 N   0  0  0  0  0  0  0  0  0  0  0  0
  153.4779  136.8086  158.8159 C   0  0  0  0  0  0  0  0  0  0  0  0
  153.6659  135.4806  158.8929 N   0  5  0  0  0  0  0  0  0  0  0  0
  154.3696  134.8419  157.9305 C   0  0  0  0  0  0  0  0  0  0  0  0
  155.0430  135.3717  157.0436 O   0  0  0  0  0  0  0  0  0  0  0  0
  154.2887  133.5068  157.9975 N   0  0  0  0  0  0  0  0  0  0  0  0
  154.9522  132.5777  157.0913 C   0  0  0  0  0  0  0  0  0  0  0  0
  154.0110  131.4306  156.6972 C   0  0  2  0  0  0  0  0  0  0  0  0
  154.5101  130.5565  155.5486 C   0  0  0  0  0  0  0  0  0  0  0  0
  153.2313  129.9397  155.0072 C   0  0  0  0  0  0  0  0  0  0  0  0
  152.1247  130.8709  155.5143 C   0  0  0  0  0  0  0  0  0  0  0  0
  152.7915  131.9369  156.1793 O   0  0  0  0  0  0  0  0  0  0  0  0
  152.0326  137.6346  159.3971 S   0  0  0  0  0  0  0  0  0  0  0  0
  152.8344  143.5035  160.5313 H   0  0  0  0  0  0  0  0  0  0  0  0
  151.2596  142.7253  160.3981 H   0  0  0  0  0  0  0  0  0  0  0  0
  152.0998  143.2723  158.9471 H   0  0  0  0  0  0  0  0  0  0  0  0
  153.9151  141.5880  159.3685 H   0  0  0  0  0  0  0  0  0  0  0  0
  153.0923  141.0475  160.8117 H   0  0  0  0  0  0  0  0  0  0  0  0
  151.1310  140.3098  159.4150 H   0  0  0  0  0  0  0  0  0  0  0  0
  151.9605  140.8455  157.9716 H   0  0  0  0  0  0  0  0  0  0  0  0
  153.7295  133.1087  158.7372 H   0  0  0  0  0  0  0  0  0  0  0  0
  155.2773  133.1091  156.1955 H   0  0  0  0  0  0  0  0  0  0  0  0
  155.8486  132.1841  157.5730 H   0  0  0  0  0  0  0  0  0  0  0  0
  153.7886  130.8102  157.5677 H   0  0  0  0  0  0  0  0  0  0  0  0
  154.9733  131.1758  154.7792 H   0  0  0  0  0  0  0  0  0  0  0  0
  155.2401  129.8121  155.8677 H   0  0  0  0  0  0  0  0  0  0  0  0
  153.2493  129.8749  153.9188 H   0  0  0  0  0  0  0  0  0  0  0  0
  153.0871  128.9331  155.4015 H   0  0  0  0  0  0  0  0  0  0  0  0
  151.4996  131.2530  154.7069 H   0  0  0  0  0  0  0  0  0  0  0  0
  151.4808  130.3494  156.2235 H   0  0  0  0  0  0  0  0  0  0  0  0
  1  2  1  0  0  0  0
  1 19  1  0  0  0  0
  1 20  1  0  0  0  0
  1 21  1  0  0  0  0
  2  3  1  0  0  0  0
  2 22  1  0  0  0  0
  2 23  1  0  0  0  0
  3  4  1  0  0  0  0
  3 24  1  0  0  0  0
  3 25  1  0  0  0  0
  4 18  1  0  0  0  0
  4  5  2  0  0  0  0
  5  6  1  0  0  0  0
  6  7  2  0  0  0  0
  7  8  1  0  0  0  0
  7 18  1  0  0  0  0
  8  9  1  0  0  0  0
  9 10  2  0  0  0  0
  9 11  1  0  0  0  0
 11 12  1  0  0  0  0
 11 26  1  0  0  0  0
 12 13  1  0  0  0  0
 12 27  1  0  0  0  0
 12 28  1  0  0  0  0
 13 17  1  0  0  0  0
 13 14  1  0  0  0  0
 13 29  1  0  0  0  0
 14 15  1  0  0  0  0
 14 30  1  0  0  0  0
 14 31  1  0  0  0  0
 15 16  1  0  0  0  0
 15 32  1  0  0  0  0
 15 33  1  0  0  0  0
 16 17  1  0  0  0  0
 16 34  1  0  0  0  0
 16 35  1  0  0  0  0
M  CHG  1   8  -1
M  END
> <s_m_source_file>
AV-unprocessed.smi

> <i_m_source_file_index>
1750

> <i_lp_mmshare_version>
43012

> <i_f3d_flags>
0

> <s_epik_input>
W0NIM11bQ0gyXVtDSDJdYzFubmMoczEpW05IXUMoPU8pW05IXVtDSDJdW0NAQEhdMltDSDJdW0NIMl1bQ0gyXU8y

> <s_epik_cmdline>
J2VwaWtfcHl0aG9uJywgJy1waCcsICc3LjAnLCAnLXRuJywgJzgnLCAnLW1hJywgJzIwMCcsICctbWV0YWxfYmluZGluZycsICctaW1hZScsICc8aW5maWxlLm1hZT4nLCAnLW9tYWUnLCAnPG91dGZpbGUubWFlPic=

> <r_lp_tautomer_probability>
1

> <r_epik_Ionization_Penalty>
4.22484

> <r_epik_Ionization_Penalty_Charging>
4.21437

> <r_epik_Ionization_Penalty_Neutral>
0.0104685

> <r_epik_State_Penalty>
4.21389

> <r_epik_Charging_Adjusted_Penalty>
8.42826

> <i_epik_Tot_Q>
-1

> <i_epik_Tot_abs_Q>
1

> <r_epik_Metal_State_Penalty>
0.69377

> <b_epik_Metal_Only>
1

> <s_lp_Force_Field>
OPLS_2005

> <r_lp_Energy>
11.1337

> <b_lp_Chiralities_Consistent>
1

> <s_lp_Variant>
AV-unprocessed.smi:1750-3

> <Gold.Version>
5.8.1

> <Gold.Id.Protein>
6NUR|6NUR_protein|mol2

> <Gold.PLP.Fitness>
37.4882

> <Gold.PLP.PLP>
-26.2869

> <Gold.PLP.part.hbond>
-3.0000

> <Gold.PLP.part.metal>
0.0000

> <Gold.PLP.part.buried>
-2.7805

> <Gold.PLP.part.nonpolar>
-20.0312

> <Gold.PLP.part.repulsive>
0.1333

> <Gold.PLP.ligand.clash>
0.0000

> <Gold.PLP.ligand.torsion>
0.4171

> <Gold.PLP.Chemscore.Hbond>
4.0000

> <Gold.PLP.Chemscore.CHOScore>
0.0000

> <Gold.PLP.Chemscore.Metal>
0.0000

> <Gold.Chemscore.Hbonds>
donor molecule, donor type, donor heavy atom, donor atom, acceptor molecule, acceptor atom, score
      P1  H  6896  6908       L1     8  1.66
      P1  H  7997  8010       L1     5  1.00
      P1  H 10752 10765       L1    10  1.00

> <Gold.PLP.Chemscore.Internal.Correction>
0.0354

> <Gold.Rescore>
     Score         DG    S(hbond)    S(metal)    S(lipo)     H(rot)  DE(clash)    DE(int)     intcor
     15.98     -18.09       2.71        0.00      65.24       1.59       0.09       2.02       ----

> <Gold.Chemscore.Fitness>
15.9788

> <Gold.Chemscore.DG>
-18.0927

> <Gold.Chemscore.ZeroCoef>
-5.4800

> <Gold.Chemscore.Hbond>
2.7111

> <Gold.Chemscore.Metal>
0.0000

> <Gold.Chemscore.Lipo>
65.2440

> <Gold.Chemscore.Internal_Hbond>
0.0000

> <Gold.Chemscore.DEClash>
0.0947

> <Gold.Chemscore.DEInternal>
2.0191

> <Gold.Chemscore.Rot>
1.5922

> <Gold.Chemscore.Internal.Correction>
   9.000000E+99

> <Gold.Chemscore.Hbonds>
donor molecule, donor type, donor heavy atom, donor atom, acceptor molecule, acceptor atom, score
      P1  H  6896  6908       L1     8  0.69
      P1  H  7997  8010       L1     5  0.81
      P1  H 10752 10765       L1    10  0.91

> <Gold.Chemscore.Hbond.Weighted>
-9.0552

> <Gold.Chemscore.Metal.Weighted>
-0.0000

> <Gold.Chemscore.Lipo.Weighted>
-7.6336

> <Gold.Chemscore.Internal_Hbond.Weighted>
0.0000

> <Gold.Chemscore.DEClash.Weighted>
0.0947

> <Gold.Chemscore.DEInternal.Weighted>
2.0191

> <Gold.Chemscore.Rot.Weighted>
4.0761

> <Gold.Chemscore.Internal.Correction.Weighted>
   9.000000E+99

> <Gold.Protein.RotatedTorsions>
[ 6907 6896 6895 6894 ] final  -59.96 input  -60.11 | X-H torsion
[ 7974 7965 7964 7962 ] final   77.39 input  175.53 | X-H torsion
[ 8008 7997 7996 7995 ] final    3.17 input   59.86 | X-H torsion
[ 10167 10162 10161 10158 ] final -172.35 input  -65.29 | X-H torsion
[ 10718 10713 10712 10709 ] final  -42.86 input   66.30 | X-H torsion
[ 10763 10752 10751 10750 ] final  -77.75 input  -60.55 | X-H torsion
[ 11005 11000 10999 10996 ] final  -99.61 input  -57.11 | X-H torsion

> <Gold.Protein.ActiveResidues>
 VAL166  LYS551  ARG553  GLY616  TRP617  ASP618  TYR619  PRO620  LYS621  CYS622 
 ASP623  PHE694  ASN695  SER759  ASP760  ASP761  ALA762  ILE779  LEU786  VAL792 
 PHE793  MET794  SER795  GLU796  ALA797  LYS798  CYS799  TRP800  GLU811  SER814 

> <Gold.Protein.RotatedAtoms>
  150.7891  134.6900  159.6491 H   0  0  0  0  0  0  0  0  0  0  0  0  # atno 6907 bound_to 6896
  152.3993  134.6309  160.0085 H   0  0  0  0  0  0  0  0  0  0  0  0  # atno 6908 bound_to 6896
  151.6585  133.3281  159.3205 H   0  0  0  0  0  0  0  0  0  0  0  0  # atno 6909 bound_to 6896
  145.6906  139.2551  143.1762 H   0  0  0  0  0  0  0  0  0  0  0  0  # atno 7974 bound_to 7965
  154.7004  140.2672  155.6725 H   0  0  0  0  0  0  0  0  0  0  0  0  # atno 8008 bound_to 7997
  156.2763  140.2773  156.1536 H   0  0  0  0  0  0  0  0  0  0  0  0  # atno 8009 bound_to 7997
  155.0773  140.0372  157.2618 H   0  0  0  0  0  0  0  0  0  0  0  0  # atno 8010 bound_to 7997
  139.5749  144.1555  152.1437 H   0  0  0  0  0  0  0  0  0  0  0  0  # atno 10167 bound_to 10162
  156.2551  130.4191  149.8605 H   0  0  0  0  0  0  0  0  0  0  0  0  # atno 10718 bound_to 10713
  154.5171  135.5753  153.6651 H   0  0  0  0  0  0  0  0  0  0  0  0  # atno 10763 bound_to 10752
  152.9909  135.6172  154.2804 H   0  0  0  0  0  0  0  0  0  0  0  0  # atno 10764 bound_to 10752
  154.2722  135.2853  155.2713 H   0  0  0  0  0  0  0  0  0  0  0  0  # atno 10765 bound_to 10752
  141.1302  133.8335  157.0994 H   0  0  0  0  0  0  0  0  0  0  0  0  # atno 11005 bound_to 11000
  146.0885  140.7683  142.9607 LP  0  0  0  0  0  0  0  0  0  0  0  0  # atno 17320 bound_to 7965
  144.6998  140.3600  143.7165 LP  0  0  0  0  0  0  0  0  0  0  0  0  # atno 17321 bound_to 7965
  140.1096  144.5469  150.6934 LP  0  0  0  0  0  0  0  0  0  0  0  0  # atno 17342 bound_to 10162
  140.7032  143.2449  151.4803 LP  0  0  0  0  0  0  0  0  0  0  0  0  # atno 17343 bound_to 10162
  156.6140  130.8598  151.3460 LP  0  0  0  0  0  0  0  0  0  0  0  0  # atno 17370 bound_to 10713
  157.7229  130.9583  150.1514 LP  0  0  0  0  0  0  0  0  0  0  0  0  # atno 17371 bound_to 10713
  140.0343  134.9886  157.0840 LP  0  0  0  0  0  0  0  0  0  0  0  0  # atno 17394 bound_to 11000
  140.4236  134.1855  155.7165 LP  0  0  0  0  0  0  0  0  0  0  0  0  # atno 17395 bound_to 11000

$$$$
