AV-unprocessed.smi:2961|AV-procd|sdf|11313|dock10
  -GOLD-   2272016213D 1   1.00000     0.00000
 Structure written by MMmdl.
 48 50  0  0  0  0  0  0  0  0  1 V2000
  147.1304  134.8125  157.7113 C   0  0  0  0  0  0  0  0  0  0  0  0
  148.5281  134.7240  157.1083 C   0  0  0  0  0  0  0  0  0  0  0  0
  149.4294  134.1495  157.7187 O   0  0  0  0  0  0  0  0  0  0  0  0
  148.6939  135.2965  155.9063 N   0  0  0  0  0  0  0  0  0  0  0  0
  149.9449  135.3130  155.1571 C   0  0  0  0  0  0  0  0  0  0  0  0
  150.7110  136.6309  155.3590 C   0  0  0  0  0  0  0  0  0  0  0  0
  149.8882  137.8308  155.0020 C   0  0  0  0  0  0  0  0  0  0  0  0
  148.6316  137.7211  154.5698 N   0  0  0  0  0  0  0  0  0  0  0  0
  148.2723  139.0360  154.3452 C   0  0  0  0  0  0  0  0  0  0  0  0
  147.0571  139.5895  153.8825 C   0  0  0  0  0  0  0  0  0  0  0  0
  146.9216  140.9847  153.7276 C   0  0  0  0  0  0  0  0  0  0  0  0
  147.9964  141.8447  154.0334 C   0  0  0  0  0  0  0  0  0  0  0  0
  149.2162  141.3140  154.4954 C   0  0  0  0  0  0  0  0  0  0  0  0
  149.3467  139.9205  154.6468 C   0  0  0  0  0  0  0  0  0  0  0  0
  150.3842  139.0923  155.0626 N   0  0  0  0  0  0  0  0  0  0  0  0
  151.7137  139.5193  155.4708 C   0  0  0  0  0  0  0  0  0  0  0  0
  151.6582  140.5435  156.6105 C   0  0  0  0  0  0  0  0  0  0  0  0
  152.4212  140.0417  157.6984 O   0  0  0  0  0  0  0  0  0  0  0  0
  152.5908  140.8463  158.8046 C   0  0  0  0  0  0  0  0  0  0  0  0
  153.1862  140.2554  159.9380 C   0  0  0  0  0  0  0  0  0  0  0  0
  153.3961  141.0014  161.1131 C   0  0  0  0  0  0  0  0  0  0  0  0
  153.0113  142.3534  161.1665 C   0  0  0  0  0  0  0  0  0  0  0  0
  152.4149  142.9600  160.0432 C   0  0  0  0  0  0  0  0  0  0  0  0
  152.0014  144.4166  160.0950 C   0  0  0  0  0  0  0  0  0  0  0  0
  152.2076  142.2103  158.8664 C   0  0  0  0  0  0  0  0  0  0  0  0
  146.7673  135.8406  157.6912 H   0  0  0  0  0  0  0  0  0  0  0  0
  147.1335  134.4729  158.7477 H   0  0  0  0  0  0  0  0  0  0  0  0
  146.4352  134.1885  157.1492 H   0  0  0  0  0  0  0  0  0  0  0  0
  147.8979  135.7473  155.4787 H   0  0  0  0  0  0  0  0  0  0  0  0
  150.5602  134.4610  155.4505 H   0  0  0  0  0  0  0  0  0  0  0  0
  149.7132  135.1766  154.1006 H   0  0  0  0  0  0  0  0  0  0  0  0
  151.0167  136.7192  156.4023 H   0  0  0  0  0  0  0  0  0  0  0  0
  151.6335  136.6372  154.7791 H   0  0  0  0  0  0  0  0  0  0  0  0
  146.2278  138.9391  153.6458 H   0  0  0  0  0  0  0  0  0  0  0  0
  145.9883  141.3967  153.3726 H   0  0  0  0  0  0  0  0  0  0  0  0
  147.8846  142.9122  153.9124 H   0  0  0  0  0  0  0  0  0  0  0  0
  150.0408  141.9703  154.7301 H   0  0  0  0  0  0  0  0  0  0  0  0
  152.2985  138.6486  155.7673 H   0  0  0  0  0  0  0  0  0  0  0  0
  152.2226  139.9483  154.6071 H   0  0  0  0  0  0  0  0  0  0  0  0
  152.0644  141.4983  156.2720 H   0  0  0  0  0  0  0  0  0  0  0  0
  150.6235  140.7021  156.9173 H   0  0  0  0  0  0  0  0  0  0  0  0
  153.4839  139.2175  159.9062 H   0  0  0  0  0  0  0  0  0  0  0  0
  153.8523  140.5356  161.9741 H   0  0  0  0  0  0  0  0  0  0  0  0
  153.1755  142.9211  162.0709 H   0  0  0  0  0  0  0  0  0  0  0  0
  151.0640  144.5700  159.5593 H   0  0  0  0  0  0  0  0  0  0  0  0
  152.7671  145.0416  159.6349 H   0  0  0  0  0  0  0  0  0  0  0  0
  151.8592  144.7484  161.1239 H   0  0  0  0  0  0  0  0  0  0  0  0
  151.7532  142.7037  158.0204 H   0  0  0  0  0  0  0  0  0  0  0  0
  1  2  1  0  0  0  0
  1 26  1  0  0  0  0
  1 27  1  0  0  0  0
  1 28  1  0  0  0  0
  2  3  2  0  0  0  0
  2  4  1  0  0  0  0
  4  5  1  0  0  0  0
  4 29  1  0  0  0  0
  5  6  1  0  0  0  0
  5 30  1  0  0  0  0
  5 31  1  0  0  0  0
  6  7  1  0  0  0  0
  6 32  1  0  0  0  0
  6 33  1  0  0  0  0
  7 15  1  0  0  0  0
  7  8  2  0  0  0  0
  8  9  1  0  0  0  0
  9 14  2  0  0  0  0
  9 10  1  0  0  0  0
 10 11  2  0  0  0  0
 10 34  1  0  0  0  0
 11 12  1  0  0  0  0
 11 35  1  0  0  0  0
 12 13  2  0  0  0  0
 12 36  1  0  0  0  0
 13 14  1  0  0  0  0
 13 37  1  0  0  0  0
 14 15  1  0  0  0  0
 15 16  1  0  0  0  0
 16 17  1  0  0  0  0
 16 38  1  0  0  0  0
 16 39  1  0  0  0  0
 17 18  1  0  0  0  0
 17 40  1  0  0  0  0
 17 41  1  0  0  0  0
 18 19  1  0  0  0  0
 19 25  1  0  0  0  0
 19 20  2  0  0  0  0
 20 21  1  0  0  0  0
 20 42  1  0  0  0  0
 21 22  2  0  0  0  0
 21 43  1  0  0  0  0
 22 23  1  0  0  0  0
 22 44  1  0  0  0  0
 23 24  1  0  0  0  0
 23 25  2  0  0  0  0
 24 45  1  0  0  0  0
 24 46  1  0  0  0  0
 24 47  1  0  0  0  0
 25 48  1  0  0  0  0
M  END
> <s_m_source_file>
AV-unprocessed.smi

> <i_m_source_file_index>
2961

> <i_lp_mmshare_version>
43012

> <i_f3d_flags>
0

> <s_epik_input>
W0NIM11DKD1PKVtOSF1bQ0gyXVtDSDJdYyhuMSluKGMoYzEyKVtjSF1bY0hdW2NIXVtjSF0yKVtDSDJdW0NIMl1PYzNbY0hdW2NIXVtjSF1jKFtDSDNdKVtjSF0z

> <s_epik_cmdline>
J2VwaWtfcHl0aG9uJywgJy1waCcsICc3LjAnLCAnLXRuJywgJzgnLCAnLW1hJywgJzIwMCcsICctbWV0YWxfYmluZGluZycsICctaW1hZScsICc8aW5maWxlLm1hZT4nLCAnLW9tYWUnLCAnPG91dGZpbGUubWFlPic=

> <r_lp_tautomer_probability>
1

> <r_epik_Ionization_Penalty>
0.0984942

> <r_epik_Ionization_Penalty_Charging>
0

> <r_epik_Ionization_Penalty_Neutral>
0.0984942

> <r_epik_State_Penalty>
0.0885769

> <r_epik_Charging_Adjusted_Penalty>
0.0885769

> <i_epik_Tot_Q>
0

> <i_epik_Tot_abs_Q>
0

> <r_epik_Metal_State_Penalty>
0.0758518

> <b_epik_Metal_Only>
0

> <s_lp_Force_Field>
OPLS_2005

> <r_lp_Energy>
13.474

> <b_lp_Chiralities_Consistent>
1

> <s_lp_Variant>
AV-unprocessed.smi:2961-1

> <Gold.Version>
5.8.1

> <Gold.Id.Protein>
6NUR|6NUR_protein|mol2

> <Gold.PLP.Fitness>
54.3799

> <Gold.PLP.PLP>
-49.4806

> <Gold.PLP.part.hbond>
-2.0000

> <Gold.PLP.part.metal>
0.0000

> <Gold.PLP.part.buried>
-3.6326

> <Gold.PLP.part.nonpolar>
-43.8397

> <Gold.PLP.part.repulsive>
0.7349

> <Gold.PLP.ligand.clash>
0.0000

> <Gold.PLP.ligand.torsion>
0.6389

> <Gold.PLP.Chemscore.Hbond>
1.9920

> <Gold.PLP.Chemscore.CHOScore>
0.0000

> <Gold.PLP.Chemscore.Metal>
0.0000

> <Gold.Chemscore.Hbonds>
donor molecule, donor type, donor heavy atom, donor atom, acceptor molecule, acceptor atom, score
      P1  H  6896  6907       L1     3  0.98
      P1  H  7997  8010       L1    18  0.54

> <Gold.PLP.Chemscore.Internal.Correction>
0.2010

> <Gold.Rescore>
     Score         DG    S(hbond)    S(metal)    S(lipo)     H(rot)  DE(clash)    DE(int)     intcor
     18.71     -21.02       1.53        0.00     135.16       2.11       0.05       2.26       ----

> <Gold.Chemscore.Fitness>
18.7090

> <Gold.Chemscore.DG>
-21.0196

> <Gold.Chemscore.ZeroCoef>
-5.4800

> <Gold.Chemscore.Hbond>
1.5336

> <Gold.Chemscore.Metal>
0.0000

> <Gold.Chemscore.Lipo>
135.1586

> <Gold.Chemscore.Internal_Hbond>
0.0000

> <Gold.Chemscore.DEClash>
0.0500

> <Gold.Chemscore.DEInternal>
2.2606

> <Gold.Chemscore.Rot>
2.1078

> <Gold.Chemscore.Internal.Correction>
   9.000000E+99

> <Gold.Chemscore.Hbonds>
donor molecule, donor type, donor heavy atom, donor atom, acceptor molecule, acceptor atom, score
      P1  H  6896  6907       L1     3  0.92
      P1  H  7997  8010       L1    18  0.05

> <Gold.Chemscore.Hbond.Weighted>
-5.1221

> <Gold.Chemscore.Metal.Weighted>
-0.0000

> <Gold.Chemscore.Lipo.Weighted>
-15.8136

> <Gold.Chemscore.Internal_Hbond.Weighted>
0.0000

> <Gold.Chemscore.DEClash.Weighted>
0.0500

> <Gold.Chemscore.DEInternal.Weighted>
2.2606

> <Gold.Chemscore.Rot.Weighted>
5.3961

> <Gold.Chemscore.Internal.Correction.Weighted>
   9.000000E+99

> <Gold.Protein.RotatedTorsions>
[ 6907 6896 6895 6894 ] final -105.98 input  -60.11 | X-H torsion
[ 7974 7965 7964 7962 ] final  -54.39 input  175.53 | X-H torsion
[ 8008 7997 7996 7995 ] final   52.94 input   59.86 | X-H torsion
[ 10167 10162 10161 10158 ] final  146.17 input  -65.29 | X-H torsion
[ 10718 10713 10712 10709 ] final  151.20 input   66.30 | X-H torsion
[ 10763 10752 10751 10750 ] final   56.03 input  -60.55 | X-H torsion
[ 11005 11000 10999 10996 ] final -109.29 input  -57.11 | X-H torsion

> <Gold.Protein.ActiveResidues>
 VAL166  LYS551  ARG553  GLY616  TRP617  ASP618  TYR619  PRO620  LYS621  CYS622 
 ASP623  PHE694  ASN695  SER759  ASP760  ASP761  ALA762  ILE779  LEU786  VAL792 
 PHE793  MET794  SER795  GLU796  ALA797  LYS798  CYS799  TRP800  GLU811  SER814 

> <Gold.Protein.RotatedAtoms>
  150.7365  134.0044  159.3648 H   0  0  0  0  0  0  0  0  0  0  0  0  # atno 6907 bound_to 6896
  151.8000  135.0709  160.0408 H   0  0  0  0  0  0  0  0  0  0  0  0  # atno 6908 bound_to 6896
  152.3147  133.5753  159.5740 H   0  0  0  0  0  0  0  0  0  0  0  0  # atno 6909 bound_to 6896
  145.8861  140.8107  142.9815 H   0  0  0  0  0  0  0  0  0  0  0  0  # atno 7974 bound_to 7965
  155.4600  140.3461  155.4311 H   0  0  0  0  0  0  0  0  0  0  0  0  # atno 8008 bound_to 7997
  156.1166  140.1475  156.9293 H   0  0  0  0  0  0  0  0  0  0  0  0  # atno 8009 bound_to 7997
  154.4794  140.0874  156.7319 H   0  0  0  0  0  0  0  0  0  0  0  0  # atno 8010 bound_to 7997
  139.4912  144.5849  151.6798 H   0  0  0  0  0  0  0  0  0  0  0  0  # atno 10167 bound_to 10162
  157.2737  131.0822  151.1581 H   0  0  0  0  0  0  0  0  0  0  0  0  # atno 10718 bound_to 10713
  152.9825  135.5690  154.5162 H   0  0  0  0  0  0  0  0  0  0  0  0  # atno 10763 bound_to 10752
  154.4658  135.2783  155.1681 H   0  0  0  0  0  0  0  0  0  0  0  0  # atno 10764 bound_to 10752
  154.3250  135.6261  153.5578 H   0  0  0  0  0  0  0  0  0  0  0  0  # atno 10765 bound_to 10752
  141.0856  133.9145  157.2193 H   0  0  0  0  0  0  0  0  0  0  0  0  # atno 11005 bound_to 11000
  144.6728  140.1458  143.7433 LP  0  0  0  0  0  0  0  0  0  0  0  0  # atno 17320 bound_to 7965
  145.8965  139.2405  143.1519 LP  0  0  0  0  0  0  0  0  0  0  0  0  # atno 17321 bound_to 7965
  140.5463  144.0498  150.6108 LP  0  0  0  0  0  0  0  0  0  0  0  0  # atno 17342 bound_to 10162
  140.3537  143.2948  152.0459 LP  0  0  0  0  0  0  0  0  0  0  0  0  # atno 17343 bound_to 10162
  157.3042  130.6858  149.6180 LP  0  0  0  0  0  0  0  0  0  0  0  0  # atno 17370 bound_to 10713
  155.9663  130.4383  150.5210 LP  0  0  0  0  0  0  0  0  0  0  0  0  # atno 17371 bound_to 10713
  139.9674  135.0138  156.9422 LP  0  0  0  0  0  0  0  0  0  0  0  0  # atno 17394 bound_to 11000
  140.5371  134.0756  155.7331 LP  0  0  0  0  0  0  0  0  0  0  0  0  # atno 17395 bound_to 11000

$$$$
