#       Name:                AV-unprocessed.smi:1952
#       Creating user name   scv26
#       Creation time:       Fri Mar 27 10:03:48 2020


#       File generated by GOLD software.
#

@<TRIPOS>MOLECULE
AV-unprocessed.smi:1952
    47    48     1
SMALL
NO_CHARGES


@<TRIPOS>ATOM
      1 ****        -6.1499   2.0520  -1.2464 C.3            1 S1                 0.0000
      2 ****        -4.7011   1.7117  -1.1683 C.2            1 S1                 0.0000
      3 ****        -3.9747   0.6346  -1.5927 C.2            1 S1                 0.0000
      4 ****        -2.6517   0.9661  -1.1971 C.2            1 S1                 0.0000
      5 ****        -1.5713   0.0854  -1.4593 N.am           1 S1                 0.0000
      6 ****        -0.2730   0.2754  -1.1700 C.2            1 S1                 0.0000
      7 ****         0.1941   1.2799  -0.6328 O.2            1 S1                 0.0000
      8 ****         0.4686  -0.7820  -1.5331 N.am           1 S1                 0.0000
      9 ****         1.9220  -0.9002  -1.4039 C.3            1 S1                 0.0000
     10 ****         2.4552  -1.7553  -2.5617 C.3            1 S1                 0.0000
     11 ****         2.3250  -1.4994  -0.0359 C.3            1 S1                 0.0000
     12 ****         1.8978  -0.6671   1.1174 N.4            1 S1                 1.0000
     13 ****         1.7348  -1.4461   2.3669 C.3            1 S1                 0.0000
     14 ****         1.2193  -0.5387   3.4972 C.3            1 S1                 0.0000
     15 ****         2.1086   0.5568   3.6772 O.3            1 S1                 0.0000
     16 ****         2.2106   1.3590   2.5070 C.3            1 S1                 0.0000
     17 ****         2.7677   0.5113   1.3517 C.3            1 S1                 0.0000
     18 ****        -2.5774   2.1365  -0.5821 N.2            1 S1                 0.0000
     19 ****        -3.8905   2.6214  -0.5623 O.3            1 S1                 0.0000
     20 ****        -6.7375   1.1853  -1.5495 H              1 S1                 0.0000
     21 ****        -6.3209   2.8472  -1.9721 H              1 S1                 0.0000
     22 ****        -6.5217   2.3900  -0.2791 H              1 S1                 0.0000
     23 ****        -4.3350  -0.2453  -2.1048 H              1 S1                 0.0000
     24 ****        -1.8152  -0.7819  -1.9147 H              1 S1                 0.0000
     25 ****        -0.0067  -1.5606  -1.9664 H              1 S1                 0.0000
     26 ****         2.3697   0.0884  -1.5125 H              1 S1                 0.0000
     27 ****         3.5418  -1.8385  -2.5196 H              1 S1                 0.0000
     28 ****         2.1981  -1.3156  -3.5259 H              1 S1                 0.0000
     29 ****         2.0436  -2.7649  -2.5351 H              1 S1                 0.0000
     30 ****         1.8692  -2.4873   0.0479 H              1 S1                 0.0000
     31 ****         3.4032  -1.6599   0.0133 H              1 S1                 0.0000
     32 ****         1.0314  -2.2639   2.2062 H              1 S1                 0.0000
     33 ****         2.6901  -1.8922   2.6481 H              1 S1                 0.0000
     34 ****         0.2146  -0.1743   3.2766 H              1 S1                 0.0000
     35 ****         1.1570  -1.0995   4.4299 H              1 S1                 0.0000
     36 ****         1.2361   1.7776   2.2495 H              1 S1                 0.0000
     37 ****         2.8745   2.1992   2.7110 H              1 S1                 0.0000
     38 ****         3.7812   0.1816   1.5854 H              1 S1                 0.0000
     39 ****         2.8314   1.1236   0.4528 H              1 S1                 0.0000
     40 ****         0.9811  -0.3102   0.8861 H              1 S1                 0.0000
     41 ****        -0.4083   2.0358  -0.3765 LP             1 S1                 0.0000
     42 ****         1.1759   1.3399  -0.4527 LP             1 S1                 0.0000
     43 ****         3.0153   0.2023   3.9055 LP             1 S1                 0.0000
     44 ****         1.7735   1.1243   4.4293 LP             1 S1                 0.0000
     45 ****        -1.7602   2.5783  -0.2119 LP             1 S1                 0.0000
     46 ****        -4.1849   2.7568   0.3838 LP             1 S1                 0.0000
     47 ****        -3.9353   3.4915  -1.0531 LP             1 S1                 0.0000
@<TRIPOS>BOND
    1    1    2 1     
    2    1   20 1     
    3    1   21 1     
    4    1   22 1     
    5    2   19 1     
    6    2    3 2     
    7    3    4 1     
    8    3   23 1     
    9    4    5 1     
   10    4   18 2     
   11    5    6 am    
   12    5   24 1     
   13    6    7 2     
   14    6    8 am    
   15    8    9 1     
   16    8   25 1     
   17    9   10 1     
   18    9   11 1     
   19    9   26 1     
   20   10   27 1     
   21   10   28 1     
   22   10   29 1     
   23   11   12 1     
   24   11   30 1     
   25   11   31 1     
   26   12   17 1     
   27   12   13 1     
   28   12   40 1     
   29   13   14 1     
   30   13   32 1     
   31   13   33 1     
   32   14   15 1     
   33   14   34 1     
   34   14   35 1     
   35   15   16 1     
   36   16   17 1     
   37   16   36 1     
   38   16   37 1     
   39   17   38 1     
   40   17   39 1     
   41   18   19 1     
   42    7   41 1     
   43    7   42 1     
   44   15   43 1     
   45   15   44 1     
   46   18   45 1     
   47   19   46 1     
   48   19   47 1     
@<TRIPOS>SUBSTRUCTURE
      1 S1             1
@<TRIPOS>SET
LONE_PAIRS      STATIC     ATOMS    <user>   **** ""
7 41 42 43 44 45 46 47
DONOR_HYDROGENS      STATIC     ATOMS    <user>   **** ""
3 24 25 40
ATOM$BLUE        STATIC     ATOMS    COLORGROUP SYSTEM
7 41 42 43 44 45 46 47
ATOM$RED        STATIC     ATOMS    COLORGROUP SYSTEM
3 24 25 40
