#       Name:                AV-unprocessed.smi:2668
#       Creating user name   scv26
#       Creation time:       Fri Mar 27 14:36:24 2020


#       File generated by GOLD software.
#

@<TRIPOS>MOLECULE
AV-unprocessed.smi:2668
    57    58     1
SMALL
NO_CHARGES


@<TRIPOS>ATOM
      1 ****        -6.1681  -0.8244  -0.4315 C.3            1 S1                 0.0000
      2 ****        -5.5033  -0.0139   0.5871 N.3            1 S1                 0.0000
      3 ****        -6.2682  -0.1931   1.8197 C.3            1 S1                 0.0000
      4 ****        -4.0868  -0.3907   0.7535 C.3            1 S1                 0.0000
      5 ****        -3.4038   0.4492   1.8584 C.3            1 S1                 0.0000
      6 ****        -1.8954   0.1708   1.9778 C.3            1 S1                 0.0000
      7 ****        -1.1889   0.3913   0.6822 N.4            1 S1                 1.0000
      8 ****         0.3219   0.3713   0.7303 C.3            1 S1                 0.0000
      9 ****         0.8590   1.0889   1.9979 C.3            1 S1                 0.0000
     10 ****         0.8545  -1.0829   0.7545 C.3            1 S1                 0.0000
     11 ****         0.8641   1.1460  -0.5120 C.3            1 S1                 0.0000
     12 ****         2.3224   1.2568  -0.5636 N.am           1 S1                 0.0000
     13 ****         3.1444   0.4587  -1.2603 C.2            1 S1                 0.0000
     14 ****         2.7524  -0.4861  -1.9443 O.2            1 S1                 0.0000
     15 ****         4.4280   0.8167  -1.0859 N.am           1 S1                 0.0000
     16 ****         5.5991   0.2228  -1.6301 C.ar           1 S1                 0.0000
     17 ****         5.6177  -0.6094  -2.7760 C.ar           1 S1                 0.0000
     18 ****         6.8502  -1.1245  -3.2218 C.ar           1 S1                 0.0000
     19 ****         8.0186  -0.7828  -2.5138 C.ar           1 S1                 0.0000
     20 ****         8.0177   0.0200  -1.4291 N.ar           1 S1                 0.0000
     21 ****         6.8324   0.5093  -1.0069 C.ar           1 S1                 0.0000
     22 ****        -1.7963  -0.4739  -0.3705 C.3            1 S1                 0.0000
     23 ****        -3.2908  -0.1736  -0.5542 C.3            1 S1                 0.0000
     24 ****        -5.7719  -0.6286  -1.4268 H              1 S1                 0.0000
     25 ****        -7.2324  -0.5902  -0.4791 H              1 S1                 0.0000
     26 ****        -6.0665  -1.8898  -0.2196 H              1 S1                 0.0000
     27 ****        -5.9534   0.5051   2.5939 H              1 S1                 0.0000
     28 ****        -6.1686  -1.2090   2.2047 H              1 S1                 0.0000
     29 ****        -7.3281   0.0016   1.6508 H              1 S1                 0.0000
     30 ****        -4.0333  -1.4454   1.0297 H              1 S1                 0.0000
     31 ****        -3.5588   1.5115   1.6621 H              1 S1                 0.0000
     32 ****        -3.8456   0.2465   2.8334 H              1 S1                 0.0000
     33 ****        -1.5311   0.8389   2.7553 H              1 S1                 0.0000
     34 ****        -1.7260  -0.8492   2.3250 H              1 S1                 0.0000
     35 ****         1.9455   1.1760   1.9923 H              1 S1                 0.0000
     36 ****         0.6227   0.5435   2.9120 H              1 S1                 0.0000
     37 ****         0.4559   2.0983   2.0880 H              1 S1                 0.0000
     38 ****         1.9307  -1.1119   0.9266 H              1 S1                 0.0000
     39 ****         0.6739  -1.6019  -0.1871 H              1 S1                 0.0000
     40 ****         0.3938  -1.6674   1.5510 H              1 S1                 0.0000
     41 ****         0.5199   0.7099  -1.4483 H              1 S1                 0.0000
     42 ****         0.4674   2.1619  -0.5048 H              1 S1                 0.0000
     43 ****         2.7372   2.0047  -0.0268 H              1 S1                 0.0000
     44 ****         4.5929   1.5724  -0.4370 H              1 S1                 0.0000
     45 ****         4.7231  -0.8526  -3.3272 H              1 S1                 0.0000
     46 ****         6.8991  -1.7637  -4.0908 H              1 S1                 0.0000
     47 ****         8.9798  -1.1595  -2.8306 H              1 S1                 0.0000
     48 ****         6.8704   1.1488  -0.1370 H              1 S1                 0.0000
     49 ****        -1.3077  -0.3406  -1.3327 H              1 S1                 0.0000
     50 ****        -1.6761  -1.5249  -0.1047 H              1 S1                 0.0000
     51 ****        -3.6551  -0.8233  -1.3491 H              1 S1                 0.0000
     52 ****        -3.4172   0.8516  -0.9058 H              1 S1                 0.0000
     53 ****        -1.4209   1.3395   0.4228 H              1 S1                 0.0000
     54 ****        -5.4848   0.9494   0.3193 LP             1 S1                 0.0000
     55 ****         1.7752  -0.6910  -2.0007 LP             1 S1                 0.0000
     56 ****         3.4110  -1.0489  -2.4438 LP             1 S1                 0.0000
     57 ****         8.8679   0.2453  -0.9533 LP             1 S1                 0.0000
@<TRIPOS>BOND
    1    1    2 1     
    2    1   24 1     
    3    1   25 1     
    4    1   26 1     
    5    2    3 1     
    6    2    4 1     
    7    3   27 1     
    8    3   28 1     
    9    3   29 1     
   10    4   23 1     
   11    4    5 1     
   12    4   30 1     
   13    5    6 1     
   14    5   31 1     
   15    5   32 1     
   16    6    7 1     
   17    6   33 1     
   18    6   34 1     
   19    7    8 1     
   20    7   22 1     
   21    7   53 1     
   22    8    9 1     
   23    8   10 1     
   24    8   11 1     
   25    9   35 1     
   26    9   36 1     
   27    9   37 1     
   28   10   38 1     
   29   10   39 1     
   30   10   40 1     
   31   11   12 1     
   32   11   41 1     
   33   11   42 1     
   34   12   13 am    
   35   12   43 1     
   36   13   14 2     
   37   13   15 am    
   38   15   16 1     
   39   15   44 1     
   40   16   21 ar    
   41   16   17 ar    
   42   17   18 ar    
   43   17   45 1     
   44   18   19 ar    
   45   18   46 1     
   46   19   20 ar    
   47   19   47 1     
   48   20   21 ar    
   49   21   48 1     
   50   22   23 1     
   51   22   49 1     
   52   22   50 1     
   53   23   51 1     
   54   23   52 1     
   55    2   54 1     
   56   14   55 1     
   57   14   56 1     
   58   20   57 1     
@<TRIPOS>SUBSTRUCTURE
      1 S1             1
@<TRIPOS>SET
LONE_PAIRS      STATIC     ATOMS    <user>   **** ""
4 54 55 56 57
DONOR_HYDROGENS      STATIC     ATOMS    <user>   **** ""
3 53 43 44
ATOM$BLUE        STATIC     ATOMS    COLORGROUP SYSTEM
4 54 55 56 57
ATOM$RED        STATIC     ATOMS    COLORGROUP SYSTEM
3 53 43 44
