AV-unprocessed.smi:2811|AV-procd|sdf|10831|dock3
  -GOLD-   2272015273D 1   1.00000     0.00000
 Structure written by MMmdl.
 38 40  0  0  0  0  0  0  0  0  1 V2000
  146.8822  132.9576  161.4904 C   0  0  0  0  0  0  0  0  0  0  0  0
  147.3139  134.4083  161.4432 C   0  0  0  0  0  0  0  0  0  0  0  0
  147.2834  135.2104  162.6002 C   0  0  0  0  0  0  0  0  0  0  0  0
  147.6956  136.5525  162.4882 C   0  0  0  0  0  0  0  0  0  0  0  0
  147.6816  137.4781  163.6865 C   0  0  0  0  0  0  0  0  0  0  0  0
  148.1176  137.0980  161.3280 N   0  0  0  0  0  0  0  0  0  0  0  0
  148.1579  136.3349  160.2063 C   0  0  0  0  0  0  0  0  0  0  0  0
  148.5653  136.8124  158.9261 N   0  0  0  0  0  0  0  0  0  0  0  0
  149.5789  137.6309  158.5723 C   0  0  0  0  0  0  0  0  0  0  0  0
  150.3379  138.1104  159.4129 O   0  0  0  0  0  0  0  0  0  0  0  0
  149.6916  137.8880  157.2601 N   0  0  0  0  0  0  0  0  0  0  0  0
  150.7413  138.6872  156.6385 C   0  0  2  0  0  0  0  0  0  0  0  0
  150.5955  140.1731  156.9788 C   0  0  0  0  0  0  0  0  0  0  0  0
  150.4495  140.8068  155.5890 C   0  0  2  0  0  0  0  0  0  0  0  0
  149.0829  140.5007  154.9591 C   0  0  0  0  0  0  0  0  0  0  0  0
  149.2415  139.0326  154.5674 C   0  0  0  0  0  0  0  0  0  0  0  0
  150.6509  138.7181  155.0983 C   0  0  1  0  0  0  0  0  0  0  0  0
  151.2897  139.9549  154.8297 O   0  0  0  0  0  0  0  0  0  0  0  0
  147.7525  134.9817  160.2327 C   0  0  0  0  0  0  0  0  0  0  0  0
  146.6552  132.6441  162.5098 H   0  0  0  0  0  0  0  0  0  0  0  0
  147.6741  132.3145  161.1051 H   0  0  0  0  0  0  0  0  0  0  0  0
  145.9910  132.8093  160.8804 H   0  0  0  0  0  0  0  0  0  0  0  0
  146.9504  134.8087  163.5462 H   0  0  0  0  0  0  0  0  0  0  0  0
  147.4139  136.9422  164.5978 H   0  0  0  0  0  0  0  0  0  0  0  0
  146.9571  138.2789  163.5361 H   0  0  0  0  0  0  0  0  0  0  0  0
  148.6646  137.9273  163.8319 H   0  0  0  0  0  0  0  0  0  0  0  0
  147.9532  136.5482  158.1681 H   0  0  0  0  0  0  0  0  0  0  0  0
  149.0243  137.4518  156.6397 H   0  0  0  0  0  0  0  0  0  0  0  0
  151.7260  138.3377  156.9541 H   0  0  0  0  0  0  0  0  0  0  0  0
  149.7433  140.3964  157.6224 H   0  0  0  0  0  0  0  0  0  0  0  0
  151.4956  140.5374  157.4753 H   0  0  0  0  0  0  0  0  0  0  0  0
  150.7269  141.8607  155.5533 H   0  0  0  0  0  0  0  0  0  0  0  0
  148.2602  140.6656  155.6559 H   0  0  0  0  0  0  0  0  0  0  0  0
  148.9118  141.1161  154.0754 H   0  0  0  0  0  0  0  0  0  0  0  0
  148.4637  138.3916  154.9830 H   0  0  0  0  0  0  0  0  0  0  0  0
  149.2138  138.9270  153.4823 H   0  0  0  0  0  0  0  0  0  0  0  0
  151.1203  137.8614  154.6138 H   0  0  0  0  0  0  0  0  0  0  0  0
  147.7796  134.3841  159.3326 H   0  0  0  0  0  0  0  0  0  0  0  0
  1  2  1  0  0  0  0
  1 20  1  0  0  0  0
  1 21  1  0  0  0  0
  1 22  1  0  0  0  0
  2 19  1  0  0  0  0
  2  3  2  0  0  0  0
  3  4  1  0  0  0  0
  3 23  1  0  0  0  0
  4  5  1  0  0  0  0
  4  6  2  0  0  0  0
  5 24  1  0  0  0  0
  5 25  1  0  0  0  0
  5 26  1  0  0  0  0
  6  7  1  0  0  0  0
  7  8  1  0  0  0  0
  7 19  2  0  0  0  0
  8  9  1  0  0  0  0
  8 27  1  0  0  0  0
  9 10  2  0  0  0  0
  9 11  1  0  0  0  0
 11 12  1  0  0  0  0
 11 28  1  0  0  0  0
 12 17  1  0  0  0  0
 12 13  1  0  0  0  0
 12 29  1  0  0  0  0
 13 14  1  0  0  0  0
 13 30  1  0  0  0  0
 13 31  1  0  0  0  0
 14 18  1  0  0  0  0
 14 15  1  0  0  0  0
 14 32  1  0  0  0  0
 15 16  1  0  0  0  0
 15 33  1  0  0  0  0
 15 34  1  0  0  0  0
 16 17  1  0  0  0  0
 16 35  1  0  0  0  0
 16 36  1  0  0  0  0
 17 18  1  0  0  0  0
 17 37  1  0  0  0  0
 19 38  1  0  0  0  0
M  END
> <s_m_source_file>
AV-unprocessed.smi

> <i_m_source_file_index>
2811

> <i_lp_mmshare_version>
43012

> <i_f3d_flags>
0

> <s_epik_input>
W0NIM11jMVtjSF1jKFtDSDNdKW5jKFtjSF0xKVtOSF1DKD1PKVtOSF1bQ0BIXShbQ0gyXVtDQEBIXTIzKVtDQEBIXShPMylbQ0gyXVtDSDJdMg==

> <s_epik_cmdline>
J2VwaWtfcHl0aG9uJywgJy1waCcsICc3LjAnLCAnLXRuJywgJzgnLCAnLW1hJywgJzIwMCcsICctbWV0YWxfYmluZGluZycsICctaW1hZScsICc8aW5maWxlLm1hZT4nLCAnLW9tYWUnLCAnPG91dGZpbGUubWFlPic=

> <r_lp_tautomer_probability>
1

> <r_epik_Ionization_Penalty>
0.000281548

> <r_epik_Ionization_Penalty_Charging>
0

> <r_epik_Ionization_Penalty_Neutral>
0.000281548

> <r_epik_State_Penalty>
-0

> <r_epik_Charging_Adjusted_Penalty>
0

> <i_epik_Tot_Q>
0

> <i_epik_Tot_abs_Q>
0

> <r_epik_Metal_State_Penalty>
-0

> <b_epik_Metal_Only>
0

> <s_lp_Force_Field>
OPLS_2005

> <r_lp_Energy>
38.9687

> <b_lp_Chiralities_Consistent>
1

> <s_lp_Variant>
AV-unprocessed.smi:2811-3

> <Gold.Version>
5.8.1

> <Gold.Id.Protein>
6NUR|6NUR_protein|mol2

> <Gold.PLP.Fitness>
41.4802

> <Gold.PLP.PLP>
-35.0005

> <Gold.PLP.part.hbond>
-4.0000

> <Gold.PLP.part.metal>
0.0000

> <Gold.PLP.part.buried>
-2.4362

> <Gold.PLP.part.nonpolar>
-29.2557

> <Gold.PLP.part.repulsive>
0.2253

> <Gold.PLP.ligand.clash>
0.0000

> <Gold.PLP.ligand.torsion>
0.3784

> <Gold.PLP.Chemscore.Hbond>
2.4051

> <Gold.PLP.Chemscore.CHOScore>
0.0000

> <Gold.PLP.Chemscore.Metal>
0.0000

> <Gold.Chemscore.Hbonds>
donor molecule, donor type, donor heavy atom, donor atom, acceptor molecule, acceptor atom, score
      P1  H  6931  6943       L1     6  0.95
      P1  H  6934  6947       L1     6  0.43
      P1  H  7989  7998       L1    18  1.00

> <Gold.PLP.Chemscore.Internal.Correction>
0.0212

> <Gold.Rescore>
     Score         DG    S(hbond)    S(metal)    S(lipo)     H(rot)  DE(clash)    DE(int)     intcor
     16.95     -18.22       1.69        0.00      82.58       1.00       0.38       0.89       ----

> <Gold.Chemscore.Fitness>
16.9451

> <Gold.Chemscore.DG>
-18.2187

> <Gold.Chemscore.ZeroCoef>
-5.4800

> <Gold.Chemscore.Hbond>
1.6876

> <Gold.Chemscore.Metal>
0.0000

> <Gold.Chemscore.Lipo>
82.5810

> <Gold.Chemscore.Internal_Hbond>
0.0000

> <Gold.Chemscore.DEClash>
0.3829

> <Gold.Chemscore.DEInternal>
0.8907

> <Gold.Chemscore.Rot>
1.0000

> <Gold.Chemscore.Internal.Correction>
   9.000000E+99

> <Gold.Chemscore.Hbonds>
donor molecule, donor type, donor heavy atom, donor atom, acceptor molecule, acceptor atom, score
      P1  H  6931  6943       L1     6  0.21
      P1  H  6934  6947       L1     6  0.29
      P1  H  7989  7998       L1    18  0.40

> <Gold.Chemscore.Hbond.Weighted>
-5.6367

> <Gold.Chemscore.Metal.Weighted>
-0.0000

> <Gold.Chemscore.Lipo.Weighted>
-9.6620

> <Gold.Chemscore.Internal_Hbond.Weighted>
0.0000

> <Gold.Chemscore.DEClash.Weighted>
0.3829

> <Gold.Chemscore.DEInternal.Weighted>
0.8907

> <Gold.Chemscore.Rot.Weighted>
2.5600

> <Gold.Chemscore.Internal.Correction.Weighted>
   9.000000E+99

> <Gold.Protein.RotatedTorsions>
[ 6907 6896 6895 6894 ] final   44.29 input  -60.11 | X-H torsion
[ 7974 7965 7964 7962 ] final  -35.47 input  175.53 | X-H torsion
[ 8008 7997 7996 7995 ] final  135.15 input   59.86 | X-H torsion
[ 10167 10162 10161 10158 ] final  -32.33 input  -65.29 | X-H torsion
[ 10718 10713 10712 10709 ] final -134.31 input   66.30 | X-H torsion
[ 10763 10752 10751 10750 ] final   57.02 input  -60.55 | X-H torsion
[ 11005 11000 10999 10996 ] final   47.99 input  -57.11 | X-H torsion

> <Gold.Protein.ActiveResidues>
 VAL166  LYS551  ARG553  GLY616  TRP617  ASP618  TYR619  PRO620  LYS621  CYS622 
 ASP623  PHE694  ASN695  SER759  ASP760  ASP761  ALA762  ILE779  LEU786  VAL792 
 PHE793  MET794  SER795  GLU796  ALA797  LYS798  CYS799  TRP800  GLU811  SER814 

> <Gold.Protein.RotatedAtoms>
  152.2307  134.8325  160.0473 H   0  0  0  0  0  0  0  0  0  0  0  0  # atno 6907 bound_to 6896
  151.9074  133.3548  159.3860 H   0  0  0  0  0  0  0  0  0  0  0  0  # atno 6908 bound_to 6896
  150.7025  134.4692  159.5461 H   0  0  0  0  0  0  0  0  0  0  0  0  # atno 6909 bound_to 6896
  146.0744  140.6163  142.8937 H   0  0  0  0  0  0  0  0  0  0  0  0  # atno 7974 bound_to 7965
  156.3002  140.2478  156.3534 H   0  0  0  0  0  0  0  0  0  0  0  0  # atno 8008 bound_to 7997
  154.8945  140.0408  157.1877 H   0  0  0  0  0  0  0  0  0  0  0  0  # atno 8009 bound_to 7997
  154.8564  140.2914  155.5570 H   0  0  0  0  0  0  0  0  0  0  0  0  # atno 8010 bound_to 7997
  140.7223  143.3703  151.1792 H   0  0  0  0  0  0  0  0  0  0  0  0  # atno 10167 bound_to 10162
  156.2541  130.7171  151.1081 H   0  0  0  0  0  0  0  0  0  0  0  0  # atno 10718 bound_to 10713
  152.9842  135.5656  154.5323 H   0  0  0  0  0  0  0  0  0  0  0  0  # atno 10763 bound_to 10752
  154.4792  135.2788  155.1585 H   0  0  0  0  0  0  0  0  0  0  0  0  # atno 10764 bound_to 10752
  154.3101  135.6290  153.5515 H   0  0  0  0  0  0  0  0  0  0  0  0  # atno 10765 bound_to 10752
  140.1230  134.4804  155.8582 H   0  0  0  0  0  0  0  0  0  0  0  0  # atno 11005 bound_to 11000
  144.7252  140.4501  143.6978 LP  0  0  0  0  0  0  0  0  0  0  0  0  # atno 17320 bound_to 7965
  145.6333  139.1539  143.2956 LP  0  0  0  0  0  0  0  0  0  0  0  0  # atno 17321 bound_to 7965
  139.7272  143.9129  152.3007 LP  0  0  0  0  0  0  0  0  0  0  0  0  # atno 17342 bound_to 10162
  139.8906  144.6967  150.8775 LP  0  0  0  0  0  0  0  0  0  0  0  0  # atno 17343 bound_to 10162
  157.7226  131.0672  150.6072 LP  0  0  0  0  0  0  0  0  0  0  0  0  # atno 17370 bound_to 10713
  156.6154  130.4391  149.5842 LP  0  0  0  0  0  0  0  0  0  0  0  0  # atno 17371 bound_to 10713
  141.2155  133.6767  156.6926 LP  0  0  0  0  0  0  0  0  0  0  0  0  # atno 17394 bound_to 11000
  140.2940  134.8218  157.4041 LP  0  0  0  0  0  0  0  0  0  0  0  0  # atno 17395 bound_to 11000

$$$$
