AV-unprocessed.smi:1669|AV-procd|sdf|6689|dock1
  -GOLD-   22720 7413D 1   1.00000     0.00000
 Structure written by MMmdl.
 49 51  0  0  0  0  0  0  0  0  3 V2000
  149.2534  137.3596  155.0853 C   0  0  0  0  0  0  0  0  0  0  0  0
  150.3908  137.2001  156.0213 N   0  3  1  0  0  0  0  0  0  0  0  0
  150.4565  135.8403  156.6158 C   0  0  0  0  0  0  0  0  0  0  0  0
  149.4857  135.6813  157.7712 C   0  0  0  0  0  0  0  0  0  0  0  0
  148.5607  134.6158  157.7707 C   0  0  0  0  0  0  0  0  0  0  0  0
  147.6577  134.4623  158.8407 C   0  0  0  0  0  0  0  0  0  0  0  0
  147.6755  135.3741  159.9139 C   0  0  0  0  0  0  0  0  0  0  0  0
  148.5957  136.4402  159.9166 C   0  0  0  0  0  0  0  0  0  0  0  0
  149.4986  136.5948  158.8467 C   0  0  0  0  0  0  0  0  0  0  0  0
  151.6773  137.6279  155.4164 C   0  0  0  0  0  0  0  0  0  0  0  0
  151.8736  139.1584  155.4931 C   0  0  2  0  0  0  0  0  0  0  0  0
  153.1116  139.4829  154.8960 O   0  0  0  0  0  0  0  0  0  0  0  0
  151.8871  139.7097  156.9336 C   0  0  0  0  0  0  0  0  0  0  0  0
  151.3791  141.0872  157.0267 N   0  0  0  0  0  0  0  0  0  0  0  0
  150.4797  141.7599  156.2494 C   0  0  0  0  0  0  0  0  0  0  0  0
  149.7525  141.2369  155.0515 C   0  0  0  0  0  0  0  0  0  0  0  0
  149.0072  142.2335  154.3856 O   0  0  0  0  0  0  0  0  0  0  0  0
  150.3621  143.0156  156.7684 N   0  3  0  0  0  0  0  0  0  0  0  0
  151.1882  143.1482  157.8844 C   0  0  0  0  0  0  0  0  0  0  0  0
  151.4088  144.2288  158.7326 C   0  0  0  0  0  0  0  0  0  0  0  0
  152.3230  144.0287  159.7878 C   0  0  0  0  0  0  0  0  0  0  0  0
  152.9750  142.7917  159.9697 C   0  0  0  0  0  0  0  0  0  0  0  0
  152.7425  141.7030  159.1035 C   0  0  0  0  0  0  0  0  0  0  0  0
  151.8405  141.9109  158.0600 C   0  0  0  0  0  0  0  0  0  0  0  0
  149.3654  136.7058  154.2195 H   0  0  0  0  0  0  0  0  0  0  0  0
  149.1872  138.3884  154.7301 H   0  0  0  0  0  0  0  0  0  0  0  0
  148.3058  137.1264  155.5707 H   0  0  0  0  0  0  0  0  0  0  0  0
  150.2668  135.0870  155.8493 H   0  0  0  0  0  0  0  0  0  0  0  0
  151.4561  135.6349  156.9987 H   0  0  0  0  0  0  0  0  0  0  0  0
  148.5423  133.9122  156.9511 H   0  0  0  0  0  0  0  0  0  0  0  0
  146.9508  133.6455  158.8384 H   0  0  0  0  0  0  0  0  0  0  0  0
  146.9830  135.2563  160.7345 H   0  0  0  0  0  0  0  0  0  0  0  0
  148.6084  137.1401  160.7393 H   0  0  0  0  0  0  0  0  0  0  0  0
  150.2016  137.4151  158.8567 H   0  0  0  0  0  0  0  0  0  0  0  0
  152.4880  137.0964  155.9162 H   0  0  0  0  0  0  0  0  0  0  0  0
  151.7215  137.3265  154.3684 H   0  0  0  0  0  0  0  0  0  0  0  0
  151.0933  139.6691  154.9302 H   0  0  0  0  0  0  0  0  0  0  0  0
  152.9554  139.7732  154.0097 H   0  0  0  0  0  0  0  0  0  0  0  0
  151.2786  139.0841  157.5874 H   0  0  0  0  0  0  0  0  0  0  0  0
  152.8957  139.6905  157.3492 H   0  0  0  0  0  0  0  0  0  0  0  0
  150.4621  140.8092  154.3436 H   0  0  0  0  0  0  0  0  0  0  0  0
  149.0815  140.4364  155.3639 H   0  0  0  0  0  0  0  0  0  0  0  0
  149.1320  143.0550  154.8368 H   0  0  0  0  0  0  0  0  0  0  0  0
  150.9086  145.1769  158.5971 H   0  0  0  0  0  0  0  0  0  0  0  0
  152.5267  144.8397  160.4723 H   0  0  0  0  0  0  0  0  0  0  0  0
  153.6674  142.6756  160.7913 H   0  0  0  0  0  0  0  0  0  0  0  0
  153.2458  140.7594  159.2542 H   0  0  0  0  0  0  0  0  0  0  0  0
  150.2200  137.8432  156.7817 H   0  0  0  0  0  0  0  0  0  0  0  0
  149.7583  143.7289  156.3795 H   0  0  0  0  0  0  0  0  0  0  0  0
  1  2  1  0  0  0  0
  1 25  1  0  0  0  0
  1 26  1  0  0  0  0
  1 27  1  0  0  0  0
  2  3  1  0  0  0  0
  2 10  1  0  0  0  0
  2 48  1  0  0  0  0
  3  4  1  0  0  0  0
  3 28  1  0  0  0  0
  3 29  1  0  0  0  0
  4  9  1  0  0  0  0
  4  5  2  0  0  0  0
  5  6  1  0  0  0  0
  5 30  1  0  0  0  0
  6  7  2  0  0  0  0
  6 31  1  0  0  0  0
  7  8  1  0  0  0  0
  7 32  1  0  0  0  0
  8  9  2  0  0  0  0
  8 33  1  0  0  0  0
  9 34  1  0  0  0  0
 10 11  1  0  0  0  0
 10 35  1  0  0  0  0
 10 36  1  0  0  0  0
 11 12  1  0  0  0  0
 11 13  1  0  0  0  0
 11 37  1  0  0  0  0
 12 38  1  0  0  0  0
 13 14  1  0  0  0  0
 13 39  1  0  0  0  0
 13 40  1  0  0  0  0
 14 24  1  0  0  0  0
 14 15  1  0  0  0  0
 15 16  1  0  0  0  0
 15 18  2  0  0  0  0
 16 17  1  0  0  0  0
 16 41  1  0  0  0  0
 16 42  1  0  0  0  0
 17 43  1  0  0  0  0
 18 19  1  0  0  0  0
 18 49  1  0  0  0  0
 19 24  2  0  0  0  0
 19 20  1  0  0  0  0
 20 21  2  0  0  0  0
 20 44  1  0  0  0  0
 21 22  1  0  0  0  0
 21 45  1  0  0  0  0
 22 23  2  0  0  0  0
 22 46  1  0  0  0  0
 23 24  1  0  0  0  0
 23 47  1  0  0  0  0
M  CHG  1   2   1
M  CHG  1  18   1
M  END
> <s_m_source_file>
AV-unprocessed.smi

> <i_m_source_file_index>
1669

> <i_lp_mmshare_version>
43012

> <i_f3d_flags>
0

> <s_epik_input>
W2NIXTFbY0hdW2NIXVtjSF1bY0hdYzFbQ0gyXU4oW0NIM10pW0NIMl1bQ0BIXShbT0hdKVtDSDJdbihjKG4yKVtDSDJdW09IXSljKGMyMylbY0hdW2NIXVtjSF1bY0hdMw==

> <s_epik_cmdline>
J2VwaWtfcHl0aG9uJywgJy1waCcsICc3LjAnLCAnLXRuJywgJzgnLCAnLW1hJywgJzIwMCcsICctbWV0YWxfYmluZGluZycsICctaW1hZScsICc8aW5maWxlLm1hZT4nLCAnLW9tYWUnLCAnPG91dGZpbGUubWFlPic=

> <r_epik_Ionization_Penalty>
1.57484

> <r_epik_Ionization_Penalty_Charging>
1.57398

> <r_epik_Ionization_Penalty_Neutral>
0.000858917

> <r_epik_State_Penalty>
1.64997

> <r_epik_Charging_Adjusted_Penalty>
3.22395

> <i_epik_Tot_Q>
2

> <i_epik_Tot_abs_Q>
2

> <r_epik_Metal_State_Penalty>
5.70481

> <b_epik_Metal_Only>
0

> <s_lp_Force_Field>
OPLS_2005

> <r_lp_Energy>
24.1241

> <b_lp_Chiralities_Consistent>
1

> <s_lp_Variant>
AV-unprocessed.smi:1669-7

> <Gold.Version>
5.8.1

> <Gold.Id.Protein>
6NUR|6NUR_protein|mol2

> <Gold.PLP.Fitness>
57.1738

> <Gold.PLP.PLP>
-46.9523

> <Gold.PLP.part.hbond>
-4.9032

> <Gold.PLP.part.metal>
0.0000

> <Gold.PLP.part.buried>
-5.8500

> <Gold.PLP.part.nonpolar>
-36.6712

> <Gold.PLP.part.repulsive>
0.0727

> <Gold.PLP.ligand.clash>
0.0000

> <Gold.PLP.ligand.torsion>
1.4023

> <Gold.PLP.Chemscore.Hbond>
4.1208

> <Gold.PLP.Chemscore.CHOScore>
0.0000

> <Gold.PLP.Chemscore.Metal>
0.0000

> <Gold.Chemscore.Hbonds>
donor molecule, donor type, donor heavy atom, donor atom, acceptor molecule, acceptor atom, score
      L1  H    17    43       P1  8028  1.00
      L1  H    18    49       P1  8028  1.85
      P1  H  7997  8010       L1    12  1.00
      P1  H  8011  8017       L1    17  0.15

> <Gold.PLP.Chemscore.Internal.Correction>
0.6636

> <Gold.Rescore>
     Score         DG    S(hbond)    S(metal)    S(lipo)     H(rot)  DE(clash)    DE(int)     intcor
     19.30     -21.84       3.09        0.00     123.29       3.27       0.12       2.41       ----

> <Gold.Chemscore.Fitness>
19.3028

> <Gold.Chemscore.DG>
-21.8370

> <Gold.Chemscore.ZeroCoef>
-5.4800

> <Gold.Chemscore.Hbond>
3.0864

> <Gold.Chemscore.Metal>
0.0000

> <Gold.Chemscore.Lipo>
123.2858

> <Gold.Chemscore.Internal_Hbond>
0.0000

> <Gold.Chemscore.DEClash>
0.1213

> <Gold.Chemscore.DEInternal>
2.4129

> <Gold.Chemscore.Rot>
3.2718

> <Gold.Chemscore.Internal.Correction>
   9.000000E+99

> <Gold.Chemscore.Hbonds>
donor molecule, donor type, donor heavy atom, donor atom, acceptor molecule, acceptor atom, score
      L1  H    17    43       P1  8028  1.00
      L1  H    18    49       P1  8028  0.89
      P1  H  7997  8010       L1    12  0.97
      P1  H  8011  8017       L1    17  0.07

> <Gold.Chemscore.Hbond.Weighted>
-10.3085

> <Gold.Chemscore.Metal.Weighted>
-0.0000

> <Gold.Chemscore.Lipo.Weighted>
-14.4244

> <Gold.Chemscore.Internal_Hbond.Weighted>
0.0000

> <Gold.Chemscore.DEClash.Weighted>
0.1213

> <Gold.Chemscore.DEInternal.Weighted>
2.4129

> <Gold.Chemscore.Rot.Weighted>
8.3759

> <Gold.Chemscore.Internal.Correction.Weighted>
   9.000000E+99

> <Gold.Protein.RotatedTorsions>
[ 6907 6896 6895 6894 ] final  146.66 input  -60.11 | X-H torsion
[ 7974 7965 7964 7962 ] final  113.59 input  175.53 | X-H torsion
[ 8008 7997 7996 7995 ] final  104.65 input   59.86 | X-H torsion
[ 10167 10162 10161 10158 ] final  115.38 input  -65.29 | X-H torsion
[ 10718 10713 10712 10709 ] final   11.35 input   66.30 | X-H torsion
[ 10763 10752 10751 10750 ] final -127.53 input  -60.55 | X-H torsion
[ 11005 11000 10999 10996 ] final -167.40 input  -57.11 | X-H torsion

> <Gold.Protein.ActiveResidues>
 VAL166  LYS551  ARG553  GLY616  TRP617  ASP618  TYR619  PRO620  LYS621  CYS622 
 ASP623  PHE694  ASN695  SER759  ASP760  ASP761  ALA762  ILE779  LEU786  VAL792 
 PHE793  MET794  SER795  GLU796  ALA797  LYS798  CYS799  TRP800  GLU811  SER814 

> <Gold.Protein.RotatedAtoms>
  152.1650  133.4606  159.4879 H   0  0  0  0  0  0  0  0  0  0  0  0  # atno 6907 bound_to 6896
  150.6912  134.2025  159.4336 H   0  0  0  0  0  0  0  0  0  0  0  0  # atno 6908 bound_to 6896
  151.9929  134.9969  160.0613 H   0  0  0  0  0  0  0  0  0  0  0  0  # atno 6909 bound_to 6896
  145.2150  139.2888  143.4248 H   0  0  0  0  0  0  0  0  0  0  0  0  # atno 7974 bound_to 7965
  156.1592  140.3144  155.8777 H   0  0  0  0  0  0  0  0  0  0  0  0  # atno 8008 bound_to 7997
  155.3817  140.0488  157.3060 H   0  0  0  0  0  0  0  0  0  0  0  0  # atno 8009 bound_to 7997
  154.5130  140.2171  155.9131 H   0  0  0  0  0  0  0  0  0  0  0  0  # atno 8010 bound_to 7997
  139.6321  144.7116  151.2411 H   0  0  0  0  0  0  0  0  0  0  0  0  # atno 10167 bound_to 10162
  156.9942  130.6054  149.5689 H   0  0  0  0  0  0  0  0  0  0  0  0  # atno 10718 bound_to 10713
  154.8753  135.3958  154.3610 H   0  0  0  0  0  0  0  0  0  0  0  0  # atno 10763 bound_to 10752
  153.4382  135.7026  153.6191 H   0  0  0  0  0  0  0  0  0  0  0  0  # atno 10764 bound_to 10752
  153.4784  135.3775  155.2398 H   0  0  0  0  0  0  0  0  0  0  0  0  # atno 10765 bound_to 10752
  140.5537  134.5403  157.5128 H   0  0  0  0  0  0  0  0  0  0  0  0  # atno 11005 bound_to 11000
  146.3389  140.2438  142.8596 LP  0  0  0  0  0  0  0  0  0  0  0  0  # atno 17320 bound_to 7965
  144.9819  140.8467  143.5392 LP  0  0  0  0  0  0  0  0  0  0  0  0  # atno 17321 bound_to 7965
  140.7445  143.6462  150.8290 LP  0  0  0  0  0  0  0  0  0  0  0  0  # atno 17342 bound_to 10162
  140.0088  143.5665  152.2847 LP  0  0  0  0  0  0  0  0  0  0  0  0  # atno 17343 bound_to 10162
  156.0195  130.5290  150.8235 LP  0  0  0  0  0  0  0  0  0  0  0  0  # atno 17370 bound_to 10713
  157.5436  131.0941  150.9793 LP  0  0  0  0  0  0  0  0  0  0  0  0  # atno 17371 bound_to 10713
  139.9442  134.7732  156.0602 LP  0  0  0  0  0  0  0  0  0  0  0  0  # atno 17394 bound_to 11000
  141.1156  133.6629  156.3086 LP  0  0  0  0  0  0  0  0  0  0  0  0  # atno 17395 bound_to 11000

$$$$
