AV-unprocessed.smi:2222|AV-procd|sdf|8986|dock8
  -GOLD-   2272012203D 1   1.00000     0.00000
 Structure written by MMmdl.
 34 35  0  0  0  0  0  0  0  0  1 V2000
  151.5120  145.5680  159.8665 C   0  0  0  0  0  0  0  0  0  0  0  0
  151.2180  144.4687  159.0170 O   0  0  0  0  0  0  0  0  0  0  0  0
  151.8679  143.2718  159.2481 C   0  0  0  0  0  0  0  0  0  0  0  0
  152.7679  143.0626  160.3242 C   0  0  0  0  0  0  0  0  0  0  0  0
  153.3831  141.8080  160.4765 C   0  0  0  0  0  0  0  0  0  0  0  0
  153.0767  140.8004  159.5449 C   0  0  0  0  0  0  0  0  0  0  0  0
  153.7048  139.4265  159.6451 C   0  0  0  0  0  0  0  0  0  0  0  0
  152.2231  140.9872  158.5184 N   0  0  0  0  0  0  0  0  0  0  0  0
  151.6219  142.1924  158.3605 C   0  0  0  0  0  0  0  0  0  0  0  0
  150.7111  142.4681  157.3039 N   0  0  0  0  0  0  0  0  0  0  0  0
  150.3916  141.7001  156.2433 C   0  0  0  0  0  0  0  0  0  0  0  0
  150.8268  140.5676  156.0419 O   0  0  0  0  0  0  0  0  0  0  0  0
  149.5000  142.2588  155.4054 N   0  0  0  0  0  0  0  0  0  0  0  0
  148.9593  141.7069  154.1980 C   0  0  1  0  0  0  0  0  0  0  0  0
  148.0750  140.4867  154.3366 C   0  0  0  0  0  0  0  0  0  0  0  0
  147.4664  141.8067  153.9432 C   0  0  1  0  0  0  0  0  0  0  0  0
  146.5351  142.5416  154.8876 C   0  0  0  0  0  0  0  0  0  0  0  0
  150.9271  146.4316  159.5506 H   0  0  0  0  0  0  0  0  0  0  0  0
  152.5655  145.8452  159.8097 H   0  0  0  0  0  0  0  0  0  0  0  0
  151.2489  145.3535  160.9031 H   0  0  0  0  0  0  0  0  0  0  0  0
  152.9999  143.8393  161.0368 H   0  0  0  0  0  0  0  0  0  0  0  0
  154.0726  141.6286  161.2885 H   0  0  0  0  0  0  0  0  0  0  0  0
  154.2728  139.3177  160.5693 H   0  0  0  0  0  0  0  0  0  0  0  0
  154.3813  139.2590  158.8066 H   0  0  0  0  0  0  0  0  0  0  0  0
  152.9359  138.6537  159.6265 H   0  0  0  0  0  0  0  0  0  0  0  0
  150.2548  143.3670  157.3549 H   0  0  0  0  0  0  0  0  0  0  0  0
  149.1160  143.1487  155.6888 H   0  0  0  0  0  0  0  0  0  0  0  0
  149.6011  141.7023  153.3182 H   0  0  0  0  0  0  0  0  0  0  0  0
  148.1503  139.7217  153.5665 H   0  0  0  0  0  0  0  0  0  0  0  0
  147.8766  140.1150  155.3404 H   0  0  0  0  0  0  0  0  0  0  0  0
  147.1810  141.9067  152.8977 H   0  0  0  0  0  0  0  0  0  0  0  0
  146.8017  142.3558  155.9284 H   0  0  0  0  0  0  0  0  0  0  0  0
  145.5088  142.2090  154.7319 H   0  0  0  0  0  0  0  0  0  0  0  0
  146.5848  143.6145  154.7015 H   0  0  0  0  0  0  0  0  0  0  0  0
  1  2  1  0  0  0  0
  1 18  1  0  0  0  0
  1 19  1  0  0  0  0
  1 20  1  0  0  0  0
  2  3  1  0  0  0  0
  3  9  1  0  0  0  0
  3  4  2  0  0  0  0
  4  5  1  0  0  0  0
  4 21  1  0  0  0  0
  5  6  2  0  0  0  0
  5 22  1  0  0  0  0
  6  7  1  0  0  0  0
  6  8  1  0  0  0  0
  7 23  1  0  0  0  0
  7 24  1  0  0  0  0
  7 25  1  0  0  0  0
  8  9  2  0  0  0  0
  9 10  1  0  0  0  0
 10 11  1  0  0  0  0
 10 26  1  0  0  0  0
 11 12  2  0  0  0  0
 11 13  1  0  0  0  0
 13 14  1  0  0  0  0
 13 27  1  0  0  0  0
 14 16  1  0  0  0  0
 14 15  1  0  0  0  0
 14 28  1  0  0  0  0
 15 16  1  0  0  0  0
 15 29  1  0  0  0  0
 15 30  1  0  0  0  0
 16 17  1  0  0  0  0
 16 31  1  0  0  0  0
 17 32  1  0  0  0  0
 17 33  1  0  0  0  0
 17 34  1  0  0  0  0
M  END
> <s_m_source_file>
AV-unprocessed.smi

> <i_m_source_file_index>
2222

> <i_lp_mmshare_version>
43012

> <i_f3d_flags>
0

> <s_epik_input>
W0NIM11PYzFbY0hdW2NIXWMoW0NIM10pbmMxW05IXUMoPU8pW05IXVtDQEBIXTJbQ0gyXVtDQEhdMltDSDNd

> <s_epik_cmdline>
J2VwaWtfcHl0aG9uJywgJy1waCcsICc3LjAnLCAnLXRuJywgJzgnLCAnLW1hJywgJzIwMCcsICctbWV0YWxfYmluZGluZycsICctaW1hZScsICc8aW5maWxlLm1hZT4nLCAnLW9tYWUnLCAnPG91dGZpbGUubWFlPic=

> <r_lp_tautomer_probability>
1

> <r_epik_Ionization_Penalty>
6.59103e-05

> <r_epik_Ionization_Penalty_Charging>
0

> <r_epik_Ionization_Penalty_Neutral>
6.59103e-05

> <r_epik_State_Penalty>
-0

> <r_epik_Charging_Adjusted_Penalty>
0

> <i_epik_Tot_Q>
0

> <i_epik_Tot_abs_Q>
0

> <r_epik_Metal_State_Penalty>
-0

> <b_epik_Metal_Only>
0

> <s_lp_Force_Field>
OPLS_2005

> <r_lp_Energy>
34.1661

> <b_lp_Chiralities_Consistent>
1

> <s_lp_Variant>
AV-unprocessed.smi:2222-2

> <Gold.Version>
5.8.1

> <Gold.Id.Protein>
6NUR|6NUR_protein|mol2

> <Gold.PLP.Fitness>
40.7908

> <Gold.PLP.PLP>
-38.0136

> <Gold.PLP.part.hbond>
-1.0000

> <Gold.PLP.part.metal>
0.0000

> <Gold.PLP.part.buried>
-4.4842

> <Gold.PLP.part.nonpolar>
-32.6974

> <Gold.PLP.part.repulsive>
0.3271

> <Gold.PLP.ligand.clash>
0.0000

> <Gold.PLP.ligand.torsion>
0.1303

> <Gold.PLP.Chemscore.Hbond>
1.0000

> <Gold.PLP.Chemscore.CHOScore>
0.0000

> <Gold.PLP.Chemscore.Metal>
0.0000

> <Gold.Chemscore.Hbonds>
donor molecule, donor type, donor heavy atom, donor atom, acceptor molecule, acceptor atom, score
      L1  H    13    27       P1  8028  1.00

> <Gold.PLP.Chemscore.Internal.Correction>
0.0376

> <Gold.Rescore>
     Score         DG    S(hbond)    S(metal)    S(lipo)     H(rot)  DE(clash)    DE(int)     intcor
     14.48     -15.98       1.03        0.00      86.88       1.22       0.08       1.43       ----

> <Gold.Chemscore.Fitness>
14.4762

> <Gold.Chemscore.DG>
-15.9826

> <Gold.Chemscore.ZeroCoef>
-5.4800

> <Gold.Chemscore.Hbond>
1.0339

> <Gold.Chemscore.Metal>
0.0000

> <Gold.Chemscore.Lipo>
86.8758

> <Gold.Chemscore.Internal_Hbond>
0.0000

> <Gold.Chemscore.DEClash>
0.0757

> <Gold.Chemscore.DEInternal>
1.4308

> <Gold.Chemscore.Rot>
1.2168

> <Gold.Chemscore.Internal.Correction>
   9.000000E+99

> <Gold.Chemscore.Hbonds>
donor molecule, donor type, donor heavy atom, donor atom, acceptor molecule, acceptor atom, score
      L1  H    13    27       P1  8028  0.97

> <Gold.Chemscore.Hbond.Weighted>
-3.4531

> <Gold.Chemscore.Metal.Weighted>
-0.0000

> <Gold.Chemscore.Lipo.Weighted>
-10.1645

> <Gold.Chemscore.Internal_Hbond.Weighted>
0.0000

> <Gold.Chemscore.DEClash.Weighted>
0.0757

> <Gold.Chemscore.DEInternal.Weighted>
1.4308

> <Gold.Chemscore.Rot.Weighted>
3.1150

> <Gold.Chemscore.Internal.Correction.Weighted>
   9.000000E+99

> <Gold.Protein.RotatedTorsions>
[ 6907 6896 6895 6894 ] final  132.60 input  -60.11 | X-H torsion
[ 7974 7965 7964 7962 ] final  126.86 input  175.53 | X-H torsion
[ 8008 7997 7996 7995 ] final -106.95 input   59.86 | X-H torsion
[ 10167 10162 10161 10158 ] final  108.80 input  -65.29 | X-H torsion
[ 10718 10713 10712 10709 ] final  120.10 input   66.30 | X-H torsion
[ 10763 10752 10751 10750 ] final  139.62 input  -60.55 | X-H torsion
[ 11005 11000 10999 10996 ] final  140.52 input  -57.11 | X-H torsion

> <Gold.Protein.ActiveResidues>
 VAL166  LYS551  ARG553  GLY616  TRP617  ASP618  TYR619  PRO620  LYS621  CYS622 
 ASP623  PHE694  ASN695  SER759  ASP760  ASP761  ALA762  ILE779  LEU786  VAL792 
 PHE793  MET794  SER795  GLU796  ALA797  LYS798  CYS799  TRP800  GLU811  SER814 

> <Gold.Protein.RotatedAtoms>
  152.3307  133.5955  159.5807 H   0  0  0  0  0  0  0  0  0  0  0  0  # atno 6907 bound_to 6896
  150.7421  133.9872  159.3604 H   0  0  0  0  0  0  0  0  0  0  0  0  # atno 6908 bound_to 6896
  151.7747  135.0778  160.0416 H   0  0  0  0  0  0  0  0  0  0  0  0  # atno 6909 bound_to 6896
  145.0569  139.3836  143.5025 H   0  0  0  0  0  0  0  0  0  0  0  0  # atno 7974 bound_to 7965
  154.9221  140.0407  157.2003 H   0  0  0  0  0  0  0  0  0  0  0  0  # atno 8008 bound_to 7997
  154.8244  140.2889  155.5743 H   0  0  0  0  0  0  0  0  0  0  0  0  # atno 8009 bound_to 7997
  156.2982  140.2512  156.3157 H   0  0  0  0  0  0  0  0  0  0  0  0  # atno 8010 bound_to 7997
  139.6817  144.7117  151.1503 H   0  0  0  0  0  0  0  0  0  0  0  0  # atno 10167 bound_to 10162
  157.5915  131.1063  150.7989 H   0  0  0  0  0  0  0  0  0  0  0  0  # atno 10718 bound_to 10713
  153.9091  135.3013  155.3448 H   0  0  0  0  0  0  0  0  0  0  0  0  # atno 10763 bound_to 10752
  154.7632  135.4923  153.9507 H   0  0  0  0  0  0  0  0  0  0  0  0  # atno 10764 bound_to 10752
  153.1203  135.6780  153.9449 H   0  0  0  0  0  0  0  0  0  0  0  0  # atno 10765 bound_to 10752
  140.0334  134.9341  157.0705 H   0  0  0  0  0  0  0  0  0  0  0  0  # atno 11005 bound_to 11000
  146.3522  140.0248  142.8655 LP  0  0  0  0  0  0  0  0  0  0  0  0  # atno 17320 bound_to 7965
  145.1457  140.9595  143.4462 LP  0  0  0  0  0  0  0  0  0  0  0  0  # atno 17321 bound_to 7965
  140.7654  143.5689  150.9017 LP  0  0  0  0  0  0  0  0  0  0  0  0  # atno 17342 bound_to 10162
  139.9361  143.6436  152.3065 LP  0  0  0  0  0  0  0  0  0  0  0  0  # atno 17343 bound_to 10162
  156.8410  130.5048  149.5321 LP  0  0  0  0  0  0  0  0  0  0  0  0  # atno 17370 bound_to 10713
  156.0970  130.5940  150.9830 LP  0  0  0  0  0  0  0  0  0  0  0  0  # atno 17371 bound_to 10713
  140.4188  134.1902  155.7164 LP  0  0  0  0  0  0  0  0  0  0  0  0  # atno 17394 bound_to 11000
  141.1843  133.8346  157.1143 LP  0  0  0  0  0  0  0  0  0  0  0  0  # atno 17395 bound_to 11000

$$$$
