AV-unprocessed.smi:271|AV-procd|sdf|2051|dock8
  -GOLD-   2262021283D 1   1.00000     0.00000
 Structure written by MMmdl.
 58 60  0  0  0  0  0  0  0  0  1 V2000
  152.7522  142.8361  159.3478 C   0  0  0  0  0  0  0  0  0  0  0  0
  152.1270  143.6520  158.2062 C   0  0  0  0  0  0  0  0  0  0  0  0
  151.9375  145.1159  158.6395 C   0  0  0  0  0  0  0  0  0  0  0  0
  150.8063  143.0112  157.7380 C   0  0  0  0  0  0  0  0  0  0  0  0
  150.8864  141.4779  157.5670 C   0  0  0  0  0  0  0  0  0  0  0  0
  149.5859  140.8076  157.6246 N   0  0  0  0  0  0  0  0  0  0  0  0
  149.6377  139.3530  157.5001 C   0  0  0  0  0  0  0  0  0  0  0  0
  149.9390  138.8746  156.0709 C   0  0  0  0  0  0  0  0  0  0  0  0
  151.3154  139.1835  155.6569 C   0  0  0  0  0  0  0  0  0  0  0  0
  152.3986  139.4262  155.3308 N   0  0  0  0  0  0  0  0  0  0  0  0
  148.6493  141.3684  156.8258 C   0  0  0  0  0  0  0  0  0  0  0  0
  148.8850  141.3561  155.4907 N   0  0  0  0  0  0  0  0  0  0  0  0
  147.9698  141.8429  154.6472 C   0  0  0  0  0  0  0  0  0  0  0  0
  146.7723  142.3637  154.9238 N   0  0  0  0  0  0  0  0  0  0  0  0
  146.5379  142.3826  156.2674 C   0  0  0  0  0  0  0  0  0  0  0  0
  147.4224  141.9264  157.2835 C   0  0  0  0  0  0  0  0  0  0  0  0
  146.8505  142.1227  158.5347 N   0  0  0  0  0  0  0  0  0  0  0  0
  145.6828  142.6424  158.2725 C   0  0  0  0  0  0  0  0  0  0  0  0
  145.3994  142.7989  156.9342 N   0  0  0  0  0  0  0  0  0  0  0  0
  144.1679  143.3106  156.3622 C   0  0  0  0  0  0  0  0  0  0  0  0
  144.3679  144.4495  155.3260 C   0  0  2  0  0  0  0  0  0  0  0  0
  144.2476  145.8146  156.0424 C   0  0  0  0  0  0  0  0  0  0  0  0
  145.2641  145.9903  157.0089 O   0  0  0  0  0  0  0  0  0  0  0  0
  143.4572  144.3492  154.0648 C   0  0  1  0  0  0  0  0  0  0  0  0
  142.1129  145.0498  154.1937 C   0  0  0  0  0  0  0  0  0  0  0  0
  141.6784  145.1841  152.7420 C   0  0  0  0  0  0  0  0  0  0  0  0
  142.8753  145.4957  152.0475 O   0  0  0  0  0  0  0  0  0  0  0  0
  143.9958  145.0202  152.7878 C   0  0  0  0  0  0  0  0  0  0  0  0
  152.0983  142.8099  160.2202 H   0  0  0  0  0  0  0  0  0  0  0  0
  153.7060  143.2626  159.6599 H   0  0  0  0  0  0  0  0  0  0  0  0
  152.9394  141.8068  159.0406 H   0  0  0  0  0  0  0  0  0  0  0  0
  152.8295  143.6332  157.3719 H   0  0  0  0  0  0  0  0  0  0  0  0
  151.2168  145.1980  159.4538 H   0  0  0  0  0  0  0  0  0  0  0  0
  151.5839  145.7384  157.8184 H   0  0  0  0  0  0  0  0  0  0  0  0
  152.8775  145.5462  158.9859 H   0  0  0  0  0  0  0  0  0  0  0  0
  150.0214  143.2314  158.4629 H   0  0  0  0  0  0  0  0  0  0  0  0
  150.5008  143.4919  156.8077 H   0  0  0  0  0  0  0  0  0  0  0  0
  151.3818  141.2201  156.6320 H   0  0  0  0  0  0  0  0  0  0  0  0
  151.5139  141.0704  158.3603 H   0  0  0  0  0  0  0  0  0  0  0  0
  150.3807  138.9522  158.1910 H   0  0  0  0  0  0  0  0  0  0  0  0
  148.6755  138.9459  157.8128 H   0  0  0  0  0  0  0  0  0  0  0  0
  149.8030  137.7954  155.9939 H   0  0  0  0  0  0  0  0  0  0  0  0
  149.2696  139.3412  155.3484 H   0  0  0  0  0  0  0  0  0  0  0  0
  148.2293  141.7978  153.5998 H   0  0  0  0  0  0  0  0  0  0  0  0
  144.9812  142.9004  159.0525 H   0  0  0  0  0  0  0  0  0  0  0  0
  143.6314  142.4778  155.9062 H   0  0  0  0  0  0  0  0  0  0  0  0
  143.5465  143.6608  157.1872 H   0  0  0  0  0  0  0  0  0  0  0  0
  145.3999  144.3934  154.9780 H   0  0  0  0  0  0  0  0  0  0  0  0
  144.3107  146.6288  155.3198 H   0  0  0  0  0  0  0  0  0  0  0  0
  143.2781  145.9198  156.5291 H   0  0  0  0  0  0  0  0  0  0  0  0
  146.0902  146.0926  156.5615 H   0  0  0  0  0  0  0  0  0  0  0  0
  143.2640  143.2976  153.8461 H   0  0  0  0  0  0  0  0  0  0  0  0
  141.3916  144.4917  154.7916 H   0  0  0  0  0  0  0  0  0  0  0  0
  142.2360  146.0389  154.6376 H   0  0  0  0  0  0  0  0  0  0  0  0
  141.2867  144.2367  152.3692 H   0  0  0  0  0  0  0  0  0  0  0  0
  140.9178  145.9513  152.5961 H   0  0  0  0  0  0  0  0  0  0  0  0
  144.6280  145.8769  153.0228 H   0  0  0  0  0  0  0  0  0  0  0  0
  144.5748  144.3309  152.1748 H   0  0  0  0  0  0  0  0  0  0  0  0
  1  2  1  0  0  0  0
  1 29  1  0  0  0  0
  1 30  1  0  0  0  0
  1 31  1  0  0  0  0
  2  3  1  0  0  0  0
  2  4  1  0  0  0  0
  2 32  1  0  0  0  0
  3 33  1  0  0  0  0
  3 34  1  0  0  0  0
  3 35  1  0  0  0  0
  4  5  1  0  0  0  0
  4 36  1  0  0  0  0
  4 37  1  0  0  0  0
  5  6  1  0  0  0  0
  5 38  1  0  0  0  0
  5 39  1  0  0  0  0
  6  7  1  0  0  0  0
  6 11  1  0  0  0  0
  7  8  1  0  0  0  0
  7 40  1  0  0  0  0
  7 41  1  0  0  0  0
  8  9  1  0  0  0  0
  8 42  1  0  0  0  0
  8 43  1  0  0  0  0
  9 10  3  0  0  0  0
 11 16  1  0  0  0  0
 11 12  2  0  0  0  0
 12 13  1  0  0  0  0
 13 14  2  0  0  0  0
 13 44  1  0  0  0  0
 14 15  1  0  0  0  0
 15 19  1  0  0  0  0
 15 16  2  0  0  0  0
 16 17  1  0  0  0  0
 17 18  2  0  0  0  0
 18 19  1  0  0  0  0
 18 45  1  0  0  0  0
 19 20  1  0  0  0  0
 20 21  1  0  0  0  0
 20 46  1  0  0  0  0
 20 47  1  0  0  0  0
 21 22  1  0  0  0  0
 21 24  1  0  0  0  0
 21 48  1  0  0  0  0
 22 23  1  0  0  0  0
 22 49  1  0  0  0  0
 22 50  1  0  0  0  0
 23 51  1  0  0  0  0
 24 28  1  0  0  0  0
 24 25  1  0  0  0  0
 24 52  1  0  0  0  0
 25 26  1  0  0  0  0
 25 53  1  0  0  0  0
 25 54  1  0  0  0  0
 26 27  1  0  0  0  0
 26 55  1  0  0  0  0
 26 56  1  0  0  0  0
 27 28  1  0  0  0  0
 28 57  1  0  0  0  0
 28 58  1  0  0  0  0
M  END
> <s_m_source_file>
AV-unprocessed.smi

> <i_m_source_file_index>
271

> <i_lp_mmshare_version>
43012

> <i_f3d_flags>
0

> <s_epik_input>
W0NIM11bQ0hdKFtDSDNdKVtDSDJdW0NIMl1OKFtDSDJdW0NIMl1DI04pYyhuW2NIXW4xKWMoYzEyKW5bY0hdbjJbQ0gyXVtDQEhdKFtDSDJdW09IXSlbQ0BASF0zW0NIMl1bQ0gyXU9bQ0gyXTM=

> <s_epik_cmdline>
J2VwaWtfcHl0aG9uJywgJy1waCcsICc3LjAnLCAnLXRuJywgJzgnLCAnLW1hJywgJzIwMCcsICctbWV0YWxfYmluZGluZycsICctaW1hZScsICc8aW5maWxlLm1hZT4nLCAnLW9tYWUnLCAnPG91dGZpbGUubWFlPic=

> <r_lp_tautomer_probability>
1

> <r_epik_Ionization_Penalty>
0.000825874

> <r_epik_Ionization_Penalty_Charging>
0

> <r_epik_Ionization_Penalty_Neutral>
0.000825874

> <r_epik_State_Penalty>
0.000396768

> <r_epik_Charging_Adjusted_Penalty>
0.000396768

> <i_epik_Tot_Q>
0

> <i_epik_Tot_abs_Q>
0

> <r_epik_Metal_State_Penalty>
-0

> <b_epik_Metal_Only>
0

> <s_lp_Force_Field>
OPLS_2005

> <r_lp_Energy>
35.9661

> <b_lp_Chiralities_Consistent>
1

> <s_lp_Variant>
AV-unprocessed.smi:271-3

> <Gold.Version>
5.8.1

> <Gold.Id.Protein>
6NUR|6NUR_protein|mol2

> <Gold.PLP.Fitness>
47.0122

> <Gold.PLP.PLP>
-41.7357

> <Gold.PLP.part.hbond>
-4.0000

> <Gold.PLP.part.metal>
0.0000

> <Gold.PLP.part.buried>
-5.4373

> <Gold.PLP.part.nonpolar>
-34.1900

> <Gold.PLP.part.repulsive>
1.1582

> <Gold.PLP.ligand.clash>
0.0000

> <Gold.PLP.ligand.torsion>
1.6109

> <Gold.PLP.Chemscore.Hbond>
2.5520

> <Gold.PLP.Chemscore.CHOScore>
0.0000

> <Gold.PLP.Chemscore.Metal>
0.0000

> <Gold.Chemscore.Hbonds>
donor molecule, donor type, donor heavy atom, donor atom, acceptor molecule, acceptor atom, score
      P1  H  7997  8008       L1    10  0.05

> <Gold.PLP.Chemscore.Internal.Correction>
0.8422

> <Gold.Rescore>
     Score         DG    S(hbond)    S(metal)    S(lipo)     H(rot)  DE(clash)    DE(int)     intcor
     10.85     -14.77       2.69        0.00      85.15       3.77       0.62       3.30       ----

> <Gold.Chemscore.Fitness>
10.8495

> <Gold.Chemscore.DG>
-14.7690

> <Gold.Chemscore.ZeroCoef>
-5.4800

> <Gold.Chemscore.Hbond>
2.6866

> <Gold.Chemscore.Metal>
0.0000

> <Gold.Chemscore.Lipo>
85.1505

> <Gold.Chemscore.Internal_Hbond>
0.0000

> <Gold.Chemscore.DEClash>
0.6174

> <Gold.Chemscore.DEInternal>
3.3021

> <Gold.Chemscore.Rot>
3.7683

> <Gold.Chemscore.Internal.Correction>
   9.000000E+99

> <Gold.Chemscore.Hbonds>
donor molecule, donor type, donor heavy atom, donor atom, acceptor molecule, acceptor atom, score
      P1  H  6934  6946       L1    17  0.01
      P1  H  7997  8008       L1    10  0.08

> <Gold.Chemscore.Hbond.Weighted>
-8.9732

> <Gold.Chemscore.Metal.Weighted>
-0.0000

> <Gold.Chemscore.Lipo.Weighted>
-9.9626

> <Gold.Chemscore.Internal_Hbond.Weighted>
0.0000

> <Gold.Chemscore.DEClash.Weighted>
0.6174

> <Gold.Chemscore.DEInternal.Weighted>
3.3021

> <Gold.Chemscore.Rot.Weighted>
9.6468

> <Gold.Chemscore.Internal.Correction.Weighted>
   9.000000E+99

> <Gold.Protein.RotatedTorsions>
[ 6907 6896 6895 6894 ] final  -52.63 input  -60.11 | X-H torsion
[ 7974 7965 7964 7962 ] final  -71.69 input  175.53 | X-H torsion
[ 8008 7997 7996 7995 ] final  -57.24 input   59.86 | X-H torsion
[ 10167 10162 10161 10158 ] final -109.37 input  -65.29 | X-H torsion
[ 10718 10713 10712 10709 ] final   69.55 input   66.30 | X-H torsion
[ 10763 10752 10751 10750 ] final  152.21 input  -60.55 | X-H torsion
[ 11005 11000 10999 10996 ] final  -39.04 input  -57.11 | X-H torsion

> <Gold.Protein.ActiveResidues>
 VAL166  LYS551  ARG553  GLY616  TRP617  ASP618  TYR619  PRO620  LYS621  CYS622 
 ASP623  PHE694  ASN695  SER759  ASP760  ASP761  ALA762  ILE779  LEU786  VAL792 
 PHE793  MET794  SER795  GLU796  ALA797  LYS798  CYS799  TRP800  GLU811  SER814 

> <Gold.Protein.RotatedAtoms>
  150.8500  134.7821  159.7000 H   0  0  0  0  0  0  0  0  0  0  0  0  # atno 6907 bound_to 6896
  152.4567  134.5272  159.9810 H   0  0  0  0  0  0  0  0  0  0  0  0  # atno 6908 bound_to 6896
  151.5395  133.3397  159.2968 H   0  0  0  0  0  0  0  0  0  0  0  0  # atno 6909 bound_to 6896
  145.6748  140.9208  143.0864 H   0  0  0  0  0  0  0  0  0  0  0  0  # atno 7974 bound_to 7965
  154.4260  140.1111  156.5766 H   0  0  0  0  0  0  0  0  0  0  0  0  # atno 8008 bound_to 7997
  155.6156  140.3494  155.4617 H   0  0  0  0  0  0  0  0  0  0  0  0  # atno 8009 bound_to 7997
  156.0065  140.1210  157.0486 H   0  0  0  0  0  0  0  0  0  0  0  0  # atno 8010 bound_to 7997
  140.1560  143.4159  152.1460 H   0  0  0  0  0  0  0  0  0  0  0  0  # atno 10167 bound_to 10162
  157.6352  130.9431  150.0529 H   0  0  0  0  0  0  0  0  0  0  0  0  # atno 10718 bound_to 10713
  154.1163  135.2836  155.3219 H   0  0  0  0  0  0  0  0  0  0  0  0  # atno 10763 bound_to 10752
  154.6454  135.5387  153.7842 H   0  0  0  0  0  0  0  0  0  0  0  0  # atno 10764 bound_to 10752
  153.0328  135.6497  154.1319 H   0  0  0  0  0  0  0  0  0  0  0  0  # atno 10765 bound_to 10752
  141.0072  133.6926  156.2133 H   0  0  0  0  0  0  0  0  0  0  0  0  # atno 11005 bound_to 11000
  144.7045  139.8619  143.7434 LP  0  0  0  0  0  0  0  0  0  0  0  0  # atno 17320 bound_to 7965
  146.1015  139.4011  143.0344 LP  0  0  0  0  0  0  0  0  0  0  0  0  # atno 17321 bound_to 7965
  139.5403  144.7250  151.4755 LP  0  0  0  0  0  0  0  0  0  0  0  0  # atno 17342 bound_to 10162
  140.6673  143.8371  150.6957 LP  0  0  0  0  0  0  0  0  0  0  0  0  # atno 17343 bound_to 10162
  156.1585  130.3643  149.9333 LP  0  0  0  0  0  0  0  0  0  0  0  0  # atno 17370 bound_to 10713
  156.7337  130.9053  151.3627 LP  0  0  0  0  0  0  0  0  0  0  0  0  # atno 17371 bound_to 10713
  140.6793  134.4784  157.5589 LP  0  0  0  0  0  0  0  0  0  0  0  0  # atno 17394 bound_to 11000
  139.9070  134.8428  156.1670 LP  0  0  0  0  0  0  0  0  0  0  0  0  # atno 17395 bound_to 11000

$$$$
