AV-unprocessed.smi:2821|AV-procd|sdf|10856|dock8
  -GOLD-   2272015303D 1   1.00000     0.00000
 Structure written by MMmdl.
 36 37  0  0  0  0  0  0  0  0  1 V2000
  153.0621  138.6884  154.7090 C   0  0  0  0  0  0  0  0  0  0  0  0
  151.8979  137.9341  155.3552 C   0  0  0  0  0  0  0  0  0  0  0  0
  150.7441  138.0819  154.5335 O   0  0  0  0  0  0  0  0  0  0  0  0
  150.0754  139.2885  154.5567 C   0  0  0  0  0  0  0  0  0  0  0  0
  148.9323  139.4661  153.7484 C   0  0  0  0  0  0  0  0  0  0  0  0
  148.2420  140.6276  153.7315 N   0  0  0  0  0  0  0  0  0  0  0  0
  148.6999  141.6158  154.5314 C   0  0  0  0  0  0  0  0  0  0  0  0
  149.8399  141.4517  155.3490 C   0  0  0  0  0  0  0  0  0  0  0  0
  150.2649  142.5154  156.1586 N   0  0  0  0  0  0  0  0  0  0  0  0
  151.3058  142.3434  157.1686 C   0  0  2  0  0  0  0  0  0  0  0  0
  150.8882  141.2748  158.1943 C   0  0  0  0  0  0  0  0  0  0  0  0
  151.6053  143.6886  157.8568 C   0  0  2  0  0  0  0  0  0  0  0  0
  152.5793  143.5956  159.0337 C   0  0  0  0  0  0  0  0  0  0  0  0
  152.2162  144.7916  159.9008 C   0  0  0  0  0  0  0  0  0  0  0  0
  150.8592  145.2465  159.3583 C   0  0  0  0  0  0  0  0  0  0  0  0
  150.4433  144.2045  158.4879 O   0  0  0  0  0  0  0  0  0  0  0  0
  150.5291  140.2854  155.3576 N   0  0  0  0  0  0  0  0  0  0  0  0
  153.9649  138.6034  155.3141 H   0  0  0  0  0  0  0  0  0  0  0  0
  152.8302  139.7482  154.6009 H   0  0  0  0  0  0  0  0  0  0  0  0
  153.2844  138.2903  153.7187 H   0  0  0  0  0  0  0  0  0  0  0  0
  152.1589  136.8796  155.4610 H   0  0  0  0  0  0  0  0  0  0  0  0
  151.7094  138.3373  156.3517 H   0  0  0  0  0  0  0  0  0  0  0  0
  148.5706  138.6722  153.1119 H   0  0  0  0  0  0  0  0  0  0  0  0
  148.1481  142.5446  154.5192 H   0  0  0  0  0  0  0  0  0  0  0  0
  149.7145  143.3617  156.1821 H   0  0  0  0  0  0  0  0  0  0  0  0
  152.2226  142.0127  156.6788 H   0  0  0  0  0  0  0  0  0  0  0  0
  151.6690  141.1163  158.9384 H   0  0  0  0  0  0  0  0  0  0  0  0
  150.6994  140.3128  157.7171 H   0  0  0  0  0  0  0  0  0  0  0  0
  149.9805  141.5667  158.7236 H   0  0  0  0  0  0  0  0  0  0  0  0
  151.9650  144.4203  157.1302 H   0  0  0  0  0  0  0  0  0  0  0  0
  152.4060  142.6757  159.5939 H   0  0  0  0  0  0  0  0  0  0  0  0
  153.6227  143.6030  158.7178 H   0  0  0  0  0  0  0  0  0  0  0  0
  152.1539  144.5035  160.9506 H   0  0  0  0  0  0  0  0  0  0  0  0
  152.9533  145.5903  159.8142 H   0  0  0  0  0  0  0  0  0  0  0  0
  150.1263  145.4161  160.1475 H   0  0  0  0  0  0  0  0  0  0  0  0
  150.9643  146.1697  158.7866 H   0  0  0  0  0  0  0  0  0  0  0  0
  1  2  1  0  0  0  0
  1 18  1  0  0  0  0
  1 19  1  0  0  0  0
  1 20  1  0  0  0  0
  2  3  1  0  0  0  0
  2 21  1  0  0  0  0
  2 22  1  0  0  0  0
  3  4  1  0  0  0  0
  4 17  1  0  0  0  0
  4  5  2  0  0  0  0
  5  6  1  0  0  0  0
  5 23  1  0  0  0  0
  6  7  2  0  0  0  0
  7  8  1  0  0  0  0
  7 24  1  0  0  0  0
  8  9  1  0  0  0  0
  8 17  2  0  0  0  0
  9 10  1  0  0  0  0
  9 25  1  0  0  0  0
 10 11  1  0  0  0  0
 10 12  1  0  0  0  0
 10 26  1  0  0  0  0
 11 27  1  0  0  0  0
 11 28  1  0  0  0  0
 11 29  1  0  0  0  0
 12 16  1  0  0  0  0
 12 13  1  0  0  0  0
 12 30  1  0  0  0  0
 13 14  1  0  0  0  0
 13 31  1  0  0  0  0
 13 32  1  0  0  0  0
 14 15  1  0  0  0  0
 14 33  1  0  0  0  0
 14 34  1  0  0  0  0
 15 16  1  0  0  0  0
 15 35  1  0  0  0  0
 15 36  1  0  0  0  0
M  END
> <s_m_source_file>
AV-unprocessed.smi

> <i_m_source_file_index>
2821

> <i_lp_mmshare_version>
43012

> <i_f3d_flags>
0

> <s_epik_input>
W0NIM11bQ0gyXU9jMVtjSF1uW2NIXWMobjEpW05IXVtDQEhdKFtDSDNdKVtDQEBIXTJbQ0gyXVtDSDJdW0NIMl1PMg==

> <s_epik_cmdline>
J2VwaWtfcHl0aG9uJywgJy1waCcsICc3LjAnLCAnLXRuJywgJzgnLCAnLW1hJywgJzIwMCcsICctbWV0YWxfYmluZGluZycsICctaW1hZScsICc8aW5maWxlLm1hZT4nLCAnLW9tYWUnLCAnPG91dGZpbGUubWFlPic=

> <r_lp_tautomer_probability>
1

> <r_epik_Ionization_Penalty>
4.69533e-05

> <r_epik_Ionization_Penalty_Charging>
0

> <r_epik_Ionization_Penalty_Neutral>
4.69533e-05

> <r_epik_State_Penalty>
-0

> <r_epik_Charging_Adjusted_Penalty>
0

> <i_epik_Tot_Q>
0

> <i_epik_Tot_abs_Q>
0

> <r_epik_Metal_State_Penalty>
-0

> <b_epik_Metal_Only>
0

> <s_lp_Force_Field>
OPLS_2005

> <r_lp_Energy>
27.5992

> <b_lp_Chiralities_Consistent>
1

> <s_lp_Variant>
AV-unprocessed.smi:2821-1

> <Gold.Version>
5.8.1

> <Gold.Id.Protein>
6NUR|6NUR_protein|mol2

> <Gold.PLP.Fitness>
44.2176

> <Gold.PLP.PLP>
-36.7866

> <Gold.PLP.part.hbond>
-1.5324

> <Gold.PLP.part.metal>
0.0000

> <Gold.PLP.part.buried>
-3.9265

> <Gold.PLP.part.nonpolar>
-32.8719

> <Gold.PLP.part.repulsive>
1.6978

> <Gold.PLP.ligand.clash>
0.0000

> <Gold.PLP.ligand.torsion>
0.1137

> <Gold.PLP.Chemscore.Hbond>
1.0416

> <Gold.PLP.Chemscore.CHOScore>
1.5016

> <Gold.PLP.Chemscore.Metal>
0.0000

> <Gold.Chemscore.Hbonds>
donor molecule, donor type, donor heavy atom, donor atom, acceptor molecule, acceptor atom, score
      L1  H     9    25       P1  8028  1.00
      P1  H  7989  7998       L1    17  0.04
      L1  C     5    23       P1  7948  0.47
      L1  C     5    23       P1  7957  0.11
      L1  C     7    24       P1  8028  0.92

> <Gold.PLP.Chemscore.Internal.Correction>
0.0289

> <Gold.Rescore>
     Score         DG    S(hbond)    S(metal)    S(lipo)     H(rot)  DE(clash)    DE(int)     intcor
     15.48     -15.99       0.99        0.00      95.41       1.55       0.35       0.16       ----

> <Gold.Chemscore.Fitness>
15.4811

> <Gold.Chemscore.DG>
-15.9869

> <Gold.Chemscore.ZeroCoef>
-5.4800

> <Gold.Chemscore.Hbond>
0.9927

> <Gold.Chemscore.Metal>
0.0000

> <Gold.Chemscore.Lipo>
95.4083

> <Gold.Chemscore.Internal_Hbond>
0.0000

> <Gold.Chemscore.DEClash>
0.3492

> <Gold.Chemscore.DEInternal>
0.1566

> <Gold.Chemscore.Rot>
1.5514

> <Gold.Chemscore.Internal.Correction>
   9.000000E+99

> <Gold.Chemscore.Hbonds>
donor molecule, donor type, donor heavy atom, donor atom, acceptor molecule, acceptor atom, score
      L1  H     9    25       P1  8028  1.00

> <Gold.Chemscore.Hbond.Weighted>
-3.3156

> <Gold.Chemscore.Metal.Weighted>
-0.0000

> <Gold.Chemscore.Lipo.Weighted>
-11.1628

> <Gold.Chemscore.Internal_Hbond.Weighted>
0.0000

> <Gold.Chemscore.DEClash.Weighted>
0.3492

> <Gold.Chemscore.DEInternal.Weighted>
0.1566

> <Gold.Chemscore.Rot.Weighted>
3.9715

> <Gold.Chemscore.Internal.Correction.Weighted>
   9.000000E+99

> <Gold.Protein.RotatedTorsions>
[ 6907 6896 6895 6894 ] final   23.57 input  -60.11 | X-H torsion
[ 7974 7965 7964 7962 ] final  -87.35 input  175.53 | X-H torsion
[ 8008 7997 7996 7995 ] final  -55.93 input   59.86 | X-H torsion
[ 10167 10162 10161 10158 ] final  115.52 input  -65.29 | X-H torsion
[ 10718 10713 10712 10709 ] final   47.69 input   66.30 | X-H torsion
[ 10763 10752 10751 10750 ] final  -22.02 input  -60.55 | X-H torsion
[ 11005 11000 10999 10996 ] final -132.29 input  -57.11 | X-H torsion

> <Gold.Protein.ActiveResidues>
 VAL166  LYS551  ARG553  GLY616  TRP617  ASP618  TYR619  PRO620  LYS621  CYS622 
 ASP623  PHE694  ASN695  SER759  ASP760  ASP761  ALA762  ILE779  LEU786  VAL792 
 PHE793  MET794  SER795  GLU796  ALA797  LYS798  CYS799  TRP800  GLU811  SER814 

> <Gold.Protein.RotatedAtoms>
  151.9444  135.0198  160.0537 H   0  0  0  0  0  0  0  0  0  0  0  0  # atno 6907 bound_to 6896
  152.2008  133.4835  159.5066 H   0  0  0  0  0  0  0  0  0  0  0  0  # atno 6908 bound_to 6896
  150.6954  134.1509  159.4183 H   0  0  0  0  0  0  0  0  0  0  0  0  # atno 6909 bound_to 6896
  145.4677  140.9560  143.1934 H   0  0  0  0  0  0  0  0  0  0  0  0  # atno 7974 bound_to 7965
  154.4212  140.1141  156.5556 H   0  0  0  0  0  0  0  0  0  0  0  0  # atno 8008 bound_to 7997
  155.6364  140.3496  155.4681 H   0  0  0  0  0  0  0  0  0  0  0  0  # atno 8009 bound_to 7997
  155.9906  140.1178  157.0631 H   0  0  0  0  0  0  0  0  0  0  0  0  # atno 8010 bound_to 7997
  139.6311  144.7115  151.2429 H   0  0  0  0  0  0  0  0  0  0  0  0  # atno 10167 bound_to 10162
  157.4610  130.8196  149.7886 H   0  0  0  0  0  0  0  0  0  0  0  0  # atno 10718 bound_to 10713
  153.6453  135.6983  153.5227 H   0  0  0  0  0  0  0  0  0  0  0  0  # atno 10763 bound_to 10752
  153.2750  135.4203  155.1024 H   0  0  0  0  0  0  0  0  0  0  0  0  # atno 10764 bound_to 10752
  154.8490  135.3588  154.5997 H   0  0  0  0  0  0  0  0  0  0  0  0  # atno 10765 bound_to 10752
  140.9183  134.1477  157.4334 H   0  0  0  0  0  0  0  0  0  0  0  0  # atno 11005 bound_to 11000
  144.7964  139.6226  143.7091 LP  0  0  0  0  0  0  0  0  0  0  0  0  # atno 17320 bound_to 7965
  146.2414  139.6010  142.9488 LP  0  0  0  0  0  0  0  0  0  0  0  0  # atno 17321 bound_to 7965
  140.7440  143.6478  150.8276 LP  0  0  0  0  0  0  0  0  0  0  0  0  # atno 17342 bound_to 10162
  140.0103  143.5650  152.2841 LP  0  0  0  0  0  0  0  0  0  0  0  0  # atno 17343 bound_to 10162
  156.0029  130.3871  150.2539 LP  0  0  0  0  0  0  0  0  0  0  0  0  # atno 17370 bound_to 10713
  157.0717  131.0118  151.3188 LP  0  0  0  0  0  0  0  0  0  0  0  0  # atno 17371 bound_to 10713
  139.8770  134.9962  156.5782 LP  0  0  0  0  0  0  0  0  0  0  0  0  # atno 17394 bound_to 11000
  140.8021  133.8497  155.8735 LP  0  0  0  0  0  0  0  0  0  0  0  0  # atno 17395 bound_to 11000

$$$$
