AV-unprocessed.smi:1461|AV-procd|sdf|5931|dock4
  -GOLD-   22720 6 13D 1   1.00000     0.00000
 Structure written by MMmdl.
 42 43  0  0  0  0  0  0  0  0  2 V2000
  152.8221  144.7207  157.9466 C   0  0  0  0  0  0  0  0  0  0  0  0
  151.6929  144.2772  158.8881 C   0  0  0  0  0  0  0  0  0  0  0  0
  152.1324  144.3942  160.3581 C   0  0  0  0  0  0  0  0  0  0  0  0
  151.2083  142.8561  158.5264 C   0  0  0  0  0  0  0  0  0  0  0  0
  150.2201  142.8520  157.4521 N   0  0  0  0  0  0  0  0  0  0  0  0
  149.7661  141.7565  156.8278 C   0  0  0  0  0  0  0  0  0  0  0  0
  150.1227  140.6126  157.1093 O   0  0  0  0  0  0  0  0  0  0  0  0
  148.8997  142.0756  155.8525 N   0  0  0  0  0  0  0  0  0  0  0  0
  148.3063  141.1989  154.9023 C   0  0  0  0  0  0  0  0  0  0  0  0
  148.9649  140.0088  154.4996 C   0  0  0  0  0  0  0  0  0  0  0  0
  148.3306  139.1208  153.6106 C   0  0  0  0  0  0  0  0  0  0  0  0
  147.0389  139.4278  153.1499 C   0  0  0  0  0  0  0  0  0  0  0  0
  146.4337  140.5611  153.5617 N   0  3  0  0  0  0  0  0  0  0  0  0
  146.9972  141.4633  154.4037 C   0  0  0  0  0  0  0  0  0  0  0  0
  146.2434  142.6125  154.7369 N   0  0  0  0  0  0  0  0  0  0  0  0
  145.1657  142.5307  155.7157 C   0  0  0  0  0  0  0  0  0  0  0  0
  144.3901  143.8362  155.5603 C   0  0  0  0  0  0  0  0  0  0  0  0
  144.4923  144.1020  154.0613 C   0  0  0  0  0  0  0  0  0  0  0  0
  145.8762  143.5596  153.6883 C   0  0  0  0  0  0  0  0  0  0  0  0
  153.6934  144.0714  158.0387 H   0  0  0  0  0  0  0  0  0  0  0  0
  153.1415  145.7397  158.1669 H   0  0  0  0  0  0  0  0  0  0  0  0
  152.4980  144.6968  156.9057 H   0  0  0  0  0  0  0  0  0  0  0  0
  150.8624  144.9682  158.7384 H   0  0  0  0  0  0  0  0  0  0  0  0
  152.9534  143.7123  160.5811 H   0  0  0  0  0  0  0  0  0  0  0  0
  151.3146  144.1678  161.0424 H   0  0  0  0  0  0  0  0  0  0  0  0
  152.4703  145.4057  160.5850 H   0  0  0  0  0  0  0  0  0  0  0  0
  152.0537  142.2260  158.2444 H   0  0  0  0  0  0  0  0  0  0  0  0
  150.7549  142.3855  159.3994 H   0  0  0  0  0  0  0  0  0  0  0  0
  149.8706  143.7516  157.1560 H   0  0  0  0  0  0  0  0  0  0  0  0
  148.7653  143.0615  155.6820 H   0  0  0  0  0  0  0  0  0  0  0  0
  149.9432  139.7525  154.8784 H   0  0  0  0  0  0  0  0  0  0  0  0
  148.8238  138.2122  153.2978 H   0  0  0  0  0  0  0  0  0  0  0  0
  146.4725  138.8047  152.4730 H   0  0  0  0  0  0  0  0  0  0  0  0
  144.5118  141.6870  155.4912 H   0  0  0  0  0  0  0  0  0  0  0  0
  145.5531  142.4079  156.7274 H   0  0  0  0  0  0  0  0  0  0  0  0
  143.3611  143.7649  155.9135 H   0  0  0  0  0  0  0  0  0  0  0  0
  144.8858  144.6342  156.1148 H   0  0  0  0  0  0  0  0  0  0  0  0
  143.7219  143.5351  153.5367 H   0  0  0  0  0  0  0  0  0  0  0  0
  144.3672  145.1545  153.8056 H   0  0  0  0  0  0  0  0  0  0  0  0
  146.6035  144.3718  153.6796 H   0  0  0  0  0  0  0  0  0  0  0  0
  145.8677  143.0981  152.6999 H   0  0  0  0  0  0  0  0  0  0  0  0
  145.4956  140.7546  153.2107 H   0  0  0  0  0  0  0  0  0  0  0  0
  1  2  1  0  0  0  0
  1 20  1  0  0  0  0
  1 21  1  0  0  0  0
  1 22  1  0  0  0  0
  2  3  1  0  0  0  0
  2  4  1  0  0  0  0
  2 23  1  0  0  0  0
  3 24  1  0  0  0  0
  3 25  1  0  0  0  0
  3 26  1  0  0  0  0
  4  5  1  0  0  0  0
  4 27  1  0  0  0  0
  4 28  1  0  0  0  0
  5  6  1  0  0  0  0
  5 29  1  0  0  0  0
  6  7  2  0  0  0  0
  6  8  1  0  0  0  0
  8  9  1  0  0  0  0
  8 30  1  0  0  0  0
  9 14  1  0  0  0  0
  9 10  2  0  0  0  0
 10 11  1  0  0  0  0
 10 31  1  0  0  0  0
 11 12  2  0  0  0  0
 11 32  1  0  0  0  0
 12 13  1  0  0  0  0
 12 33  1  0  0  0  0
 13 14  2  0  0  0  0
 13 42  1  0  0  0  0
 14 15  1  0  0  0  0
 15 19  1  0  0  0  0
 15 16  1  0  0  0  0
 16 17  1  0  0  0  0
 16 34  1  0  0  0  0
 16 35  1  0  0  0  0
 17 18  1  0  0  0  0
 17 36  1  0  0  0  0
 17 37  1  0  0  0  0
 18 19  1  0  0  0  0
 18 38  1  0  0  0  0
 18 39  1  0  0  0  0
 19 40  1  0  0  0  0
 19 41  1  0  0  0  0
M  CHG  1  13   1
M  END
> <s_m_source_file>
AV-unprocessed.smi

> <i_m_source_file_index>
1461

> <i_lp_mmshare_version>
43012

> <i_f3d_flags>
0

> <s_epik_input>
W0NIM11bQ0hdKFtDSDNdKVtDSDJdW05IXUMoPU8pW05IXWMxW2NIXVtjSF1bY0hdbmMxTjJbQ0gyXVtDSDJdW0NIMl1bQ0gyXTI=

> <s_epik_cmdline>
J2VwaWtfcHl0aG9uJywgJy1waCcsICc3LjAnLCAnLXRuJywgJzgnLCAnLW1hJywgJzIwMCcsICctbWV0YWxfYmluZGluZycsICctaW1hZScsICc8aW5maWxlLm1hZT4nLCAnLW9tYWUnLCAnPG91dGZpbGUubWFlPic=

> <r_lp_tautomer_probability>
0.999994

> <r_epik_Ionization_Penalty>
1.09853

> <r_epik_Ionization_Penalty_Charging>
1.09851

> <r_epik_Ionization_Penalty_Neutral>
2.1796e-05

> <r_epik_State_Penalty>
1.15544

> <r_epik_Charging_Adjusted_Penalty>
2.25394

> <i_epik_Tot_Q>
1

> <i_epik_Tot_abs_Q>
1

> <r_epik_Metal_State_Penalty>
1.24304

> <b_epik_Metal_Only>
0

> <s_lp_Force_Field>
OPLS_2005

> <r_lp_Energy>
38.2179

> <b_lp_Chiralities_Consistent>
1

> <s_lp_Variant>
AV-unprocessed.smi:1461-2

> <Gold.Version>
5.8.1

> <Gold.Id.Protein>
6NUR|6NUR_protein|mol2

> <Gold.PLP.Fitness>
48.8381

> <Gold.PLP.PLP>
-38.2670

> <Gold.PLP.part.hbond>
-3.0000

> <Gold.PLP.part.metal>
0.0000

> <Gold.PLP.part.buried>
-3.8986

> <Gold.PLP.part.nonpolar>
-33.0168

> <Gold.PLP.part.repulsive>
0.3399

> <Gold.PLP.ligand.clash>
0.0000

> <Gold.PLP.ligand.torsion>
0.7744

> <Gold.PLP.Chemscore.Hbond>
3.8960

> <Gold.PLP.Chemscore.CHOScore>
0.0000

> <Gold.PLP.Chemscore.Metal>
0.0000

> <Gold.Chemscore.Hbonds>
donor molecule, donor type, donor heavy atom, donor atom, acceptor molecule, acceptor atom, score
      L1  H     5    29       P1  8028  0.90
      L1  H     8    30       P1  8028  1.00
      L1  H    13    42       P1 10175  2.00

> <Gold.PLP.Chemscore.Internal.Correction>
0.4320

> <Gold.Rescore>
     Score         DG    S(hbond)    S(metal)    S(lipo)     H(rot)  DE(clash)    DE(int)     intcor
     20.30     -22.43       2.76        0.00      95.69       1.35       0.14       1.99       ----

> <Gold.Chemscore.Fitness>
20.3035

> <Gold.Chemscore.DG>
-22.4326

> <Gold.Chemscore.ZeroCoef>
-5.4800

> <Gold.Chemscore.Hbond>
2.7570

> <Gold.Chemscore.Metal>
0.0000

> <Gold.Chemscore.Lipo>
95.6899

> <Gold.Chemscore.Internal_Hbond>
0.0000

> <Gold.Chemscore.DEClash>
0.1360

> <Gold.Chemscore.DEInternal>
1.9932

> <Gold.Chemscore.Rot>
1.3482

> <Gold.Chemscore.Internal.Correction>
   9.000000E+99

> <Gold.Chemscore.Hbonds>
donor molecule, donor type, donor heavy atom, donor atom, acceptor molecule, acceptor atom, score
      L1  H     5    29       P1  8028  0.77
      L1  H     8    30       P1  8028  1.00
      L1  H    13    42       P1 10175  0.73

> <Gold.Chemscore.Hbond.Weighted>
-9.2083

> <Gold.Chemscore.Metal.Weighted>
-0.0000

> <Gold.Chemscore.Lipo.Weighted>
-11.1957

> <Gold.Chemscore.Internal_Hbond.Weighted>
0.0000

> <Gold.Chemscore.DEClash.Weighted>
0.1360

> <Gold.Chemscore.DEInternal.Weighted>
1.9932

> <Gold.Chemscore.Rot.Weighted>
3.4514

> <Gold.Chemscore.Internal.Correction.Weighted>
   9.000000E+99

> <Gold.Protein.RotatedTorsions>
[ 6907 6896 6895 6894 ] final   17.88 input  -60.11 | X-H torsion
[ 7974 7965 7964 7962 ] final -179.08 input  175.53 | X-H torsion
[ 8008 7997 7996 7995 ] final  147.66 input   59.86 | X-H torsion
[ 10167 10162 10161 10158 ] final   99.54 input  -65.29 | X-H torsion
[ 10718 10713 10712 10709 ] final  127.57 input   66.30 | X-H torsion
[ 10763 10752 10751 10750 ] final  110.82 input  -60.55 | X-H torsion
[ 11005 11000 10999 10996 ] final  -14.27 input  -57.11 | X-H torsion

> <Gold.Protein.ActiveResidues>
 VAL166  LYS551  ARG553  GLY616  TRP617  ASP618  TYR619  PRO620  LYS621  CYS622 
 ASP623  PHE694  ASN695  SER759  ASP760  ASP761  ALA762  ILE779  LEU786  VAL792 
 PHE793  MET794  SER795  GLU796  ALA797  LYS798  CYS799  TRP800  GLU811  SER814 

> <Gold.Protein.RotatedAtoms>
  151.8566  135.0539  160.0464 H   0  0  0  0  0  0  0  0  0  0  0  0  # atno 6907 bound_to 6896
  152.2695  133.5365  159.5439 H   0  0  0  0  0  0  0  0  0  0  0  0  # atno 6908 bound_to 6896
  150.7146  134.0633  159.3881 H   0  0  0  0  0  0  0  0  0  0  0  0  # atno 6909 bound_to 6896
  144.7134  140.0771  143.6427 H   0  0  0  0  0  0  0  0  0  0  0  0  # atno 7974 bound_to 7965
  156.2817  140.2149  156.5573 H   0  0  0  0  0  0  0  0  0  0  0  0  # atno 8008 bound_to 7997
  154.7242  140.0501  157.0690 H   0  0  0  0  0  0  0  0  0  0  0  0  # atno 8009 bound_to 7997
  155.0439  140.3148  155.4718 H   0  0  0  0  0  0  0  0  0  0  0  0  # atno 8010 bound_to 7997
  139.7608  144.6955  151.0295 H   0  0  0  0  0  0  0  0  0  0  0  0  # atno 10167 bound_to 10162
  157.5321  131.1098  150.8992 H   0  0  0  0  0  0  0  0  0  0  0  0  # atno 10718 bound_to 10713
  153.4544  135.3736  155.2303 H   0  0  0  0  0  0  0  0  0  0  0  0  # atno 10763 bound_to 10752
  154.8757  135.3893  154.3999 H   0  0  0  0  0  0  0  0  0  0  0  0  # atno 10764 bound_to 10752
  153.4563  135.7086  153.6141 H   0  0  0  0  0  0  0  0  0  0  0  0  # atno 10765 bound_to 10752
  140.7847  133.8335  155.9324 H   0  0  0  0  0  0  0  0  0  0  0  0  # atno 11005 bound_to 11000
  145.9734  139.2886  143.1085 LP  0  0  0  0  0  0  0  0  0  0  0  0  # atno 17320 bound_to 7965
  145.9092  140.9192  143.0463 LP  0  0  0  0  0  0  0  0  0  0  0  0  # atno 17321 bound_to 7965
  140.7807  143.4699  151.0161 LP  0  0  0  0  0  0  0  0  0  0  0  0  # atno 17342 bound_to 10162
  139.8385  143.7595  152.3180 LP  0  0  0  0  0  0  0  0  0  0  0  0  # atno 17343 bound_to 10162
  156.9570  130.5441  149.5284 LP  0  0  0  0  0  0  0  0  0  0  0  0  # atno 17370 bound_to 10713
  156.0431  130.5511  150.8817 LP  0  0  0  0  0  0  0  0  0  0  0  0  # atno 17371 bound_to 10713
  140.9448  134.1854  157.4771 LP  0  0  0  0  0  0  0  0  0  0  0  0  # atno 17394 bound_to 11000
  139.8738  134.9886  156.5420 LP  0  0  0  0  0  0  0  0  0  0  0  0  # atno 17395 bound_to 11000

$$$$
