AV-unprocessed.smi:1952|AV-procd|sdf|7891|dock10
  -GOLD-   2272010 43D 1   1.00000     0.00000
 Structure written by MMmdl.
 39 40  0  0  0  0  0  0  0  0  3 V2000
  151.9917  144.9115  160.0377 C   0  0  0  0  0  0  0  0  0  0  0  0
  151.7854  143.6248  159.3139 C   0  0  0  0  0  0  0  0  0  0  0  0
  151.6031  143.3226  157.9940 C   0  0  0  0  0  0  0  0  0  0  0  0
  151.4716  141.9087  158.0027 C   0  0  0  0  0  0  0  0  0  0  0  0
  151.2522  141.1943  156.7957 N   0  0  0  0  0  0  0  0  0  0  0  0
  151.8461  140.0668  156.3662 C   0  0  0  0  0  0  0  0  0  0  0  0
  152.7593  139.5518  157.0222 O   0  0  0  0  0  0  0  0  0  0  0  0
  151.3140  139.6139  155.1968 N   0  5  0  0  0  0  0  0  0  0  0  0
  150.1612  138.7109  155.0807 C   0  0  2  0  0  0  0  0  0  0  0  0
  150.6188  137.4125  154.4015 C   0  0  0  0  0  0  0  0  0  0  0  0
  149.0253  139.3943  154.2797 C   0  0  0  0  0  0  0  0  0  0  0  0
  148.0797  138.4083  153.6915 N   0  3  0  0  0  0  0  0  0  0  0  0
  147.4641  137.5037  154.6895 C   0  0  0  0  0  0  0  0  0  0  0  0
  146.6186  136.4347  153.9774 C   0  0  0  0  0  0  0  0  0  0  0  0
  145.6326  137.0638  153.1671 O   0  0  0  0  0  0  0  0  0  0  0  0
  146.2137  137.8806  152.1570 C   0  0  0  0  0  0  0  0  0  0  0  0
  147.0398  138.9990  152.8121 C   0  0  0  0  0  0  0  0  0  0  0  0
  151.5608  141.3945  159.2205 N   0  0  0  0  0  0  0  0  0  0  0  0
  151.7651  142.4910  160.0662 O   0  0  0  0  0  0  0  0  0  0  0  0
  151.2584  145.6537  159.7222 H   0  0  0  0  0  0  0  0  0  0  0  0
  152.9857  145.3109  159.8364 H   0  0  0  0  0  0  0  0  0  0  0  0
  151.8931  144.7774  161.1151 H   0  0  0  0  0  0  0  0  0  0  0  0
  151.5693  144.0049  157.1578 H   0  0  0  0  0  0  0  0  0  0  0  0
  150.5383  141.5710  156.1900 H   0  0  0  0  0  0  0  0  0  0  0  0
  149.7659  138.4371  156.0599 H   0  0  0  0  0  0  0  0  0  0  0  0
  149.7911  136.7094  154.3055 H   0  0  0  0  0  0  0  0  0  0  0  0
  151.4007  136.9195  154.9802 H   0  0  0  0  0  0  0  0  0  0  0  0
  151.0116  137.6004  153.4015 H   0  0  0  0  0  0  0  0  0  0  0  0
  148.4902  140.0718  154.9476 H   0  0  0  0  0  0  0  0  0  0  0  0
  149.4364  140.0233  153.4888 H   0  0  0  0  0  0  0  0  0  0  0  0
  148.2435  137.0179  155.2780 H   0  0  0  0  0  0  0  0  0  0  0  0
  146.8472  138.0811  155.3796 H   0  0  0  0  0  0  0  0  0  0  0  0
  147.2481  135.7853  153.3666 H   0  0  0  0  0  0  0  0  0  0  0  0
  146.1216  135.7989  154.7104 H   0  0  0  0  0  0  0  0  0  0  0  0
  146.8348  137.2755  151.4944 H   0  0  0  0  0  0  0  0  0  0  0  0
  145.4187  138.3084  151.5462 H   0  0  0  0  0  0  0  0  0  0  0  0
  146.3917  139.6540  153.3962 H   0  0  0  0  0  0  0  0  0  0  0  0
  147.5029  139.6119  152.0383 H   0  0  0  0  0  0  0  0  0  0  0  0
  148.6548  137.8186  153.1046 H   0  0  0  0  0  0  0  0  0  0  0  0
  1  2  1  0  0  0  0
  1 20  1  0  0  0  0
  1 21  1  0  0  0  0
  1 22  1  0  0  0  0
  2 19  1  0  0  0  0
  2  3  2  0  0  0  0
  3  4  1  0  0  0  0
  3 23  1  0  0  0  0
  4  5  1  0  0  0  0
  4 18  2  0  0  0  0
  5  6  1  0  0  0  0
  5 24  1  0  0  0  0
  6  7  2  0  0  0  0
  6  8  1  0  0  0  0
  8  9  1  0  0  0  0
  9 10  1  0  0  0  0
  9 11  1  0  0  0  0
  9 25  1  0  0  0  0
 10 26  1  0  0  0  0
 10 27  1  0  0  0  0
 10 28  1  0  0  0  0
 11 12  1  0  0  0  0
 11 29  1  0  0  0  0
 11 30  1  0  0  0  0
 12 17  1  0  0  0  0
 12 13  1  0  0  0  0
 12 39  1  0  0  0  0
 13 14  1  0  0  0  0
 13 31  1  0  0  0  0
 13 32  1  0  0  0  0
 14 15  1  0  0  0  0
 14 33  1  0  0  0  0
 14 34  1  0  0  0  0
 15 16  1  0  0  0  0
 16 17  1  0  0  0  0
 16 35  1  0  0  0  0
 16 36  1  0  0  0  0
 17 37  1  0  0  0  0
 17 38  1  0  0  0  0
 18 19  1  0  0  0  0
M  CHG  1   8  -1
M  CHG  1  12   1
M  END
> <s_m_source_file>
AV-unprocessed.smi

> <i_m_source_file_index>
1952

> <i_lp_mmshare_version>
43012

> <i_f3d_flags>
0

> <s_epik_input>
W0NIM11jMVtjSF1jKG5vMSlbTkhdQyg9TylbTkhdW0NASF0oW0NIM10pW0NIMl1OMltDSDJdW0NIMl1PW0NIMl1bQ0gyXTI=

> <s_epik_cmdline>
J2VwaWtfcHl0aG9uJywgJy1waCcsICc3LjAnLCAnLXRuJywgJzgnLCAnLW1hJywgJzIwMCcsICctbWV0YWxfYmluZGluZycsICctaW1hZScsICc8aW5maWxlLm1hZT4nLCAnLW9tYWUnLCAnPG91dGZpbGUubWFlPic=

> <r_epik_Ionization_Penalty>
6.76648

> <r_epik_Ionization_Penalty_Charging>
6.76648

> <r_epik_Ionization_Penalty_Neutral>
5.6208e-06

> <r_epik_State_Penalty>
7.45901

> <r_epik_Charging_Adjusted_Penalty>
14.2255

> <i_epik_Tot_Q>
0

> <i_epik_Tot_abs_Q>
2

> <r_epik_Metal_State_Penalty>
3.38802

> <b_epik_Metal_Only>
1

> <s_lp_Force_Field>
OPLS_2005

> <r_lp_Energy>
9.23167

> <b_lp_Chiralities_Consistent>
1

> <s_lp_Variant>
AV-unprocessed.smi:1952-9

> <Gold.Version>
5.8.1

> <Gold.Id.Protein>
6NUR|6NUR_protein|mol2

> <Gold.PLP.Fitness>
42.4892

> <Gold.PLP.PLP>
-33.0416

> <Gold.PLP.part.hbond>
-3.3458

> <Gold.PLP.part.metal>
0.0000

> <Gold.PLP.part.buried>
-1.0271

> <Gold.PLP.part.nonpolar>
-29.5692

> <Gold.PLP.part.repulsive>
0.3521

> <Gold.PLP.ligand.clash>
0.0000

> <Gold.PLP.ligand.torsion>
1.3683

> <Gold.PLP.Chemscore.Hbond>
4.0000

> <Gold.PLP.Chemscore.CHOScore>
0.0000

> <Gold.PLP.Chemscore.Metal>
0.0000

> <Gold.Chemscore.Hbonds>
donor molecule, donor type, donor heavy atom, donor atom, acceptor molecule, acceptor atom, score
      L1  H    12    39       P1  7948  2.00
      P1  H  7989  7998       L1     8  0.75
      P1  H  7997  8009       L1     7  1.00

> <Gold.PLP.Chemscore.Internal.Correction>
0.1842

> <Gold.Rescore>
     Score         DG    S(hbond)    S(metal)    S(lipo)     H(rot)  DE(clash)    DE(int)     intcor
     17.87     -19.55       2.79        0.00      75.25       1.58       0.24       1.45       ----

> <Gold.Chemscore.Fitness>
17.8658

> <Gold.Chemscore.DG>
-19.5524

> <Gold.Chemscore.ZeroCoef>
-5.4800

> <Gold.Chemscore.Hbond>
2.7880

> <Gold.Chemscore.Metal>
0.0000

> <Gold.Chemscore.Lipo>
75.2525

> <Gold.Chemscore.Internal_Hbond>
0.0000

> <Gold.Chemscore.DEClash>
0.2385

> <Gold.Chemscore.DEInternal>
1.4481

> <Gold.Chemscore.Rot>
1.5798

> <Gold.Chemscore.Internal.Correction>
   9.000000E+99

> <Gold.Chemscore.Hbonds>
donor molecule, donor type, donor heavy atom, donor atom, acceptor molecule, acceptor atom, score
      L1  H    12    39       P1  7948  0.92
      P1  H  7989  7998       L1     8  0.61
      P1  H  7997  8009       L1     7  0.62

> <Gold.Chemscore.Hbond.Weighted>
-9.3120

> <Gold.Chemscore.Metal.Weighted>
-0.0000

> <Gold.Chemscore.Lipo.Weighted>
-8.8045

> <Gold.Chemscore.Internal_Hbond.Weighted>
0.0000

> <Gold.Chemscore.DEClash.Weighted>
0.2385

> <Gold.Chemscore.DEInternal.Weighted>
1.4481

> <Gold.Chemscore.Rot.Weighted>
4.0442

> <Gold.Chemscore.Internal.Correction.Weighted>
   9.000000E+99

> <Gold.Protein.RotatedTorsions>
[ 6907 6896 6895 6894 ] final   99.75 input  -60.11 | X-H torsion
[ 7974 7965 7964 7962 ] final   -4.42 input  175.53 | X-H torsion
[ 8008 7997 7996 7995 ] final -160.10 input   59.86 | X-H torsion
[ 10167 10162 10161 10158 ] final   67.49 input  -65.29 | X-H torsion
[ 10718 10713 10712 10709 ] final   36.19 input   66.30 | X-H torsion
[ 10763 10752 10751 10750 ] final  171.32 input  -60.55 | X-H torsion
[ 11005 11000 10999 10996 ] final  -43.47 input  -57.11 | X-H torsion

> <Gold.Protein.ActiveResidues>
 VAL166  LYS551  ARG553  GLY616  TRP617  ASP618  TYR619  PRO620  LYS621  CYS622 
 ASP623  PHE694  ASN695  SER759  ASP760  ASP761  ALA762  ILE779  LEU786  VAL792 
 PHE793  MET794  SER795  GLU796  ALA797  LYS798  CYS799  TRP800  GLU811  SER814 

> <Gold.Protein.RotatedAtoms>
  152.5386  134.0380  159.8054 H   0  0  0  0  0  0  0  0  0  0  0  0  # atno 6907 bound_to 6896
  151.0541  133.5592  159.2647 H   0  0  0  0  0  0  0  0  0  0  0  0  # atno 6908 bound_to 6896
  151.2515  135.0631  159.9117 H   0  0  0  0  0  0  0  0  0  0  0  0  # atno 6909 bound_to 6896
  146.2372  140.1869  142.8332 H   0  0  0  0  0  0  0  0  0  0  0  0  # atno 7974 bound_to 7965
  155.7724  140.0854  157.2101 H   0  0  0  0  0  0  0  0  0  0  0  0  # atno 8008 bound_to 7997
  154.3995  140.1523  156.3014 H   0  0  0  0  0  0  0  0  0  0  0  0  # atno 8009 bound_to 7997
  155.8734  140.3424  155.5839 H   0  0  0  0  0  0  0  0  0  0  0  0  # atno 8010 bound_to 7997
  140.0890  144.5005  150.7111 H   0  0  0  0  0  0  0  0  0  0  0  0  # atno 10167 bound_to 10162
  157.3319  130.7502  149.6853 H   0  0  0  0  0  0  0  0  0  0  0  0  # atno 10718 bound_to 10713
  154.4103  135.2756  155.2041 H   0  0  0  0  0  0  0  0  0  0  0  0  # atno 10763 bound_to 10752
  154.4030  135.6040  153.5911 H   0  0  0  0  0  0  0  0  0  0  0  0  # atno 10764 bound_to 10752
  152.9831  135.5931  154.4383 H   0  0  0  0  0  0  0  0  0  0  0  0  # atno 10765 bound_to 10752
  141.0386  133.6789  156.2737 H   0  0  0  0  0  0  0  0  0  0  0  0  # atno 11005 bound_to 11000
  144.9889  140.8528  143.5351 LP  0  0  0  0  0  0  0  0  0  0  0  0  # atno 17320 bound_to 7965
  145.1872  139.2320  143.5261 LP  0  0  0  0  0  0  0  0  0  0  0  0  # atno 17321 bound_to 7965
  140.7038  143.2454  151.4785 LP  0  0  0  0  0  0  0  0  0  0  0  0  # atno 17342 bound_to 10162
  139.5736  144.1871  152.1871 LP  0  0  0  0  0  0  0  0  0  0  0  0  # atno 17343 bound_to 10162
  155.9697  130.4193  150.4367 LP  0  0  0  0  0  0  0  0  0  0  0  0  # atno 17370 bound_to 10713
  157.2401  131.0523  151.2442 LP  0  0  0  0  0  0  0  0  0  0  0  0  # atno 17371 bound_to 10713
  140.6277  134.5297  157.5555 LP  0  0  0  0  0  0  0  0  0  0  0  0  # atno 17394 bound_to 11000
  139.9259  134.8058  156.1071 LP  0  0  0  0  0  0  0  0  0  0  0  0  # atno 17395 bound_to 11000

$$$$
