AV-unprocessed.smi:2017|AV-procd|sdf|8167|dock1
  -GOLD-   2272010413D 1   1.00000     0.00000
 Structure written by MMmdl.
 45 46  0  0  0  0  0  0  0  0  1 V2000
  151.1761  136.0509  155.7350 O   0  0  0  0  0  0  0  0  0  0  0  0
  150.1793  136.3344  155.0685 C   0  0  0  0  0  0  0  0  0  0  0  0
  148.9896  135.3680  154.9701 C   0  0  0  0  0  0  0  0  0  0  0  0
  149.3887  133.9537  154.9149 N   0  0  0  0  0  0  0  0  0  0  0  0
  150.2234  133.4255  155.8896 C   0  0  0  0  0  0  0  0  0  0  0  0
  150.6216  132.1314  155.9094 C   0  0  0  0  0  0  0  0  0  0  0  0
  150.1753  131.2056  154.8739 C   0  0  0  0  0  0  0  0  0  0  0  0
  150.4814  130.0174  154.8051 O   0  0  0  0  0  0  0  0  0  0  0  0
  149.3348  131.7739  153.9129 N   0  0  0  0  0  0  0  0  0  0  0  0
  148.9193  133.1061  153.8878 C   0  0  0  0  0  0  0  0  0  0  0  0
  148.1706  133.5034  152.9959 O   0  0  0  0  0  0  0  0  0  0  0  0
  150.0614  137.4792  154.3789 N   0  0  0  0  0  0  0  0  0  0  0  0
  151.0681  138.5324  154.3225 C   0  0  0  0  0  0  0  0  0  0  0  0
  151.5774  138.9096  155.7246 C   0  0  0  0  0  0  0  0  0  0  0  0
  151.6248  140.4258  155.9462 C   0  0  0  0  0  0  0  0  0  0  0  0
  151.3608  140.7042  157.3138 O   0  0  0  0  0  0  0  0  0  0  0  0
  152.0689  141.8216  157.8328 C   0  0  0  0  0  0  0  0  0  0  0  0
  152.1052  141.7707  159.3746 C   0  0  0  0  0  0  0  0  0  0  0  0
  152.7493  143.0374  159.9615 C   0  0  0  0  0  0  0  0  0  0  0  0
  152.0362  144.3069  159.4691 C   0  0  0  0  0  0  0  0  0  0  0  0
  151.9934  144.3602  157.9338 C   0  0  0  0  0  0  0  0  0  0  0  0
  151.3469  143.0927  157.3519 C   0  0  0  0  0  0  0  0  0  0  0  0
  148.9979  131.1698  153.1774 H   0  0  0  0  0  0  0  0  0  0  0  0
  148.3158  135.5410  155.8117 H   0  0  0  0  0  0  0  0  0  0  0  0
  148.4109  135.6270  154.0821 H   0  0  0  0  0  0  0  0  0  0  0  0
  150.5751  134.0742  156.6792 H   0  0  0  0  0  0  0  0  0  0  0  0
  151.2730  131.7789  156.6962 H   0  0  0  0  0  0  0  0  0  0  0  0
  149.2111  137.6330  153.8563 H   0  0  0  0  0  0  0  0  0  0  0  0
  151.8950  138.1724  153.7100 H   0  0  0  0  0  0  0  0  0  0  0  0
  150.6641  139.4087  153.8128 H   0  0  0  0  0  0  0  0  0  0  0  0
  150.9262  138.4667  156.4790 H   0  0  0  0  0  0  0  0  0  0  0  0
  152.5691  138.4863  155.8887 H   0  0  0  0  0  0  0  0  0  0  0  0
  152.5967  140.8143  155.6416 H   0  0  0  0  0  0  0  0  0  0  0  0
  150.8711  140.9120  155.3254 H   0  0  0  0  0  0  0  0  0  0  0  0
  153.0867  141.8367  157.4381 H   0  0  0  0  0  0  0  0  0  0  0  0
  151.0901  141.6677  159.7604 H   0  0  0  0  0  0  0  0  0  0  0  0
  152.6550  140.8955  159.7196 H   0  0  0  0  0  0  0  0  0  0  0  0
  152.7240  142.9961  161.0507 H   0  0  0  0  0  0  0  0  0  0  0  0
  153.8017  143.0759  159.6778 H   0  0  0  0  0  0  0  0  0  0  0  0
  151.0196  144.3305  159.8635 H   0  0  0  0  0  0  0  0  0  0  0  0
  152.5400  145.1919  159.8587 H   0  0  0  0  0  0  0  0  0  0  0  0
  151.4417  145.2423  157.6077 H   0  0  0  0  0  0  0  0  0  0  0  0
  153.0062  144.4663  157.5430 H   0  0  0  0  0  0  0  0  0  0  0  0
  151.3610  143.1378  156.2624 H   0  0  0  0  0  0  0  0  0  0  0  0
  150.2971  143.0528  157.6456 H   0  0  0  0  0  0  0  0  0  0  0  0
  1  2  2  0  0  0  0
  2  3  1  0  0  0  0
  2 12  1  0  0  0  0
  3  4  1  0  0  0  0
  3 24  1  0  0  0  0
  3 25  1  0  0  0  0
  4 10  1  0  0  0  0
  4  5  1  0  0  0  0
  5  6  2  0  0  0  0
  5 26  1  0  0  0  0
  6  7  1  0  0  0  0
  6 27  1  0  0  0  0
  7  8  2  0  0  0  0
  7  9  1  0  0  0  0
  9 23  1  0  0  0  0
  9 10  1  0  0  0  0
 10 11  2  0  0  0  0
 12 13  1  0  0  0  0
 12 28  1  0  0  0  0
 13 14  1  0  0  0  0
 13 29  1  0  0  0  0
 13 30  1  0  0  0  0
 14 15  1  0  0  0  0
 14 31  1  0  0  0  0
 14 32  1  0  0  0  0
 15 16  1  0  0  0  0
 15 33  1  0  0  0  0
 15 34  1  0  0  0  0
 16 17  1  0  0  0  0
 17 22  1  0  0  0  0
 17 18  1  0  0  0  0
 17 35  1  0  0  0  0
 18 19  1  0  0  0  0
 18 36  1  0  0  0  0
 18 37  1  0  0  0  0
 19 20  1  0  0  0  0
 19 38  1  0  0  0  0
 19 39  1  0  0  0  0
 20 21  1  0  0  0  0
 20 40  1  0  0  0  0
 20 41  1  0  0  0  0
 21 22  1  0  0  0  0
 21 42  1  0  0  0  0
 21 43  1  0  0  0  0
 22 44  1  0  0  0  0
 22 45  1  0  0  0  0
M  END
> <s_m_source_file>
AV-unprocessed.smi

> <i_m_source_file_index>
2017

> <i_lp_mmshare_version>
43012

> <i_f3d_flags>
0

> <s_epik_input>
Tz1jMVtuSF1jKD1PKVtjSF1bY0hdbjFbQ0gyXUMoPU8pW05IXVtDSDJdW0NIMl1bQ0gyXU9bQ0hdMltDSDJdW0NIMl1bQ0gyXVtDSDJdW0NIMl0y

> <s_epik_cmdline>
J2VwaWtfcHl0aG9uJywgJy1waCcsICc3LjAnLCAnLXRuJywgJzgnLCAnLW1hJywgJzIwMCcsICctbWV0YWxfYmluZGluZycsICctaW1hZScsICc8aW5maWxlLm1hZT4nLCAnLW9tYWUnLCAnPG91dGZpbGUubWFlPic=

> <r_lp_tautomer_probability>
0.999537

> <r_epik_Ionization_Penalty>
0.003299

> <r_epik_Ionization_Penalty_Charging>
0.00329898

> <r_epik_Ionization_Penalty_Neutral>
1.92812e-08

> <r_epik_State_Penalty>
0.00233129

> <r_epik_Charging_Adjusted_Penalty>
0.00563027

> <i_epik_Tot_Q>
0

> <i_epik_Tot_abs_Q>
0

> <r_epik_Metal_State_Penalty>
0.365405

> <b_epik_Metal_Only>
0

> <s_lp_Force_Field>
OPLS_2005

> <r_lp_Energy>
10.1374

> <b_lp_Chiralities_Consistent>
1

> <s_lp_Variant>
AV-unprocessed.smi:2017-1

> <Gold.Version>
5.8.1

> <Gold.Id.Protein>
6NUR|6NUR_protein|mol2

> <Gold.PLP.Fitness>
44.6715

> <Gold.PLP.PLP>
-44.2575

> <Gold.PLP.part.hbond>
-2.0000

> <Gold.PLP.part.metal>
0.0000

> <Gold.PLP.part.buried>
-6.3731

> <Gold.PLP.part.nonpolar>
-35.3131

> <Gold.PLP.part.repulsive>
0.7718

> <Gold.PLP.ligand.clash>
0.0000

> <Gold.PLP.ligand.torsion>
1.3604

> <Gold.PLP.Chemscore.Hbond>
1.0000

> <Gold.PLP.Chemscore.CHOScore>
0.0000

> <Gold.PLP.Chemscore.Metal>
0.0000

> <Gold.Chemscore.Hbonds>
donor molecule, donor type, donor heavy atom, donor atom, acceptor molecule, acceptor atom, score
      P1  H 10752 10764       L1     1  0.81

> <Gold.PLP.Chemscore.Internal.Correction>
0.1349

> <Gold.Rescore>
     Score         DG    S(hbond)    S(metal)    S(lipo)     H(rot)  DE(clash)    DE(int)     intcor
      9.38     -13.37       0.92        0.00     101.07       2.74       0.10       3.89       ----

> <Gold.Chemscore.Fitness>
9.3758

> <Gold.Chemscore.DG>
-13.3681

> <Gold.Chemscore.ZeroCoef>
-5.4800

> <Gold.Chemscore.Hbond>
0.9200

> <Gold.Chemscore.Metal>
0.0000

> <Gold.Chemscore.Lipo>
101.0691

> <Gold.Chemscore.Internal_Hbond>
0.0000

> <Gold.Chemscore.DEClash>
0.1010

> <Gold.Chemscore.DEInternal>
3.8912

> <Gold.Chemscore.Rot>
2.7382

> <Gold.Chemscore.Internal.Correction>
   9.000000E+99

> <Gold.Chemscore.Hbonds>
donor molecule, donor type, donor heavy atom, donor atom, acceptor molecule, acceptor atom, score
      L1  H    12    28       P1  7948  0.02
      P1  H 10752 10764       L1     1  0.80

> <Gold.Chemscore.Hbond.Weighted>
-3.0728

> <Gold.Chemscore.Metal.Weighted>
-0.0000

> <Gold.Chemscore.Lipo.Weighted>
-11.8251

> <Gold.Chemscore.Internal_Hbond.Weighted>
0.0000

> <Gold.Chemscore.DEClash.Weighted>
0.1010

> <Gold.Chemscore.DEInternal.Weighted>
3.8912

> <Gold.Chemscore.Rot.Weighted>
7.0098

> <Gold.Chemscore.Internal.Correction.Weighted>
   9.000000E+99

> <Gold.Protein.RotatedTorsions>
[ 6907 6896 6895 6894 ] final  146.56 input  -60.11 | X-H torsion
[ 7974 7965 7964 7962 ] final -110.39 input  175.53 | X-H torsion
[ 8008 7997 7996 7995 ] final  161.76 input   59.86 | X-H torsion
[ 10167 10162 10161 10158 ] final   82.45 input  -65.29 | X-H torsion
[ 10718 10713 10712 10709 ] final -119.10 input   66.30 | X-H torsion
[ 10763 10752 10751 10750 ] final  -41.02 input  -60.55 | X-H torsion
[ 11005 11000 10999 10996 ] final -143.04 input  -57.11 | X-H torsion

> <Gold.Protein.ActiveResidues>
 VAL166  LYS551  ARG553  GLY616  TRP617  ASP618  TYR619  PRO620  LYS621  CYS622 
 ASP623  PHE694  ASN695  SER759  ASP760  ASP761  ALA762  ILE779  LEU786  VAL792 
 PHE793  MET794  SER795  GLU796  ALA797  LYS798  CYS799  TRP800  GLU811  SER814 

> <Gold.Protein.RotatedAtoms>
  152.1663  133.4614  159.4886 H   0  0  0  0  0  0  0  0  0  0  0  0  # atno 6907 bound_to 6896
  150.6913  134.2009  159.4331 H   0  0  0  0  0  0  0  0  0  0  0  0  # atno 6908 bound_to 6896
  151.9914  134.9977  160.0612 H   0  0  0  0  0  0  0  0  0  0  0  0  # atno 6909 bound_to 6896
  145.1689  140.8915  143.3547 H   0  0  0  0  0  0  0  0  0  0  0  0  # atno 7974 bound_to 7965
  156.2080  140.1768  156.7757 H   0  0  0  0  0  0  0  0  0  0  0  0  # atno 8008 bound_to 7997
  154.5682  140.0687  156.8954 H   0  0  0  0  0  0  0  0  0  0  0  0  # atno 8009 bound_to 7997
  155.2721  140.3343  155.4267 H   0  0  0  0  0  0  0  0  0  0  0  0  # atno 8010 bound_to 7997
  139.9286  144.6166  150.8367 H   0  0  0  0  0  0  0  0  0  0  0  0  # atno 10167 bound_to 10162
  156.1156  130.6283  150.9374 H   0  0  0  0  0  0  0  0  0  0  0  0  # atno 10718 bound_to 10713
  153.9556  135.6745  153.4744 H   0  0  0  0  0  0  0  0  0  0  0  0  # atno 10763 bound_to 10752
  153.0863  135.4897  154.8600 H   0  0  0  0  0  0  0  0  0  0  0  0  # atno 10764 bound_to 10752
  154.7301  135.3136  154.8865 H   0  0  0  0  0  0  0  0  0  0  0  0  # atno 10765 bound_to 10752
  140.8165  134.2682  157.4919 H   0  0  0  0  0  0  0  0  0  0  0  0  # atno 11005 bound_to 11000
  145.0254  139.3387  143.6051 LP  0  0  0  0  0  0  0  0  0  0  0  0  # atno 17320 bound_to 7965
  146.3471  139.9570  142.8722 LP  0  0  0  0  0  0  0  0  0  0  0  0  # atno 17321 bound_to 7965
  140.7643  143.3246  151.2545 LP  0  0  0  0  0  0  0  0  0  0  0  0  # atno 17342 bound_to 10162
  139.6801  143.9869  152.2803 LP  0  0  0  0  0  0  0  0  0  0  0  0  # atno 17343 bound_to 10162
  157.6339  131.0918  150.8387 LP  0  0  0  0  0  0  0  0  0  0  0  0  # atno 17370 bound_to 10713
  156.8491  130.5074  149.5313 LP  0  0  0  0  0  0  0  0  0  0  0  0  # atno 17371 bound_to 10713
  139.8711  134.9512  156.4077 LP  0  0  0  0  0  0  0  0  0  0  0  0  # atno 17394 bound_to 11000
  140.9144  133.7689  155.9830 LP  0  0  0  0  0  0  0  0  0  0  0  0  # atno 17395 bound_to 11000

$$$$
