AV-unprocessed.smi:1306|AV-procd|sdf|5435|dock8
  -GOLD-   22720 5 03D 1   1.00000     0.00000
 Structure written by MMmdl.
 38 39  0  0  0  0  0  0  0  0  2 V2000
  150.5603  139.4605  154.1526 O   0  0  0  0  0  0  0  0  0  0  0  0
  151.1997  139.2097  155.1753 C   0  0  0  0  0  0  0  0  0  0  0  0
  151.9458  137.8772  155.3278 C   0  0  0  0  0  0  0  0  0  0  0  0
  151.1221  136.8273  155.9484 N   0  0  0  0  0  0  0  0  0  0  0  0
  150.1116  136.2404  155.1668 C   0  0  0  0  0  0  0  0  0  0  0  0
  149.3138  135.2689  155.6497 C   0  0  0  0  0  0  0  0  0  0  0  0
  149.5185  134.8269  157.0235 C   0  0  0  0  0  0  0  0  0  0  0  0
  148.7973  133.9432  157.4822 O   0  0  0  0  0  0  0  0  0  0  0  0
  150.5141  135.4251  157.7410 N   0  5  0  0  0  0  0  0  0  0  0  0
  151.3194  136.4106  157.2359 C   0  0  0  0  0  0  0  0  0  0  0  0
  152.2136  136.9358  157.9004 O   0  0  0  0  0  0  0  0  0  0  0  0
  151.2689  140.0468  156.2194 N   0  0  0  0  0  0  0  0  0  0  0  0
  150.6418  141.3609  156.2664 C   0  0  0  0  0  0  0  0  0  0  0  0
  151.2819  142.2368  157.3515 C   0  0  0  0  0  0  0  0  0  0  0  0
  152.3040  141.2653  158.4963 S   0  0  0  0  0  0  0  0  0  0  0  0
  152.7545  142.5454  159.7024 C   0  0  0  0  0  0  0  0  0  0  0  0
  153.0278  141.9683  161.0904 C   0  0  0  0  0  0  0  0  0  0  0  0
  152.8868  143.1653  162.0330 C   0  0  0  0  0  0  0  0  0  0  0  0
  151.8867  144.1171  161.3596 C   0  0  0  0  0  0  0  0  0  0  0  0
  151.6363  143.5624  159.9501 C   0  0  0  0  0  0  0  0  0  0  0  0
  152.3082  137.5406  154.3545 H   0  0  0  0  0  0  0  0  0  0  0  0
  152.8434  138.0579  155.9206 H   0  0  0  0  0  0  0  0  0  0  0  0
  150.0301  136.6203  154.1590 H   0  0  0  0  0  0  0  0  0  0  0  0
  148.5438  134.8262  155.0352 H   0  0  0  0  0  0  0  0  0  0  0  0
  151.8159  139.7681  157.0210 H   0  0  0  0  0  0  0  0  0  0  0  0
  150.7244  141.8467  155.2928 H   0  0  0  0  0  0  0  0  0  0  0  0
  149.5777  141.2390  156.4741 H   0  0  0  0  0  0  0  0  0  0  0  0
  151.9130  142.9942  156.8864 H   0  0  0  0  0  0  0  0  0  0  0  0
  150.5099  142.7655  157.9110 H   0  0  0  0  0  0  0  0  0  0  0  0
  153.6490  143.0638  159.3534 H   0  0  0  0  0  0  0  0  0  0  0  0
  152.2738  141.2198  161.3384 H   0  0  0  0  0  0  0  0  0  0  0  0
  154.0058  141.4916  161.1620 H   0  0  0  0  0  0  0  0  0  0  0  0
  152.5649  142.8638  163.0301 H   0  0  0  0  0  0  0  0  0  0  0  0
  153.8508  143.6646  162.1377 H   0  0  0  0  0  0  0  0  0  0  0  0
  150.9533  144.1741  161.9205 H   0  0  0  0  0  0  0  0  0  0  0  0
  152.3000  145.1251  161.3128 H   0  0  0  0  0  0  0  0  0  0  0  0
  151.6154  144.3490  159.1953 H   0  0  0  0  0  0  0  0  0  0  0  0
  150.6670  143.0621  159.9288 H   0  0  0  0  0  0  0  0  0  0  0  0
  1  2  2  0  0  0  0
  2  3  1  0  0  0  0
  2 12  1  0  0  0  0
  3  4  1  0  0  0  0
  3 21  1  0  0  0  0
  3 22  1  0  0  0  0
  4 10  1  0  0  0  0
  4  5  1  0  0  0  0
  5  6  2  0  0  0  0
  5 23  1  0  0  0  0
  6  7  1  0  0  0  0
  6 24  1  0  0  0  0
  7  8  2  0  0  0  0
  7  9  1  0  0  0  0
  9 10  1  0  0  0  0
 10 11  2  0  0  0  0
 12 13  1  0  0  0  0
 12 25  1  0  0  0  0
 13 14  1  0  0  0  0
 13 26  1  0  0  0  0
 13 27  1  0  0  0  0
 14 15  1  0  0  0  0
 14 28  1  0  0  0  0
 14 29  1  0  0  0  0
 15 16  1  0  0  0  0
 16 20  1  0  0  0  0
 16 17  1  0  0  0  0
 16 30  1  0  0  0  0
 17 18  1  0  0  0  0
 17 31  1  0  0  0  0
 17 32  1  0  0  0  0
 18 19  1  0  0  0  0
 18 33  1  0  0  0  0
 18 34  1  0  0  0  0
 19 20  1  0  0  0  0
 19 35  1  0  0  0  0
 19 36  1  0  0  0  0
 20 37  1  0  0  0  0
 20 38  1  0  0  0  0
M  CHG  1   9  -1
M  END
> <s_m_source_file>
AV-unprocessed.smi

> <i_m_source_file_index>
1306

> <i_lp_mmshare_version>
43012

> <i_f3d_flags>
0

> <s_epik_input>
Tz1jMVtuSF1jKD1PKVtjSF1bY0hdbjFbQ0gyXUMoPU8pW05IXVtDSDJdW0NIMl1TW0NIXTJbQ0gyXVtDSDJdW0NIMl1bQ0gyXTI=

> <s_epik_cmdline>
J2VwaWtfcHl0aG9uJywgJy1waCcsICc3LjAnLCAnLXRuJywgJzgnLCAnLW1hJywgJzIwMCcsICctbWV0YWxfYmluZGluZycsICctaW1hZScsICc8aW5maWxlLm1hZT4nLCAnLW9tYWUnLCAnPG91dGZpbGUubWFlPic=

> <r_lp_tautomer_probability>
0.999537

> <r_epik_Ionization_Penalty>
3.06336

> <r_epik_Ionization_Penalty_Charging>
2.63481e-08

> <r_epik_Ionization_Penalty_Neutral>
3.06336

> <r_epik_State_Penalty>
3.06238

> <r_epik_Charging_Adjusted_Penalty>
3.06238

> <i_epik_Tot_Q>
-1

> <i_epik_Tot_abs_Q>
1

> <r_epik_Metal_State_Penalty>
0.458539

> <b_epik_Metal_Only>
1

> <s_lp_Force_Field>
OPLS_2005

> <r_lp_Energy>
29.7989

> <b_lp_Chiralities_Consistent>
1

> <s_lp_Variant>
AV-unprocessed.smi:1306-2

> <Gold.Version>
5.8.1

> <Gold.Id.Protein>
6NUR|6NUR_protein|mol2

> <Gold.PLP.Fitness>
45.2857

> <Gold.PLP.PLP>
-36.8097

> <Gold.PLP.part.hbond>
-2.0000

> <Gold.PLP.part.metal>
0.0000

> <Gold.PLP.part.buried>
-5.9146

> <Gold.PLP.part.nonpolar>
-29.7668

> <Gold.PLP.part.repulsive>
0.2914

> <Gold.PLP.ligand.clash>
0.0000

> <Gold.PLP.ligand.torsion>
1.3009

> <Gold.PLP.Chemscore.Hbond>
2.6640

> <Gold.PLP.Chemscore.CHOScore>
1.0000

> <Gold.PLP.Chemscore.Metal>
0.0000

> <Gold.Chemscore.Hbonds>
donor molecule, donor type, donor heavy atom, donor atom, acceptor molecule, acceptor atom, score
      P1  H  6896  6907       L1     9  1.12
      P1  H  7989  7998       L1     1  0.95
      L1  C     5    23       P1  7948  1.00

> <Gold.PLP.Chemscore.Internal.Correction>
0.0858

> <Gold.Rescore>
     Score         DG    S(hbond)    S(metal)    S(lipo)     H(rot)  DE(clash)    DE(int)     intcor
     14.92     -16.20       1.62        0.00      97.48       2.38       0.09       1.19       ----

> <Gold.Chemscore.Fitness>
14.9235

> <Gold.Chemscore.DG>
-16.1961

> <Gold.Chemscore.ZeroCoef>
-5.4800

> <Gold.Chemscore.Hbond>
1.6154

> <Gold.Chemscore.Metal>
0.0000

> <Gold.Chemscore.Lipo>
97.4799

> <Gold.Chemscore.Internal_Hbond>
0.0000

> <Gold.Chemscore.DEClash>
0.0869

> <Gold.Chemscore.DEInternal>
1.1858

> <Gold.Chemscore.Rot>
2.3767

> <Gold.Chemscore.Internal.Correction>
   9.000000E+99

> <Gold.Chemscore.Hbonds>
donor molecule, donor type, donor heavy atom, donor atom, acceptor molecule, acceptor atom, score
      P1  H  6896  6907       L1     9  0.43
      P1  H  7989  7998       L1     1  0.21

> <Gold.Chemscore.Hbond.Weighted>
-5.3953

> <Gold.Chemscore.Metal.Weighted>
-0.0000

> <Gold.Chemscore.Lipo.Weighted>
-11.4052

> <Gold.Chemscore.Internal_Hbond.Weighted>
0.0000

> <Gold.Chemscore.DEClash.Weighted>
0.0869

> <Gold.Chemscore.DEInternal.Weighted>
1.1858

> <Gold.Chemscore.Rot.Weighted>
6.0844

> <Gold.Chemscore.Internal.Correction.Weighted>
   9.000000E+99

> <Gold.Protein.RotatedTorsions>
[ 6907 6896 6895 6894 ] final  -71.30 input  -60.11 | X-H torsion
[ 7974 7965 7964 7962 ] final    9.37 input  175.53 | X-H torsion
[ 8008 7997 7996 7995 ] final  131.56 input   59.86 | X-H torsion
[ 10167 10162 10161 10158 ] final -151.87 input  -65.29 | X-H torsion
[ 10718 10713 10712 10709 ] final    2.27 input   66.30 | X-H torsion
[ 10763 10752 10751 10750 ] final  -47.47 input  -60.55 | X-H torsion
[ 11005 11000 10999 10996 ] final -170.11 input  -57.11 | X-H torsion

> <Gold.Protein.ActiveResidues>
 VAL166  LYS551  ARG553  GLY616  TRP617  ASP618  TYR619  PRO620  LYS621  CYS622 
 ASP623  PHE694  ASN695  SER759  ASP760  ASP761  ALA762  ILE779  LEU786  VAL792 
 PHE793  MET794  SER795  GLU796  ALA797  LYS798  CYS799  TRP800  GLU811  SER814 

> <Gold.Protein.RotatedAtoms>
  150.7219  134.5329  159.5708 H   0  0  0  0  0  0  0  0  0  0  0  0  # atno 6907 bound_to 6896
  152.2858  134.7775  160.0397 H   0  0  0  0  0  0  0  0  0  0  0  0  # atno 6908 bound_to 6896
  151.8406  133.3387  159.3678 H   0  0  0  0  0  0  0  0  0  0  0  0  # atno 6909 bound_to 6896
  146.2404  139.9794  142.8438 H   0  0  0  0  0  0  0  0  0  0  0  0  # atno 7974 bound_to 7965
  156.2971  140.2568  156.2946 H   0  0  0  0  0  0  0  0  0  0  0  0  # atno 8008 bound_to 7997
  154.9477  140.0395  157.2147 H   0  0  0  0  0  0  0  0  0  0  0  0  # atno 8009 bound_to 7997
  154.8066  140.2837  155.5887 H   0  0  0  0  0  0  0  0  0  0  0  0  # atno 8010 bound_to 7997
  139.7230  143.8927  152.2510 H   0  0  0  0  0  0  0  0  0  0  0  0  # atno 10167 bound_to 10162
  156.8604  130.5585  149.5663 H   0  0  0  0  0  0  0  0  0  0  0  0  # atno 10718 bound_to 10713
  154.0619  135.6617  153.4813 H   0  0  0  0  0  0  0  0  0  0  0  0  # atno 10763 bound_to 10752
  153.0423  135.5137  154.7650 H   0  0  0  0  0  0  0  0  0  0  0  0  # atno 10764 bound_to 10752
  154.6689  135.3026  154.9735 H   0  0  0  0  0  0  0  0  0  0  0  0  # atno 10765 bound_to 10752
  140.5231  134.5689  157.5054 H   0  0  0  0  0  0  0  0  0  0  0  0  # atno 11005 bound_to 11000
  145.1606  140.9671  143.4379 LP  0  0  0  0  0  0  0  0  0  0  0  0  # atno 17320 bound_to 7965
  145.0120  139.3501  143.6115 LP  0  0  0  0  0  0  0  0  0  0  0  0  # atno 17321 bound_to 7965
  139.8828  144.7008  150.8858 LP  0  0  0  0  0  0  0  0  0  0  0  0  # atno 17342 bound_to 10162
  140.7757  143.3647  151.1761 LP  0  0  0  0  0  0  0  0  0  0  0  0  # atno 17343 bound_to 10162
  156.0779  130.5797  150.9509 LP  0  0  0  0  0  0  0  0  0  0  0  0  # atno 17370 bound_to 10713
  157.6253  131.0926  150.8545 LP  0  0  0  0  0  0  0  0  0  0  0  0  # atno 17371 bound_to 10713
  139.9595  134.7478  156.0269 LP  0  0  0  0  0  0  0  0  0  0  0  0  # atno 17394 bound_to 11000
  141.1323  133.6583  156.3497 LP  0  0  0  0  0  0  0  0  0  0  0  0  # atno 17395 bound_to 11000

$$$$
