AV-unprocessed.smi:2342|AV-procd|sdf|9354|dock9
  -GOLD-   2272012573D 1   1.00000     0.00000
 Structure written by MMmdl.
 38 38  0  0  0  0  0  0  0  0  2 V2000
  150.6191  136.8996  154.8275 C   0  0  0  0  0  0  0  0  0  0  0  0
  151.8961  137.5349  155.4013 C   0  0  2  0  0  0  0  0  0  0  0  0
  151.9844  137.3548  156.9383 C   0  0  0  0  0  0  0  0  0  0  0  0
  152.9032  138.2982  157.5686 N   0  0  0  0  0  0  0  0  0  0  0  0
  152.6209  139.0526  158.6415 C   0  0  0  0  0  0  0  0  0  0  0  0
  151.4948  139.1499  159.1291 O   0  0  0  0  0  0  0  0  0  0  0  0
  153.8012  139.7825  159.2831 C   0  0  0  0  0  0  0  0  0  0  0  0
  153.3197  141.0646  159.8993 C   0  0  0  0  0  0  0  0  0  0  0  0
  153.4303  141.4386  161.2147 C   0  0  0  0  0  0  0  0  0  0  0  0
  152.7934  143.0348  161.4897 S   0  0  0  0  0  0  0  0  0  0  0  0
  152.3746  143.1424  159.7762 C   0  0  0  0  0  0  0  0  0  0  0  0
  151.7268  144.3360  159.1167 C   0  0  0  0  0  0  0  0  0  0  0  0
  152.5989  144.8232  157.9433 C   0  0  0  0  0  0  0  0  0  0  0  0
  151.5786  145.5120  160.1062 C   0  0  0  0  0  0  0  0  0  0  0  0
  150.3149  143.9602  158.6267 C   0  0  0  0  0  0  0  0  0  0  0  0
  152.7052  142.0351  159.1019 N   0  0  0  0  0  0  0  0  0  0  0  0
  151.9779  139.0144  154.9834 C   0  0  0  0  0  0  0  0  0  0  0  0
  150.9902  139.5016  154.3898 O   0  0  0  0  0  0  0  0  0  0  0  0
  153.0263  139.6332  155.2706 O   0  5  0  0  0  0  0  0  0  0  0  0
  150.5611  137.0299  153.7461 H   0  0  0  0  0  0  0  0  0  0  0  0
  149.7217  137.3388  155.2651 H   0  0  0  0  0  0  0  0  0  0  0  0
  150.5949  135.8287  155.0295 H   0  0  0  0  0  0  0  0  0  0  0  0
  152.7511  137.0238  154.9555 H   0  0  0  0  0  0  0  0  0  0  0  0
  151.0015  137.5035  157.3865 H   0  0  0  0  0  0  0  0  0  0  0  0
  152.2741  136.3313  157.1813 H   0  0  0  0  0  0  0  0  0  0  0  0
  153.8595  138.2809  157.2436 H   0  0  0  0  0  0  0  0  0  0  0  0
  154.2642  139.1358  160.0298 H   0  0  0  0  0  0  0  0  0  0  0  0
  154.5621  139.9811  158.5274 H   0  0  0  0  0  0  0  0  0  0  0  0
  153.8663  140.8820  162.0307 H   0  0  0  0  0  0  0  0  0  0  0  0
  152.1545  145.6868  157.4477 H   0  0  0  0  0  0  0  0  0  0  0  0
  152.7282  144.0463  157.1890 H   0  0  0  0  0  0  0  0  0  0  0  0
  153.5926  145.1160  158.2846 H   0  0  0  0  0  0  0  0  0  0  0  0
  152.5467  145.8435  160.4841 H   0  0  0  0  0  0  0  0  0  0  0  0
  150.9604  145.2416  160.9632 H   0  0  0  0  0  0  0  0  0  0  0  0
  151.1091  146.3732  159.6298 H   0  0  0  0  0  0  0  0  0  0  0  0
  149.8160  144.8099  158.1597 H   0  0  0  0  0  0  0  0  0  0  0  0
  149.6867  143.6210  159.4512 H   0  0  0  0  0  0  0  0  0  0  0  0
  150.3486  143.1586  157.8878 H   0  0  0  0  0  0  0  0  0  0  0  0
  1  2  1  0  0  0  0
  1 20  1  0  0  0  0
  1 21  1  0  0  0  0
  1 22  1  0  0  0  0
  2  3  1  0  0  0  0
  2 17  1  0  0  0  0
  2 23  1  0  0  0  0
  3  4  1  0  0  0  0
  3 24  1  0  0  0  0
  3 25  1  0  0  0  0
  4  5  1  0  0  0  0
  4 26  1  0  0  0  0
  5  6  2  0  0  0  0
  5  7  1  0  0  0  0
  7  8  1  0  0  0  0
  7 27  1  0  0  0  0
  7 28  1  0  0  0  0
  8 16  1  0  0  0  0
  8  9  2  0  0  0  0
  9 10  1  0  0  0  0
  9 29  1  0  0  0  0
 10 11  1  0  0  0  0
 11 12  1  0  0  0  0
 11 16  2  0  0  0  0
 12 13  1  0  0  0  0
 12 14  1  0  0  0  0
 12 15  1  0  0  0  0
 13 30  1  0  0  0  0
 13 31  1  0  0  0  0
 13 32  1  0  0  0  0
 14 33  1  0  0  0  0
 14 34  1  0  0  0  0
 14 35  1  0  0  0  0
 15 36  1  0  0  0  0
 15 37  1  0  0  0  0
 15 38  1  0  0  0  0
 17 18  2  0  0  0  0
 17 19  1  0  0  0  0
M  CHG  1  19  -1
M  END
> <s_m_source_file>
AV-unprocessed.smi

> <i_m_source_file_index>
2342

> <i_lp_mmshare_version>
43012

> <i_f3d_flags>
0

> <s_epik_input>
Tz1DKFtPSF0pW0NASF0oW0NIM10pW0NIMl1bTkhdQyg9TylbQ0gyXWMxW2NIXXNjKG4xKUMoW0NIM10pKFtDSDNdKVtDSDNd

> <s_epik_cmdline>
J2VwaWtfcHl0aG9uJywgJy1waCcsICc3LjAnLCAnLXRuJywgJzgnLCAnLW1hJywgJzIwMCcsICctbWV0YWxfYmluZGluZycsICctaW1hZScsICc8aW5maWxlLm1hZT4nLCAnLW9tYWUnLCAnPG91dGZpbGUubWFlPic=

> <r_epik_Ionization_Penalty>
0.00120065

> <r_epik_Ionization_Penalty_Charging>
0.00115909

> <r_epik_Ionization_Penalty_Neutral>
4.15663e-05

> <r_epik_State_Penalty>
0.00076313

> <r_epik_Charging_Adjusted_Penalty>
0.00192222

> <i_epik_Tot_Q>
-1

> <i_epik_Tot_abs_Q>
1

> <r_epik_Metal_State_Penalty>
-0

> <b_epik_Metal_Only>
0

> <s_lp_Force_Field>
OPLS_2005

> <r_lp_Energy>
-10.4991

> <b_lp_Chiralities_Consistent>
1

> <s_lp_Variant>
AV-unprocessed.smi:2342-1

> <Gold.Version>
5.8.1

> <Gold.Id.Protein>
6NUR|6NUR_protein|mol2

> <Gold.PLP.Fitness>
51.6935

> <Gold.PLP.PLP>
-44.1023

> <Gold.PLP.part.hbond>
-2.1430

> <Gold.PLP.part.metal>
0.0000

> <Gold.PLP.part.buried>
-6.1932

> <Gold.PLP.part.nonpolar>
-35.8521

> <Gold.PLP.part.repulsive>
0.2202

> <Gold.PLP.ligand.clash>
0.0000

> <Gold.PLP.ligand.torsion>
0.7639

> <Gold.PLP.Chemscore.Hbond>
3.0000

> <Gold.PLP.Chemscore.CHOScore>
0.0000

> <Gold.PLP.Chemscore.Metal>
0.0000

> <Gold.Chemscore.Hbonds>
donor molecule, donor type, donor heavy atom, donor atom, acceptor molecule, acceptor atom, score
      P1  H  7989  7998       L1    18  1.00
      P1  H  7997  8010       L1    19  2.00

> <Gold.PLP.Chemscore.Internal.Correction>
0.1189

> <Gold.Rescore>
     Score         DG    S(hbond)    S(metal)    S(lipo)     H(rot)  DE(clash)    DE(int)     intcor
     17.15     -19.51       1.97        0.00     115.77       2.38       0.04       2.31       ----

> <Gold.Chemscore.Fitness>
17.1547

> <Gold.Chemscore.DG>
-19.5101

> <Gold.Chemscore.ZeroCoef>
-5.4800

> <Gold.Chemscore.Hbond>
1.9704

> <Gold.Chemscore.Metal>
0.0000

> <Gold.Chemscore.Lipo>
115.7676

> <Gold.Chemscore.Internal_Hbond>
0.0000

> <Gold.Chemscore.DEClash>
0.0450

> <Gold.Chemscore.DEInternal>
2.3104

> <Gold.Chemscore.Rot>
2.3812

> <Gold.Chemscore.Internal.Correction>
   9.000000E+99

> <Gold.Chemscore.Hbonds>
donor molecule, donor type, donor heavy atom, donor atom, acceptor molecule, acceptor atom, score
      P1  H  7989  7998       L1    18  0.50
      P1  H  7997  8010       L1    19  1.00

> <Gold.Chemscore.Hbond.Weighted>
-6.5812

> <Gold.Chemscore.Metal.Weighted>
-0.0000

> <Gold.Chemscore.Lipo.Weighted>
-13.5448

> <Gold.Chemscore.Internal_Hbond.Weighted>
0.0000

> <Gold.Chemscore.DEClash.Weighted>
0.0450

> <Gold.Chemscore.DEInternal.Weighted>
2.3104

> <Gold.Chemscore.Rot.Weighted>
6.0959

> <Gold.Chemscore.Internal.Correction.Weighted>
   9.000000E+99

> <Gold.Protein.RotatedTorsions>
[ 6907 6896 6895 6894 ] final   71.38 input  -60.11 | X-H torsion
[ 7974 7965 7964 7962 ] final  -25.93 input  175.53 | X-H torsion
[ 8008 7997 7996 7995 ] final  100.31 input   59.86 | X-H torsion
[ 10167 10162 10161 10158 ] final  -38.00 input  -65.29 | X-H torsion
[ 10718 10713 10712 10709 ] final   39.08 input   66.30 | X-H torsion
[ 10763 10752 10751 10750 ] final  158.59 input  -60.55 | X-H torsion
[ 11005 11000 10999 10996 ] final  130.16 input  -57.11 | X-H torsion

> <Gold.Protein.ActiveResidues>
 VAL166  LYS551  ARG553  GLY616  TRP617  ASP618  TYR619  PRO620  LYS621  CYS622 
 ASP623  PHE694  ASN695  SER759  ASP760  ASP761  ALA762  ILE779  LEU786  VAL792 
 PHE793  MET794  SER795  GLU796  ALA797  LYS798  CYS799  TRP800  GLU811  SER814 

> <Gold.Protein.RotatedAtoms>
  152.4806  134.4729  159.9640 H   0  0  0  0  0  0  0  0  0  0  0  0  # atno 6907 bound_to 6896
  151.4735  133.3557  159.2835 H   0  0  0  0  0  0  0  0  0  0  0  0  # atno 6908 bound_to 6896
  150.8876  134.8302  159.7331 H   0  0  0  0  0  0  0  0  0  0  0  0  # atno 6909 bound_to 6896
  146.1459  140.4952  142.8632 H   0  0  0  0  0  0  0  0  0  0  0  0  # atno 7974 bound_to 7965
  156.1191  140.3215  155.8182 H   0  0  0  0  0  0  0  0  0  0  0  0  # atno 8008 bound_to 7997
  155.4537  140.0534  157.3015 H   0  0  0  0  0  0  0  0  0  0  0  0  # atno 8009 bound_to 7997
  154.4814  140.2054  155.9768 H   0  0  0  0  0  0  0  0  0  0  0  0  # atno 8010 bound_to 7997
  140.7103  143.3305  151.2580 H   0  0  0  0  0  0  0  0  0  0  0  0  # atno 10167 bound_to 10162
  157.3663  130.7677  149.7085 H   0  0  0  0  0  0  0  0  0  0  0  0  # atno 10718 bound_to 10713
  154.2184  135.2783  155.2933 H   0  0  0  0  0  0  0  0  0  0  0  0  # atno 10763 bound_to 10752
  154.5721  135.5615  153.7108 H   0  0  0  0  0  0  0  0  0  0  0  0  # atno 10764 bound_to 10752
  153.0047  135.6324  154.2324 H   0  0  0  0  0  0  0  0  0  0  0  0  # atno 10765 bound_to 10752
  139.9656  134.9591  156.9254 H   0  0  0  0  0  0  0  0  0  0  0  0  # atno 11005 bound_to 11000
  144.7845  140.5909  143.6583 LP  0  0  0  0  0  0  0  0  0  0  0  0  # atno 17320 bound_to 7965
  145.4939  139.1487  143.3694 LP  0  0  0  0  0  0  0  0  0  0  0  0  # atno 17321 bound_to 7965
  139.6786  143.9894  152.2795 LP  0  0  0  0  0  0  0  0  0  0  0  0  # atno 17342 bound_to 10162
  139.9517  144.6616  150.8166 LP  0  0  0  0  0  0  0  0  0  0  0  0  # atno 17343 bound_to 10162
  155.9747  130.4099  150.3905 LP  0  0  0  0  0  0  0  0  0  0  0  0  # atno 17370 bound_to 10713
  157.1990  131.0433  151.2660 LP  0  0  0  0  0  0  0  0  0  0  0  0  # atno 17371 bound_to 10713
  140.5403  134.0726  155.7340 LP  0  0  0  0  0  0  0  0  0  0  0  0  # atno 17394 bound_to 11000
  141.1336  133.9260  157.2483 LP  0  0  0  0  0  0  0  0  0  0  0  0  # atno 17395 bound_to 11000

$$$$
