#       Name:                AV-unprocessed.smi:73
#       Creating user name   scv26
#       Creation time:       Thu Mar 26 17:10:03 2020


#       File generated by GOLD software.
#

@<TRIPOS>MOLECULE
AV-unprocessed.smi:73
    42    43     1
SMALL
NO_CHARGES


@<TRIPOS>ATOM
      1 ****        -1.9783   1.4302   0.9749 C.3            1 S1                 0.0000
      2 ****        -0.6982   1.3285   0.1302 C.3            1 S1                 0.0000
      3 ****        -0.1622  -0.0307  -0.0883 N.3            1 S1                 0.0000
      4 ****         1.3028   0.0569  -0.2259 C.3            1 S1                 0.0000
      5 ****         2.0088   0.4146   1.0442 C.2            1 S1                 0.0000
      6 ****         1.9425  -0.2219   2.2163 N.2            1 S1                 0.0000
      7 ****         2.7580   0.4846   3.0722 N.2            1 S1                 0.0000
      8 ****         3.2556   1.4921   2.3511 C.2            1 S1                 0.0000
      9 ****         4.2016   2.5500   2.8060 C.3            1 S1                 0.0000
     10 ****         2.8230   1.5013   1.0636 O.3            1 S1                 0.0000
     11 ****        -0.7421  -0.6975  -1.2772 C.3            1 S1                 0.0000
     12 ****        -0.2573  -2.1642  -1.4632 C.3            1 S1                 0.0000
     13 ****        -1.4400  -3.0374  -1.5104 N.4            1 S1                 1.0000
     14 ****        -2.5594  -2.2018  -1.9404 C.3            1 S1                 0.0000
     15 ****        -2.2822  -0.8522  -1.2864 C.3            1 S1                 0.0000
     16 ****        -2.9088   0.1669  -2.0388 O.3            1 S1                 0.0000
     17 ****        -2.6765  -0.8925  -0.2714 H              1 S1                 0.0000
     18 ****        -2.1163   2.4549   1.3207 H              1 S1                 0.0000
     19 ****        -1.9184   0.7950   1.8592 H              1 S1                 0.0000
     20 ****        -2.8799   1.1717   0.4256 H              1 S1                 0.0000
     21 ****        -0.8318   1.8410  -0.8233 H              1 S1                 0.0000
     22 ****         0.0342   1.9317   0.6664 H              1 S1                 0.0000
     23 ****         1.7350  -0.8861  -0.5536 H              1 S1                 0.0000
     24 ****         1.5633   0.7858  -0.9950 H              1 S1                 0.0000
     25 ****         4.0112   2.8021   3.8495 H              1 S1                 0.0000
     26 ****         4.0828   3.4501   2.2021 H              1 S1                 0.0000
     27 ****         5.2283   2.1962   2.7114 H              1 S1                 0.0000
     28 ****        -0.4471  -0.1439  -2.1709 H              1 S1                 0.0000
     29 ****         0.2988  -2.2611  -2.3963 H              1 S1                 0.0000
     30 ****         0.3803  -2.5233  -0.6553 H              1 S1                 0.0000
     31 ****        -1.3006  -3.8254  -2.1266 H              1 S1                 0.0000
     32 ****        -2.5301  -2.1243  -3.0287 H              1 S1                 0.0000
     33 ****        -3.5217  -2.6266  -1.6531 H              1 S1                 0.0000
     34 ****        -2.7446   0.9970  -1.6168 H              1 S1                 0.0000
     35 ****        -1.6305  -3.3622  -0.5730 H              1 S1                 0.0000
     36 ****        -0.4151  -0.5896   0.7015 LP             1 S1                 0.0000
     37 ****         1.4108  -1.0418   2.4286 LP             1 S1                 0.0000
     38 ****         2.9399   0.2844   4.0350 LP             1 S1                 0.0000
     39 ****         2.3192   2.3392   0.8535 LP             1 S1                 0.0000
     40 ****         3.5833   1.3997   0.4220 LP             1 S1                 0.0000
     41 ****        -3.8937  -0.0014  -2.0796 LP             1 S1                 0.0000
     42 ****        -2.5342   0.1802  -2.9658 LP             1 S1                 0.0000
@<TRIPOS>BOND
    1    1    2 1     
    2    1   18 1     
    3    1   19 1     
    4    1   20 1     
    5    2    3 1     
    6    2   21 1     
    7    2   22 1     
    8    3    4 1     
    9    3   11 1     
   10    4    5 1     
   11    4   23 1     
   12    4   24 1     
   13    5   10 1     
   14    5    6 2     
   15    6    7 1     
   16    7    8 2     
   17    8    9 1     
   18    8   10 1     
   19    9   25 1     
   20    9   26 1     
   21    9   27 1     
   22   11   15 1     
   23   11   12 1     
   24   11   28 1     
   25   12   13 1     
   26   12   29 1     
   27   12   30 1     
   28   13   14 1     
   29   13   31 1     
   30   13   35 1     
   31   14   15 1     
   32   14   32 1     
   33   14   33 1     
   34   15   17 1     
   35   15   16 1     
   36   16   34 1     
   37    3   36 1     
   38    6   37 1     
   39    7   38 1     
   40   10   39 1     
   41   10   40 1     
   42   16   41 1     
   43   16   42 1     
@<TRIPOS>SUBSTRUCTURE
      1 S1             1
@<TRIPOS>SET
LONE_PAIRS      STATIC     ATOMS    <user>   **** ""
7 36 37 38 39 40 41 42
DONOR_HYDROGENS      STATIC     ATOMS    <user>   **** ""
3 31 35 34
ATOM$BLUE        STATIC     ATOMS    COLORGROUP SYSTEM
7 36 37 38 39 40 41 42
ATOM$RED        STATIC     ATOMS    COLORGROUP SYSTEM
3 31 35 34
