AV-unprocessed.smi:594|AV-procd|sdf|3016|dock1
  -GOLD-   2262023523D 1   1.00000     0.00000
 Structure written by MMmdl.
 40 41  0  0  0  0  0  0  0  0  3 V2000
  153.8314  140.6395  160.7200 C   0  0  0  0  0  0  0  0  0  0  0  0
  153.4898  142.1345  160.5945 C   0  0  2  0  0  0  0  0  0  0  0  0
  152.5358  142.5934  161.7170 C   0  0  0  0  0  0  0  0  0  0  0  0
  152.2451  144.1003  161.6309 C   0  0  0  0  0  0  0  0  0  0  0  0
  151.6868  144.4842  160.2525 C   0  0  0  0  0  0  0  0  0  0  0  0
  152.6281  144.0295  159.1234 C   0  0  0  0  0  0  0  0  0  0  0  0
  152.9429  142.5216  159.1959 C   0  0  2  0  0  0  0  0  0  0  0  0
  151.7506  141.7473  158.8438 N   0  0  0  0  0  0  0  0  0  0  0  0
  151.7105  140.6794  158.0321 C   0  0  0  0  0  0  0  0  0  0  0  0
  152.7048  140.2169  157.4709 O   0  0  0  0  0  0  0  0  0  0  0  0
  150.3286  140.0345  157.8534 C   0  0  0  0  0  0  0  0  0  0  0  0
  149.5415  140.6289  156.7601 N   0  0  0  0  0  0  0  0  0  0  0  0
  148.2655  141.1252  157.0922 C   0  0  0  0  0  0  0  0  0  0  0  0
  147.4503  141.6775  156.1726 C   0  0  0  0  0  0  0  0  0  0  0  0
  146.1388  142.1718  156.5302 N   0  3  0  0  0  0  0  0  0  0  0  0
  145.8047  142.1529  157.7106 O   0  0  0  0  0  0  0  0  0  0  0  0
  145.3998  142.5938  155.6454 O   0  5  0  0  0  0  0  0  0  0  0  0
  147.9299  141.7538  154.8061 C   0  0  0  0  0  0  0  0  0  0  0  0
  149.1477  141.2767  154.4812 C   0  0  0  0  0  0  0  0  0  0  0  0
  150.0297  140.6680  155.4827 C   0  0  0  0  0  0  0  0  0  0  0  0
  151.1387  140.2207  155.1903 O   0  0  0  0  0  0  0  0  0  0  0  0
  152.9394  140.0146  160.6692 H   0  0  0  0  0  0  0  0  0  0  0  0
  154.3238  140.4301  161.6698 H   0  0  0  0  0  0  0  0  0  0  0  0
  154.5058  140.3237  159.9236 H   0  0  0  0  0  0  0  0  0  0  0  0
  154.4265  142.6778  160.7288 H   0  0  0  0  0  0  0  0  0  0  0  0
  151.5995  142.0365  161.6617 H   0  0  0  0  0  0  0  0  0  0  0  0
  152.9701  142.3640  162.6907 H   0  0  0  0  0  0  0  0  0  0  0  0
  151.5392  144.3880  162.4107 H   0  0  0  0  0  0  0  0  0  0  0  0
  153.1614  144.6603  161.8221 H   0  0  0  0  0  0  0  0  0  0  0  0
  150.7024  144.0343  160.1180 H   0  0  0  0  0  0  0  0  0  0  0  0
  151.5404  145.5633  160.1995 H   0  0  0  0  0  0  0  0  0  0  0  0
  152.1964  144.2789  158.1533 H   0  0  0  0  0  0  0  0  0  0  0  0
  153.5602  144.5920  159.1918 H   0  0  0  0  0  0  0  0  0  0  0  0
  153.7268  142.3244  158.4624 H   0  0  0  0  0  0  0  0  0  0  0  0
  150.8826  142.0495  159.2616 H   0  0  0  0  0  0  0  0  0  0  0  0
  150.4698  138.9672  157.6753 H   0  0  0  0  0  0  0  0  0  0  0  0
  149.7846  140.0941  158.7979 H   0  0  0  0  0  0  0  0  0  0  0  0
  147.9996  141.0132  158.1339 H   0  0  0  0  0  0  0  0  0  0  0  0
  147.3163  142.1939  154.0337 H   0  0  0  0  0  0  0  0  0  0  0  0
  149.4845  141.3436  153.4570 H   0  0  0  0  0  0  0  0  0  0  0  0
  1  2  1  0  0  0  0
  1 22  1  0  0  0  0
  1 23  1  0  0  0  0
  1 24  1  0  0  0  0
  2  7  1  0  0  0  0
  2  3  1  0  0  0  0
  2 25  1  0  0  0  0
  3  4  1  0  0  0  0
  3 26  1  0  0  0  0
  3 27  1  0  0  0  0
  4  5  1  0  0  0  0
  4 28  1  0  0  0  0
  4 29  1  0  0  0  0
  5  6  1  0  0  0  0
  5 30  1  0  0  0  0
  5 31  1  0  0  0  0
  6  7  1  0  0  0  0
  6 32  1  0  0  0  0
  6 33  1  0  0  0  0
  7  8  1  0  0  0  0
  7 34  1  0  0  0  0
  8  9  1  0  0  0  0
  8 35  1  0  0  0  0
  9 10  2  0  0  0  0
  9 11  1  0  0  0  0
 11 12  1  0  0  0  0
 11 36  1  0  0  0  0
 11 37  1  0  0  0  0
 12 20  1  0  0  0  0
 12 13  1  0  0  0  0
 13 14  2  0  0  0  0
 13 38  1  0  0  0  0
 14 15  1  0  0  0  0
 14 18  1  0  0  0  0
 15 16  2  0  0  0  0
 15 17  1  0  0  0  0
 18 19  2  0  0  0  0
 18 39  1  0  0  0  0
 19 20  1  0  0  0  0
 19 40  1  0  0  0  0
 20 21  2  0  0  0  0
M  CHG  1  15   1
M  CHG  1  17  -1
M  END
> <s_m_source_file>
AV-unprocessed.smi

> <i_m_source_file_index>
594

> <i_lp_mmshare_version>
43012

> <i_f3d_flags>
0

> <s_epik_input>
W0NIM11bQ0BASF0xW0NIMl1bQ0gyXVtDSDJdW0NIMl1bQ0BIXTFbTkhdQyg9TylbQ0gyXW4yW2NIXWMoW04rXSg9TylbTy1dKVtjSF1bY0hdYzI9Tw==

> <s_epik_cmdline>
J2VwaWtfcHl0aG9uJywgJy1waCcsICc3LjAnLCAnLXRuJywgJzgnLCAnLW1hJywgJzIwMCcsICctbWV0YWxfYmluZGluZycsICctaW1hZScsICc8aW5maWxlLm1hZT4nLCAnLW9tYWUnLCAnPG91dGZpbGUubWFlPic=

> <r_lp_tautomer_probability>
1

> <r_epik_Ionization_Penalty>
1.91305e-08

> <r_epik_Ionization_Penalty_Charging>
8.35811e-11

> <r_epik_Ionization_Penalty_Neutral>
1.90469e-08

> <r_epik_State_Penalty>
-0

> <r_epik_Charging_Adjusted_Penalty>
8.35811e-11

> <i_epik_Tot_Q>
0

> <i_epik_Tot_abs_Q>
2

> <r_epik_Metal_State_Penalty>
-0

> <b_epik_Metal_Only>
0

> <s_lp_Force_Field>
OPLS_2005

> <r_lp_Energy>
20.6939

> <b_lp_Chiralities_Consistent>
1

> <s_lp_Variant>
AV-unprocessed.smi:594-3

> <Gold.Version>
5.8.1

> <Gold.Id.Protein>
6NUR|6NUR_protein|mol2

> <Gold.PLP.Fitness>
49.7314

> <Gold.PLP.PLP>
-44.9545

> <Gold.PLP.part.hbond>
-2.0000

> <Gold.PLP.part.metal>
0.0000

> <Gold.PLP.part.buried>
-5.0696

> <Gold.PLP.part.nonpolar>
-38.0665

> <Gold.PLP.part.repulsive>
0.3564

> <Gold.PLP.ligand.clash>
0.0000

> <Gold.PLP.ligand.torsion>
0.6259

> <Gold.PLP.Chemscore.Hbond>
2.0000

> <Gold.PLP.Chemscore.CHOScore>
0.0000

> <Gold.PLP.Chemscore.Metal>
0.0000

> <Gold.Chemscore.Hbonds>
donor molecule, donor type, donor heavy atom, donor atom, acceptor molecule, acceptor atom, score
      P1  H  7989  7998       L1    21  1.00
      P1  H  7997  8010       L1    10  0.99

> <Gold.PLP.Chemscore.Internal.Correction>
0.0286

> <Gold.Rescore>
     Score         DG    S(hbond)    S(metal)    S(lipo)     H(rot)  DE(clash)    DE(int)     intcor
     21.48     -22.51       2.84        0.00      98.45       1.55       0.73       0.30       ----

> <Gold.Chemscore.Fitness>
21.4809

> <Gold.Chemscore.DG>
-22.5083

> <Gold.Chemscore.ZeroCoef>
-5.4800

> <Gold.Chemscore.Hbond>
2.8380

> <Gold.Chemscore.Metal>
0.0000

> <Gold.Chemscore.Lipo>
98.4483

> <Gold.Chemscore.Internal_Hbond>
0.0000

> <Gold.Chemscore.DEClash>
0.7287

> <Gold.Chemscore.DEInternal>
0.2987

> <Gold.Chemscore.Rot>
1.5505

> <Gold.Chemscore.Internal.Correction>
   9.000000E+99

> <Gold.Chemscore.Hbonds>
donor molecule, donor type, donor heavy atom, donor atom, acceptor molecule, acceptor atom, score
      P1  H  7989  7998       L1    21  0.69
      P1  H  7997  8010       L1    10  0.94

> <Gold.Chemscore.Hbond.Weighted>
-9.4790

> <Gold.Chemscore.Metal.Weighted>
-0.0000

> <Gold.Chemscore.Lipo.Weighted>
-11.5185

> <Gold.Chemscore.Internal_Hbond.Weighted>
0.0000

> <Gold.Chemscore.DEClash.Weighted>
0.7287

> <Gold.Chemscore.DEInternal.Weighted>
0.2987

> <Gold.Chemscore.Rot.Weighted>
3.9692

> <Gold.Chemscore.Internal.Correction.Weighted>
   9.000000E+99

> <Gold.Protein.RotatedTorsions>
[ 6907 6896 6895 6894 ] final  -22.34 input  -60.11 | X-H torsion
[ 7974 7965 7964 7962 ] final  -60.89 input  175.53 | X-H torsion
[ 8008 7997 7996 7995 ] final   49.46 input   59.86 | X-H torsion
[ 10167 10162 10161 10158 ] final  -60.09 input  -65.29 | X-H torsion
[ 10718 10713 10712 10709 ] final  123.85 input   66.30 | X-H torsion
[ 10763 10752 10751 10750 ] final  -73.88 input  -60.55 | X-H torsion
[ 11005 11000 10999 10996 ] final -169.68 input  -57.11 | X-H torsion

> <Gold.Protein.ActiveResidues>
 VAL166  LYS551  ARG553  GLY616  TRP617  ASP618  TYR619  PRO620  LYS621  CYS622 
 ASP623  PHE694  ASN695  SER759  ASP760  ASP761  ALA762  ILE779  LEU786  VAL792 
 PHE793  MET794  SER795  GLU796  ALA797  LYS798  CYS799  TRP800  GLU811  SER814 

> <Gold.Protein.RotatedAtoms>
  151.2201  135.0515  159.8945 H   0  0  0  0  0  0  0  0  0  0  0  0  # atno 6907 bound_to 6896
  152.5416  134.0650  159.8179 H   0  0  0  0  0  0  0  0  0  0  0  0  # atno 6908 bound_to 6896
  151.0815  133.5338  159.2652 H   0  0  0  0  0  0  0  0  0  0  0  0  # atno 6909 bound_to 6896
  145.8100  140.8604  143.0187 H   0  0  0  0  0  0  0  0  0  0  0  0  # atno 7974 bound_to 7965
  155.4026  140.3438  155.4258 H   0  0  0  0  0  0  0  0  0  0  0  0  # atno 8008 bound_to 7997
  156.1495  140.1566  156.8825 H   0  0  0  0  0  0  0  0  0  0  0  0  # atno 8009 bound_to 7997
  154.5040  140.0807  156.7837 H   0  0  0  0  0  0  0  0  0  0  0  0  # atno 8010 bound_to 7997
  140.6093  143.2382  151.5746 H   0  0  0  0  0  0  0  0  0  0  0  0  # atno 10167 bound_to 10162
  157.5632  131.1088  150.8501 H   0  0  0  0  0  0  0  0  0  0  0  0  # atno 10718 bound_to 10713
  154.4655  135.5883  153.6285 H   0  0  0  0  0  0  0  0  0  0  0  0  # atno 10763 bound_to 10752
  152.9828  135.6054  154.3433 H   0  0  0  0  0  0  0  0  0  0  0  0  # atno 10764 bound_to 10752
  154.3309  135.2842  155.2451 H   0  0  0  0  0  0  0  0  0  0  0  0  # atno 10765 bound_to 10752
  140.5280  134.5644  157.5067 H   0  0  0  0  0  0  0  0  0  0  0  0  # atno 11005 bound_to 11000
  144.6758  140.0382  143.7481 LP  0  0  0  0  0  0  0  0  0  0  0  0  # atno 17320 bound_to 7965
  145.9787  139.2924  143.1055 LP  0  0  0  0  0  0  0  0  0  0  0  0  # atno 17321 bound_to 7965
  139.5349  144.2809  152.1230 LP  0  0  0  0  0  0  0  0  0  0  0  0  # atno 17342 bound_to 10162
  140.2005  144.4662  150.6434 LP  0  0  0  0  0  0  0  0  0  0  0  0  # atno 17343 bound_to 10162
  156.8992  130.5240  149.5283 LP  0  0  0  0  0  0  0  0  0  0  0  0  # atno 17370 bound_to 10713
  156.0683  130.5721  150.9332 LP  0  0  0  0  0  0  0  0  0  0  0  0  # atno 17371 bound_to 10713
  139.9569  134.7519  156.0321 LP  0  0  0  0  0  0  0  0  0  0  0  0  # atno 17394 bound_to 11000
  141.1297  133.6589  156.3432 LP  0  0  0  0  0  0  0  0  0  0  0  0  # atno 17395 bound_to 11000

$$$$
