AV-unprocessed.smi:284|AV-procd|sdf|2158|dock9
  -GOLD-   2262021513D 1   1.00000     0.00000
 Structure written by MMmdl.
 60 62  0  0  0  0  0  0  0  0  1 V2000
  149.3507  133.9826  155.8195 C   0  0  0  0  0  0  0  0  0  0  0  0
  149.6099  135.4319  155.4392 C   0  0  0  0  0  0  0  0  0  0  0  0
  148.6376  136.2290  154.9393 C   0  0  0  0  0  0  0  0  0  0  0  0
  148.8408  137.5494  154.5844 N   0  0  0  0  0  0  0  0  0  0  0  0
  147.7202  138.3975  154.0316 C   0  0  1  0  0  0  0  0  0  0  0  0
  147.9754  138.7491  152.5700 C   0  0  0  0  0  0  0  0  0  0  0  0
  146.5555  138.8922  152.0695 C   0  0  1  0  0  0  0  0  0  0  0  0
  146.4867  138.7784  150.6622 O   0  0  0  0  0  0  0  0  0  0  0  0
  145.8094  137.7942  152.8498 C   0  0  1  0  0  0  0  0  0  0  0  0
  145.7899  136.3973  152.1945 C   0  0  0  0  0  0  0  0  0  0  0  0
  145.0939  136.4283  150.9657 O   0  0  0  0  0  0  0  0  0  0  0  0
  146.5211  137.6807  154.0850 O   0  0  0  0  0  0  0  0  0  0  0  0
  150.1263  138.1138  154.7004 C   0  0  0  0  0  0  0  0  0  0  0  0
  150.3377  139.2801  154.3593 O   0  0  0  0  0  0  0  0  0  0  0  0
  151.1654  137.3074  155.2165 N   0  0  0  0  0  0  0  0  0  0  0  0
  152.5114  137.9048  155.3655 C   0  0  0  0  0  0  0  0  0  0  0  0
  152.6530  138.7990  156.6072 C   0  0  0  0  0  0  0  0  0  0  0  0
  153.5643  138.6091  157.4139 O   0  0  0  0  0  0  0  0  0  0  0  0
  151.7452  139.7874  156.7029 N   0  0  0  0  0  0  0  0  0  0  0  0
  151.5868  140.7504  157.7356 C   0  0  0  0  0  0  0  0  0  0  0  0
  152.3285  140.5613  158.9176 C   0  0  0  0  0  0  0  0  0  0  0  0
  152.2445  141.4874  159.9750 C   0  0  0  0  0  0  0  0  0  0  0  0
  151.4215  142.6357  159.8707 C   0  0  0  0  0  0  0  0  0  0  0  0
  151.3084  143.6762  161.0013 C   0  0  0  0  0  0  0  0  0  0  0  0
  151.8739  145.0271  160.5161 C   0  0  0  0  0  0  0  0  0  0  0  0
  152.0861  143.2717  162.2742 C   0  0  0  0  0  0  0  0  0  0  0  0
  149.8279  143.8561  161.3977 C   0  0  0  0  0  0  0  0  0  0  0  0
  150.6920  142.8252  158.6732 C   0  0  0  0  0  0  0  0  0  0  0  0
  150.7733  141.9003  157.6150 C   0  0  0  0  0  0  0  0  0  0  0  0
  150.9633  135.9639  155.6179 C   0  0  0  0  0  0  0  0  0  0  0  0
  151.8903  135.3025  156.0894 O   0  0  0  0  0  0  0  0  0  0  0  0
  148.3085  133.7020  155.6634 H   0  0  0  0  0  0  0  0  0  0  0  0
  149.5861  133.8156  156.8713 H   0  0  0  0  0  0  0  0  0  0  0  0
  149.9694  133.3148  155.2191 H   0  0  0  0  0  0  0  0  0  0  0  0
  147.6546  135.8026  154.8088 H   0  0  0  0  0  0  0  0  0  0  0  0
  147.6186  139.2706  154.6786 H   0  0  0  0  0  0  0  0  0  0  0  0
  148.5768  139.6538  152.4764 H   0  0  0  0  0  0  0  0  0  0  0  0
  148.4863  137.9212  152.0752 H   0  0  0  0  0  0  0  0  0  0  0  0
  146.1684  139.8689  152.3642 H   0  0  0  0  0  0  0  0  0  0  0  0
  145.5770  138.7747  150.4053 H   0  0  0  0  0  0  0  0  0  0  0  0
  144.7872  138.1061  153.0686 H   0  0  0  0  0  0  0  0  0  0  0  0
  146.7976  136.0092  152.0446 H   0  0  0  0  0  0  0  0  0  0  0  0
  145.2693  135.6920  152.8430 H   0  0  0  0  0  0  0  0  0  0  0  0
  144.7483  137.2987  150.8382 H   0  0  0  0  0  0  0  0  0  0  0  0
  153.2880  137.1398  155.4072 H   0  0  0  0  0  0  0  0  0  0  0  0
  152.7672  138.4893  154.4799 H   0  0  0  0  0  0  0  0  0  0  0  0
  151.1221  139.8911  155.9151 H   0  0  0  0  0  0  0  0  0  0  0  0
  152.9675  139.6964  159.0220 H   0  0  0  0  0  0  0  0  0  0  0  0
  152.8305  141.2890  160.8586 H   0  0  0  0  0  0  0  0  0  0  0  0
  151.8235  145.7831  161.3005 H   0  0  0  0  0  0  0  0  0  0  0  0
  151.3239  145.4187  159.6603 H   0  0  0  0  0  0  0  0  0  0  0  0
  152.9191  144.9331  160.2191 H   0  0  0  0  0  0  0  0  0  0  0  0
  153.1536  143.1617  162.0786 H   0  0  0  0  0  0  0  0  0  0  0  0
  151.7183  142.3326  162.6895 H   0  0  0  0  0  0  0  0  0  0  0  0
  151.9840  144.0262  163.0551 H   0  0  0  0  0  0  0  0  0  0  0  0
  149.7198  144.5716  162.2136 H   0  0  0  0  0  0  0  0  0  0  0  0
  149.3918  142.9134  161.7302 H   0  0  0  0  0  0  0  0  0  0  0  0
  149.2213  144.2245  160.5705 H   0  0  0  0  0  0  0  0  0  0  0  0
  150.0627  143.6939  158.5495 H   0  0  0  0  0  0  0  0  0  0  0  0
  150.2150  142.1030  156.7141 H   0  0  0  0  0  0  0  0  0  0  0  0
  1  2  1  0  0  0  0
  1 32  1  0  0  0  0
  1 33  1  0  0  0  0
  1 34  1  0  0  0  0
  2 30  1  0  0  0  0
  2  3  2  0  0  0  0
  3  4  1  0  0  0  0
  3 35  1  0  0  0  0
  4  5  1  0  0  0  0
  4 13  1  0  0  0  0
  5 12  1  0  0  0  0
  5  6  1  0  0  0  0
  5 36  1  0  0  0  0
  6  7  1  0  0  0  0
  6 37  1  0  0  0  0
  6 38  1  0  0  0  0
  7  8  1  0  0  0  0
  7  9  1  0  0  0  0
  7 39  1  0  0  0  0
  8 40  1  0  0  0  0
  9 10  1  0  0  0  0
  9 12  1  0  0  0  0
  9 41  1  0  0  0  0
 10 11  1  0  0  0  0
 10 42  1  0  0  0  0
 10 43  1  0  0  0  0
 11 44  1  0  0  0  0
 13 14  2  0  0  0  0
 13 15  1  0  0  0  0
 15 16  1  0  0  0  0
 15 30  1  0  0  0  0
 16 17  1  0  0  0  0
 16 45  1  0  0  0  0
 16 46  1  0  0  0  0
 17 18  2  0  0  0  0
 17 19  1  0  0  0  0
 19 20  1  0  0  0  0
 19 47  1  0  0  0  0
 20 29  1  0  0  0  0
 20 21  2  0  0  0  0
 21 22  1  0  0  0  0
 21 48  1  0  0  0  0
 22 23  2  0  0  0  0
 22 49  1  0  0  0  0
 23 24  1  0  0  0  0
 23 28  1  0  0  0  0
 24 25  1  0  0  0  0
 24 26  1  0  0  0  0
 24 27  1  0  0  0  0
 25 50  1  0  0  0  0
 25 51  1  0  0  0  0
 25 52  1  0  0  0  0
 26 53  1  0  0  0  0
 26 54  1  0  0  0  0
 26 55  1  0  0  0  0
 27 56  1  0  0  0  0
 27 57  1  0  0  0  0
 27 58  1  0  0  0  0
 28 29  2  0  0  0  0
 28 59  1  0  0  0  0
 29 60  1  0  0  0  0
 30 31  2  0  0  0  0
M  END
> <s_m_source_file>
AV-unprocessed.smi

> <i_m_source_file_index>
284

> <i_lp_mmshare_version>
43012

> <i_f3d_flags>
0

> <s_epik_input>
W09IXVtDSDJdW0NAQEhdKE8xKVtDQEhdKFtPSF0pW0NIMl1bQ0BIXTFuKFtjSF1jMltDSDNdKWMoPU8pbihjMj1PKVtDSDJdQyg9TylbTkhdYzNbY0hdW2NIXWMoQyhbQ0gzXSkoW0NIM10pW0NIM10pW2NIXVtjSF0z

> <s_epik_cmdline>
J2VwaWtfcHl0aG9uJywgJy1waCcsICc3LjAnLCAnLXRuJywgJzgnLCAnLW1hJywgJzIwMCcsICctbWV0YWxfYmluZGluZycsICctaW1hZScsICc8aW5maWxlLm1hZT4nLCAnLW9tYWUnLCAnPG91dGZpbGUubWFlPic=

> <r_lp_tautomer_probability>
1

> <r_epik_Ionization_Penalty>
4.92358e-06

> <r_epik_Ionization_Penalty_Charging>
1.29777e-07

> <r_epik_Ionization_Penalty_Neutral>
4.79381e-06

> <r_epik_State_Penalty>
-0

> <r_epik_Charging_Adjusted_Penalty>
1.29777e-07

> <i_epik_Tot_Q>
0

> <i_epik_Tot_abs_Q>
0

> <r_epik_Metal_State_Penalty>
-0

> <b_epik_Metal_Only>
0

> <s_epik_Chemistry_Notes>
This compound contains an acetal/aminal-like group ( X-CH(R)-Y where X, Y are N, S, or O) that may be acid/base labile, releasing an aldehyde.

> <s_lp_Force_Field>
OPLS_2005

> <r_lp_Energy>
41.7726

> <b_lp_Chiralities_Consistent>
1

> <s_lp_Variant>
AV-unprocessed.smi:284-2

> <Gold.Version>
5.8.1

> <Gold.Id.Protein>
6NUR|6NUR_protein|mol2

> <Gold.PLP.Fitness>
62.9494

> <Gold.PLP.PLP>
-46.7058

> <Gold.PLP.part.hbond>
-5.7232

> <Gold.PLP.part.metal>
0.0000

> <Gold.PLP.part.buried>
4.5138

> <Gold.PLP.part.nonpolar>
-46.7715

> <Gold.PLP.part.repulsive>
0.6828

> <Gold.PLP.ligand.clash>
0.0000

> <Gold.PLP.ligand.torsion>
0.4620

> <Gold.PLP.Chemscore.Hbond>
5.6781

> <Gold.PLP.Chemscore.CHOScore>
0.0000

> <Gold.PLP.Chemscore.Metal>
0.0000

> <Gold.Chemscore.Hbonds>
donor molecule, donor type, donor heavy atom, donor atom, acceptor molecule, acceptor atom, score
      L1  H     8    40       P1 10171  1.00
      L1  H    11    44       P1 10171  1.00
      P1  H  7954  7966       L1     8  0.75
      P1  H  7989  7998       L1    14  0.54
      P1  H  7997  8009       L1    18  1.00
      P1  H 10752 10763       L1    31  1.00

> <Gold.PLP.Chemscore.Internal.Correction>
0.1334

> <Gold.Rescore>
     Score         DG    S(hbond)    S(metal)    S(lipo)     H(rot)  DE(clash)    DE(int)     intcor
     20.78     -28.12       4.43        0.00     138.74       3.27       4.33       3.02       ----

> <Gold.Chemscore.Fitness>
20.7766

> <Gold.Chemscore.DG>
-28.1173

> <Gold.Chemscore.ZeroCoef>
-5.4800

> <Gold.Chemscore.Hbond>
4.4266

> <Gold.Chemscore.Metal>
0.0000

> <Gold.Chemscore.Lipo>
138.7390

> <Gold.Chemscore.Internal_Hbond>
0.0000

> <Gold.Chemscore.DEClash>
4.3255

> <Gold.Chemscore.DEInternal>
3.0153

> <Gold.Chemscore.Rot>
3.2735

> <Gold.Chemscore.Internal.Correction>
   9.000000E+99

> <Gold.Chemscore.Hbonds>
donor molecule, donor type, donor heavy atom, donor atom, acceptor molecule, acceptor atom, score
      L1  H     8    40       P1 10171  1.00
      L1  H    11    44       P1 10171  0.95
      P1  H  7954  7966       L1     8  0.58
      P1  H  7989  7998       L1    14  0.54
      P1  H  7997  8009       L1    18  0.29
      P1  H 10752 10763       L1    31  0.34

> <Gold.Chemscore.Hbond.Weighted>
-14.7849

> <Gold.Chemscore.Metal.Weighted>
-0.0000

> <Gold.Chemscore.Lipo.Weighted>
-16.2325

> <Gold.Chemscore.Internal_Hbond.Weighted>
0.0000

> <Gold.Chemscore.DEClash.Weighted>
4.3255

> <Gold.Chemscore.DEInternal.Weighted>
3.0153

> <Gold.Chemscore.Rot.Weighted>
8.3801

> <Gold.Chemscore.Internal.Correction.Weighted>
   9.000000E+99

> <Gold.Protein.RotatedTorsions>
[ 6907 6896 6895 6894 ] final -157.64 input  -60.11 | X-H torsion
[ 7974 7965 7964 7962 ] final -113.57 input  175.53 | X-H torsion
[ 8008 7997 7996 7995 ] final  151.56 input   59.86 | X-H torsion
[ 10167 10162 10161 10158 ] final -110.68 input  -65.29 | X-H torsion
[ 10718 10713 10712 10709 ] final  156.70 input   66.30 | X-H torsion
[ 10763 10752 10751 10750 ] final   79.33 input  -60.55 | X-H torsion
[ 11005 11000 10999 10996 ] final  -34.14 input  -57.11 | X-H torsion

> <Gold.Protein.ActiveResidues>
 VAL166  LYS551  ARG553  GLY616  TRP617  ASP618  TYR619  PRO620  LYS621  CYS622 
 ASP623  PHE694  ASN695  SER759  ASP760  ASP761  ALA762  ILE779  LEU786  VAL792 
 PHE793  MET794  SER795  GLU796  ALA797  LYS798  CYS799  TRP800  GLU811  SER814 

> <Gold.Protein.RotatedAtoms>
  151.3060  133.4101  159.2642 H   0  0  0  0  0  0  0  0  0  0  0  0  # atno 6907 bound_to 6896
  151.0155  134.9430  159.8041 H   0  0  0  0  0  0  0  0  0  0  0  0  # atno 6908 bound_to 6896
  152.5311  134.3023  159.9135 H   0  0  0  0  0  0  0  0  0  0  0  0  # atno 6909 bound_to 6896
  145.1305  140.8721  143.3761 H   0  0  0  0  0  0  0  0  0  0  0  0  # atno 7974 bound_to 7965
  156.2668  140.2044  156.6195 H   0  0  0  0  0  0  0  0  0  0  0  0  # atno 8008 bound_to 7997
  154.6768  140.0544  157.0248 H   0  0  0  0  0  0  0  0  0  0  0  0  # atno 8009 bound_to 7997
  155.1057  140.3210  155.4538 H   0  0  0  0  0  0  0  0  0  0  0  0  # atno 8010 bound_to 7997
  140.1418  143.4272  152.1556 H   0  0  0  0  0  0  0  0  0  0  0  0  # atno 10167 bound_to 10162
  157.2014  131.0677  151.2023 H   0  0  0  0  0  0  0  0  0  0  0  0  # atno 10718 bound_to 10713
  153.0944  135.4844  154.8751 H   0  0  0  0  0  0  0  0  0  0  0  0  # atno 10763 bound_to 10752
  154.7307  135.3059  154.8898 H   0  0  0  0  0  0  0  0  0  0  0  0  # atno 10764 bound_to 10752
  153.9534  135.6820  153.4797 H   0  0  0  0  0  0  0  0  0  0  0  0  # atno 10765 bound_to 10752
  140.9692  133.7119  156.1495 H   0  0  0  0  0  0  0  0  0  0  0  0  # atno 11005 bound_to 11000
  145.0641  139.3082  143.5865 LP  0  0  0  0  0  0  0  0  0  0  0  0  # atno 17320 bound_to 7965
  146.3514  140.0093  142.8668 LP  0  0  0  0  0  0  0  0  0  0  0  0  # atno 17321 bound_to 7965
  139.5468  144.7305  151.4558 LP  0  0  0  0  0  0  0  0  0  0  0  0  # atno 17342 bound_to 10162
  140.6756  143.8198  150.7053 LP  0  0  0  0  0  0  0  0  0  0  0  0  # atno 17343 bound_to 10162
  157.3764  130.7208  149.6599 LP  0  0  0  0  0  0  0  0  0  0  0  0  # atno 17370 bound_to 10713
  155.9700  130.4184  150.4328 LP  0  0  0  0  0  0  0  0  0  0  0  0  # atno 17371 bound_to 10713
  140.7354  134.4208  157.5561 LP  0  0  0  0  0  0  0  0  0  0  0  0  # atno 17394 bound_to 11000
  139.8906  134.8801  156.2363 LP  0  0  0  0  0  0  0  0  0  0  0  0  # atno 17395 bound_to 11000

$$$$
