AV-unprocessed.smi:140|AV-procd|sdf|1185|dock5
  -GOLD-   2262018333D 1   1.00000     0.00000
 Structure written by MMmdl.
 52 55  0  0  0  0  0  0  0  0  1 V2000
  153.8452  139.9239  160.0132 C   0  0  0  0  0  0  0  0  0  0  0  0
  152.5777  139.9457  159.2205 C   0  0  0  0  0  0  0  0  0  0  0  0
  151.7017  138.9362  158.9518 C   0  0  0  0  0  0  0  0  0  0  0  0
  150.6481  139.4521  158.1466 C   0  0  0  0  0  0  0  0  0  0  0  0
  149.4564  138.7371  157.6236 C   0  0  0  0  0  0  0  0  0  0  0  0
  148.6763  139.2311  156.8079 O   0  0  0  0  0  0  0  0  0  0  0  0
  149.2343  137.3164  158.1754 C   0  0  0  0  0  0  0  0  0  0  0  0
  147.8775  137.0978  158.6613 N   0  0  0  0  0  0  0  0  0  0  0  0
  146.8172  137.1551  157.7223 C   0  0  0  0  0  0  0  0  0  0  0  0
  147.0118  137.3817  156.5268 O   0  0  0  0  0  0  0  0  0  0  0  0
  145.4943  136.9131  158.2877 C   0  0  0  0  0  0  0  0  0  0  0  0
  144.4140  136.9510  157.4894 F   0  0  0  0  0  0  0  0  0  0  0  0
  145.3337  136.6486  159.6024 C   0  0  0  0  0  0  0  0  0  0  0  0
  146.3912  136.5863  160.4950 N   0  0  0  0  0  0  0  0  0  0  0  0
  146.1874  136.2714  161.9606 C   0  0  2  0  0  0  0  0  0  0  0  0
  146.9565  134.9970  162.3507 C   0  0  0  0  0  0  0  0  0  0  0  0
  145.9086  134.1940  163.0937 C   0  0  0  0  0  0  0  0  0  0  0  0
  144.6274  134.6372  162.4027 C   0  0  0  0  0  0  0  0  0  0  0  0
  144.8315  136.0314  162.2115 O   0  0  0  0  0  0  0  0  0  0  0  0
  147.7075  136.8087  160.0365 C   0  0  0  0  0  0  0  0  0  0  0  0
  148.6651  136.7388  160.8109 O   0  0  0  0  0  0  0  0  0  0  0  0
  150.9172  140.7834  157.9230 C   0  0  0  0  0  0  0  0  0  0  0  0
  150.1770  141.8210  157.1254 C   0  0  0  0  0  0  0  0  0  0  0  0
  152.0938  141.0948  158.6069 N   0  0  0  0  0  0  0  0  0  0  0  0
  152.7310  142.4084  158.6689 C   0  0  0  0  0  0  0  0  0  0  0  0
  152.5742  143.1160  159.9831 C   0  0  0  0  0  0  0  0  0  0  0  0
  151.9873  144.3404  160.1791 C   0  0  0  0  0  0  0  0  0  0  0  0
  151.9768  144.7522  161.5441 C   0  0  0  0  0  0  0  0  0  0  0  0
  152.5576  143.8363  162.3796 C   0  0  0  0  0  0  0  0  0  0  0  0
  153.1278  142.4440  161.5027 S   0  0  0  0  0  0  0  0  0  0  0  0
  154.1123  138.9039  160.2900 H   0  0  0  0  0  0  0  0  0  0  0  0
  153.7403  140.5018  160.9314 H   0  0  0  0  0  0  0  0  0  0  0  0
  154.6736  140.3394  159.4390 H   0  0  0  0  0  0  0  0  0  0  0  0
  151.8092  137.9217  159.3067 H   0  0  0  0  0  0  0  0  0  0  0  0
  149.4435  136.5629  157.4144 H   0  0  0  0  0  0  0  0  0  0  0  0
  149.9267  137.1029  158.9910 H   0  0  0  0  0  0  0  0  0  0  0  0
  144.3273  136.4793  159.9525 H   0  0  0  0  0  0  0  0  0  0  0  0
  146.4967  137.1646  162.5066 H   0  0  0  0  0  0  0  0  0  0  0  0
  147.2794  134.4628  161.4555 H   0  0  0  0  0  0  0  0  0  0  0  0
  147.8306  135.2357  162.9565 H   0  0  0  0  0  0  0  0  0  0  0  0
  146.0744  133.1178  163.0373 H   0  0  0  0  0  0  0  0  0  0  0  0
  145.8872  134.4845  164.1449 H   0  0  0  0  0  0  0  0  0  0  0  0
  144.5146  134.1379  161.4397 H   0  0  0  0  0  0  0  0  0  0  0  0
  143.7363  134.4409  162.9992 H   0  0  0  0  0  0  0  0  0  0  0  0
  149.7794  141.3976  156.2037 H   0  0  0  0  0  0  0  0  0  0  0  0
  150.8156  142.6502  156.8242 H   0  0  0  0  0  0  0  0  0  0  0  0
  149.3430  142.2260  157.6987 H   0  0  0  0  0  0  0  0  0  0  0  0
  153.7890  142.2953  158.4317 H   0  0  0  0  0  0  0  0  0  0  0  0
  152.3327  143.0353  157.8717 H   0  0  0  0  0  0  0  0  0  0  0  0
  151.5661  144.9510  159.3941 H   0  0  0  0  0  0  0  0  0  0  0  0
  151.5498  145.6924  161.8607 H   0  0  0  0  0  0  0  0  0  0  0  0
  152.6841  143.8930  163.4506 H   0  0  0  0  0  0  0  0  0  0  0  0
  1  2  1  0  0  0  0
  1 31  1  0  0  0  0
  1 32  1  0  0  0  0
  1 33  1  0  0  0  0
  2 24  1  0  0  0  0
  2  3  2  0  0  0  0
  3  4  1  0  0  0  0
  3 34  1  0  0  0  0
  4  5  1  0  0  0  0
  4 22  2  0  0  0  0
  5  6  2  0  0  0  0
  5  7  1  0  0  0  0
  7  8  1  0  0  0  0
  7 35  1  0  0  0  0
  7 36  1  0  0  0  0
  8 20  1  0  0  0  0
  8  9  1  0  0  0  0
  9 10  2  0  0  0  0
  9 11  1  0  0  0  0
 11 12  1  0  0  0  0
 11 13  2  0  0  0  0
 13 14  1  0  0  0  0
 13 37  1  0  0  0  0
 14 15  1  0  0  0  0
 14 20  1  0  0  0  0
 15 19  1  0  0  0  0
 15 16  1  0  0  0  0
 15 38  1  0  0  0  0
 16 17  1  0  0  0  0
 16 39  1  0  0  0  0
 16 40  1  0  0  0  0
 17 18  1  0  0  0  0
 17 41  1  0  0  0  0
 17 42  1  0  0  0  0
 18 19  1  0  0  0  0
 18 43  1  0  0  0  0
 18 44  1  0  0  0  0
 20 21  2  0  0  0  0
 22 23  1  0  0  0  0
 22 24  1  0  0  0  0
 23 45  1  0  0  0  0
 23 46  1  0  0  0  0
 23 47  1  0  0  0  0
 24 25  1  0  0  0  0
 25 26  1  0  0  0  0
 25 48  1  0  0  0  0
 25 49  1  0  0  0  0
 26 30  1  0  0  0  0
 26 27  2  0  0  0  0
 27 28  1  0  0  0  0
 27 50  1  0  0  0  0
 28 29  2  0  0  0  0
 28 51  1  0  0  0  0
 29 30  1  0  0  0  0
 29 52  1  0  0  0  0
M  END
> <s_m_source_file>
AV-unprocessed.smi

> <i_m_source_file_index>
140

> <i_lp_mmshare_version>
43012

> <i_f3d_flags>
0

> <s_epik_input>
czFbY0hdW2NIXVtjSF1jMVtDSDJdbjJjKFtDSDNdKWMoW2NIXWMyW0NIM10pQyg9TylbQ0gyXW4zYyg9TyljKEYpW2NIXW4oYzM9TylbQ0BASF00W0NIMl1bQ0gyXVtDSDJdTzQ=

> <s_epik_cmdline>
J2VwaWtfcHl0aG9uJywgJy1waCcsICc3LjAnLCAnLXRuJywgJzgnLCAnLW1hJywgJzIwMCcsICctbWV0YWxfYmluZGluZycsICctaW1hZScsICc8aW5maWxlLm1hZT4nLCAnLW9tYWUnLCAnPG91dGZpbGUubWFlPic=

> <r_lp_tautomer_probability>
1

> <r_epik_Ionization_Penalty>
5.024e-09

> <r_epik_Ionization_Penalty_Charging>
5.01743e-09

> <r_epik_Ionization_Penalty_Neutral>
6.5712e-12

> <r_epik_State_Penalty>
-0

> <r_epik_Charging_Adjusted_Penalty>
5.01743e-09

> <i_epik_Tot_Q>
0

> <i_epik_Tot_abs_Q>
0

> <r_epik_Metal_State_Penalty>
-0

> <b_epik_Metal_Only>
0

> <s_epik_Chemistry_Notes>
This compound contains an acetal/aminal-like group ( X-CH(R)-Y where X, Y are N, S, or O) that may be acid/base labile, releasing an aldehyde.

> <s_lp_Force_Field>
OPLS_2005

> <r_lp_Energy>
39.7817

> <b_lp_Chiralities_Consistent>
1

> <s_lp_Variant>
AV-unprocessed.smi:140-1

> <Gold.Version>
5.8.1

> <Gold.Id.Protein>
6NUR|6NUR_protein|mol2

> <Gold.PLP.Fitness>
48.2363

> <Gold.PLP.PLP>
-45.7706

> <Gold.PLP.part.hbond>
-1.0000

> <Gold.PLP.part.metal>
0.0000

> <Gold.PLP.part.buried>
-2.2116

> <Gold.PLP.part.nonpolar>
-43.2951

> <Gold.PLP.part.repulsive>
0.0072

> <Gold.PLP.ligand.clash>
0.0000

> <Gold.PLP.ligand.torsion>
0.3279

> <Gold.PLP.Chemscore.Hbond>
1.0000

> <Gold.PLP.Chemscore.CHOScore>
0.0000

> <Gold.PLP.Chemscore.Metal>
0.0000

> <Gold.Chemscore.Hbonds>
donor molecule, donor type, donor heavy atom, donor atom, acceptor molecule, acceptor atom, score
      P1  H  6931  6943       L1    21  0.99

> <Gold.PLP.Chemscore.Internal.Correction>
0.1215

> <Gold.Rescore>
     Score         DG    S(hbond)    S(metal)    S(lipo)     H(rot)  DE(clash)    DE(int)     intcor
     12.92     -18.67       0.91        0.00     127.74       1.87       0.53       5.22       ----

> <Gold.Chemscore.Fitness>
12.9198

> <Gold.Chemscore.DG>
-18.6720

> <Gold.Chemscore.ZeroCoef>
-5.4800

> <Gold.Chemscore.Hbond>
0.9093

> <Gold.Chemscore.Metal>
0.0000

> <Gold.Chemscore.Lipo>
127.7395

> <Gold.Chemscore.Internal_Hbond>
0.0000

> <Gold.Chemscore.DEClash>
0.5347

> <Gold.Chemscore.DEInternal>
5.2175

> <Gold.Chemscore.Rot>
1.8713

> <Gold.Chemscore.Internal.Correction>
   9.000000E+99

> <Gold.Chemscore.Hbonds>
donor molecule, donor type, donor heavy atom, donor atom, acceptor molecule, acceptor atom, score
      P1  H  6931  6943       L1    21  0.90

> <Gold.Chemscore.Hbond.Weighted>
-3.0369

> <Gold.Chemscore.Metal.Weighted>
-0.0000

> <Gold.Chemscore.Lipo.Weighted>
-14.9455

> <Gold.Chemscore.Internal_Hbond.Weighted>
0.0000

> <Gold.Chemscore.DEClash.Weighted>
0.5347

> <Gold.Chemscore.DEInternal.Weighted>
5.2175

> <Gold.Chemscore.Rot.Weighted>
4.7905

> <Gold.Chemscore.Internal.Correction.Weighted>
   9.000000E+99

> <Gold.Protein.RotatedTorsions>
[ 6907 6896 6895 6894 ] final  -18.02 input  -60.11 | X-H torsion
[ 7974 7965 7964 7962 ] final   77.33 input  175.53 | X-H torsion
[ 8008 7997 7996 7995 ] final  -74.92 input   59.86 | X-H torsion
[ 10167 10162 10161 10158 ] final   27.57 input  -65.29 | X-H torsion
[ 10718 10713 10712 10709 ] final   37.22 input   66.30 | X-H torsion
[ 10763 10752 10751 10750 ] final  126.55 input  -60.55 | X-H torsion
[ 11005 11000 10999 10996 ] final  -93.64 input  -57.11 | X-H torsion

> <Gold.Protein.ActiveResidues>
 VAL166  LYS551  ARG553  GLY616  TRP617  ASP618  TYR619  PRO620  LYS621  CYS622 
 ASP623  PHE694  ASN695  SER759  ASP760  ASP761  ALA762  ILE779  LEU786  VAL792 
 PHE793  MET794  SER795  GLU796  ALA797  LYS798  CYS799  TRP800  GLU811  SER814 

> <Gold.Protein.RotatedAtoms>
  151.2846  135.0724  159.9181 H   0  0  0  0  0  0  0  0  0  0  0  0  # atno 6907 bound_to 6896
  152.5328  133.9995  159.7898 H   0  0  0  0  0  0  0  0  0  0  0  0  # atno 6908 bound_to 6896
  151.0255  133.5787  159.2697 H   0  0  0  0  0  0  0  0  0  0  0  0  # atno 6909 bound_to 6896
  145.6915  139.2554  143.1757 H   0  0  0  0  0  0  0  0  0  0  0  0  # atno 7974 bound_to 7965
  154.5372  140.0753  156.8448 H   0  0  0  0  0  0  0  0  0  0  0  0  # atno 8008 bound_to 7997
  155.3254  140.3398  155.4222 H   0  0  0  0  0  0  0  0  0  0  0  0  # atno 8009 bound_to 7997
  156.1840  140.1662  156.8208 H   0  0  0  0  0  0  0  0  0  0  0  0  # atno 8010 bound_to 7997
  140.4927  144.0441  150.6303 H   0  0  0  0  0  0  0  0  0  0  0  0  # atno 10167 bound_to 10162
  157.3443  130.7564  149.6934 H   0  0  0  0  0  0  0  0  0  0  0  0  # atno 10718 bound_to 10713
  153.6951  135.3292  155.3211 H   0  0  0  0  0  0  0  0  0  0  0  0  # atno 10763 bound_to 10752
  154.8429  135.4441  154.1469 H   0  0  0  0  0  0  0  0  0  0  0  0  # atno 10764 bound_to 10752
  153.2521  135.6982  153.7746 H   0  0  0  0  0  0  0  0  0  0  0  0  # atno 10765 bound_to 10752
  141.1492  133.7901  157.0188 H   0  0  0  0  0  0  0  0  0  0  0  0  # atno 11005 bound_to 11000
  146.0878  140.7691  142.9610 LP  0  0  0  0  0  0  0  0  0  0  0  0  # atno 17320 bound_to 7965
  144.6995  140.3589  143.7167 LP  0  0  0  0  0  0  0  0  0  0  0  0  # atno 17321 bound_to 7965
  140.3715  143.2852  152.0273 LP  0  0  0  0  0  0  0  0  0  0  0  0  # atno 17342 bound_to 10162
  139.4854  144.6226  151.7225 LP  0  0  0  0  0  0  0  0  0  0  0  0  # atno 17343 bound_to 10162
  155.9712  130.4158  150.4202 LP  0  0  0  0  0  0  0  0  0  0  0  0  # atno 17370 bound_to 10713
  157.2255  131.0492  151.2522 LP  0  0  0  0  0  0  0  0  0  0  0  0  # atno 17371 bound_to 10713
  140.0829  134.9637  157.1654 LP  0  0  0  0  0  0  0  0  0  0  0  0  # atno 17394 bound_to 11000
  140.3551  134.2556  155.7193 LP  0  0  0  0  0  0  0  0  0  0  0  0  # atno 17395 bound_to 11000

$$$$
