AV-unprocessed.smi:3240|AV-procd|sdf|12383|dock4
  -GOLD-   2272018243D 1   1.00000     0.00000
 Structure written by MMmdl.
 43 44  0  0  0  0  0  0  0  0  1 V2000
  145.5182  133.2135  150.5141 C   0  0  0  0  0  0  0  0  0  0  0  0
  145.1432  134.5410  151.1064 C   0  0  0  0  0  0  0  0  0  0  0  0
  143.9360  135.2722  150.9183 C   0  0  0  0  0  0  0  0  0  0  0  0
  143.9172  136.4148  151.5851 N   0  0  0  0  0  0  0  0  0  0  0  0
  145.1110  136.4583  152.2150 N   0  0  0  0  0  0  0  0  0  0  0  0
  145.4493  137.5965  153.0551 C   0  0  0  0  0  0  0  0  0  0  0  0
  146.4130  138.6041  152.3788 C   0  0  2  0  0  0  0  0  0  0  0  0
  146.5127  138.3893  150.8603 C   0  0  0  0  0  0  0  0  0  0  0  0
  147.7600  138.5842  152.9592 N   0  0  0  0  0  0  0  0  0  0  0  0
  147.9281  139.3345  154.2061 C   0  0  0  0  0  0  0  0  0  0  0  0
  149.3854  139.8029  154.4183 C   0  0  0  0  0  0  0  0  0  0  0  0
  149.7365  140.5953  153.2979 O   0  0  0  0  0  0  0  0  0  0  0  0
  149.4556  140.7084  155.6709 C   0  0  0  0  0  0  0  0  0  0  0  0
  150.8888  141.1484  156.0198 C   0  0  0  0  0  0  0  0  0  0  0  0
  151.8193  139.9382  156.1780 C   0  0  0  0  0  0  0  0  0  0  0  0
  151.8044  139.0684  154.9139 C   0  0  0  0  0  0  0  0  0  0  0  0
  150.3761  138.6184  154.5578 C   0  0  0  0  0  0  0  0  0  0  0  0
  145.8667  135.3358  151.9492 C   0  0  0  0  0  0  0  0  0  0  0  0
  145.2947  133.1711  149.4480 H   0  0  0  0  0  0  0  0  0  0  0  0
  144.9775  132.3950  150.9896 H   0  0  0  0  0  0  0  0  0  0  0  0
  146.5825  133.0047  150.6267 H   0  0  0  0  0  0  0  0  0  0  0  0
  143.0764  135.0067  150.3208 H   0  0  0  0  0  0  0  0  0  0  0  0
  144.5247  138.1097  153.3246 H   0  0  0  0  0  0  0  0  0  0  0  0
  145.8549  137.2239  153.9952 H   0  0  0  0  0  0  0  0  0  0  0  0
  145.9925  139.5992  152.5280 H   0  0  0  0  0  0  0  0  0  0  0  0
  145.5252  138.3938  150.3981 H   0  0  0  0  0  0  0  0  0  0  0  0
  146.9900  137.4393  150.6169 H   0  0  0  0  0  0  0  0  0  0  0  0
  147.0981  139.1808  150.3912 H   0  0  0  0  0  0  0  0  0  0  0  0
  148.4303  138.9211  152.2749 H   0  0  0  0  0  0  0  0  0  0  0  0
  147.2621  140.1985  154.2127 H   0  0  0  0  0  0  0  0  0  0  0  0
  147.6367  138.7157  155.0539 H   0  0  0  0  0  0  0  0  0  0  0  0
  149.7080  140.0502  152.5267 H   0  0  0  0  0  0  0  0  0  0  0  0
  148.8243  141.5880  155.5377 H   0  0  0  0  0  0  0  0  0  0  0  0
  149.0429  140.1700  156.5254 H   0  0  0  0  0  0  0  0  0  0  0  0
  151.2746  141.8087  155.2423 H   0  0  0  0  0  0  0  0  0  0  0  0
  150.8817  141.7323  156.9408 H   0  0  0  0  0  0  0  0  0  0  0  0
  152.8354  140.2735  156.3883 H   0  0  0  0  0  0  0  0  0  0  0  0
  151.5045  139.3432  157.0364 H   0  0  0  0  0  0  0  0  0  0  0  0
  152.2349  139.6254  154.0809 H   0  0  0  0  0  0  0  0  0  0  0  0
  152.4406  138.1949  155.0589 H   0  0  0  0  0  0  0  0  0  0  0  0
  150.0188  137.9437  155.3367 H   0  0  0  0  0  0  0  0  0  0  0  0
  150.4070  138.0304  153.6399 H   0  0  0  0  0  0  0  0  0  0  0  0
  146.8496  135.1990  152.3746 H   0  0  0  0  0  0  0  0  0  0  0  0
  1  2  1  0  0  0  0
  1 19  1  0  0  0  0
  1 20  1  0  0  0  0
  1 21  1  0  0  0  0
  2 18  2  0  0  0  0
  2  3  1  0  0  0  0
  3  4  2  0  0  0  0
  3 22  1  0  0  0  0
  4  5  1  0  0  0  0
  5  6  1  0  0  0  0
  5 18  1  0  0  0  0
  6  7  1  0  0  0  0
  6 23  1  0  0  0  0
  6 24  1  0  0  0  0
  7  8  1  0  0  0  0
  7  9  1  0  0  0  0
  7 25  1  0  0  0  0
  8 26  1  0  0  0  0
  8 27  1  0  0  0  0
  8 28  1  0  0  0  0
  9 10  1  0  0  0  0
  9 29  1  0  0  0  0
 10 11  1  0  0  0  0
 10 30  1  0  0  0  0
 10 31  1  0  0  0  0
 11 17  1  0  0  0  0
 11 12  1  0  0  0  0
 11 13  1  0  0  0  0
 12 32  1  0  0  0  0
 13 14  1  0  0  0  0
 13 33  1  0  0  0  0
 13 34  1  0  0  0  0
 14 15  1  0  0  0  0
 14 35  1  0  0  0  0
 14 36  1  0  0  0  0
 15 16  1  0  0  0  0
 15 37  1  0  0  0  0
 15 38  1  0  0  0  0
 16 17  1  0  0  0  0
 16 39  1  0  0  0  0
 16 40  1  0  0  0  0
 17 41  1  0  0  0  0
 17 42  1  0  0  0  0
 18 43  1  0  0  0  0
M  END
> <s_m_source_file>
AV-unprocessed.smi

> <i_m_source_file_index>
3240

> <i_lp_mmshare_version>
43012

> <i_f3d_flags>
0

> <s_epik_input>
W0NIM11jMVtjSF1ubihbY0hdMSlbQ0gyXVtDQEhdKFtDSDNdKVtOSF1bQ0gyXUMyKFtPSF0pW0NIMl1bQ0gyXVtDSDJdW0NIMl1bQ0gyXTI=

> <s_epik_cmdline>
J2VwaWtfcHl0aG9uJywgJy1waCcsICc3LjAnLCAnLXRuJywgJzgnLCAnLW1hJywgJzIwMCcsICctbWV0YWxfYmluZGluZycsICctaW1hZScsICc8aW5maWxlLm1hZT4nLCAnLW9tYWUnLCAnPG91dGZpbGUubWFlPic=

> <r_lp_tautomer_probability>
1

> <r_epik_Ionization_Penalty>
2.35969

> <r_epik_Ionization_Penalty_Charging>
0

> <r_epik_Ionization_Penalty_Neutral>
2.35969

> <r_epik_State_Penalty>
2.51455

> <r_epik_Charging_Adjusted_Penalty>
2.51455

> <i_epik_Tot_Q>
0

> <i_epik_Tot_abs_Q>
0

> <r_epik_Metal_State_Penalty>
2.51446

> <b_epik_Metal_Only>
0

> <s_lp_Force_Field>
OPLS_2005

> <r_lp_Energy>
22.0798

> <b_lp_Chiralities_Consistent>
1

> <s_lp_Variant>
AV-unprocessed.smi:3240-3

> <Gold.Version>
5.8.1

> <Gold.Id.Protein>
6NUR|6NUR_protein|mol2

> <Gold.PLP.Fitness>
45.8764

> <Gold.PLP.PLP>
-34.4768

> <Gold.PLP.part.hbond>
-4.0566

> <Gold.PLP.part.metal>
0.0000

> <Gold.PLP.part.buried>
1.8208

> <Gold.PLP.part.nonpolar>
-33.9198

> <Gold.PLP.part.repulsive>
0.9744

> <Gold.PLP.ligand.clash>
0.0000

> <Gold.PLP.ligand.torsion>
1.3190

> <Gold.PLP.Chemscore.Hbond>
2.6479

> <Gold.PLP.Chemscore.CHOScore>
2.0000

> <Gold.PLP.Chemscore.Metal>
0.0000

> <Gold.Chemscore.Hbonds>
donor molecule, donor type, donor heavy atom, donor atom, acceptor molecule, acceptor atom, score
      L1  H     9    29       P1  7957  1.00
      L1  H    12    32       P1  7957  0.52
      P1  H  7989  7998       L1    12  0.35
      P1  H  8011  8017       L1    12  0.80
      L1  C     3    22       P1 10186  0.96
      L1  C    18    43       P1  7948  1.00

> <Gold.PLP.Chemscore.Internal.Correction>
0.0941

> <Gold.Rescore>
     Score         DG    S(hbond)    S(metal)    S(lipo)     H(rot)  DE(clash)    DE(int)     intcor
     16.07     -17.93       2.36        0.00      83.84       2.04       0.78       1.09       ----

> <Gold.Chemscore.Fitness>
16.0659

> <Gold.Chemscore.DG>
-17.9321

> <Gold.Chemscore.ZeroCoef>
-5.4800

> <Gold.Chemscore.Hbond>
2.3586

> <Gold.Chemscore.Metal>
0.0000

> <Gold.Chemscore.Lipo>
83.8362

> <Gold.Chemscore.Internal_Hbond>
0.0000

> <Gold.Chemscore.DEClash>
0.7794

> <Gold.Chemscore.DEInternal>
1.0869

> <Gold.Chemscore.Rot>
2.0447

> <Gold.Chemscore.Internal.Correction>
   9.000000E+99

> <Gold.Chemscore.Hbonds>
donor molecule, donor type, donor heavy atom, donor atom, acceptor molecule, acceptor atom, score
      L1  H     9    29       P1  7957  0.98
      L1  H    12    32       P1  7957  0.51
      P1  H  7989  7998       L1    12  0.06
      P1  H  8011  8017       L1    12  0.13

> <Gold.Chemscore.Hbond.Weighted>
-7.8777

> <Gold.Chemscore.Metal.Weighted>
-0.0000

> <Gold.Chemscore.Lipo.Weighted>
-9.8088

> <Gold.Chemscore.Internal_Hbond.Weighted>
0.0000

> <Gold.Chemscore.DEClash.Weighted>
0.7794

> <Gold.Chemscore.DEInternal.Weighted>
1.0869

> <Gold.Chemscore.Rot.Weighted>
5.2344

> <Gold.Chemscore.Internal.Correction.Weighted>
   9.000000E+99

> <Gold.Protein.RotatedTorsions>
[ 6907 6896 6895 6894 ] final  170.10 input  -60.11 | X-H torsion
[ 7974 7965 7964 7962 ] final  -20.10 input  175.53 | X-H torsion
[ 8008 7997 7996 7995 ] final -108.86 input   59.86 | X-H torsion
[ 10167 10162 10161 10158 ] final  -61.64 input  -65.29 | X-H torsion
[ 10718 10713 10712 10709 ] final    5.54 input   66.30 | X-H torsion
[ 10763 10752 10751 10750 ] final -162.19 input  -60.55 | X-H torsion
[ 11005 11000 10999 10996 ] final  -83.04 input  -57.11 | X-H torsion

> <Gold.Protein.ActiveResidues>
 VAL166  LYS551  ARG553  GLY616  TRP617  ASP618  TYR619  PRO620  LYS621  CYS622 
 ASP623  PHE694  ASN695  SER759  ASP760  ASP761  ALA762  ILE779  LEU786  VAL792 
 PHE793  MET794  SER795  GLU796  ALA797  LYS798  CYS799  TRP800  GLU811  SER814 

> <Gold.Protein.RotatedAtoms>
  151.8214  133.3395  159.3585 H   0  0  0  0  0  0  0  0  0  0  0  0  # atno 6907 bound_to 6896
  150.7293  134.5570  159.5832 H   0  0  0  0  0  0  0  0  0  0  0  0  # atno 6908 bound_to 6896
  152.3003  134.7620  160.0410 H   0  0  0  0  0  0  0  0  0  0  0  0  # atno 6909 bound_to 6896
  146.1806  140.4155  142.8496 H   0  0  0  0  0  0  0  0  0  0  0  0  # atno 7974 bound_to 7965
  154.9506  140.0401  157.2142 H   0  0  0  0  0  0  0  0  0  0  0  0  # atno 8008 bound_to 7997
  154.7982  140.2847  155.5919 H   0  0  0  0  0  0  0  0  0  0  0  0  # atno 8009 bound_to 7997
  156.2958  140.2560  156.2845 H   0  0  0  0  0  0  0  0  0  0  0  0  # atno 8010 bound_to 7997
  140.5992  143.2357  151.5966 H   0  0  0  0  0  0  0  0  0  0  0  0  # atno 10167 bound_to 10162
  156.9089  130.5749  149.5647 H   0  0  0  0  0  0  0  0  0  0  0  0  # atno 10718 bound_to 10713
  154.7237  135.3031  154.9006 H   0  0  0  0  0  0  0  0  0  0  0  0  # atno 10763 bound_to 10752
  153.9870  135.6723  153.4756 H   0  0  0  0  0  0  0  0  0  0  0  0  # atno 10764 bound_to 10752
  153.0856  135.4986  154.8508 H   0  0  0  0  0  0  0  0  0  0  0  0  # atno 10765 bound_to 10752
  141.1660  133.7274  156.8661 H   0  0  0  0  0  0  0  0  0  0  0  0  # atno 11005 bound_to 11000
  144.8309  140.6705  143.6292 LP  0  0  0  0  0  0  0  0  0  0  0  0  # atno 17320 bound_to 7965
  145.4087  139.1584  143.4138 LP  0  0  0  0  0  0  0  0  0  0  0  0  # atno 17321 bound_to 7965
  139.5279  144.3003  152.1079 LP  0  0  0  0  0  0  0  0  0  0  0  0  # atno 17342 bound_to 10162
  140.2181  144.4495  150.6355 LP  0  0  0  0  0  0  0  0  0  0  0  0  # atno 17343 bound_to 10162
  156.0545  130.5609  150.9063 LP  0  0  0  0  0  0  0  0  0  0  0  0  # atno 17370 bound_to 10713
  157.5980  131.0942  150.9009 LP  0  0  0  0  0  0  0  0  0  0  0  0  # atno 17371 bound_to 10713
  140.1814  134.9030  157.2953 LP  0  0  0  0  0  0  0  0  0  0  0  0  # atno 17394 bound_to 11000
  140.2391  134.3817  155.7488 LP  0  0  0  0  0  0  0  0  0  0  0  0  # atno 17395 bound_to 11000

$$$$
