#       Name:                AV-unprocessed.smi:372
#       Creating user name   scv26
#       Creation time:       Thu Mar 26 22:38:45 2020


#       File generated by GOLD software.
#

@<TRIPOS>MOLECULE
AV-unprocessed.smi:372
    28    29     1
SMALL
NO_CHARGES


@<TRIPOS>ATOM
      1 ****        -1.9541  -0.1826   1.1435 C.3            1 S1                 0.0000
      2 ****        -0.4553  -0.4480   0.8954 C.3            1 S1                 0.0000
      3 ****         0.0804   0.3758  -0.2914 C.ar           1 S1                 0.0000
      4 ****         0.5904  -0.2386  -1.4630 C.ar           1 S1                 0.0000
      5 ****         1.0618   0.5756  -2.5105 C.ar           1 S1                 0.0000
      6 ****         1.0089   1.9736  -2.3629 C.ar           1 S1                 0.0000
      7 ****         0.4821   2.4969  -1.1674 C.ar           1 S1                 0.0000
      8 ****         0.0263   1.7246  -0.1593 N.ar           1 S1                 0.0000
      9 ****        -0.2536  -1.8754   0.7319 N.am           1 S1                 0.0000
     10 ****         0.5665  -2.3690   1.6568 C.2            1 S1                 0.0000
     11 ****         0.8855  -3.5556   1.6702 O.2            1 S1                 0.0000
     12 ****         0.9445  -1.3966   2.5073 N.pl3          1 S1                -1.0000
     13 ****         0.3804  -0.2166   2.1679 C.2            1 S1                 0.0000
     14 ****         0.4497   0.8762   2.7305 O.2            1 S1                 0.0000
     15 ****        -2.1461   0.8709   1.3497 H              1 S1                 0.0000
     16 ****        -2.3281  -0.7536   1.9946 H              1 S1                 0.0000
     17 ****        -2.5494  -0.4609   0.2734 H              1 S1                 0.0000
     18 ****         0.6305  -1.3117  -1.5731 H              1 S1                 0.0000
     19 ****         1.4575   0.1336  -3.4130 H              1 S1                 0.0000
     20 ****         1.3628   2.6282  -3.1454 H              1 S1                 0.0000
     21 ****         0.4234   3.5648  -1.0170 H              1 S1                 0.0000
     22 ****        -0.6651  -2.4107  -0.0179 H              1 S1                 0.0000
     23 ****        -0.3451   2.1396   0.6712 LP             1 S1                 0.0000
     24 ****         0.5270  -4.1777   0.9741 LP             1 S1                 0.0000
     25 ****         1.5037  -3.8993   2.3772 LP             1 S1                 0.0000
     26 ****         1.5593  -1.5295   3.2847 LP             1 S1                 0.0000
     27 ****        -0.0498   1.6605   2.3626 LP             1 S1                 0.0000
     28 ****         1.0056   0.9795   3.5553 LP             1 S1                 0.0000
@<TRIPOS>BOND
    1    1    2 1     
    2    1   15 1     
    3    1   16 1     
    4    1   17 1     
    5    2   13 1     
    6    2    3 1     
    7    2    9 1     
    8    3    8 ar    
    9    3    4 ar    
   10    4    5 ar    
   11    4   18 1     
   12    5    6 ar    
   13    5   19 1     
   14    6    7 ar    
   15    6   20 1     
   16    7    8 ar    
   17    7   21 1     
   18    9   10 am    
   19    9   22 1     
   20   10   11 2     
   21   10   12 1     
   22   12   13 1     
   23   13   14 2     
   24    8   23 1     
   25   11   24 1     
   26   11   25 1     
   27   12   26 1     
   28   14   27 1     
   29   14   28 1     
@<TRIPOS>SUBSTRUCTURE
      1 S1             1
@<TRIPOS>SET
LONE_PAIRS      STATIC     ATOMS    <user>   **** ""
6 23 24 25 26 27 28
DONOR_HYDROGENS      STATIC     ATOMS    <user>   **** ""
1 22
ATOM$BLUE        STATIC     ATOMS    COLORGROUP SYSTEM
6 23 24 25 26 27 28
ATOM$RED        STATIC     ATOMS    COLORGROUP SYSTEM
1 22
