AV-unprocessed.smi:2032|AV-procd|sdf|8235|dock8
  -GOLD-   2272010503D 1   1.00000     0.00000
 Structure written by MMmdl.
 42 43  0  0  0  0  0  0  0  0  1 V2000
  149.3252  141.2247  155.4655 C   0  0  0  0  0  0  0  0  0  0  0  0
  150.1063  139.9187  155.6455 C   0  0  1  0  0  0  0  0  0  0  0  0
  149.1792  138.7226  155.9272 C   0  0  0  0  0  0  0  0  0  0  0  0
  149.9020  137.4506  156.0240 N   0  0  0  0  0  0  0  0  0  0  0  0
  149.0100  136.3030  156.3174 C   0  0  2  0  0  0  0  0  0  0  0  0
  149.6050  134.9470  155.8585 C   0  0  0  0  0  0  0  0  0  0  0  0
  147.5880  136.4697  155.7087 C   0  0  0  0  0  0  0  0  0  0  0  0
  147.4782  135.9564  154.3446 N   0  0  0  0  0  0  0  0  0  0  0  0
  146.4806  135.1913  153.8770 C   0  0  0  0  0  0  0  0  0  0  0  0
  145.5155  134.8396  154.5558 O   0  0  0  0  0  0  0  0  0  0  0  0
  146.6774  134.8729  152.5855 N   0  0  0  0  0  0  0  0  0  0  0  0
  145.8540  134.0818  151.7414 C   0  0  0  0  0  0  0  0  0  0  0  0
  144.5160  134.0889  151.7699 N   0  0  0  0  0  0  0  0  0  0  0  0
  143.9666  133.2128  150.8306 C   0  0  0  0  0  0  0  0  0  0  0  0
  144.9074  132.5426  150.0890 C   0  0  0  0  0  0  0  0  0  0  0  0
  146.5309  132.9870  150.5446 S   0  0  0  0  0  0  0  0  0  0  0  0
  150.6679  137.2708  154.7847 C   0  0  0  0  0  0  0  0  0  0  0  0
  151.5846  138.4624  154.4437 C   0  0  2  0  0  0  0  0  0  0  0  0
  152.8343  138.5453  155.3373 C   0  0  0  0  0  0  0  0  0  0  0  0
  150.8424  139.6793  154.4514 O   0  0  0  0  0  0  0  0  0  0  0  0
  148.7486  141.4645  156.3592 H   0  0  0  0  0  0  0  0  0  0  0  0
  148.6315  141.1572  154.6269 H   0  0  0  0  0  0  0  0  0  0  0  0
  150.0004  142.0587  155.2725 H   0  0  0  0  0  0  0  0  0  0  0  0
  150.7969  140.0483  156.4792 H   0  0  0  0  0  0  0  0  0  0  0  0
  148.6616  138.9417  156.8590 H   0  0  0  0  0  0  0  0  0  0  0  0
  148.4174  138.6555  155.1490 H   0  0  0  0  0  0  0  0  0  0  0  0
  148.8871  136.2426  157.4001 H   0  0  0  0  0  0  0  0  0  0  0  0
  148.9331  134.1117  156.0491 H   0  0  0  0  0  0  0  0  0  0  0  0
  150.5199  134.6920  156.3910 H   0  0  0  0  0  0  0  0  0  0  0  0
  149.8241  134.9539  154.7903 H   0  0  0  0  0  0  0  0  0  0  0  0
  146.8515  135.8981  156.2702 H   0  0  0  0  0  0  0  0  0  0  0  0
  147.2764  137.5140  155.7700 H   0  0  0  0  0  0  0  0  0  0  0  0
  148.2264  136.1977  153.7116 H   0  0  0  0  0  0  0  0  0  0  0  0
  147.5158  135.2356  152.1564 H   0  0  0  0  0  0  0  0  0  0  0  0
  142.8925  133.1284  150.7575 H   0  0  0  0  0  0  0  0  0  0  0  0
  144.7440  131.8170  149.3063 H   0  0  0  0  0  0  0  0  0  0  0  0
  151.3020  136.3885  154.8418 H   0  0  0  0  0  0  0  0  0  0  0  0
  149.9779  137.1066  153.9556 H   0  0  0  0  0  0  0  0  0  0  0  0
  151.9363  138.3295  153.4203 H   0  0  0  0  0  0  0  0  0  0  0  0
  153.4574  137.6592  155.2145 H   0  0  0  0  0  0  0  0  0  0  0  0
  152.5797  138.6183  156.3944 H   0  0  0  0  0  0  0  0  0  0  0  0
  153.4405  139.4132  155.0782 H   0  0  0  0  0  0  0  0  0  0  0  0
  1  2  1  0  0  0  0
  1 21  1  0  0  0  0
  1 22  1  0  0  0  0
  1 23  1  0  0  0  0
  2 20  1  0  0  0  0
  2  3  1  0  0  0  0
  2 24  1  0  0  0  0
  3  4  1  0  0  0  0
  3 25  1  0  0  0  0
  3 26  1  0  0  0  0
  4  5  1  0  0  0  0
  4 17  1  0  0  0  0
  5  6  1  0  0  0  0
  5  7  1  0  0  0  0
  5 27  1  0  0  0  0
  6 28  1  0  0  0  0
  6 29  1  0  0  0  0
  6 30  1  0  0  0  0
  7  8  1  0  0  0  0
  7 31  1  0  0  0  0
  7 32  1  0  0  0  0
  8  9  1  0  0  0  0
  8 33  1  0  0  0  0
  9 10  2  0  0  0  0
  9 11  1  0  0  0  0
 11 12  1  0  0  0  0
 11 34  1  0  0  0  0
 12 16  1  0  0  0  0
 12 13  2  0  0  0  0
 13 14  1  0  0  0  0
 14 15  2  0  0  0  0
 14 35  1  0  0  0  0
 15 16  1  0  0  0  0
 15 36  1  0  0  0  0
 17 18  1  0  0  0  0
 17 37  1  0  0  0  0
 17 38  1  0  0  0  0
 18 19  1  0  0  0  0
 18 20  1  0  0  0  0
 18 39  1  0  0  0  0
 19 40  1  0  0  0  0
 19 41  1  0  0  0  0
 19 42  1  0  0  0  0
M  END
> <s_m_source_file>
AV-unprocessed.smi

> <i_m_source_file_index>
2032

> <i_lp_mmshare_version>
43012

> <i_f3d_flags>
0

> <s_epik_input>
W0NIM11bQ0BASF0xW0NIMl1OKFtDSDJdW0NASF0oTzEpW0NIM10pW0NASF0oW0NIM10pW0NIMl1bTkhdQyg9TylbTkhdYzJuW2NIXVtjSF1zMg==

> <s_epik_cmdline>
J2VwaWtfcHl0aG9uJywgJy1waCcsICc3LjAnLCAnLXRuJywgJzgnLCAnLW1hJywgJzIwMCcsICctbWV0YWxfYmluZGluZycsICctaW1hZScsICc8aW5maWxlLm1hZT4nLCAnLW9tYWUnLCAnPG91dGZpbGUubWFlPic=

> <r_lp_tautomer_probability>
0.999

> <r_epik_Ionization_Penalty>
0.219202

> <r_epik_Ionization_Penalty_Charging>
0

> <r_epik_Ionization_Penalty_Neutral>
0.219202

> <r_epik_State_Penalty>
0.209349

> <r_epik_Charging_Adjusted_Penalty>
0.209349

> <i_epik_Tot_Q>
0

> <i_epik_Tot_abs_Q>
0

> <r_epik_Metal_State_Penalty>
0.247737

> <b_epik_Metal_Only>
0

> <s_lp_Force_Field>
OPLS_2005

> <r_lp_Energy>
29.5908

> <b_lp_Chiralities_Consistent>
1

> <s_lp_Variant>
AV-unprocessed.smi:2032-5

> <Gold.Version>
5.8.1

> <Gold.Id.Protein>
6NUR|6NUR_protein|mol2

> <Gold.PLP.Fitness>
38.7709

> <Gold.PLP.PLP>
-29.3435

> <Gold.PLP.part.hbond>
-3.0000

> <Gold.PLP.part.metal>
0.0000

> <Gold.PLP.part.buried>
-4.8306

> <Gold.PLP.part.nonpolar>
-22.3632

> <Gold.PLP.part.repulsive>
0.3450

> <Gold.PLP.ligand.clash>
0.0000

> <Gold.PLP.ligand.torsion>
1.2870

> <Gold.PLP.Chemscore.Hbond>
2.9920

> <Gold.PLP.Chemscore.CHOScore>
1.0000

> <Gold.PLP.Chemscore.Metal>
0.0000

> <Gold.Chemscore.Hbonds>
donor molecule, donor type, donor heavy atom, donor atom, acceptor molecule, acceptor atom, score
      L1  H     8    33       P1  7948  0.99
      L1  H    11    34       P1  7948  1.00
      P1  H  7989  7998       L1    20  1.00
      L1  C    14    35       P1 10186  0.87

> <Gold.PLP.Chemscore.Internal.Correction>
0.0254

> <Gold.Rescore>
     Score         DG    S(hbond)    S(metal)    S(lipo)     H(rot)  DE(clash)    DE(int)     intcor
     18.46     -19.58       2.91        0.00      72.01       1.57       0.16       0.96       ----

> <Gold.Chemscore.Fitness>
18.4603

> <Gold.Chemscore.DG>
-19.5772

> <Gold.Chemscore.ZeroCoef>
-5.4800

> <Gold.Chemscore.Hbond>
2.9055

> <Gold.Chemscore.Metal>
0.0000

> <Gold.Chemscore.Lipo>
72.0065

> <Gold.Chemscore.Internal_Hbond>
0.0000

> <Gold.Chemscore.DEClash>
0.1567

> <Gold.Chemscore.DEInternal>
0.9602

> <Gold.Chemscore.Rot>
1.5750

> <Gold.Chemscore.Internal.Correction>
   9.000000E+99

> <Gold.Chemscore.Hbonds>
donor molecule, donor type, donor heavy atom, donor atom, acceptor molecule, acceptor atom, score
      L1  H     8    33       P1  7948  0.91
      L1  H    11    34       P1  7948  0.99
      P1  H  7989  7998       L1    20  0.74

> <Gold.Chemscore.Hbond.Weighted>
-9.7043

> <Gold.Chemscore.Metal.Weighted>
-0.0000

> <Gold.Chemscore.Lipo.Weighted>
-8.4248

> <Gold.Chemscore.Internal_Hbond.Weighted>
0.0000

> <Gold.Chemscore.DEClash.Weighted>
0.1567

> <Gold.Chemscore.DEInternal.Weighted>
0.9602

> <Gold.Chemscore.Rot.Weighted>
4.0319

> <Gold.Chemscore.Internal.Correction.Weighted>
   9.000000E+99

> <Gold.Protein.RotatedTorsions>
[ 6907 6896 6895 6894 ] final   24.04 input  -60.11 | X-H torsion
[ 7974 7965 7964 7962 ] final   84.35 input  175.53 | X-H torsion
[ 8008 7997 7996 7995 ] final -101.30 input   59.86 | X-H torsion
[ 10167 10162 10161 10158 ] final  -83.58 input  -65.29 | X-H torsion
[ 10718 10713 10712 10709 ] final  -84.05 input   66.30 | X-H torsion
[ 10763 10752 10751 10750 ] final  158.56 input  -60.55 | X-H torsion
[ 11005 11000 10999 10996 ] final -125.43 input  -57.11 | X-H torsion

> <Gold.Protein.ActiveResidues>
 VAL166  LYS551  ARG553  GLY616  TRP617  ASP618  TYR619  PRO620  LYS621  CYS622 
 ASP623  PHE694  ASN695  SER759  ASP760  ASP761  ALA762  ILE779  LEU786  VAL792 
 PHE793  MET794  SER795  GLU796  ALA797  LYS798  CYS799  TRP800  GLU811  SER814 

> <Gold.Protein.RotatedAtoms>
  151.9515  135.0167  160.0542 H   0  0  0  0  0  0  0  0  0  0  0  0  # atno 6907 bound_to 6896
  152.1948  133.4794  159.5035 H   0  0  0  0  0  0  0  0  0  0  0  0  # atno 6908 bound_to 6896
  150.6942  134.1583  159.4209 H   0  0  0  0  0  0  0  0  0  0  0  0  # atno 6909 bound_to 6896
  145.5999  139.2351  143.2252 H   0  0  0  0  0  0  0  0  0  0  0  0  # atno 7974 bound_to 7965
  154.8406  140.0435  157.1539 H   0  0  0  0  0  0  0  0  0  0  0  0  # atno 8008 bound_to 7997
  154.9050  140.3005  155.5276 H   0  0  0  0  0  0  0  0  0  0  0  0  # atno 8009 bound_to 7997
  156.2992  140.2368  156.4083 H   0  0  0  0  0  0  0  0  0  0  0  0  # atno 8010 bound_to 7997
  140.4213  143.2583  151.8886 H   0  0  0  0  0  0  0  0  0  0  0  0  # atno 10167 bound_to 10162
  156.0011  130.4685  150.4350 H   0  0  0  0  0  0  0  0  0  0  0  0  # atno 10718 bound_to 10713
  154.2179  135.2783  155.2935 H   0  0  0  0  0  0  0  0  0  0  0  0  # atno 10763 bound_to 10752
  154.5725  135.5614  153.7112 H   0  0  0  0  0  0  0  0  0  0  0  0  # atno 10764 bound_to 10752
  153.0048  135.6325  154.2319 H   0  0  0  0  0  0  0  0  0  0  0  0  # atno 10765 bound_to 10752
  140.9763  134.0736  157.3815 H   0  0  0  0  0  0  0  0  0  0  0  0  # atno 11005 bound_to 11000
  146.1584  140.6824  142.9289 LP  0  0  0  0  0  0  0  0  0  0  0  0  # atno 17320 bound_to 7965
  144.7314  140.4684  143.6935 LP  0  0  0  0  0  0  0  0  0  0  0  0  # atno 17321 bound_to 7965
  139.4782  144.5434  151.8494 LP  0  0  0  0  0  0  0  0  0  0  0  0  # atno 17342 bound_to 10162
  140.4530  144.1828  150.5899 LP  0  0  0  0  0  0  0  0  0  0  0  0  # atno 17343 bound_to 10162
  157.2396  131.0522  151.2444 LP  0  0  0  0  0  0  0  0  0  0  0  0  # atno 17370 bound_to 10713
  157.3633  130.7142  149.6516 LP  0  0  0  0  0  0  0  0  0  0  0  0  # atno 17371 bound_to 10713
  139.8932  135.0129  156.6885 LP  0  0  0  0  0  0  0  0  0  0  0  0  # atno 17394 bound_to 11000
  140.7254  133.9104  155.8175 LP  0  0  0  0  0  0  0  0  0  0  0  0  # atno 17395 bound_to 11000

$$$$
