AV-unprocessed.smi:239|AV-procd|sdf|1823|dock7
  -GOLD-   2262020423D 1   1.00000     0.00000
 Structure written by MMmdl.
 54 58  0  0  0  0  0  0  0  0  1 V2000
  148.2167  141.3140  153.9753 C   0  0  0  0  0  0  0  0  0  0  0  0
  148.9674  140.3935  154.9426 C   0  0  1  0  0  0  0  0  0  0  0  0
  148.9452  138.9274  154.4752 C   0  0  0  0  0  0  0  0  0  0  0  0
  149.7673  138.1115  155.3620 N   0  0  0  0  0  0  0  0  0  0  0  0
  149.6377  136.7631  155.3036 C   0  0  0  0  0  0  0  0  0  0  0  0
  150.6969  135.9632  155.5994 N   0  0  0  0  0  0  0  0  0  0  0  0
  150.5723  134.6335  155.5504 C   0  0  0  0  0  0  0  0  0  0  0  0
  149.4998  133.9072  155.2300 N   0  0  0  0  0  0  0  0  0  0  0  0
  148.4370  134.7042  154.9213 C   0  0  0  0  0  0  0  0  0  0  0  0
  148.4189  136.1274  154.9347 C   0  0  0  0  0  0  0  0  0  0  0  0
  147.1642  136.5881  154.5531 N   0  0  0  0  0  0  0  0  0  0  0  0
  146.4793  135.4998  154.3305 C   0  0  0  0  0  0  0  0  0  0  0  0
  147.1686  134.3234  154.5196 N   0  0  0  0  0  0  0  0  0  0  0  0
  146.6553  132.9749  154.3327 C   0  0  0  0  0  0  0  0  0  0  0  0
  146.4239  132.5932  152.8495 C   0  0  0  0  0  0  0  0  0  0  0  0
  147.6662  132.7099  152.1764 O   0  0  0  0  0  0  0  0  0  0  0  0
  145.9090  131.1464  152.6818 C   0  0  0  0  0  0  0  0  0  0  0  0
  145.4857  130.8446  151.2335 C   0  0  0  0  0  0  0  0  0  0  0  0
  144.5227  131.7958  150.7963 O   0  0  0  0  0  0  0  0  0  0  0  0
  145.0329  133.1233  150.7711 C   0  0  0  0  0  0  0  0  0  0  0  0
  145.4227  133.5649  152.1931 C   0  0  0  0  0  0  0  0  0  0  0  0
  151.1379  138.5955  155.4808 C   0  0  0  0  0  0  0  0  0  0  0  0
  151.1542  140.0778  155.8969 C   0  0  2  0  0  0  0  0  0  0  0  0
  150.8006  140.2839  157.3631 C   0  0  0  0  0  0  0  0  0  0  0  0
  151.1452  141.5761  158.0639 C   0  0  0  0  0  0  0  0  0  0  0  0
  151.8762  140.3042  158.4236 C   0  0  0  0  0  0  0  0  0  0  0  0
  150.3189  140.8464  155.0277 O   0  0  0  0  0  0  0  0  0  0  0  0
  147.1714  141.0178  153.8834 H   0  0  0  0  0  0  0  0  0  0  0  0
  148.6616  141.2869  152.9801 H   0  0  0  0  0  0  0  0  0  0  0  0
  148.2401  142.3469  154.3235 H   0  0  0  0  0  0  0  0  0  0  0  0
  148.4934  140.4716  155.9214 H   0  0  0  0  0  0  0  0  0  0  0  0
  147.9182  138.5592  154.4696 H   0  0  0  0  0  0  0  0  0  0  0  0
  149.3258  138.8497  153.4556 H   0  0  0  0  0  0  0  0  0  0  0  0
  151.4591  134.0713  155.8029 H   0  0  0  0  0  0  0  0  0  0  0  0
  145.4477  135.5243  154.0105 H   0  0  0  0  0  0  0  0  0  0  0  0
  147.3581  132.2790  154.7928 H   0  0  0  0  0  0  0  0  0  0  0  0
  145.7260  132.8831  154.8966 H   0  0  0  0  0  0  0  0  0  0  0  0
  147.8183  131.9161  151.6867 H   0  0  0  0  0  0  0  0  0  0  0  0
  146.6617  130.4241  152.9999 H   0  0  0  0  0  0  0  0  0  0  0  0
  145.0457  130.9959  153.3314 H   0  0  0  0  0  0  0  0  0  0  0  0
  146.3469  130.8469  150.5635 H   0  0  0  0  0  0  0  0  0  0  0  0
  145.0458  129.8488  151.1761 H   0  0  0  0  0  0  0  0  0  0  0  0
  145.8841  133.1853  150.0913 H   0  0  0  0  0  0  0  0  0  0  0  0
  144.2640  133.7862  150.3738 H   0  0  0  0  0  0  0  0  0  0  0  0
  144.5164  133.6119  152.7985 H   0  0  0  0  0  0  0  0  0  0  0  0
  145.8282  134.5773  152.1729 H   0  0  0  0  0  0  0  0  0  0  0  0
  151.7174  138.0067  156.1913 H   0  0  0  0  0  0  0  0  0  0  0  0
  151.6254  138.4827  154.5117 H   0  0  0  0  0  0  0  0  0  0  0  0
  152.1681  140.4532  155.7538 H   0  0  0  0  0  0  0  0  0  0  0  0
  149.8618  139.8229  157.6641 H   0  0  0  0  0  0  0  0  0  0  0  0
  151.6917  142.3281  157.4983 H   0  0  0  0  0  0  0  0  0  0  0  0
  150.4258  141.9640  158.7821 H   0  0  0  0  0  0  0  0  0  0  0  0
  151.6438  139.8432  159.3814 H   0  0  0  0  0  0  0  0  0  0  0  0
  152.9114  140.2118  158.1010 H   0  0  0  0  0  0  0  0  0  0  0  0
  1  2  1  0  0  0  0
  1 28  1  0  0  0  0
  1 29  1  0  0  0  0
  1 30  1  0  0  0  0
  2 27  1  0  0  0  0
  2  3  1  0  0  0  0
  2 31  1  0  0  0  0
  3  4  1  0  0  0  0
  3 32  1  0  0  0  0
  3 33  1  0  0  0  0
  4  5  1  0  0  0  0
  4 22  1  0  0  0  0
  5 10  1  0  0  0  0
  5  6  2  0  0  0  0
  6  7  1  0  0  0  0
  7  8  2  0  0  0  0
  7 34  1  0  0  0  0
  8  9  1  0  0  0  0
  9 13  1  0  0  0  0
  9 10  2  0  0  0  0
 10 11  1  0  0  0  0
 11 12  2  0  0  0  0
 12 13  1  0  0  0  0
 12 35  1  0  0  0  0
 13 14  1  0  0  0  0
 14 15  1  0  0  0  0
 14 36  1  0  0  0  0
 14 37  1  0  0  0  0
 15 21  1  0  0  0  0
 15 16  1  0  0  0  0
 15 17  1  0  0  0  0
 16 38  1  0  0  0  0
 17 18  1  0  0  0  0
 17 39  1  0  0  0  0
 17 40  1  0  0  0  0
 18 19  1  0  0  0  0
 18 41  1  0  0  0  0
 18 42  1  0  0  0  0
 19 20  1  0  0  0  0
 20 21  1  0  0  0  0
 20 43  1  0  0  0  0
 20 44  1  0  0  0  0
 21 45  1  0  0  0  0
 21 46  1  0  0  0  0
 22 23  1  0  0  0  0
 22 47  1  0  0  0  0
 22 48  1  0  0  0  0
 23 24  1  0  0  0  0
 23 27  1  0  0  0  0
 23 49  1  0  0  0  0
 24 26  1  0  0  0  0
 24 25  1  0  0  0  0
 24 50  1  0  0  0  0
 25 26  1  0  0  0  0
 25 51  1  0  0  0  0
 25 52  1  0  0  0  0
 26 53  1  0  0  0  0
 26 54  1  0  0  0  0
M  END
> <s_m_source_file>
AV-unprocessed.smi

> <i_m_source_file_index>
239

> <i_lp_mmshare_version>
43012

> <i_f3d_flags>
0

> <s_epik_input>
W0NIMl0xW0NIMl1bQ0hdMVtDQEBIXShPMilbQ0gyXU4oW0NIMl1bQ0BIXTJbQ0gzXSljKG5bY0hdbjMpYyhjMzQpbltjSF1uNFtDSDJdQzUoW09IXSlbQ0gyXVtDSDJdT1tDSDJdW0NIMl01

> <s_epik_cmdline>
J2VwaWtfcHl0aG9uJywgJy1waCcsICc3LjAnLCAnLXRuJywgJzgnLCAnLW1hJywgJzIwMCcsICctbWV0YWxfYmluZGluZycsICctaW1hZScsICc8aW5maWxlLm1hZT4nLCAnLW9tYWUnLCAnPG91dGZpbGUubWFlPic=

> <r_lp_tautomer_probability>
1

> <r_epik_Ionization_Penalty>
9.13091e-05

> <r_epik_Ionization_Penalty_Charging>
0

> <r_epik_Ionization_Penalty_Neutral>
9.13091e-05

> <r_epik_State_Penalty>
-0

> <r_epik_Charging_Adjusted_Penalty>
0

> <i_epik_Tot_Q>
0

> <i_epik_Tot_abs_Q>
0

> <r_epik_Metal_State_Penalty>
-0

> <b_epik_Metal_Only>
0

> <s_lp_Force_Field>
OPLS_2005

> <r_lp_Energy>
39.3472

> <b_lp_Chiralities_Consistent>
1

> <s_lp_Variant>
AV-unprocessed.smi:239-4

> <Gold.Version>
5.8.1

> <Gold.Id.Protein>
6NUR|6NUR_protein|mol2

> <Gold.PLP.Fitness>
40.2336

> <Gold.PLP.PLP>
-35.6771

> <Gold.PLP.part.hbond>
-2.0000

> <Gold.PLP.part.metal>
0.0000

> <Gold.PLP.part.buried>
-5.4783

> <Gold.PLP.part.nonpolar>
-29.0531

> <Gold.PLP.part.repulsive>
0.8344

> <Gold.PLP.ligand.clash>
0.0000

> <Gold.PLP.ligand.torsion>
1.1796

> <Gold.PLP.Chemscore.Hbond>
1.8320

> <Gold.PLP.Chemscore.CHOScore>
0.0000

> <Gold.PLP.Chemscore.Metal>
0.0000

> <Gold.Chemscore.Hbonds>
donor molecule, donor type, donor heavy atom, donor atom, acceptor molecule, acceptor atom, score
      L1  H    16    38       P1 10747  0.79
      P1  H  7989  7998       L1    27  0.64

> <Gold.PLP.Chemscore.Internal.Correction>
1.4197

> <Gold.Rescore>
     Score         DG    S(hbond)    S(metal)    S(lipo)     H(rot)  DE(clash)    DE(int)     intcor
     12.19     -14.40       1.38        0.00      85.89       2.24       0.06       2.15       ----

> <Gold.Chemscore.Fitness>
12.1943

> <Gold.Chemscore.DG>
-14.4050

> <Gold.Chemscore.ZeroCoef>
-5.4800

> <Gold.Chemscore.Hbond>
1.3794

> <Gold.Chemscore.Metal>
0.0000

> <Gold.Chemscore.Lipo>
85.8895

> <Gold.Chemscore.Internal_Hbond>
0.0000

> <Gold.Chemscore.DEClash>
0.0618

> <Gold.Chemscore.DEInternal>
2.1488

> <Gold.Chemscore.Rot>
2.2387

> <Gold.Chemscore.Internal.Correction>
   9.000000E+99

> <Gold.Chemscore.Hbonds>
donor molecule, donor type, donor heavy atom, donor atom, acceptor molecule, acceptor atom, score
      L1  H    16    38       P1 10747  0.72
      P1  H  7989  7998       L1    27  0.09

> <Gold.Chemscore.Hbond.Weighted>
-4.6070

> <Gold.Chemscore.Metal.Weighted>
-0.0000

> <Gold.Chemscore.Lipo.Weighted>
-10.0491

> <Gold.Chemscore.Internal_Hbond.Weighted>
0.0000

> <Gold.Chemscore.DEClash.Weighted>
0.0618

> <Gold.Chemscore.DEInternal.Weighted>
2.1488

> <Gold.Chemscore.Rot.Weighted>
5.7311

> <Gold.Chemscore.Internal.Correction.Weighted>
   9.000000E+99

> <Gold.Protein.RotatedTorsions>
[ 6907 6896 6895 6894 ] final  111.92 input  -60.11 | X-H torsion
[ 7974 7965 7964 7962 ] final -150.19 input  175.53 | X-H torsion
[ 8008 7997 7996 7995 ] final   90.34 input   59.86 | X-H torsion
[ 10167 10162 10161 10158 ] final  -37.72 input  -65.29 | X-H torsion
[ 10718 10713 10712 10709 ] final   -4.11 input   66.30 | X-H torsion
[ 10763 10752 10751 10750 ] final   42.24 input  -60.55 | X-H torsion
[ 11005 11000 10999 10996 ] final  152.19 input  -57.11 | X-H torsion

> <Gold.Protein.ActiveResidues>
 VAL166  LYS551  ARG553  GLY616  TRP617  ASP618  TYR619  PRO620  LYS621  CYS622 
 ASP623  PHE694  ASN695  SER759  ASP760  ASP761  ALA762  ILE779  LEU786  VAL792 
 PHE793  MET794  SER795  GLU796  ALA797  LYS798  CYS799  TRP800  GLU811  SER814 

> <Gold.Protein.RotatedAtoms>
  152.4944  133.8589  159.7239 H   0  0  0  0  0  0  0  0  0  0  0  0  # atno 6907 bound_to 6896
  150.9106  133.6994  159.2862 H   0  0  0  0  0  0  0  0  0  0  0  0  # atno 6908 bound_to 6896
  151.4404  135.1024  159.9721 H   0  0  0  0  0  0  0  0  0  0  0  0  # atno 6909 bound_to 6896
  144.7922  140.4964  143.5765 H   0  0  0  0  0  0  0  0  0  0  0  0  # atno 7974 bound_to 7965
  156.0108  140.3350  155.6939 H   0  0  0  0  0  0  0  0  0  0  0  0  # atno 8008 bound_to 7997
  155.6160  140.0670  157.2710 H   0  0  0  0  0  0  0  0  0  0  0  0  # atno 8009 bound_to 7997
  154.4281  140.1785  156.1309 H   0  0  0  0  0  0  0  0  0  0  0  0  # atno 8010 bound_to 7997
  140.7111  143.3324  151.2540 H   0  0  0  0  0  0  0  0  0  0  0  0  # atno 10167 bound_to 10162
  156.7661  130.5285  149.5776 H   0  0  0  0  0  0  0  0  0  0  0  0  # atno 10718 bound_to 10713
  152.9888  135.6138  154.2917 H   0  0  0  0  0  0  0  0  0  0  0  0  # atno 10763 bound_to 10752
  154.2642  135.2781  155.2767 H   0  0  0  0  0  0  0  0  0  0  0  0  # atno 10764 bound_to 10752
  154.5179  135.5823  153.6714 H   0  0  0  0  0  0  0  0  0  0  0  0  # atno 10765 bound_to 10752
  140.1285  134.8817  157.2171 H   0  0  0  0  0  0  0  0  0  0  0  0  # atno 11005 bound_to 11000
  145.5765  139.1486  143.3259 LP  0  0  0  0  0  0  0  0  0  0  0  0  # atno 17320 bound_to 7965
  146.2178  140.5896  142.9030 LP  0  0  0  0  0  0  0  0  0  0  0  0  # atno 17321 bound_to 7965
  139.6809  143.9856  152.2808 LP  0  0  0  0  0  0  0  0  0  0  0  0  # atno 17342 bound_to 10162
  139.9485  144.6635  150.8195 LP  0  0  0  0  0  0  0  0  0  0  0  0  # atno 17343 bound_to 10162
  156.1308  130.6176  151.0330 LP  0  0  0  0  0  0  0  0  0  0  0  0  # atno 17370 bound_to 10713
  157.6712  131.0861  150.7606 LP  0  0  0  0  0  0  0  0  0  0  0  0  # atno 17371 bound_to 10713
  140.2872  134.3282  155.7325 LP  0  0  0  0  0  0  0  0  0  0  0  0  # atno 17394 bound_to 11000
  141.2166  133.7513  156.9450 LP  0  0  0  0  0  0  0  0  0  0  0  0  # atno 17395 bound_to 11000

$$$$
