AV-unprocessed.smi:1978|AV-procd|sdf|8012|dock9
  -GOLD-   2272010203D 1   1.00000     0.00000
 Structure written by MMmdl.
 44 45  0  0  0  0  0  0  0  0  3 V2000
  147.5088  135.6619  162.5854 C   0  0  0  0  0  0  0  0  0  0  0  0
  147.6300  135.8953  161.1187 C   0  0  0  0  0  0  0  0  0  0  0  0
  147.5892  135.0611  160.0374 C   0  0  0  0  0  0  0  0  0  0  0  0
  147.7764  135.9458  158.9419 C   0  0  0  0  0  0  0  0  0  0  0  0
  147.7979  135.4538  157.6100 N   0  0  0  0  0  0  0  0  0  0  0  0
  147.3125  134.2933  157.1317 C   0  0  0  0  0  0  0  0  0  0  0  0
  146.7495  133.4924  157.8876 O   0  0  0  0  0  0  0  0  0  0  0  0
  147.5242  134.1610  155.7937 N   0  5  0  0  0  0  0  0  0  0  0  0
  146.4752  133.9011  154.8080 C   0  0  0  0  0  0  0  0  0  0  0  0
  146.9363  132.8219  153.7901 C   0  0  2  0  0  0  0  0  0  0  0  0
  148.3496  133.0621  153.1994 C   0  0  0  0  0  0  0  0  0  0  0  0
  145.8887  132.6076  152.7316 N   0  3  1  0  0  0  0  0  0  0  0  0
  145.5594  133.8368  151.9401 C   0  0  0  0  0  0  0  0  0  0  0  0
  144.3144  133.6391  151.0679 C   0  0  0  0  0  0  0  0  0  0  0  0
  144.5299  132.4714  150.1065 C   0  0  0  0  0  0  0  0  0  0  0  0
  144.8760  131.2147  150.9081 C   0  0  0  0  0  0  0  0  0  0  0  0
  146.0971  131.4176  151.8361 C   0  0  2  0  0  0  0  0  0  0  0  0
  146.3331  130.0948  152.5984 C   0  0  0  0  0  0  0  0  0  0  0  0
  147.9139  137.2076  159.3220 N   0  0  0  0  0  0  0  0  0  0  0  0
  147.8208  137.1815  160.7185 O   0  0  0  0  0  0  0  0  0  0  0  0
  147.5546  134.5974  162.8155 H   0  0  0  0  0  0  0  0  0  0  0  0
  146.5616  136.0493  162.9606 H   0  0  0  0  0  0  0  0  0  0  0  0
  148.3157  136.1587  163.1244 H   0  0  0  0  0  0  0  0  0  0  0  0
  147.4506  133.9902  160.0324 H   0  0  0  0  0  0  0  0  0  0  0  0
  148.2314  136.0595  156.9295 H   0  0  0  0  0  0  0  0  0  0  0  0
  145.5605  133.5475  155.2867 H   0  0  0  0  0  0  0  0  0  0  0  0
  146.1935  134.8066  154.2701 H   0  0  0  0  0  0  0  0  0  0  0  0
  147.0212  131.9197  154.3874 H   0  0  0  0  0  0  0  0  0  0  0  0
  149.1204  133.0457  153.9718 H   0  0  0  0  0  0  0  0  0  0  0  0
  148.4371  134.0177  152.6796 H   0  0  0  0  0  0  0  0  0  0  0  0
  148.6094  132.2766  152.4894 H   0  0  0  0  0  0  0  0  0  0  0  0
  145.3853  134.6886  152.5978 H   0  0  0  0  0  0  0  0  0  0  0  0
  146.4009  134.1036  151.2993 H   0  0  0  0  0  0  0  0  0  0  0  0
  143.4437  133.4522  151.6978 H   0  0  0  0  0  0  0  0  0  0  0  0
  144.1045  134.5494  150.5057 H   0  0  0  0  0  0  0  0  0  0  0  0
  143.6347  132.3039  149.5069 H   0  0  0  0  0  0  0  0  0  0  0  0
  145.3369  132.7030  149.4099 H   0  0  0  0  0  0  0  0  0  0  0  0
  144.0096  130.9206  151.5028 H   0  0  0  0  0  0  0  0  0  0  0  0
  145.0639  130.3929  150.2159 H   0  0  0  0  0  0  0  0  0  0  0  0
  146.9718  131.6128  151.2139 H   0  0  0  0  0  0  0  0  0  0  0  0
  146.2558  129.2390  151.9272 H   0  0  0  0  0  0  0  0  0  0  0  0
  145.5978  129.9545  153.3916 H   0  0  0  0  0  0  0  0  0  0  0  0
  147.3285  130.0330  153.0363 H   0  0  0  0  0  0  0  0  0  0  0  0
  145.0536  132.3883  153.2561 H   0  0  0  0  0  0  0  0  0  0  0  0
  1  2  1  0  0  0  0
  1 21  1  0  0  0  0
  1 22  1  0  0  0  0
  1 23  1  0  0  0  0
  2 20  1  0  0  0  0
  2  3  2  0  0  0  0
  3  4  1  0  0  0  0
  3 24  1  0  0  0  0
  4  5  1  0  0  0  0
  4 19  2  0  0  0  0
  5  6  1  0  0  0  0
  5 25  1  0  0  0  0
  6  7  2  0  0  0  0
  6  8  1  0  0  0  0
  8  9  1  0  0  0  0
  9 10  1  0  0  0  0
  9 26  1  0  0  0  0
  9 27  1  0  0  0  0
 10 11  1  0  0  0  0
 10 12  1  0  0  0  0
 10 28  1  0  0  0  0
 11 29  1  0  0  0  0
 11 30  1  0  0  0  0
 11 31  1  0  0  0  0
 12 17  1  0  0  0  0
 12 13  1  0  0  0  0
 12 44  1  0  0  0  0
 13 14  1  0  0  0  0
 13 32  1  0  0  0  0
 13 33  1  0  0  0  0
 14 15  1  0  0  0  0
 14 34  1  0  0  0  0
 14 35  1  0  0  0  0
 15 16  1  0  0  0  0
 15 36  1  0  0  0  0
 15 37  1  0  0  0  0
 16 17  1  0  0  0  0
 16 38  1  0  0  0  0
 16 39  1  0  0  0  0
 17 18  1  0  0  0  0
 17 40  1  0  0  0  0
 18 41  1  0  0  0  0
 18 42  1  0  0  0  0
 18 43  1  0  0  0  0
 19 20  1  0  0  0  0
M  CHG  1   8  -1
M  CHG  1  12   1
M  END
> <s_m_source_file>
AV-unprocessed.smi

> <i_m_source_file_index>
1978

> <i_lp_mmshare_version>
43012

> <i_f3d_flags>
0

> <s_epik_input>
W0NIM11jMVtjSF1jKG5vMSlbTkhdQyg9TylbTkhdW0NIMl1bQ0BIXShbQ0gzXSlOMltDSDJdW0NIMl1bQ0gyXVtDSDJdW0NASF0yW0NIM10=

> <s_epik_cmdline>
J2VwaWtfcHl0aG9uJywgJy1waCcsICc3LjAnLCAnLXRuJywgJzgnLCAnLW1hJywgJzIwMCcsICctbWV0YWxfYmluZGluZycsICctaW1hZScsICc8aW5maWxlLm1hZT4nLCAnLW9tYWUnLCAnPG91dGZpbGUubWFlPic=

> <r_epik_Ionization_Penalty>
6.7666

> <r_epik_Ionization_Penalty_Charging>
6.7666

> <r_epik_Ionization_Penalty_Neutral>
5.77131e-06

> <r_epik_State_Penalty>
6.79217

> <r_epik_Charging_Adjusted_Penalty>
13.5588

> <i_epik_Tot_Q>
0

> <i_epik_Tot_abs_Q>
2

> <r_epik_Metal_State_Penalty>
2.72569

> <b_epik_Metal_Only>
1

> <s_lp_Force_Field>
OPLS_2005

> <r_lp_Energy>
22.8368

> <b_lp_Chiralities_Consistent>
1

> <s_lp_Variant>
AV-unprocessed.smi:1978-21

> <Gold.Version>
5.8.1

> <Gold.Id.Protein>
6NUR|6NUR_protein|mol2

> <Gold.PLP.Fitness>
34.5231

> <Gold.PLP.PLP>
-31.1839

> <Gold.PLP.part.hbond>
-2.0000

> <Gold.PLP.part.metal>
0.0000

> <Gold.PLP.part.buried>
-5.1836

> <Gold.PLP.part.nonpolar>
-24.0118

> <Gold.PLP.part.repulsive>
0.0408

> <Gold.PLP.ligand.clash>
0.0000

> <Gold.PLP.ligand.torsion>
0.7931

> <Gold.PLP.Chemscore.Hbond>
1.5840

> <Gold.PLP.Chemscore.CHOScore>
0.0000

> <Gold.PLP.Chemscore.Metal>
0.0000

> <Gold.Chemscore.Hbonds>
donor molecule, donor type, donor heavy atom, donor atom, acceptor molecule, acceptor atom, score
      P1  H  6931  6943       L1    20  0.83
      P1  H  6934  6947       L1    20  0.68

> <Gold.PLP.Chemscore.Internal.Correction>
0.1733

> <Gold.Rescore>
     Score         DG    S(hbond)    S(metal)    S(lipo)     H(rot)  DE(clash)    DE(int)     intcor
     12.58     -14.79       1.17        0.00      79.47       1.52       0.06       2.15       ----

> <Gold.Chemscore.Fitness>
12.5820

> <Gold.Chemscore.DG>
-14.7877

> <Gold.Chemscore.ZeroCoef>
-5.4800

> <Gold.Chemscore.Hbond>
1.1672

> <Gold.Chemscore.Metal>
0.0000

> <Gold.Chemscore.Lipo>
79.4681

> <Gold.Chemscore.Internal_Hbond>
0.0000

> <Gold.Chemscore.DEClash>
0.0562

> <Gold.Chemscore.DEInternal>
2.1494

> <Gold.Chemscore.Rot>
1.5190

> <Gold.Chemscore.Internal.Correction>
   9.000000E+99

> <Gold.Chemscore.Hbonds>
donor molecule, donor type, donor heavy atom, donor atom, acceptor molecule, acceptor atom, score
      P1  H  6931  6943       L1    20  0.70
      P1  H  6934  6947       L1    20  0.10

> <Gold.Chemscore.Hbond.Weighted>
-3.8985

> <Gold.Chemscore.Metal.Weighted>
-0.0000

> <Gold.Chemscore.Lipo.Weighted>
-9.2978

> <Gold.Chemscore.Internal_Hbond.Weighted>
0.0000

> <Gold.Chemscore.DEClash.Weighted>
0.0562

> <Gold.Chemscore.DEInternal.Weighted>
2.1494

> <Gold.Chemscore.Rot.Weighted>
3.8886

> <Gold.Chemscore.Internal.Correction.Weighted>
   9.000000E+99

> <Gold.Protein.RotatedTorsions>
[ 6907 6896 6895 6894 ] final   99.11 input  -60.11 | X-H torsion
[ 7974 7965 7964 7962 ] final  165.07 input  175.53 | X-H torsion
[ 8008 7997 7996 7995 ] final   14.10 input   59.86 | X-H torsion
[ 10167 10162 10161 10158 ] final  -51.45 input  -65.29 | X-H torsion
[ 10718 10713 10712 10709 ] final   59.85 input   66.30 | X-H torsion
[ 10763 10752 10751 10750 ] final  -57.29 input  -60.55 | X-H torsion
[ 11005 11000 10999 10996 ] final   62.51 input  -57.11 | X-H torsion

> <Gold.Protein.ActiveResidues>
 VAL166  LYS551  ARG553  GLY616  TRP617  ASP618  TYR619  PRO620  LYS621  CYS622 
 ASP623  PHE694  ASN695  SER759  ASP760  ASP761  ALA762  ILE779  LEU786  VAL792 
 PHE793  MET794  SER795  GLU796  ALA797  LYS798  CYS799  TRP800  GLU811  SER814 

> <Gold.Protein.RotatedAtoms>
  152.5398  134.0479  159.8096 H   0  0  0  0  0  0  0  0  0  0  0  0  # atno 6907 bound_to 6896
  151.0625  133.5525  159.2640 H   0  0  0  0  0  0  0  0  0  0  0  0  # atno 6908 bound_to 6896
  151.2418  135.0599  159.9082 H   0  0  0  0  0  0  0  0  0  0  0  0  # atno 6909 bound_to 6896
  144.7518  139.8417  143.6363 H   0  0  0  0  0  0  0  0  0  0  0  0  # atno 7974 bound_to 7965
  154.8438  140.2919  155.5642 H   0  0  0  0  0  0  0  0  0  0  0  0  # atno 8008 bound_to 7997
  156.3013  140.2509  156.3316 H   0  0  0  0  0  0  0  0  0  0  0  0  # atno 8009 bound_to 7997
  154.9096  140.0389  157.1928 H   0  0  0  0  0  0  0  0  0  0  0  0  # atno 8010 bound_to 7997
  140.6588  143.2619  151.4505 H   0  0  0  0  0  0  0  0  0  0  0  0  # atno 10167 bound_to 10162
  157.5707  130.8905  149.9262 H   0  0  0  0  0  0  0  0  0  0  0  0  # atno 10718 bound_to 10713
  154.2202  135.6379  153.5142 H   0  0  0  0  0  0  0  0  0  0  0  0  # atno 10763 bound_to 10752
  152.9970  135.5495  154.6122 H   0  0  0  0  0  0  0  0  0  0  0  0  # atno 10764 bound_to 10752
  154.5581  135.2907  155.0919 H   0  0  0  0  0  0  0  0  0  0  0  0  # atno 10765 bound_to 10752
  140.0087  134.6329  155.9814 H   0  0  0  0  0  0  0  0  0  0  0  0  # atno 11005 bound_to 11000
  146.1478  139.4552  143.0068 LP  0  0  0  0  0  0  0  0  0  0  0  0  # atno 17320 bound_to 7965
  145.6917  141.0162  143.1552 LP  0  0  0  0  0  0  0  0  0  0  0  0  # atno 17321 bound_to 7965
  139.5816  144.1696  152.1976 LP  0  0  0  0  0  0  0  0  0  0  0  0  # atno 17342 bound_to 10162
  140.1023  144.5528  150.6980 LP  0  0  0  0  0  0  0  0  0  0  0  0  # atno 17343 bound_to 10162
  156.0753  130.3679  150.0691 LP  0  0  0  0  0  0  0  0  0  0  0  0  # atno 17370 bound_to 10713
  156.8844  130.9567  151.3596 LP  0  0  0  0  0  0  0  0  0  0  0  0  # atno 17371 bound_to 10713
  141.1696  133.6537  156.4602 LP  0  0  0  0  0  0  0  0  0  0  0  0  # atno 17394 bound_to 11000
  140.4593  134.6856  157.5078 LP  0  0  0  0  0  0  0  0  0  0  0  0  # atno 17395 bound_to 11000

$$$$
