AV-unprocessed.smi:1535|AV-procd|sdf|6177|dock5
  -GOLD-   22720 6333D 1   1.00000     0.00000
 Structure written by MMmdl.
 47 48  0  0  0  0  0  0  0  0  2 V2000
  152.1359  143.5866  161.1189 C   0  0  0  0  0  0  0  0  0  0  0  0
  151.9983  142.6721  159.9136 C   0  0  0  0  0  0  0  0  0  0  0  0
  151.1345  143.0623  158.8659 C   0  0  0  0  0  0  0  0  0  0  0  0
  151.0294  142.2047  157.7777 C   0  0  0  0  0  0  0  0  0  0  0  0
  150.2743  142.3050  156.6076 N   0  3  0  0  0  0  0  0  0  0  0  0
  150.4972  141.2113  155.8283 C   0  0  0  0  0  0  0  0  0  0  0  0
  151.3745  140.4071  156.4889 N   0  0  0  0  0  0  0  0  0  0  0  0
  151.9254  139.1064  156.0849 C   0  0  0  0  0  0  0  0  0  0  0  0
  151.2199  138.4930  154.8537 C   0  0  1  0  0  0  0  0  0  0  0  0
  152.0185  137.3994  154.4515 O   0  0  0  0  0  0  0  0  0  0  0  0
  149.7870  137.9657  155.1232 C   0  0  0  0  0  0  0  0  0  0  0  0
  149.6941  136.6584  155.7799 N   0  0  0  0  0  0  0  0  0  0  0  0
  148.5168  136.6234  156.6417 C   0  0  0  0  0  0  0  0  0  0  0  0
  149.6727  135.5576  154.8149 C   0  0  0  0  0  0  0  0  0  0  0  0
  149.0301  134.2453  155.2989 C   0  0  1  0  0  0  0  0  0  0  0  0
  149.0772  133.1789  154.1971 C   0  0  0  0  0  0  0  0  0  0  0  0
  149.6725  133.7502  156.5275 C   0  0  0  0  0  0  0  0  0  0  0  0
  150.1784  133.3622  157.4928 N   0  0  0  0  0  0  0  0  0  0  0  0
  151.7463  140.9935  157.7053 C   0  0  0  0  0  0  0  0  0  0  0  0
  152.6057  140.5979  158.7283 C   0  0  0  0  0  0  0  0  0  0  0  0
  152.7230  141.4543  159.8460 C   0  0  0  0  0  0  0  0  0  0  0  0
  153.6452  141.0413  160.9805 C   0  0  0  0  0  0  0  0  0  0  0  0
  151.5514  144.4989  160.9970 H   0  0  0  0  0  0  0  0  0  0  0  0
  153.1769  143.8765  161.2641 H   0  0  0  0  0  0  0  0  0  0  0  0
  151.7869  143.0842  162.0215 H   0  0  0  0  0  0  0  0  0  0  0  0
  150.5792  143.9880  158.9102 H   0  0  0  0  0  0  0  0  0  0  0  0
  150.0491  141.0108  154.8655 H   0  0  0  0  0  0  0  0  0  0  0  0
  152.9771  139.2830  155.8535 H   0  0  0  0  0  0  0  0  0  0  0  0
  151.9173  138.4213  156.9325 H   0  0  0  0  0  0  0  0  0  0  0  0
  151.2247  139.2039  154.0264 H   0  0  0  0  0  0  0  0  0  0  0  0
  151.4488  136.7017  154.1648 H   0  0  0  0  0  0  0  0  0  0  0  0
  149.2705  138.6961  155.7490 H   0  0  0  0  0  0  0  0  0  0  0  0
  149.2126  137.9502  154.1979 H   0  0  0  0  0  0  0  0  0  0  0  0
  148.4834  135.7088  157.2323 H   0  0  0  0  0  0  0  0  0  0  0  0
  147.5977  136.6905  156.0580 H   0  0  0  0  0  0  0  0  0  0  0  0
  148.5289  137.4537  157.3489 H   0  0  0  0  0  0  0  0  0  0  0  0
  149.1766  135.8862  153.9006 H   0  0  0  0  0  0  0  0  0  0  0  0
  150.6941  135.3108  154.5372 H   0  0  0  0  0  0  0  0  0  0  0  0
  147.9823  134.4143  155.5439 H   0  0  0  0  0  0  0  0  0  0  0  0
  148.6025  132.2546  154.5277 H   0  0  0  0  0  0  0  0  0  0  0  0
  150.1051  132.9444  153.9186 H   0  0  0  0  0  0  0  0  0  0  0  0
  148.5566  133.5158  153.3000 H   0  0  0  0  0  0  0  0  0  0  0  0
  153.1603  139.6727  158.6819 H   0  0  0  0  0  0  0  0  0  0  0  0
  154.1019  140.0696  160.7902 H   0  0  0  0  0  0  0  0  0  0  0  0
  153.0923  140.9701  161.9174 H   0  0  0  0  0  0  0  0  0  0  0  0
  154.4479  141.7683  161.1052 H   0  0  0  0  0  0  0  0  0  0  0  0
  149.6539  143.0637  156.3552 H   0  0  0  0  0  0  0  0  0  0  0  0
  1  2  1  0  0  0  0
  1 23  1  0  0  0  0
  1 24  1  0  0  0  0
  1 25  1  0  0  0  0
  2 21  1  0  0  0  0
  2  3  2  0  0  0  0
  3  4  1  0  0  0  0
  3 26  1  0  0  0  0
  4 19  2  0  0  0  0
  4  5  1  0  0  0  0
  5  6  2  0  0  0  0
  5 47  1  0  0  0  0
  6  7  1  0  0  0  0
  6 27  1  0  0  0  0
  7  8  1  0  0  0  0
  7 19  1  0  0  0  0
  8  9  1  0  0  0  0
  8 28  1  0  0  0  0
  8 29  1  0  0  0  0
  9 10  1  0  0  0  0
  9 11  1  0  0  0  0
  9 30  1  0  0  0  0
 10 31  1  0  0  0  0
 11 12  1  0  0  0  0
 11 32  1  0  0  0  0
 11 33  1  0  0  0  0
 12 13  1  0  0  0  0
 12 14  1  0  0  0  0
 13 34  1  0  0  0  0
 13 35  1  0  0  0  0
 13 36  1  0  0  0  0
 14 15  1  0  0  0  0
 14 37  1  0  0  0  0
 14 38  1  0  0  0  0
 15 16  1  0  0  0  0
 15 17  1  0  0  0  0
 15 39  1  0  0  0  0
 16 40  1  0  0  0  0
 16 41  1  0  0  0  0
 16 42  1  0  0  0  0
 17 18  3  0  0  0  0
 19 20  1  0  0  0  0
 20 21  2  0  0  0  0
 20 43  1  0  0  0  0
 21 22  1  0  0  0  0
 22 44  1  0  0  0  0
 22 45  1  0  0  0  0
 22 46  1  0  0  0  0
M  CHG  1   5   1
M  END
> <s_m_source_file>
AV-unprocessed.smi

> <i_m_source_file_index>
1535

> <i_lp_mmshare_version>
43012

> <i_f3d_flags>
0

> <s_epik_input>
W0NIM11jKFtjSF0xKWMoW0NIM10pW2NIXWMoYzEyKW4oW2NIXW4yKVtDSDJdW0NASF0oW09IXSlbQ0gyXU4oW0NIM10pW0NIMl1bQ0BIXShbQ0gzXSlDI04=

> <s_epik_cmdline>
J2VwaWtfcHl0aG9uJywgJy1waCcsICc3LjAnLCAnLXRuJywgJzgnLCAnLW1hJywgJzIwMCcsICctbWV0YWxfYmluZGluZycsICctaW1hZScsICc8aW5maWxlLm1hZT4nLCAnLW9tYWUnLCAnPG91dGZpbGUubWFlPic=

> <r_epik_Ionization_Penalty>
1.22846

> <r_epik_Ionization_Penalty_Charging>
1.21333

> <r_epik_Ionization_Penalty_Neutral>
0.0151341

> <r_epik_State_Penalty>
1.27012

> <r_epik_Charging_Adjusted_Penalty>
2.48344

> <i_epik_Tot_Q>
1

> <i_epik_Tot_abs_Q>
1

> <r_epik_Metal_State_Penalty>
5.28751

> <b_epik_Metal_Only>
0

> <s_lp_Force_Field>
OPLS_2005

> <r_lp_Energy>
29.5902

> <b_lp_Chiralities_Consistent>
1

> <s_lp_Variant>
AV-unprocessed.smi:1535-8

> <Gold.Version>
5.8.1

> <Gold.Id.Protein>
6NUR|6NUR_protein|mol2

> <Gold.PLP.Fitness>
52.0479

> <Gold.PLP.PLP>
-45.3320

> <Gold.PLP.part.hbond>
-3.0000

> <Gold.PLP.part.metal>
0.0000

> <Gold.PLP.part.buried>
-4.6906

> <Gold.PLP.part.nonpolar>
-37.1491

> <Gold.PLP.part.repulsive>
0.1514

> <Gold.PLP.ligand.clash>
0.0000

> <Gold.PLP.ligand.torsion>
1.0380

> <Gold.PLP.Chemscore.Hbond>
2.8960

> <Gold.PLP.Chemscore.CHOScore>
0.0000

> <Gold.PLP.Chemscore.Metal>
0.0000

> <Gold.Chemscore.Hbonds>
donor molecule, donor type, donor heavy atom, donor atom, acceptor molecule, acceptor atom, score
      L1  H     5    47       P1  8028  2.00
      P1  H  6896  6908       L1    18  0.99

> <Gold.PLP.Chemscore.Internal.Correction>
0.1039

> <Gold.Rescore>
     Score         DG    S(hbond)    S(metal)    S(lipo)     H(rot)  DE(clash)    DE(int)     intcor
     16.76     -17.82       1.96        0.00     106.27       2.59       0.02       1.04       ----

> <Gold.Chemscore.Fitness>
16.7584

> <Gold.Chemscore.DG>
-17.8202

> <Gold.Chemscore.ZeroCoef>
-5.4800

> <Gold.Chemscore.Hbond>
1.9586

> <Gold.Chemscore.Metal>
0.0000

> <Gold.Chemscore.Lipo>
106.2699

> <Gold.Chemscore.Internal_Hbond>
0.0000

> <Gold.Chemscore.DEClash>
0.0174

> <Gold.Chemscore.DEInternal>
1.0444

> <Gold.Chemscore.Rot>
2.5918

> <Gold.Chemscore.Internal.Correction>
   9.000000E+99

> <Gold.Chemscore.Hbonds>
donor molecule, donor type, donor heavy atom, donor atom, acceptor molecule, acceptor atom, score
      L1  H     5    47       P1  8028  0.99
      P1  H  6896  6908       L1    18  0.94

> <Gold.Chemscore.Hbond.Weighted>
-6.5418

> <Gold.Chemscore.Metal.Weighted>
-0.0000

> <Gold.Chemscore.Lipo.Weighted>
-12.4336

> <Gold.Chemscore.Internal_Hbond.Weighted>
0.0000

> <Gold.Chemscore.DEClash.Weighted>
0.0174

> <Gold.Chemscore.DEInternal.Weighted>
1.0444

> <Gold.Chemscore.Rot.Weighted>
6.6351

> <Gold.Chemscore.Internal.Correction.Weighted>
   9.000000E+99

> <Gold.Protein.RotatedTorsions>
[ 6907 6896 6895 6894 ] final   96.46 input  -60.11 | X-H torsion
[ 7974 7965 7964 7962 ] final -155.24 input  175.53 | X-H torsion
[ 8008 7997 7996 7995 ] final -103.92 input   59.86 | X-H torsion
[ 10167 10162 10161 10158 ] final   68.50 input  -65.29 | X-H torsion
[ 10718 10713 10712 10709 ] final  152.27 input   66.30 | X-H torsion
[ 10763 10752 10751 10750 ] final    8.52 input  -60.55 | X-H torsion
[ 11005 11000 10999 10996 ] final  -15.65 input  -57.11 | X-H torsion

> <Gold.Protein.ActiveResidues>
 VAL166  LYS551  ARG553  GLY616  TRP617  ASP618  TYR619  PRO620  LYS621  CYS622 
 ASP623  PHE694  ASN695  SER759  ASP760  ASP761  ALA762  ILE779  LEU786  VAL792 
 PHE793  MET794  SER795  GLU796  ALA797  LYS798  CYS799  TRP800  GLU811  SER814 

> <Gold.Protein.RotatedAtoms>
  152.5434  134.0884  159.8265 H   0  0  0  0  0  0  0  0  0  0  0  0  # atno 6907 bound_to 6896
  151.0976  133.5260  159.2619 H   0  0  0  0  0  0  0  0  0  0  0  0  # atno 6908 bound_to 6896
  151.2028  135.0458  159.8933 H   0  0  0  0  0  0  0  0  0  0  0  0  # atno 6909 bound_to 6896
  144.7650  140.4277  143.5949 H   0  0  0  0  0  0  0  0  0  0  0  0  # atno 7974 bound_to 7965
  154.8779  140.0420  157.1764 H   0  0  0  0  0  0  0  0  0  0  0  0  # atno 8008 bound_to 7997
  154.8670  140.2952  155.5483 H   0  0  0  0  0  0  0  0  0  0  0  0  # atno 8009 bound_to 7997
  156.2999  140.2436  156.3653 H   0  0  0  0  0  0  0  0  0  0  0  0  # atno 8010 bound_to 7997
  140.0780  144.5095  150.7181 H   0  0  0  0  0  0  0  0  0  0  0  0  # atno 10167 bound_to 10162
  157.2599  131.0796  151.1673 H   0  0  0  0  0  0  0  0  0  0  0  0  # atno 10718 bound_to 10713
  153.2241  135.6885  153.7965 H   0  0  0  0  0  0  0  0  0  0  0  0  # atno 10763 bound_to 10752
  153.7153  135.3276  155.3256 H   0  0  0  0  0  0  0  0  0  0  0  0  # atno 10764 bound_to 10752
  154.8283  135.4600  154.1101 H   0  0  0  0  0  0  0  0  0  0  0  0  # atno 10765 bound_to 10752
  140.7988  133.8230  155.9449 H   0  0  0  0  0  0  0  0  0  0  0  0  # atno 11005 bound_to 11000
  145.6500  139.1563  143.2867 LP  0  0  0  0  0  0  0  0  0  0  0  0  # atno 17320 bound_to 7965
  146.1748  140.6589  142.9216 LP  0  0  0  0  0  0  0  0  0  0  0  0  # atno 17321 bound_to 7965
  140.7092  143.2491  151.4633 LP  0  0  0  0  0  0  0  0  0  0  0  0  # atno 17342 bound_to 10162
  139.5796  144.1739  152.1950 LP  0  0  0  0  0  0  0  0  0  0  0  0  # atno 17343 bound_to 10162
  157.3187  130.6926  149.6256 LP  0  0  0  0  0  0  0  0  0  0  0  0  # atno 17370 bound_to 10713
  155.9664  130.4342  150.5038 LP  0  0  0  0  0  0  0  0  0  0  0  0  # atno 17371 bound_to 10713
  140.9316  134.2015  157.4860 LP  0  0  0  0  0  0  0  0  0  0  0  0  # atno 17394 bound_to 11000
  139.8723  134.9835  156.5200 LP  0  0  0  0  0  0  0  0  0  0  0  0  # atno 17395 bound_to 11000

$$$$
