AV-unprocessed.smi:906|AV-procd|sdf|4104|dock5
  -GOLD-   22720 1593D 1   1.00000     0.00000
 Structure written by MMmdl.
 48 49  0  0  0  0  0  0  0  0  2 V2000
  154.8559  141.1715  160.6012 C   0  0  0  0  0  0  0  0  0  0  0  0
  153.5233  141.3999  159.9194 C   0  0  0  0  0  0  0  0  0  0  0  0
  152.9964  142.7010  159.7767 C   0  0  0  0  0  0  0  0  0  0  0  0
  151.7544  142.8541  159.1312 C   0  0  0  0  0  0  0  0  0  0  0  0
  151.0895  141.7057  158.6547 C   0  0  0  0  0  0  0  0  0  0  0  0
  149.7551  141.8173  157.9445 C   0  0  0  0  0  0  0  0  0  0  0  0
  149.9230  142.1577  156.4548 C   0  0  0  0  0  0  0  0  0  0  0  0
  148.7246  141.8333  155.6905 N   0  0  0  0  0  0  0  0  0  0  0  0
  148.7094  141.3938  154.4208 C   0  0  0  0  0  0  0  0  0  0  0  0
  149.7431  141.1999  153.7801 O   0  0  0  0  0  0  0  0  0  0  0  0
  147.4742  141.1142  153.9354 N   0  0  0  0  0  0  0  0  0  0  0  0
  147.1444  140.0405  152.9868 C   0  0  0  0  0  0  0  0  0  0  0  0
  146.4678  138.8875  153.7518 C   0  0  0  0  0  0  0  0  0  0  0  0
  145.2693  139.3654  154.5001 N   0  3  0  0  0  0  0  0  0  0  0  0
  144.4805  138.3111  155.2072 C   0  0  2  0  0  0  0  0  0  0  0  0
  145.1339  137.8293  156.5189 C   0  0  0  0  0  0  0  0  0  0  0  0
  144.1027  137.1427  154.2696 C   0  0  0  0  0  0  0  0  0  0  0  0
  143.0127  136.5283  154.7300 F   0  0  0  0  0  0  0  0  0  0  0  0
  143.8719  137.5577  153.0247 F   0  0  0  0  0  0  0  0  0  0  0  0
  145.0987  136.2576  154.2398 F   0  0  0  0  0  0  0  0  0  0  0  0
  145.5557  140.5532  155.3521 C   0  0  0  0  0  0  0  0  0  0  0  0
  146.2602  141.6605  154.5479 C   0  0  0  0  0  0  0  0  0  0  0  0
  151.7022  140.4499  158.8497 C   0  0  0  0  0  0  0  0  0  0  0  0
  152.8928  140.2935  159.4672 N   0  0  0  0  0  0  0  0  0  0  0  0
  155.2759  142.1069  160.9719 H   0  0  0  0  0  0  0  0  0  0  0  0
  155.5688  140.7320  159.9029 H   0  0  0  0  0  0  0  0  0  0  0  0
  154.7387  140.4928  161.4465 H   0  0  0  0  0  0  0  0  0  0  0  0
  153.5293  143.5628  160.1509 H   0  0  0  0  0  0  0  0  0  0  0  0
  151.3231  143.8360  159.0027 H   0  0  0  0  0  0  0  0  0  0  0  0
  149.2169  140.8756  158.0614 H   0  0  0  0  0  0  0  0  0  0  0  0
  149.1510  142.5798  158.4382 H   0  0  0  0  0  0  0  0  0  0  0  0
  150.1168  143.2244  156.3384 H   0  0  0  0  0  0  0  0  0  0  0  0
  150.7867  141.6372  156.0369 H   0  0  0  0  0  0  0  0  0  0  0  0
  147.8405  141.9410  156.1657 H   0  0  0  0  0  0  0  0  0  0  0  0
  146.4657  140.4320  152.2276 H   0  0  0  0  0  0  0  0  0  0  0  0
  148.0046  139.6571  152.4377 H   0  0  0  0  0  0  0  0  0  0  0  0
  146.1899  138.1096  153.0431 H   0  0  0  0  0  0  0  0  0  0  0  0
  147.1904  138.4498  154.4412 H   0  0  0  0  0  0  0  0  0  0  0  0
  143.5314  138.7742  155.4820 H   0  0  0  0  0  0  0  0  0  0  0  0
  144.4621  137.1650  157.0627 H   0  0  0  0  0  0  0  0  0  0  0  0
  145.3688  138.6614  157.1823 H   0  0  0  0  0  0  0  0  0  0  0  0
  146.0539  137.2738  156.3369 H   0  0  0  0  0  0  0  0  0  0  0  0
  144.6264  140.9468  155.7653 H   0  0  0  0  0  0  0  0  0  0  0  0
  146.1800  140.2590  156.1969 H   0  0  0  0  0  0  0  0  0  0  0  0
  146.4638  142.5194  155.1892 H   0  0  0  0  0  0  0  0  0  0  0  0
  145.5995  142.0317  153.7628 H   0  0  0  0  0  0  0  0  0  0  0  0
  151.2264  139.5462  158.4977 H   0  0  0  0  0  0  0  0  0  0  0  0
  144.6425  139.7169  153.7900 H   0  0  0  0  0  0  0  0  0  0  0  0
  1  2  1  0  0  0  0
  1 25  1  0  0  0  0
  1 26  1  0  0  0  0
  1 27  1  0  0  0  0
  2 24  1  0  0  0  0
  2  3  2  0  0  0  0
  3  4  1  0  0  0  0
  3 28  1  0  0  0  0
  4  5  2  0  0  0  0
  4 29  1  0  0  0  0
  5  6  1  0  0  0  0
  5 23  1  0  0  0  0
  6  7  1  0  0  0  0
  6 30  1  0  0  0  0
  6 31  1  0  0  0  0
  7  8  1  0  0  0  0
  7 32  1  0  0  0  0
  7 33  1  0  0  0  0
  8  9  1  0  0  0  0
  8 34  1  0  0  0  0
  9 10  2  0  0  0  0
  9 11  1  0  0  0  0
 11 22  1  0  0  0  0
 11 12  1  0  0  0  0
 12 13  1  0  0  0  0
 12 35  1  0  0  0  0
 12 36  1  0  0  0  0
 13 14  1  0  0  0  0
 13 37  1  0  0  0  0
 13 38  1  0  0  0  0
 14 15  1  0  0  0  0
 14 21  1  0  0  0  0
 14 48  1  0  0  0  0
 15 16  1  0  0  0  0
 15 17  1  0  0  0  0
 15 39  1  0  0  0  0
 16 40  1  0  0  0  0
 16 41  1  0  0  0  0
 16 42  1  0  0  0  0
 17 18  1  0  0  0  0
 17 19  1  0  0  0  0
 17 20  1  0  0  0  0
 21 22  1  0  0  0  0
 21 43  1  0  0  0  0
 21 44  1  0  0  0  0
 22 45  1  0  0  0  0
 22 46  1  0  0  0  0
 23 24  2  0  0  0  0
 23 47  1  0  0  0  0
M  CHG  1  14   1
M  END
> <s_m_source_file>
AV-unprocessed.smi

> <i_m_source_file_index>
906

> <i_lp_mmshare_version>
43012

> <i_f3d_flags>
0

> <s_epik_input>
W0NIM11jMVtjSF1bY0hdYyhbY0hdbjEpW0NIMl1bQ0gyXVtOSF1DKD1PKU4yW0NIMl1bQ0gyXU4oW0NASF0oW0NIM10pQyhGKShGKUYpW0NIMl1bQ0gyXTI=

> <s_epik_cmdline>
J2VwaWtfcHl0aG9uJywgJy1waCcsICc3LjAnLCAnLXRuJywgJzgnLCAnLW1hJywgJzIwMCcsICctbWV0YWxfYmluZGluZycsICctaW1hZScsICc8aW5maWxlLm1hZT4nLCAnLW9tYWUnLCAnPG91dGZpbGUubWFlPic=

> <r_epik_Ionization_Penalty>
2.02136

> <r_epik_Ionization_Penalty_Charging>
1.96814

> <r_epik_Ionization_Penalty_Neutral>
0.0532286

> <r_epik_State_Penalty>
2.14285

> <r_epik_Charging_Adjusted_Penalty>
4.11098

> <i_epik_Tot_Q>
1

> <i_epik_Tot_abs_Q>
1

> <r_epik_Metal_State_Penalty>
2.1406

> <b_epik_Metal_Only>
0

> <s_lp_Force_Field>
OPLS_2005

> <r_lp_Energy>
50.8751

> <b_lp_Chiralities_Consistent>
1

> <s_lp_Variant>
AV-unprocessed.smi:906-5

> <Gold.Version>
5.8.1

> <Gold.Id.Protein>
6NUR|6NUR_protein|mol2

> <Gold.PLP.Fitness>
39.8501

> <Gold.PLP.PLP>
-33.2862

> <Gold.PLP.part.hbond>
-3.9309

> <Gold.PLP.part.metal>
0.0000

> <Gold.PLP.part.buried>
-0.2816

> <Gold.PLP.part.nonpolar>
-31.2522

> <Gold.PLP.part.repulsive>
2.6256

> <Gold.PLP.ligand.clash>
1.0174

> <Gold.PLP.ligand.torsion>
1.5927

> <Gold.PLP.Chemscore.Hbond>
3.3356

> <Gold.PLP.Chemscore.CHOScore>
0.0000

> <Gold.PLP.Chemscore.Metal>
0.0000

> <Gold.Chemscore.Hbonds>
donor molecule, donor type, donor heavy atom, donor atom, acceptor molecule, acceptor atom, score
      L1  H    14    48       P1 10175  2.00
      P1  H  7989  7998       L1    10  0.27
      P1  H  8011  8017       L1    10  0.85

> <Gold.PLP.Chemscore.Internal.Correction>
0.7600

> <Gold.Rescore>
     Score         DG    S(hbond)    S(metal)    S(lipo)     H(rot)  DE(clash)    DE(int)     intcor
     13.76     -17.60       1.98        0.00      82.42       1.62       1.40       2.44       ----

> <Gold.Chemscore.Fitness>
13.7580

> <Gold.Chemscore.DG>
-17.5987

> <Gold.Chemscore.ZeroCoef>
-5.4800

> <Gold.Chemscore.Hbond>
1.9805

> <Gold.Chemscore.Metal>
0.0000

> <Gold.Chemscore.Lipo>
82.4238

> <Gold.Chemscore.Internal_Hbond>
0.0000

> <Gold.Chemscore.DEClash>
1.4031

> <Gold.Chemscore.DEInternal>
2.4376

> <Gold.Chemscore.Rot>
1.6171

> <Gold.Chemscore.Internal.Correction>
   9.000000E+99

> <Gold.Chemscore.Hbonds>
donor molecule, donor type, donor heavy atom, donor atom, acceptor molecule, acceptor atom, score
      L1  H    14    48       P1 10175  1.00
      P1  H  7989  7998       L1    10  0.28
      P1  H  8011  8017       L1    10  0.59

> <Gold.Chemscore.Hbond.Weighted>
-6.6149

> <Gold.Chemscore.Metal.Weighted>
-0.0000

> <Gold.Chemscore.Lipo.Weighted>
-9.6436

> <Gold.Chemscore.Internal_Hbond.Weighted>
0.0000

> <Gold.Chemscore.DEClash.Weighted>
1.4031

> <Gold.Chemscore.DEInternal.Weighted>
2.4376

> <Gold.Chemscore.Rot.Weighted>
4.1398

> <Gold.Chemscore.Internal.Correction.Weighted>
   9.000000E+99

> <Gold.Protein.RotatedTorsions>
[ 6907 6896 6895 6894 ] final -158.82 input  -60.11 | X-H torsion
[ 7974 7965 7964 7962 ] final  -33.20 input  175.53 | X-H torsion
[ 8008 7997 7996 7995 ] final   -5.86 input   59.86 | X-H torsion
[ 10167 10162 10161 10158 ] final  -27.36 input  -65.29 | X-H torsion
[ 10718 10713 10712 10709 ] final  -65.25 input   66.30 | X-H torsion
[ 10763 10752 10751 10750 ] final   85.40 input  -60.55 | X-H torsion
[ 11005 11000 10999 10996 ] final   -1.30 input  -57.11 | X-H torsion

> <Gold.Protein.ActiveResidues>
 VAL166  LYS551  ARG553  GLY616  TRP617  ASP618  TYR619  PRO620  LYS621  CYS622 
 ASP623  PHE694  ASN695  SER759  ASP760  ASP761  ALA762  ILE779  LEU786  VAL792 
 PHE793  MET794  SER795  GLU796  ALA797  LYS798  CYS799  TRP800  GLU811  SER814 

> <Gold.Protein.RotatedAtoms>
  151.3240  133.4028  159.2656 H   0  0  0  0  0  0  0  0  0  0  0  0  # atno 6907 bound_to 6896
  151.0010  134.9323  159.7964 H   0  0  0  0  0  0  0  0  0  0  0  0  # atno 6908 bound_to 6896
  152.5275  134.3205  159.9199 H   0  0  0  0  0  0  0  0  0  0  0  0  # atno 6909 bound_to 6896
  146.0929  140.5887  142.8856 H   0  0  0  0  0  0  0  0  0  0  0  0  # atno 7974 bound_to 7965
  154.5996  140.2447  155.7811 H   0  0  0  0  0  0  0  0  0  0  0  0  # atno 8008 bound_to 7997
  156.2302  140.2969  156.0121 H   0  0  0  0  0  0  0  0  0  0  0  0  # atno 8009 bound_to 7997
  155.2234  140.0401  157.2942 H   0  0  0  0  0  0  0  0  0  0  0  0  # atno 8010 bound_to 7997
  140.7278  143.4100  151.1121 H   0  0  0  0  0  0  0  0  0  0  0  0  # atno 10167 bound_to 10162
  156.0680  130.4245  150.1538 H   0  0  0  0  0  0  0  0  0  0  0  0  # atno 10718 bound_to 10713
  153.1472  135.4618  154.9583 H   0  0  0  0  0  0  0  0  0  0  0  0  # atno 10763 bound_to 10752
  154.7795  135.3184  154.8022 H   0  0  0  0  0  0  0  0  0  0  0  0  # atno 10764 bound_to 10752
  153.8534  135.6919  153.4844 H   0  0  0  0  0  0  0  0  0  0  0  0  # atno 10765 bound_to 10752
  140.6458  133.9448  155.8352 H   0  0  0  0  0  0  0  0  0  0  0  0  # atno 11005 bound_to 11000
  144.7373  140.4846  143.6894 LP  0  0  0  0  0  0  0  0  0  0  0  0  # atno 17320 bound_to 7965
  145.6004  139.1503  143.3132 LP  0  0  0  0  0  0  0  0  0  0  0  0  # atno 17321 bound_to 7965
  139.7732  143.8463  152.3124 LP  0  0  0  0  0  0  0  0  0  0  0  0  # atno 17342 bound_to 10162
  139.8389  144.7219  150.9356 LP  0  0  0  0  0  0  0  0  0  0  0  0  # atno 17343 bound_to 10162
  156.9594  130.9800  151.3482 LP  0  0  0  0  0  0  0  0  0  0  0  0  # atno 17370 bound_to 10713
  157.5734  130.8326  149.8423 LP  0  0  0  0  0  0  0  0  0  0  0  0  # atno 17371 bound_to 10713
  141.0573  134.0398  157.3705 LP  0  0  0  0  0  0  0  0  0  0  0  0  # atno 17394 bound_to 11000
  139.9063  135.0180  156.7501 LP  0  0  0  0  0  0  0  0  0  0  0  0  # atno 17395 bound_to 11000

$$$$
