AV-unprocessed.smi:124|AV-procd|sdf|1147|dock7
  -GOLD-   2262018283D 1   1.00000     0.00000
 Structure written by MMmdl.
 52 56  0  0  0  0  0  0  0  0  1 V2000
  152.6185  139.7093  154.8703 O   0  0  0  0  0  0  0  0  0  0  0  0
  151.7982  139.8130  155.7839 C   0  0  0  0  0  0  0  0  0  0  0  0
  152.0268  139.0198  157.0849 C   0  0  0  0  0  0  0  0  0  0  0  0
  151.1253  137.8820  157.2364 N   0  0  0  0  0  0  0  0  0  0  0  0
  149.9177  138.0879  157.9493 C   0  0  0  0  0  0  0  0  0  0  0  0
  149.6180  139.1824  158.4299 O   0  0  0  0  0  0  0  0  0  0  0  0
  149.0840  136.8992  158.0809 C   0  0  0  0  0  0  0  0  0  0  0  0
  147.9358  136.9667  158.7757 F   0  0  0  0  0  0  0  0  0  0  0  0
  149.4531  135.7235  157.5286 C   0  0  0  0  0  0  0  0  0  0  0  0
  150.6157  135.5594  156.7928 N   0  0  0  0  0  0  0  0  0  0  0  0
  151.0413  134.1990  156.2797 C   0  0  2  0  0  0  0  0  0  0  0  0
  150.2072  133.6864  155.0923 C   0  0  0  0  0  0  0  0  0  0  0  0
  149.3536  132.6096  155.7340 C   0  0  0  0  0  0  0  0  0  0  0  0
  150.2659  132.1141  156.8491 C   0  0  0  0  0  0  0  0  0  0  0  0
  150.9008  133.2912  157.3308 O   0  0  0  0  0  0  0  0  0  0  0  0
  151.5228  136.6390  156.6854 C   0  0  0  0  0  0  0  0  0  0  0  0
  152.6173  136.4973  156.1348 O   0  0  0  0  0  0  0  0  0  0  0  0
  150.5991  140.6609  155.7370 C   0  0  0  0  0  0  0  0  0  0  0  0
  150.4484  141.8050  156.4979 C   0  0  0  0  0  0  0  0  0  0  0  0
  151.3304  142.4799  157.4433 C   0  0  0  0  0  0  0  0  0  0  0  0
  151.9865  141.7462  158.4547 C   0  0  0  0  0  0  0  0  0  0  0  0
  152.8337  142.3960  159.3733 C   0  0  0  0  0  0  0  0  0  0  0  0
  153.0282  143.7877  159.2892 C   0  0  0  0  0  0  0  0  0  0  0  0
  152.3743  144.5279  158.2859 C   0  0  0  0  0  0  0  0  0  0  0  0
  151.5280  143.8756  157.3684 C   0  0  0  0  0  0  0  0  0  0  0  0
  149.2035  142.3544  156.2598 N   0  0  0  0  0  0  0  0  0  0  0  0
  148.5110  141.6165  155.3291 C   0  0  0  0  0  0  0  0  0  0  0  0
  147.2307  141.7873  154.7711 C   0  0  0  0  0  0  0  0  0  0  0  0
  146.7625  140.8691  153.8168 C   0  0  0  0  0  0  0  0  0  0  0  0
  147.5798  139.7920  153.4319 C   0  0  0  0  0  0  0  0  0  0  0  0
  148.8599  139.6298  153.9989 C   0  0  0  0  0  0  0  0  0  0  0  0
  149.3712  140.5340  154.9684 C   0  0  0  0  0  0  0  0  0  0  0  0
  148.8785  143.1953  156.7148 H   0  0  0  0  0  0  0  0  0  0  0  0
  153.0465  138.6359  157.1329 H   0  0  0  0  0  0  0  0  0  0  0  0
  151.9046  139.6619  157.9580 H   0  0  0  0  0  0  0  0  0  0  0  0
  148.7998  134.8807  157.6880 H   0  0  0  0  0  0  0  0  0  0  0  0
  152.0882  134.2947  155.9881 H   0  0  0  0  0  0  0  0  0  0  0  0
  149.6492  134.4714  154.5822 H   0  0  0  0  0  0  0  0  0  0  0  0
  150.8887  133.2357  154.3695 H   0  0  0  0  0  0  0  0  0  0  0  0
  148.4439  133.0370  156.1560 H   0  0  0  0  0  0  0  0  0  0  0  0
  149.0672  131.8212  155.0376 H   0  0  0  0  0  0  0  0  0  0  0  0
  149.7226  131.5987  157.6413 H   0  0  0  0  0  0  0  0  0  0  0  0
  151.0223  131.4350  156.4532 H   0  0  0  0  0  0  0  0  0  0  0  0
  151.8429  140.6779  158.5257 H   0  0  0  0  0  0  0  0  0  0  0  0
  153.3342  141.8264  160.1423 H   0  0  0  0  0  0  0  0  0  0  0  0
  153.6776  144.2869  159.9933 H   0  0  0  0  0  0  0  0  0  0  0  0
  152.5209  145.5957  158.2195 H   0  0  0  0  0  0  0  0  0  0  0  0
  151.0292  144.4503  156.6015 H   0  0  0  0  0  0  0  0  0  0  0  0
  146.6121  142.6192  155.0730 H   0  0  0  0  0  0  0  0  0  0  0  0
  145.7817  140.9905  153.3807 H   0  0  0  0  0  0  0  0  0  0  0  0
  147.2245  139.0847  152.6970 H   0  0  0  0  0  0  0  0  0  0  0  0
  149.4470  138.7896  153.6677 H   0  0  0  0  0  0  0  0  0  0  0  0
  1  2  2  0  0  0  0
  2  3  1  0  0  0  0
  2 18  1  0  0  0  0
  3  4  1  0  0  0  0
  3 34  1  0  0  0  0
  3 35  1  0  0  0  0
  4 16  1  0  0  0  0
  4  5  1  0  0  0  0
  5  6  2  0  0  0  0
  5  7  1  0  0  0  0
  7  8  1  0  0  0  0
  7  9  2  0  0  0  0
  9 10  1  0  0  0  0
  9 36  1  0  0  0  0
 10 11  1  0  0  0  0
 10 16  1  0  0  0  0
 11 15  1  0  0  0  0
 11 12  1  0  0  0  0
 11 37  1  0  0  0  0
 12 13  1  0  0  0  0
 12 38  1  0  0  0  0
 12 39  1  0  0  0  0
 13 14  1  0  0  0  0
 13 40  1  0  0  0  0
 13 41  1  0  0  0  0
 14 15  1  0  0  0  0
 14 42  1  0  0  0  0
 14 43  1  0  0  0  0
 16 17  2  0  0  0  0
 18 32  1  0  0  0  0
 18 19  2  0  0  0  0
 19 20  1  0  0  0  0
 19 26  1  0  0  0  0
 20 25  1  0  0  0  0
 20 21  2  0  0  0  0
 21 22  1  0  0  0  0
 21 44  1  0  0  0  0
 22 23  2  0  0  0  0
 22 45  1  0  0  0  0
 23 24  1  0  0  0  0
 23 46  1  0  0  0  0
 24 25  2  0  0  0  0
 24 47  1  0  0  0  0
 25 48  1  0  0  0  0
 26 33  1  0  0  0  0
 26 27  1  0  0  0  0
 27 32  1  0  0  0  0
 27 28  2  0  0  0  0
 28 29  1  0  0  0  0
 28 49  1  0  0  0  0
 29 30  2  0  0  0  0
 29 50  1  0  0  0  0
 30 31  1  0  0  0  0
 30 51  1  0  0  0  0
 31 32  2  0  0  0  0
 31 52  1  0  0  0  0
M  END
> <s_m_source_file>
AV-unprocessed.smi

> <i_m_source_file_index>
124

> <i_lp_mmshare_version>
43012

> <i_f3d_flags>
0

> <s_epik_input>
W2NIXTFbY0hdW2NIXVtjSF1bY0hdYzEtYyhbbkhdMiljKGMoYzIzKVtjSF1bY0hdW2NIXVtjSF0zKUMoPU8pW0NIMl1uNGMoPU8pYyhGKVtjSF1uKGM0PU8pW0NAQEhdNVtDSDJdW0NIMl1bQ0gyXU81

> <s_epik_cmdline>
J2VwaWtfcHl0aG9uJywgJy1waCcsICc3LjAnLCAnLXRuJywgJzgnLCAnLW1hJywgJzIwMCcsICctbWV0YWxfYmluZGluZycsICctaW1hZScsICc8aW5maWxlLm1hZT4nLCAnLW9tYWUnLCAnPG91dGZpbGUubWFlPic=

> <r_lp_tautomer_probability>
1

> <r_epik_Ionization_Penalty>
1.43207e-08

> <r_epik_Ionization_Penalty_Charging>
5.01743e-09

> <r_epik_Ionization_Penalty_Neutral>
9.30329e-09

> <r_epik_State_Penalty>
-0

> <r_epik_Charging_Adjusted_Penalty>
5.01743e-09

> <i_epik_Tot_Q>
0

> <i_epik_Tot_abs_Q>
0

> <r_epik_Metal_State_Penalty>
-0

> <b_epik_Metal_Only>
0

> <s_epik_Chemistry_Notes>
This compound contains an acetal/aminal-like group ( X-CH(R)-Y where X, Y are N, S, or O) that may be acid/base labile, releasing an aldehyde.

> <s_lp_Force_Field>
OPLS_2005

> <r_lp_Energy>
48.315

> <b_lp_Chiralities_Consistent>
1

> <s_lp_Variant>
AV-unprocessed.smi:124-1

> <Gold.Version>
5.8.1

> <Gold.Id.Protein>
6NUR|6NUR_protein|mol2

> <Gold.PLP.Fitness>
60.7031

> <Gold.PLP.PLP>
-56.7484

> <Gold.PLP.part.hbond>
-4.2788

> <Gold.PLP.part.metal>
0.0000

> <Gold.PLP.part.buried>
-4.0768

> <Gold.PLP.part.nonpolar>
-49.6868

> <Gold.PLP.part.repulsive>
0.1036

> <Gold.PLP.ligand.clash>
0.0000

> <Gold.PLP.ligand.torsion>
2.8498

> <Gold.PLP.Chemscore.Hbond>
2.6953

> <Gold.PLP.Chemscore.CHOScore>
0.0000

> <Gold.PLP.Chemscore.Metal>
0.0000

> <Gold.Chemscore.Hbonds>
donor molecule, donor type, donor heavy atom, donor atom, acceptor molecule, acceptor atom, score
      L1  H    26    33       P1  8028  0.32
      P1  H  6896  6909       L1    15  0.85
      P1  H  7989  7998       L1     1  0.53
      P1  H 10752 10763       L1    17  1.00

> <Gold.PLP.Chemscore.Internal.Correction>
1.5683

> <Gold.Rescore>
     Score         DG    S(hbond)    S(metal)    S(lipo)     H(rot)  DE(clash)    DE(int)     intcor
     23.65     -26.50       2.54        0.00     141.22       1.55       0.04       2.80       ----

> <Gold.Chemscore.Fitness>
23.6534

> <Gold.Chemscore.DG>
-26.4963

> <Gold.Chemscore.ZeroCoef>
-5.4800

> <Gold.Chemscore.Hbond>
2.5362

> <Gold.Chemscore.Metal>
0.0000

> <Gold.Chemscore.Lipo>
141.2200

> <Gold.Chemscore.Internal_Hbond>
0.0000

> <Gold.Chemscore.DEClash>
0.0382

> <Gold.Chemscore.DEInternal>
2.8047

> <Gold.Chemscore.Rot>
1.5537

> <Gold.Chemscore.Internal.Correction>
   9.000000E+99

> <Gold.Chemscore.Hbonds>
donor molecule, donor type, donor heavy atom, donor atom, acceptor molecule, acceptor atom, score
      L1  H    26    33       P1  8028  0.28
      P1  H  6896  6909       L1    15  0.81
      P1  H  7989  7998       L1     1  0.11
      P1  H 10752 10763       L1    17  0.93

> <Gold.Chemscore.Hbond.Weighted>
-8.4710

> <Gold.Chemscore.Metal.Weighted>
-0.0000

> <Gold.Chemscore.Lipo.Weighted>
-16.5227

> <Gold.Chemscore.Internal_Hbond.Weighted>
0.0000

> <Gold.Chemscore.DEClash.Weighted>
0.0382

> <Gold.Chemscore.DEInternal.Weighted>
2.8047

> <Gold.Chemscore.Rot.Weighted>
3.9774

> <Gold.Chemscore.Internal.Correction.Weighted>
   9.000000E+99

> <Gold.Protein.RotatedTorsions>
[ 6907 6896 6895 6894 ] final  -27.63 input  -60.11 | X-H torsion
[ 7974 7965 7964 7962 ] final  -86.66 input  175.53 | X-H torsion
[ 8008 7997 7996 7995 ] final   52.78 input   59.86 | X-H torsion
[ 10167 10162 10161 10158 ] final  -78.51 input  -65.29 | X-H torsion
[ 10718 10713 10712 10709 ] final   -5.32 input   66.30 | X-H torsion
[ 10763 10752 10751 10750 ] final   93.32 input  -60.55 | X-H torsion
[ 11005 11000 10999 10996 ] final  -34.81 input  -57.11 | X-H torsion

> <Gold.Protein.ActiveResidues>
 VAL166  LYS551  ARG553  GLY616  TRP617  ASP618  TYR619  PRO620  LYS621  CYS622 
 ASP623  PHE694  ASN695  SER759  ASP760  ASP761  ALA762  ILE779  LEU786  VAL792 
 PHE793  MET794  SER795  GLU796  ALA797  LYS798  CYS799  TRP800  GLU811  SER814 

> <Gold.Protein.RotatedAtoms>
  151.1442  135.0195  159.8639 H   0  0  0  0  0  0  0  0  0  0  0  0  # atno 6907 bound_to 6896
  152.5453  134.1463  159.8510 H   0  0  0  0  0  0  0  0  0  0  0  0  # atno 6908 bound_to 6896
  151.1542  133.4842  159.2627 H   0  0  0  0  0  0  0  0  0  0  0  0  # atno 6909 bound_to 6896
  145.4770  140.9558  143.1885 H   0  0  0  0  0  0  0  0  0  0  0  0  # atno 7974 bound_to 7965
  155.4574  140.3460  155.4308 H   0  0  0  0  0  0  0  0  0  0  0  0  # atno 8008 bound_to 7997
  156.1182  140.1480  156.9272 H   0  0  0  0  0  0  0  0  0  0  0  0  # atno 8009 bound_to 7997
  154.4804  140.0871  156.7343 H   0  0  0  0  0  0  0  0  0  0  0  0  # atno 8010 bound_to 7997
  140.4676  143.2436  151.8255 H   0  0  0  0  0  0  0  0  0  0  0  0  # atno 10167 bound_to 10162
  156.7483  130.5231  149.5809 H   0  0  0  0  0  0  0  0  0  0  0  0  # atno 10718 bound_to 10713
  153.2290  135.4329  155.0574 H   0  0  0  0  0  0  0  0  0  0  0  0  # atno 10763 bound_to 10752
  154.8287  135.3375  154.6815 H   0  0  0  0  0  0  0  0  0  0  0  0  # atno 10764 bound_to 10752
  153.7243  135.7015  153.5061 H   0  0  0  0  0  0  0  0  0  0  0  0  # atno 10765 bound_to 10752
  140.9746  133.7090  156.1581 H   0  0  0  0  0  0  0  0  0  0  0  0  # atno 11005 bound_to 11000
  144.7911  139.6326  143.7113 LP  0  0  0  0  0  0  0  0  0  0  0  0  # atno 17320 bound_to 7965
  146.2363  139.5913  142.9521 LP  0  0  0  0  0  0  0  0  0  0  0  0  # atno 17321 bound_to 7965
  139.4814  144.4932  151.9158 LP  0  0  0  0  0  0  0  0  0  0  0  0  # atno 17342 bound_to 10162
  140.4017  144.2484  150.5893 LP  0  0  0  0  0  0  0  0  0  0  0  0  # atno 17343 bound_to 10162
  156.1418  130.6250  151.0477 LP  0  0  0  0  0  0  0  0  0  0  0  0  # atno 17370 bound_to 10713
  157.6788  131.0843  150.7424 LP  0  0  0  0  0  0  0  0  0  0  0  0  # atno 17371 bound_to 10713
  140.7278  134.4288  157.5569 LP  0  0  0  0  0  0  0  0  0  0  0  0  # atno 17394 bound_to 11000
  139.8925  134.8752  156.2265 LP  0  0  0  0  0  0  0  0  0  0  0  0  # atno 17395 bound_to 11000

$$$$
