AV-unprocessed.smi:2000|AV-procd|sdf|8100|dock9
  -GOLD-   2272010323D 1   1.00000     0.00000
 Structure written by MMmdl.
 43 44  0  0  0  0  0  0  0  0  1 V2000
  146.3687  134.6995  158.4849 C   0  0  0  0  0  0  0  0  0  0  0  0
  146.9534  135.9348  159.1874 C   0  0  2  0  0  0  0  0  0  0  0  0
  148.4252  136.1500  158.8103 C   0  0  0  0  0  0  0  0  0  0  0  0
  149.1908  135.1908  158.7151 O   0  0  0  0  0  0  0  0  0  0  0  0
  148.8070  137.4185  158.5920 N   0  0  0  0  0  0  0  0  0  0  0  0
  150.1567  137.8345  158.2225 C   0  0  0  0  0  0  0  0  0  0  0  0
  150.3217  138.1503  156.7355 C   0  0  0  0  0  0  0  0  0  0  0  0
  150.0896  137.1392  155.7758 C   0  0  0  0  0  0  0  0  0  0  0  0
  150.2662  137.4250  154.4107 C   0  0  0  0  0  0  0  0  0  0  0  0
  150.6846  138.7178  154.0510 C   0  0  0  0  0  0  0  0  0  0  0  0
  150.9247  139.6916  154.9521 N   0  0  0  0  0  0  0  0  0  0  0  0
  150.7519  139.4233  156.2699 C   0  0  0  0  0  0  0  0  0  0  0  0
  150.9940  140.4735  157.1733 N   0  0  0  0  0  0  0  0  0  0  0  0
  150.9117  141.7880  156.5499 C   0  0  0  0  0  0  0  0  0  0  0  0
  150.9564  142.8833  157.6290 C   0  0  0  0  0  0  0  0  0  0  0  0
  152.1311  142.7284  158.4213 O   0  0  0  0  0  0  0  0  0  0  0  0
  152.1706  141.4666  159.0826 C   0  0  0  0  0  0  0  0  0  0  0  0
  152.1609  140.3368  158.0386 C   0  0  0  0  0  0  0  0  0  0  0  0
  146.7773  135.7529  161.0251 S   0  0  0  0  0  0  0  0  0  0  0  0
  147.6775  134.1861  161.3804 C   0  0  0  0  0  0  0  0  0  0  0  0
  147.5128  136.8573  161.6599 O   0  0  0  0  0  0  0  0  0  0  0  0
  145.3582  135.5503  161.3561 O   0  0  0  0  0  0  0  0  0  0  0  0
  146.4669  134.7758  157.4015 H   0  0  0  0  0  0  0  0  0  0  0  0
  145.3078  134.5902  158.7115 H   0  0  0  0  0  0  0  0  0  0  0  0
  146.8680  133.7834  158.8032 H   0  0  0  0  0  0  0  0  0  0  0  0
  146.3727  136.8111  158.8972 H   0  0  0  0  0  0  0  0  0  0  0  0
  148.1150  138.1480  158.6828 H   0  0  0  0  0  0  0  0  0  0  0  0
  150.4592  138.6666  158.8580 H   0  0  0  0  0  0  0  0  0  0  0  0
  150.8349  137.0160  158.4640 H   0  0  0  0  0  0  0  0  0  0  0  0
  149.7812  136.1493  156.0777 H   0  0  0  0  0  0  0  0  0  0  0  0
  150.0896  136.6704  153.6587 H   0  0  0  0  0  0  0  0  0  0  0  0
  150.8337  138.9762  153.0132 H   0  0  0  0  0  0  0  0  0  0  0  0
  151.7455  141.9107  155.8572 H   0  0  0  0  0  0  0  0  0  0  0  0
  149.9962  141.8766  155.9655 H   0  0  0  0  0  0  0  0  0  0  0  0
  150.9681  143.8693  157.1641 H   0  0  0  0  0  0  0  0  0  0  0  0
  150.0691  142.8398  158.2628 H   0  0  0  0  0  0  0  0  0  0  0  0
  153.0748  141.4110  159.6888 H   0  0  0  0  0  0  0  0  0  0  0  0
  151.3231  141.3749  159.7639 H   0  0  0  0  0  0  0  0  0  0  0  0
  152.1423  139.3656  158.5345 H   0  0  0  0  0  0  0  0  0  0  0  0
  153.0738  140.3822  157.4428 H   0  0  0  0  0  0  0  0  0  0  0  0
  147.7499  134.0502  162.4593 H   0  0  0  0  0  0  0  0  0  0  0  0
  148.6791  134.2312  160.9537 H   0  0  0  0  0  0  0  0  0  0  0  0
  147.1320  133.3448  160.9549 H   0  0  0  0  0  0  0  0  0  0  0  0
  1  2  1  0  0  0  0
  1 23  1  0  0  0  0
  1 24  1  0  0  0  0
  1 25  1  0  0  0  0
  2  3  1  0  0  0  0
  2 19  1  0  0  0  0
  2 26  1  0  0  0  0
  3  4  2  0  0  0  0
  3  5  1  0  0  0  0
  5  6  1  0  0  0  0
  5 27  1  0  0  0  0
  6  7  1  0  0  0  0
  6 28  1  0  0  0  0
  6 29  1  0  0  0  0
  7 12  1  0  0  0  0
  7  8  2  0  0  0  0
  8  9  1  0  0  0  0
  8 30  1  0  0  0  0
  9 10  2  0  0  0  0
  9 31  1  0  0  0  0
 10 11  1  0  0  0  0
 10 32  1  0  0  0  0
 11 12  2  0  0  0  0
 12 13  1  0  0  0  0
 13 18  1  0  0  0  0
 13 14  1  0  0  0  0
 14 15  1  0  0  0  0
 14 33  1  0  0  0  0
 14 34  1  0  0  0  0
 15 16  1  0  0  0  0
 15 35  1  0  0  0  0
 15 36  1  0  0  0  0
 16 17  1  0  0  0  0
 17 18  1  0  0  0  0
 17 37  1  0  0  0  0
 17 38  1  0  0  0  0
 18 39  1  0  0  0  0
 18 40  1  0  0  0  0
 19 20  1  0  0  0  0
 19 21  2  0  0  0  0
 19 22  2  0  0  0  0
 20 41  1  0  0  0  0
 20 42  1  0  0  0  0
 20 43  1  0  0  0  0
M  END
> <s_m_source_file>
AV-unprocessed.smi

> <i_m_source_file_index>
2000

> <i_lp_mmshare_version>
43012

> <i_f3d_flags>
0

> <s_epik_input>
W0NIM11TKD1PKSg9TylbQ0BIXShbQ0gzXSlDKD1PKVtOSF1bQ0gyXWMxW2NIXVtjSF1bY0hdbmMxTjJbQ0gyXVtDSDJdT1tDSDJdW0NIMl0y

> <s_epik_cmdline>
J2VwaWtfcHl0aG9uJywgJy1waCcsICc3LjAnLCAnLXRuJywgJzgnLCAnLW1hJywgJzIwMCcsICctbWV0YWxfYmluZGluZycsICctaW1hZScsICc8aW5maWxlLm1hZT4nLCAnLW9tYWUnLCAnPG91dGZpbGUubWFlPic=

> <r_lp_tautomer_probability>
1

> <r_epik_Ionization_Penalty>
0.00349769

> <r_epik_Ionization_Penalty_Charging>
0

> <r_epik_Ionization_Penalty_Neutral>
0.00349769

> <r_epik_State_Penalty>
0.00248024

> <r_epik_Charging_Adjusted_Penalty>
0.00248024

> <i_epik_Tot_Q>
0

> <i_epik_Tot_abs_Q>
0

> <r_epik_Metal_State_Penalty>
-0

> <b_epik_Metal_Only>
0

> <s_lp_Force_Field>
OPLS_2005

> <r_lp_Energy>
16.3383

> <b_lp_Chiralities_Consistent>
1

> <s_lp_Variant>
AV-unprocessed.smi:2000-1

> <Gold.Version>
5.8.1

> <Gold.Id.Protein>
6NUR|6NUR_protein|mol2

> <Gold.PLP.Fitness>
39.2560

> <Gold.PLP.PLP>
-28.7404

> <Gold.PLP.part.hbond>
-4.0000

> <Gold.PLP.part.metal>
0.0000

> <Gold.PLP.part.buried>
-4.4892

> <Gold.PLP.part.nonpolar>
-19.9415

> <Gold.PLP.part.repulsive>
0.2390

> <Gold.PLP.ligand.clash>
0.0000

> <Gold.PLP.ligand.torsion>
1.2040

> <Gold.PLP.Chemscore.Hbond>
3.1929

> <Gold.PLP.Chemscore.CHOScore>
1.0000

> <Gold.PLP.Chemscore.Metal>
0.0000

> <Gold.Chemscore.Hbonds>
donor molecule, donor type, donor heavy atom, donor atom, acceptor molecule, acceptor atom, score
      P1  H  6896  6907       L1     4  1.00
      P1  H  6931  6943       L1    21  0.89
      P1  H  6934  6947       L1    21  0.28
      P1  H  7989  7998       L1    11  0.50
      L1  C    10    32       P1  7957  1.00

> <Gold.PLP.Chemscore.Internal.Correction>
0.3449

> <Gold.Rescore>
     Score         DG    S(hbond)    S(metal)    S(lipo)     H(rot)  DE(clash)    DE(int)     intcor
     16.14     -17.22       2.71        0.00      68.51       2.08       0.01       1.07       ----

> <Gold.Chemscore.Fitness>
16.1410

> <Gold.Chemscore.DG>
-17.2238

> <Gold.Chemscore.ZeroCoef>
-5.4800

> <Gold.Chemscore.Hbond>
2.7075

> <Gold.Chemscore.Metal>
0.0000

> <Gold.Chemscore.Lipo>
68.5143

> <Gold.Chemscore.Internal_Hbond>
0.0000

> <Gold.Chemscore.DEClash>
0.0121

> <Gold.Chemscore.DEInternal>
1.0707

> <Gold.Chemscore.Rot>
2.0764

> <Gold.Chemscore.Internal.Correction>
   9.000000E+99

> <Gold.Chemscore.Hbonds>
donor molecule, donor type, donor heavy atom, donor atom, acceptor molecule, acceptor atom, score
      P1  H  6896  6907       L1     4  1.00
      P1  H  6931  6943       L1    21  0.84
      P1  H  6934  6947       L1    21  0.27
      P1  H  7989  7998       L1    11  0.02

> <Gold.Chemscore.Hbond.Weighted>
-9.0432

> <Gold.Chemscore.Metal.Weighted>
-0.0000

> <Gold.Chemscore.Lipo.Weighted>
-8.0162

> <Gold.Chemscore.Internal_Hbond.Weighted>
0.0000

> <Gold.Chemscore.DEClash.Weighted>
0.0121

> <Gold.Chemscore.DEInternal.Weighted>
1.0707

> <Gold.Chemscore.Rot.Weighted>
5.3155

> <Gold.Chemscore.Internal.Correction.Weighted>
   9.000000E+99

> <Gold.Protein.RotatedTorsions>
[ 6907 6896 6895 6894 ] final  -76.39 input  -60.11 | X-H torsion
[ 7974 7965 7964 7962 ] final   81.21 input  175.53 | X-H torsion
[ 8008 7997 7996 7995 ] final    1.30 input   59.86 | X-H torsion
[ 10167 10162 10161 10158 ] final   77.71 input  -65.29 | X-H torsion
[ 10718 10713 10712 10709 ] final  -79.14 input   66.30 | X-H torsion
[ 10763 10752 10751 10750 ] final  -97.75 input  -60.55 | X-H torsion
[ 11005 11000 10999 10996 ] final -177.25 input  -57.11 | X-H torsion

> <Gold.Protein.ActiveResidues>
 VAL166  LYS551  ARG553  GLY616  TRP617  ASP618  TYR619  PRO620  LYS621  CYS622 
 ASP623  PHE694  ASN695  SER759  ASP760  ASP761  ALA762  ILE779  LEU786  VAL792 
 PHE793  MET794  SER795  GLU796  ALA797  LYS798  CYS799  TRP800  GLU811  SER814 

> <Gold.Protein.RotatedAtoms>
  150.7029  134.4579  159.5366 H   0  0  0  0  0  0  0  0  0  0  0  0  # atno 6907 bound_to 6896
  152.2259  134.8366  160.0489 H   0  0  0  0  0  0  0  0  0  0  0  0  # atno 6908 bound_to 6896
  151.9199  133.3548  159.3930 H   0  0  0  0  0  0  0  0  0  0  0  0  # atno 6909 bound_to 6896
  145.6411  139.2426  143.2030 H   0  0  0  0  0  0  0  0  0  0  0  0  # atno 7974 bound_to 7965
  154.6781  140.2626  155.6937 H   0  0  0  0  0  0  0  0  0  0  0  0  # atno 8008 bound_to 7997
  156.2686  140.2816  156.1237 H   0  0  0  0  0  0  0  0  0  0  0  0  # atno 8009 bound_to 7997
  155.1071  140.0375  157.2703 H   0  0  0  0  0  0  0  0  0  0  0  0  # atno 8010 bound_to 7997
  139.9787  144.5842  150.7920 H   0  0  0  0  0  0  0  0  0  0  0  0  # atno 10167 bound_to 10162
  156.0100  130.4537  150.3603 H   0  0  0  0  0  0  0  0  0  0  0  0  # atno 10718 bound_to 10713
  154.7355  135.5035  153.9034 H   0  0  0  0  0  0  0  0  0  0  0  0  # atno 10763 bound_to 10752
  153.0991  135.6680  153.9715 H   0  0  0  0  0  0  0  0  0  0  0  0  # atno 10764 bound_to 10752
  153.9506  135.3058  155.3418 H   0  0  0  0  0  0  0  0  0  0  0  0  # atno 10765 bound_to 10752
  140.4430  134.6413  157.4766 H   0  0  0  0  0  0  0  0  0  0  0  0  # atno 11005 bound_to 11000
  146.1280  140.7223  142.9426 LP  0  0  0  0  0  0  0  0  0  0  0  0  # atno 17320 bound_to 7965
  144.7157  140.4200  143.7046 LP  0  0  0  0  0  0  0  0  0  0  0  0  # atno 17321 bound_to 7965
  140.7497  143.2942  151.3248 LP  0  0  0  0  0  0  0  0  0  0  0  0  # atno 17342 bound_to 10162
  139.6426  144.0511  152.2566 LP  0  0  0  0  0  0  0  0  0  0  0  0  # atno 17343 bound_to 10162
  157.1692  131.0364  151.2804 LP  0  0  0  0  0  0  0  0  0  0  0  0  # atno 17370 bound_to 10713
  157.4244  130.7455  149.6939 LP  0  0  0  0  0  0  0  0  0  0  0  0  # atno 17371 bound_to 10713
  140.0057  134.6768  155.9459 LP  0  0  0  0  0  0  0  0  0  0  0  0  # atno 17394 bound_to 11000
  141.1697  133.6537  156.4607 LP  0  0  0  0  0  0  0  0  0  0  0  0  # atno 17395 bound_to 11000

$$$$
