AV-unprocessed.smi:287|AV-procd|sdf|2186|dock7
  -GOLD-   2262021573D 1   1.00000     0.00000
 Structure written by MMmdl.
 55 58  0  0  0  0  0  0  0  0  1 V2000
  150.3664  142.0052  157.6356 C   0  0  0  0  0  0  0  0  0  0  0  0
  149.5008  141.3316  156.6269 C   0  0  0  0  0  0  0  0  0  0  0  0
  148.2748  141.6106  156.0975 C   0  0  0  0  0  0  0  0  0  0  0  0
  147.9754  140.5857  155.1508 C   0  0  0  0  0  0  0  0  0  0  0  0
  146.7116  140.4926  154.3058 C   0  0  2  0  0  0  0  0  0  0  0  0
  146.5721  141.7513  153.4336 C   0  0  0  0  0  0  0  0  0  0  0  0
  145.5316  140.4432  155.0842 O   0  0  0  0  0  0  0  0  0  0  0  0
  146.6902  139.2252  153.4209 C   0  0  0  0  0  0  0  0  0  0  0  0
  145.4188  139.0427  152.7282 N   0  0  0  0  0  0  0  0  0  0  0  0
  144.7590  137.8693  152.8135 C   0  0  0  0  0  0  0  0  0  0  0  0
  143.7059  137.7167  153.6580 N   0  0  0  0  0  0  0  0  0  0  0  0
  143.0644  136.5459  153.7183 C   0  0  0  0  0  0  0  0  0  0  0  0
  143.3075  135.4253  153.0349 N   0  0  0  0  0  0  0  0  0  0  0  0
  144.3670  135.5731  152.1879 C   0  0  0  0  0  0  0  0  0  0  0  0
  145.1397  136.7559  152.0217 C   0  0  0  0  0  0  0  0  0  0  0  0
  146.1333  136.5411  151.0758 N   0  0  0  0  0  0  0  0  0  0  0  0
  145.9522  135.3023  150.7044 C   0  0  0  0  0  0  0  0  0  0  0  0
  144.9123  134.6452  151.3242 N   0  0  0  0  0  0  0  0  0  0  0  0
  144.4613  133.2392  151.1016 C   0  0  2  0  0  0  0  0  0  0  0  0
  145.1365  132.4221  152.0039 O   0  0  0  0  0  0  0  0  0  0  0  0
  145.3620  131.1631  151.3900 C   0  0  2  0  0  0  0  0  0  0  0  0
  146.4272  130.3570  152.1543 C   0  0  0  0  0  0  0  0  0  0  0  0
  147.0678  129.4468  151.2858 O   0  0  0  0  0  0  0  0  0  0  0  0
  145.6677  131.5231  149.9274 C   0  0  2  0  0  0  0  0  0  0  0  0
  147.0357  131.8325  149.7401 O   0  0  0  0  0  0  0  0  0  0  0  0
  144.8025  132.7583  149.6783 C   0  0  1  0  0  0  0  0  0  0  0  0
  143.6342  132.3786  148.9787 O   0  0  0  0  0  0  0  0  0  0  0  0
  149.0588  139.7412  155.1946 C   0  0  0  0  0  0  0  0  0  0  0  0
  149.4177  138.4752  154.4891 C   0  0  0  0  0  0  0  0  0  0  0  0
  149.9888  140.1881  156.0845 O   0  0  0  0  0  0  0  0  0  0  0  0
  143.3919  133.2444  151.3195 H   0  0  0  0  0  0  0  0  0  0  0  0
  144.4139  130.6226  151.4257 H   0  0  0  0  0  0  0  0  0  0  0  0
  145.4253  130.6971  149.2574 H   0  0  0  0  0  0  0  0  0  0  0  0
  145.3269  133.5292  149.1109 H   0  0  0  0  0  0  0  0  0  0  0  0
  149.9558  142.9760  157.9143 H   0  0  0  0  0  0  0  0  0  0  0  0
  151.3696  142.1647  157.2399 H   0  0  0  0  0  0  0  0  0  0  0  0
  150.4497  141.4009  158.5388 H   0  0  0  0  0  0  0  0  0  0  0  0
  147.6618  142.4623  156.3527 H   0  0  0  0  0  0  0  0  0  0  0  0
  147.4254  141.8654  152.7640 H   0  0  0  0  0  0  0  0  0  0  0  0
  146.5129  142.6531  154.0446 H   0  0  0  0  0  0  0  0  0  0  0  0
  145.6748  141.7118  152.8146 H   0  0  0  0  0  0  0  0  0  0  0  0
  144.9406  141.1123  154.7747 H   0  0  0  0  0  0  0  0  0  0  0  0
  147.5154  139.2312  152.7071 H   0  0  0  0  0  0  0  0  0  0  0  0
  146.8376  138.3535  154.0606 H   0  0  0  0  0  0  0  0  0  0  0  0
  145.0435  139.8612  152.2702 H   0  0  0  0  0  0  0  0  0  0  0  0
  142.2383  136.5007  154.4125 H   0  0  0  0  0  0  0  0  0  0  0  0
  146.5783  134.8308  149.9611 H   0  0  0  0  0  0  0  0  0  0  0  0
  147.1667  131.0065  152.6230 H   0  0  0  0  0  0  0  0  0  0  0  0
  145.9558  129.7880  152.9558 H   0  0  0  0  0  0  0  0  0  0  0  0
  147.9127  129.7991  151.0510 H   0  0  0  0  0  0  0  0  0  0  0  0
  147.5477  131.0699  149.9660 H   0  0  0  0  0  0  0  0  0  0  0  0
  143.0597  133.1270  148.9263 H   0  0  0  0  0  0  0  0  0  0  0  0
  148.6412  137.7227  154.6269 H   0  0  0  0  0  0  0  0  0  0  0  0
  150.3538  138.0633  154.8672 H   0  0  0  0  0  0  0  0  0  0  0  0
  149.5357  138.6500  153.4198 H   0  0  0  0  0  0  0  0  0  0  0  0
  1  2  1  0  0  0  0
  1 35  1  0  0  0  0
  1 36  1  0  0  0  0
  1 37  1  0  0  0  0
  2 30  1  0  0  0  0
  2  3  2  0  0  0  0
  3  4  1  0  0  0  0
  3 38  1  0  0  0  0
  4  5  1  0  0  0  0
  4 28  2  0  0  0  0
  5  6  1  0  0  0  0
  5  7  1  0  0  0  0
  5  8  1  0  0  0  0
  6 39  1  0  0  0  0
  6 40  1  0  0  0  0
  6 41  1  0  0  0  0
  7 42  1  0  0  0  0
  8  9  1  0  0  0  0
  8 43  1  0  0  0  0
  8 44  1  0  0  0  0
  9 10  1  0  0  0  0
  9 45  1  0  0  0  0
 10 15  1  0  0  0  0
 10 11  2  0  0  0  0
 11 12  1  0  0  0  0
 12 13  2  0  0  0  0
 12 46  1  0  0  0  0
 13 14  1  0  0  0  0
 14 18  1  0  0  0  0
 14 15  2  0  0  0  0
 15 16  1  0  0  0  0
 16 17  2  0  0  0  0
 17 18  1  0  0  0  0
 17 47  1  0  0  0  0
 18 19  1  0  0  0  0
 19 31  1  0  0  0  0
 19 26  1  0  0  0  0
 19 20  1  0  0  0  0
 20 21  1  0  0  0  0
 21 32  1  0  0  0  0
 21 22  1  0  0  0  0
 21 24  1  0  0  0  0
 22 23  1  0  0  0  0
 22 48  1  0  0  0  0
 22 49  1  0  0  0  0
 23 50  1  0  0  0  0
 24 33  1  0  0  0  0
 24 25  1  0  0  0  0
 24 26  1  0  0  0  0
 25 51  1  0  0  0  0
 26 34  1  0  0  0  0
 26 27  1  0  0  0  0
 27 52  1  0  0  0  0
 28 29  1  0  0  0  0
 28 30  1  0  0  0  0
 29 53  1  0  0  0  0
 29 54  1  0  0  0  0
 29 55  1  0  0  0  0
M  END
> <s_m_source_file>
AV-unprocessed.smi

> <i_m_source_file_index>
287

> <i_lp_mmshare_version>
43012

> <i_f3d_flags>
0

> <s_epik_input>
W0NIM11jMVtjSF1jKGMobzEpW0NIM10pW0NAQF0oW0NIM10pKFtPSF0pW0NIMl1bTkhdYyhuW2NIXW4yKWMoYzIzKW5bY0hdbjNbQ0BASF00T1tDQEhdKFtDSDJdW09IXSlbQ0BASF0oW09IXSlbQ0BIXTRbT0hd

> <s_epik_cmdline>
J2VwaWtfcHl0aG9uJywgJy1waCcsICc3LjAnLCAnLXRuJywgJzgnLCAnLW1hJywgJzIwMCcsICctbWV0YWxfYmluZGluZycsICctaW1hZScsICc8aW5maWxlLm1hZT4nLCAnLW9tYWUnLCAnPG91dGZpbGUubWFlPic=

> <r_lp_tautomer_probability>
1

> <r_epik_Ionization_Penalty>
0.000992612

> <r_epik_Ionization_Penalty_Charging>
0

> <r_epik_Ionization_Penalty_Neutral>
0.000992612

> <r_epik_State_Penalty>
-0

> <r_epik_Charging_Adjusted_Penalty>
0

> <i_epik_Tot_Q>
0

> <i_epik_Tot_abs_Q>
0

> <r_epik_Metal_State_Penalty>
-0

> <b_epik_Metal_Only>
0

> <s_epik_Chemistry_Notes>
This compound contains an acetal/aminal-like group ( X-CH(R)-Y where X, Y are N, S, or O) that may be acid/base labile, releasing an aldehyde.

> <s_lp_Force_Field>
OPLS_2005

> <r_lp_Energy>
38.0531

> <b_lp_Chiralities_Consistent>
1

> <s_lp_Variant>
AV-unprocessed.smi:287-10

> <Gold.Version>
5.8.1

> <Gold.Id.Protein>
6NUR|6NUR_protein|mol2

> <Gold.PLP.Fitness>
56.4353

> <Gold.PLP.PLP>
-43.5093

> <Gold.PLP.part.hbond>
-5.7498

> <Gold.PLP.part.metal>
0.0000

> <Gold.PLP.part.buried>
-4.8103

> <Gold.PLP.part.nonpolar>
-33.5082

> <Gold.PLP.part.repulsive>
0.7103

> <Gold.PLP.ligand.clash>
0.0000

> <Gold.PLP.ligand.torsion>
1.8365

> <Gold.PLP.Chemscore.Hbond>
4.4933

> <Gold.PLP.Chemscore.CHOScore>
1.0000

> <Gold.PLP.Chemscore.Metal>
0.0000

> <Gold.Chemscore.Hbonds>
donor molecule, donor type, donor heavy atom, donor atom, acceptor molecule, acceptor atom, score
      L1  H     9    45       P1 10175  0.51
      L1  H    23    50       P1 10747  1.00
      L1  H    25    51       P1 10747  0.55
      P1  H 10785 10796       L1    27  0.30
      L1  C    17    47       P1  7921  0.75

> <Gold.PLP.Chemscore.Internal.Correction>
0.1192

> <Gold.Rescore>
     Score         DG    S(hbond)    S(metal)    S(lipo)     H(rot)  DE(clash)    DE(int)     intcor
     12.14     -16.06       3.73        0.00      99.24       5.27       1.08       2.84       ----

> <Gold.Chemscore.Fitness>
12.1411

> <Gold.Chemscore.DG>
-16.0611

> <Gold.Chemscore.ZeroCoef>
-5.4800

> <Gold.Chemscore.Hbond>
3.7286

> <Gold.Chemscore.Metal>
0.0000

> <Gold.Chemscore.Lipo>
99.2449

> <Gold.Chemscore.Internal_Hbond>
0.0000

> <Gold.Chemscore.DEClash>
1.0754

> <Gold.Chemscore.DEInternal>
2.8447

> <Gold.Chemscore.Rot>
5.2672

> <Gold.Chemscore.Internal.Correction>
   9.000000E+99

> <Gold.Chemscore.Hbonds>
donor molecule, donor type, donor heavy atom, donor atom, acceptor molecule, acceptor atom, score
      L1  H     9    45       P1 10175  0.48
      L1  H    23    50       P1 10747  0.94
      L1  H    25    51       P1 10747  0.55
      L1  H    27    52       P1 10186  0.02
      P1  H 10785 10796       L1    27  0.28

> <Gold.Chemscore.Hbond.Weighted>
-12.4534

> <Gold.Chemscore.Metal.Weighted>
-0.0000

> <Gold.Chemscore.Lipo.Weighted>
-11.6117

> <Gold.Chemscore.Internal_Hbond.Weighted>
0.0000

> <Gold.Chemscore.DEClash.Weighted>
1.0754

> <Gold.Chemscore.DEInternal.Weighted>
2.8447

> <Gold.Chemscore.Rot.Weighted>
13.4839

> <Gold.Chemscore.Internal.Correction.Weighted>
   9.000000E+99

> <Gold.Protein.RotatedTorsions>
[ 6907 6896 6895 6894 ] final    4.46 input  -60.11 | X-H torsion
[ 7974 7965 7964 7962 ] final -143.01 input  175.53 | X-H torsion
[ 8008 7997 7996 7995 ] final  -27.67 input   59.86 | X-H torsion
[ 10167 10162 10161 10158 ] final  162.67 input  -65.29 | X-H torsion
[ 10718 10713 10712 10709 ] final  133.14 input   66.30 | X-H torsion
[ 10763 10752 10751 10750 ] final  108.44 input  -60.55 | X-H torsion
[ 11005 11000 10999 10996 ] final  147.14 input  -57.11 | X-H torsion

> <Gold.Protein.ActiveResidues>
 VAL166  LYS551  ARG553  GLY616  TRP617  ASP618  TYR619  PRO620  LYS621  CYS622 
 ASP623  PHE694  ASN695  SER759  ASP760  ASP761  ALA762  ILE779  LEU786  VAL792 
 PHE793  MET794  SER795  GLU796  ALA797  LYS798  CYS799  TRP800  GLU811  SER814 

> <Gold.Protein.RotatedAtoms>
  151.6417  135.1012  160.0142 H   0  0  0  0  0  0  0  0  0  0  0  0  # atno 6907 bound_to 6896
  152.4050  133.6871  159.6357 H   0  0  0  0  0  0  0  0  0  0  0  0  # atno 6908 bound_to 6896
  150.7946  133.8641  159.3281 H   0  0  0  0  0  0  0  0  0  0  0  0  # atno 6909 bound_to 6896
  144.8401  140.5887  143.5458 H   0  0  0  0  0  0  0  0  0  0  0  0  # atno 7974 bound_to 7965
  154.4366  140.1866  156.0969 H   0  0  0  0  0  0  0  0  0  0  0  0  # atno 8008 bound_to 7997
  156.0322  140.3329  155.7126 H   0  0  0  0  0  0  0  0  0  0  0  0  # atno 8009 bound_to 7997
  155.5822  140.0623  157.2771 H   0  0  0  0  0  0  0  0  0  0  0  0  # atno 8010 bound_to 7997
  139.4863  144.4414  151.8947 H   0  0  0  0  0  0  0  0  0  0  0  0  # atno 10167 bound_to 10162
  157.4803  131.1085  150.9691 H   0  0  0  0  0  0  0  0  0  0  0  0  # atno 10718 bound_to 10713
  153.4207  135.3812  155.2109 H   0  0  0  0  0  0  0  0  0  0  0  0  # atno 10763 bound_to 10752
  154.8744  135.3816  154.4387 H   0  0  0  0  0  0  0  0  0  0  0  0  # atno 10764 bound_to 10752
  153.4907  135.7088  153.5948 H   0  0  0  0  0  0  0  0  0  0  0  0  # atno 10765 bound_to 10752
  140.0851  134.9074  157.1563 H   0  0  0  0  0  0  0  0  0  0  0  0  # atno 11005 bound_to 11000
  145.4713  139.1503  143.3813 LP  0  0  0  0  0  0  0  0  0  0  0  0  # atno 17320 bound_to 7965
  146.2694  140.4846  142.8820 LP  0  0  0  0  0  0  0  0  0  0  0  0  # atno 17321 bound_to 7965
  140.3866  144.2668  150.5903 LP  0  0  0  0  0  0  0  0  0  0  0  0  # atno 17342 bound_to 10162
  140.5184  143.2272  151.8427 LP  0  0  0  0  0  0  0  0  0  0  0  0  # atno 17343 bound_to 10162
  157.0426  130.5755  149.5358 LP  0  0  0  0  0  0  0  0  0  0  0  0  # atno 17370 bound_to 10713
  156.0118  130.5210  150.8011 LP  0  0  0  0  0  0  0  0  0  0  0  0  # atno 17371 bound_to 10713
  140.3432  134.2681  155.7209 LP  0  0  0  0  0  0  0  0  0  0  0  0  # atno 17394 bound_to 11000
  141.2060  133.7845  157.0203 LP  0  0  0  0  0  0  0  0  0  0  0  0  # atno 17395 bound_to 11000

$$$$
