AV-unprocessed.smi:2119|AV-procd|sdf|8633|dock10
  -GOLD-   2272011383D 1   1.00000     0.00000
 Structure written by MMmdl.
 47 49  0  0  0  0  0  0  0  0  1 V2000
  148.3199  132.8588  154.7190 O   0  0  0  0  0  0  0  0  0  0  0  0
  148.3492  133.7802  153.9040 C   0  0  0  0  0  0  0  0  0  0  0  0
  149.0049  134.9306  154.1090 N   0  0  0  0  0  0  0  0  0  0  0  0
  149.7268  135.2857  155.3256 C   0  0  0  0  0  0  0  0  0  0  0  0
  149.2969  136.6711  155.8841 C   0  0  1  0  0  0  0  0  0  0  0  0
  148.7399  136.5756  157.3357 C   0  0  1  0  0  0  0  0  0  0  0  0
  148.2302  135.1939  157.7161 C   0  0  0  0  0  0  0  0  0  0  0  0
  148.1838  135.2747  159.2355 C   0  0  0  0  0  0  0  0  0  0  0  0
  149.3115  136.0614  159.5922 O   0  0  0  0  0  0  0  0  0  0  0  0
  149.7549  136.8114  158.4647 C   0  0  0  0  0  0  0  0  0  0  0  0
  150.3462  137.7004  155.7722 N   0  0  0  0  0  0  0  0  0  0  0  0
  149.8614  139.0677  155.9407 C   0  0  0  0  0  0  0  0  0  0  0  0
  151.0220  140.0769  155.9639 C   0  0  0  0  0  0  0  0  0  0  0  0
  151.7927  139.9449  154.7731 O   0  0  0  0  0  0  0  0  0  0  0  0
  152.3228  138.6339  154.6010 C   0  0  0  0  0  0  0  0  0  0  0  0
  151.1754  137.6097  154.5711 C   0  0  0  0  0  0  0  0  0  0  0  0
  147.7517  133.7742  152.7003 N   0  0  0  0  0  0  0  0  0  0  0  0
  146.9118  132.7790  152.1312 C   0  0  0  0  0  0  0  0  0  0  0  0
  146.3861  133.0168  150.8445 C   0  0  0  0  0  0  0  0  0  0  0  0
  145.5334  132.0594  150.2631 C   0  0  0  0  0  0  0  0  0  0  0  0
  145.2308  130.8979  150.9993 C   0  0  0  0  0  0  0  0  0  0  0  0
  145.7135  130.6597  152.2368 N   0  0  0  0  0  0  0  0  0  0  0  0
  146.5321  131.5818  152.7883 C   0  0  0  0  0  0  0  0  0  0  0  0
  148.9847  135.6247  153.3764 H   0  0  0  0  0  0  0  0  0  0  0  0
  149.5886  134.5224  156.0929 H   0  0  0  0  0  0  0  0  0  0  0  0
  150.7844  135.2726  155.0669 H   0  0  0  0  0  0  0  0  0  0  0  0
  148.4653  137.0141  155.2667 H   0  0  0  0  0  0  0  0  0  0  0  0
  147.9224  137.2865  157.4646 H   0  0  0  0  0  0  0  0  0  0  0  0
  147.2572  134.9597  157.2826 H   0  0  0  0  0  0  0  0  0  0  0  0
  148.9379  134.4250  157.4026 H   0  0  0  0  0  0  0  0  0  0  0  0
  147.2785  135.7882  159.5622 H   0  0  0  0  0  0  0  0  0  0  0  0
  148.2114  134.2944  159.7111 H   0  0  0  0  0  0  0  0  0  0  0  0
  150.7440  136.4463  158.1859 H   0  0  0  0  0  0  0  0  0  0  0  0
  149.8444  137.8664  158.7241 H   0  0  0  0  0  0  0  0  0  0  0  0
  149.1852  139.3363  155.1298 H   0  0  0  0  0  0  0  0  0  0  0  0
  149.2924  139.1502  156.8673 H   0  0  0  0  0  0  0  0  0  0  0  0
  150.6375  141.0947  156.0293 H   0  0  0  0  0  0  0  0  0  0  0  0
  151.6574  139.9166  156.8363 H   0  0  0  0  0  0  0  0  0  0  0  0
  152.8890  138.5963  153.6705 H   0  0  0  0  0  0  0  0  0  0  0  0
  153.0196  138.4073  155.4094 H   0  0  0  0  0  0  0  0  0  0  0  0
  151.5970  136.6102  154.4711 H   0  0  0  0  0  0  0  0  0  0  0  0
  150.5685  137.7858  153.6823 H   0  0  0  0  0  0  0  0  0  0  0  0
  147.9417  134.5684  152.1069 H   0  0  0  0  0  0  0  0  0  0  0  0
  146.6332  133.9200  150.3057 H   0  0  0  0  0  0  0  0  0  0  0  0
  145.1199  132.2123  149.2772 H   0  0  0  0  0  0  0  0  0  0  0  0
  144.5795  130.1425  150.5852 H   0  0  0  0  0  0  0  0  0  0  0  0
  146.8619  131.3468  153.7879 H   0  0  0  0  0  0  0  0  0  0  0  0
  1  2  2  0  0  0  0
  2  3  1  0  0  0  0
  2 17  1  0  0  0  0
  3  4  1  0  0  0  0
  3 24  1  0  0  0  0
  4  5  1  0  0  0  0
  4 25  1  0  0  0  0
  4 26  1  0  0  0  0
  5  6  1  0  0  0  0
  5 11  1  0  0  0  0
  5 27  1  0  0  0  0
  6 10  1  0  0  0  0
  6  7  1  0  0  0  0
  6 28  1  0  0  0  0
  7  8  1  0  0  0  0
  7 29  1  0  0  0  0
  7 30  1  0  0  0  0
  8  9  1  0  0  0  0
  8 31  1  0  0  0  0
  8 32  1  0  0  0  0
  9 10  1  0  0  0  0
 10 33  1  0  0  0  0
 10 34  1  0  0  0  0
 11 16  1  0  0  0  0
 11 12  1  0  0  0  0
 12 13  1  0  0  0  0
 12 35  1  0  0  0  0
 12 36  1  0  0  0  0
 13 14  1  0  0  0  0
 13 37  1  0  0  0  0
 13 38  1  0  0  0  0
 14 15  1  0  0  0  0
 15 16  1  0  0  0  0
 15 39  1  0  0  0  0
 15 40  1  0  0  0  0
 16 41  1  0  0  0  0
 16 42  1  0  0  0  0
 17 18  1  0  0  0  0
 17 43  1  0  0  0  0
 18 23  1  0  0  0  0
 18 19  2  0  0  0  0
 19 20  1  0  0  0  0
 19 44  1  0  0  0  0
 20 21  2  0  0  0  0
 20 45  1  0  0  0  0
 21 22  1  0  0  0  0
 21 46  1  0  0  0  0
 22 23  2  0  0  0  0
 23 47  1  0  0  0  0
M  END
> <s_m_source_file>
AV-unprocessed.smi

> <i_m_source_file_index>
2119

> <i_lp_mmshare_version>
43012

> <i_f3d_flags>
0

> <s_epik_input>
W2NIXTFuW2NIXVtjSF1bY0hdYzFbTkhdQyg9TylbTkhdW0NIMl1bQ0BIXShbQ0BASF0yW0NIMl1bQ0gyXU9bQ0gyXTIpTjNbQ0gyXVtDSDJdT1tDSDJdW0NIMl0z

> <s_epik_cmdline>
J2VwaWtfcHl0aG9uJywgJy1waCcsICc3LjAnLCAnLXRuJywgJzgnLCAnLW1hJywgJzIwMCcsICctbWV0YWxfYmluZGluZycsICctaW1hZScsICc8aW5maWxlLm1hZT4nLCAnLW9tYWUnLCAnPG91dGZpbGUubWFlPic=

> <r_epik_Ionization_Penalty>
0.129787

> <r_epik_Ionization_Penalty_Charging>
0

> <r_epik_Ionization_Penalty_Neutral>
0.129787

> <r_epik_State_Penalty>
0.121311

> <r_epik_Charging_Adjusted_Penalty>
0.121311

> <i_epik_Tot_Q>
0

> <i_epik_Tot_abs_Q>
0

> <r_epik_Metal_State_Penalty>
0.117931

> <b_epik_Metal_Only>
0

> <s_lp_Force_Field>
OPLS_2005

> <r_lp_Energy>
52.557

> <b_lp_Chiralities_Consistent>
1

> <s_lp_Variant>
AV-unprocessed.smi:2119-4

> <Gold.Version>
5.8.1

> <Gold.Id.Protein>
6NUR|6NUR_protein|mol2

> <Gold.PLP.Fitness>
42.1652

> <Gold.PLP.PLP>
-33.8206

> <Gold.PLP.part.hbond>
-3.7595

> <Gold.PLP.part.metal>
0.0000

> <Gold.PLP.part.buried>
-5.6081

> <Gold.PLP.part.nonpolar>
-24.7029

> <Gold.PLP.part.repulsive>
0.3357

> <Gold.PLP.ligand.clash>
0.0000

> <Gold.PLP.ligand.torsion>
1.8351

> <Gold.PLP.Chemscore.Hbond>
3.9360

> <Gold.PLP.Chemscore.CHOScore>
0.0000

> <Gold.PLP.Chemscore.Metal>
0.0000

> <Gold.Chemscore.Hbonds>
donor molecule, donor type, donor heavy atom, donor atom, acceptor molecule, acceptor atom, score
      L1  H     3    24       P1  7948  1.00
      L1  H    17    43       P1  7948  0.94
      P1  H  6896  6909       L1     9  0.95
      P1  H  7989  7998       L1    14  0.99

> <Gold.PLP.Chemscore.Internal.Correction>
0.2067

> <Gold.Rescore>
     Score         DG    S(hbond)    S(metal)    S(lipo)     H(rot)  DE(clash)    DE(int)     intcor
     16.27     -19.20       2.49        0.00      82.23       1.65       0.08       2.84       ----

> <Gold.Chemscore.Fitness>
16.2739

> <Gold.Chemscore.DG>
-19.1967

> <Gold.Chemscore.ZeroCoef>
-5.4800

> <Gold.Chemscore.Hbond>
2.4917

> <Gold.Chemscore.Metal>
0.0000

> <Gold.Chemscore.Lipo>
82.2274

> <Gold.Chemscore.Internal_Hbond>
0.0000

> <Gold.Chemscore.DEClash>
0.0802

> <Gold.Chemscore.DEInternal>
2.8427

> <Gold.Chemscore.Rot>
1.6508

> <Gold.Chemscore.Internal.Correction>
   9.000000E+99

> <Gold.Chemscore.Hbonds>
donor molecule, donor type, donor heavy atom, donor atom, acceptor molecule, acceptor atom, score
      L1  H     3    24       P1  7948  0.76
      L1  H    17    43       P1  7948  0.28
      P1  H  6896  6909       L1     9  0.06
      P1  H  7989  7998       L1    14  0.87

> <Gold.Chemscore.Hbond.Weighted>
-8.3223

> <Gold.Chemscore.Metal.Weighted>
-0.0000

> <Gold.Chemscore.Lipo.Weighted>
-9.6206

> <Gold.Chemscore.Internal_Hbond.Weighted>
0.0000

> <Gold.Chemscore.DEClash.Weighted>
0.0802

> <Gold.Chemscore.DEInternal.Weighted>
2.8427

> <Gold.Chemscore.Rot.Weighted>
4.2262

> <Gold.Chemscore.Internal.Correction.Weighted>
   9.000000E+99

> <Gold.Protein.RotatedTorsions>
[ 6907 6896 6895 6894 ] final   56.93 input  -60.11 | X-H torsion
[ 7974 7965 7964 7962 ] final   -8.84 input  175.53 | X-H torsion
[ 8008 7997 7996 7995 ] final  -62.80 input   59.86 | X-H torsion
[ 10167 10162 10161 10158 ] final  -66.32 input  -65.29 | X-H torsion
[ 10718 10713 10712 10709 ] final -114.54 input   66.30 | X-H torsion
[ 10763 10752 10751 10750 ] final   32.58 input  -60.55 | X-H torsion
[ 11005 11000 10999 10996 ] final   24.38 input  -57.11 | X-H torsion

> <Gold.Protein.ActiveResidues>
 VAL166  LYS551  ARG553  GLY616  TRP617  ASP618  TYR619  PRO620  LYS621  CYS622 
 ASP623  PHE694  ASN695  SER759  ASP760  ASP761  ALA762  ILE779  LEU786  VAL792 
 PHE793  MET794  SER795  GLU796  ALA797  LYS798  CYS799  TRP800  GLU811  SER814 

> <Gold.Protein.RotatedAtoms>
  152.3683  134.6771  160.0184 H   0  0  0  0  0  0  0  0  0  0  0  0  # atno 6907 bound_to 6896
  151.7072  133.3306  159.3289 H   0  0  0  0  0  0  0  0  0  0  0  0  # atno 6908 bound_to 6896
  150.7655  134.6499  159.6327 H   0  0  0  0  0  0  0  0  0  0  0  0  # atno 6909 bound_to 6896
  146.2269  140.2528  142.8348 H   0  0  0  0  0  0  0  0  0  0  0  0  # atno 7974 bound_to 7965
  154.4519  140.0988  156.6644 H   0  0  0  0  0  0  0  0  0  0  0  0  # atno 8008 bound_to 7997
  155.5258  140.3480  155.4397 H   0  0  0  0  0  0  0  0  0  0  0  0  # atno 8009 bound_to 7997
  156.0699  140.1347  156.9830 H   0  0  0  0  0  0  0  0  0  0  0  0  # atno 8010 bound_to 7997
  140.5665  143.2315  151.6624 H   0  0  0  0  0  0  0  0  0  0  0  0  # atno 10167 bound_to 10162
  156.0836  130.6032  150.8788 H   0  0  0  0  0  0  0  0  0  0  0  0  # atno 10718 bound_to 10713
  153.0255  135.6409  154.1377 H   0  0  0  0  0  0  0  0  0  0  0  0  # atno 10763 bound_to 10752
  154.1107  135.2853  155.3233 H   0  0  0  0  0  0  0  0  0  0  0  0  # atno 10764 bound_to 10752
  154.6334  135.5485  153.7768 H   0  0  0  0  0  0  0  0  0  0  0  0  # atno 10765 bound_to 10752
  140.3593  134.2143  155.7673 H   0  0  0  0  0  0  0  0  0  0  0  0  # atno 11005 bound_to 11000
  144.9399  140.8066  143.5637 LP  0  0  0  0  0  0  0  0  0  0  0  0  # atno 17320 bound_to 7965
  145.2479  139.2044  143.4958 LP  0  0  0  0  0  0  0  0  0  0  0  0  # atno 17321 bound_to 7965
  139.5096  144.3572  152.0596 LP  0  0  0  0  0  0  0  0  0  0  0  0  # atno 17342 bound_to 10162
  140.2705  144.3969  150.6153 LP  0  0  0  0  0  0  0  0  0  0  0  0  # atno 17343 bound_to 10162
  157.5963  131.0943  150.9036 LP  0  0  0  0  0  0  0  0  0  0  0  0  # atno 17370 bound_to 10713
  156.9202  130.5312  149.5279 LP  0  0  0  0  0  0  0  0  0  0  0  0  # atno 17371 bound_to 10713
  141.1989  133.8025  157.0562 LP  0  0  0  0  0  0  0  0  0  0  0  0  # atno 17394 bound_to 11000
  140.0639  134.9739  157.1353 LP  0  0  0  0  0  0  0  0  0  0  0  0  # atno 17395 bound_to 11000

$$$$
