AV-unprocessed.smi:1603|AV-procd|sdf|6446|dock2
  -GOLD-   22720 7 93D 1   1.00000     0.00000
 Structure written by MMmdl.
 44 46  0  0  0  0  0  0  0  0  1 V2000
  152.9946  138.8940  158.9392 O   0  0  0  0  0  0  0  0  0  0  0  0
  152.8771  140.1148  159.0531 C   0  0  0  0  0  0  0  0  0  0  0  0
  151.9899  140.9279  158.2073 C   0  0  0  0  0  0  0  0  0  0  0  0
  151.1630  140.2128  157.1421 C   0  0  0  0  0  0  0  0  0  0  0  0
  150.4313  141.0692  156.4275 F   0  0  0  0  0  0  0  0  0  0  0  0
  151.9573  139.5519  156.2990 F   0  0  0  0  0  0  0  0  0  0  0  0
  150.3303  139.3361  157.7046 F   0  0  0  0  0  0  0  0  0  0  0  0
  151.9218  142.2695  158.3876 C   0  0  0  0  0  0  0  0  0  0  0  0
  152.7196  142.9116  159.4127 C   0  0  0  0  0  0  0  0  0  0  0  0
  152.6992  144.3931  159.6584 C   0  0  0  0  0  0  0  0  0  0  0  0
  151.4433  145.1188  160.0845 C   0  0  0  0  0  0  0  0  0  0  0  0
  152.0179  145.3474  158.7057 C   0  0  0  0  0  0  0  0  0  0  0  0
  153.4908  142.1951  160.1590 N   0  0  0  0  0  0  0  0  0  0  0  0
  153.5750  140.8279  159.9860 N   0  0  0  0  0  0  0  0  0  0  0  0
  154.5161  140.1712  160.9023 C   0  0  0  0  0  0  0  0  0  0  0  0
  155.4977  139.2375  160.1575 C   0  0  1  0  0  0  0  0  0  0  0  0
  156.4845  140.0532  159.5543 O   0  0  0  0  0  0  0  0  0  0  0  0
  156.2115  138.2630  161.1213 C   0  0  0  0  0  0  0  0  0  0  0  0
  155.5260  138.0275  162.3929 N   0  0  0  0  0  0  0  0  0  0  0  0
  154.2798  137.2809  162.2340 C   0  0  0  0  0  0  0  0  0  0  0  0
  153.5896  137.0184  163.5841 C   0  0  0  0  0  0  0  0  0  0  0  0
  154.4850  136.3376  164.4575 O   0  0  0  0  0  0  0  0  0  0  0  0
  155.6921  137.0600  164.6762 C   0  0  0  0  0  0  0  0  0  0  0  0
  156.3893  137.3148  163.3288 C   0  0  0  0  0  0  0  0  0  0  0  0
  151.2756  142.8833  157.7779 H   0  0  0  0  0  0  0  0  0  0  0  0
  153.6349  144.7225  160.1063 H   0  0  0  0  0  0  0  0  0  0  0  0
  150.5155  144.5530  160.1477 H   0  0  0  0  0  0  0  0  0  0  0  0
  151.5497  145.9201  160.8127 H   0  0  0  0  0  0  0  0  0  0  0  0
  152.5067  146.3011  158.5162 H   0  0  0  0  0  0  0  0  0  0  0  0
  151.4752  144.9259  157.8614 H   0  0  0  0  0  0  0  0  0  0  0  0
  155.0636  140.9079  161.4942 H   0  0  0  0  0  0  0  0  0  0  0  0
  153.9401  139.6014  161.6336 H   0  0  0  0  0  0  0  0  0  0  0  0
  154.9685  138.6710  159.3898 H   0  0  0  0  0  0  0  0  0  0  0  0
  156.2642  140.9585  159.7124 H   0  0  0  0  0  0  0  0  0  0  0  0
  156.4287  137.3174  160.6216 H   0  0  0  0  0  0  0  0  0  0  0  0
  157.1866  138.6906  161.3574 H   0  0  0  0  0  0  0  0  0  0  0  0
  153.5903  137.8300  161.5932 H   0  0  0  0  0  0  0  0  0  0  0  0
  154.4791  136.3293  161.7385 H   0  0  0  0  0  0  0  0  0  0  0  0
  153.2673  137.9554  164.0412 H   0  0  0  0  0  0  0  0  0  0  0  0
  152.6977  136.4081  163.4415 H   0  0  0  0  0  0  0  0  0  0  0  0
  155.4749  138.0013  165.1837 H   0  0  0  0  0  0  0  0  0  0  0  0
  156.3395  136.4816  165.3356 H   0  0  0  0  0  0  0  0  0  0  0  0
  156.6959  136.3610  162.8963 H   0  0  0  0  0  0  0  0  0  0  0  0
  157.3021  137.8867  163.5008 H   0  0  0  0  0  0  0  0  0  0  0  0
  1  2  2  0  0  0  0
  2 14  1  0  0  0  0
  2  3  1  0  0  0  0
  3  4  1  0  0  0  0
  3  8  2  0  0  0  0
  4  5  1  0  0  0  0
  4  6  1  0  0  0  0
  4  7  1  0  0  0  0
  8  9  1  0  0  0  0
  8 25  1  0  0  0  0
  9 10  1  0  0  0  0
  9 13  2  0  0  0  0
 10 12  1  0  0  0  0
 10 11  1  0  0  0  0
 10 26  1  0  0  0  0
 11 12  1  0  0  0  0
 11 27  1  0  0  0  0
 11 28  1  0  0  0  0
 12 29  1  0  0  0  0
 12 30  1  0  0  0  0
 13 14  1  0  0  0  0
 14 15  1  0  0  0  0
 15 16  1  0  0  0  0
 15 31  1  0  0  0  0
 15 32  1  0  0  0  0
 16 17  1  0  0  0  0
 16 18  1  0  0  0  0
 16 33  1  0  0  0  0
 17 34  1  0  0  0  0
 18 19  1  0  0  0  0
 18 35  1  0  0  0  0
 18 36  1  0  0  0  0
 19 24  1  0  0  0  0
 19 20  1  0  0  0  0
 20 21  1  0  0  0  0
 20 37  1  0  0  0  0
 20 38  1  0  0  0  0
 21 22  1  0  0  0  0
 21 39  1  0  0  0  0
 21 40  1  0  0  0  0
 22 23  1  0  0  0  0
 23 24  1  0  0  0  0
 23 41  1  0  0  0  0
 23 42  1  0  0  0  0
 24 43  1  0  0  0  0
 24 44  1  0  0  0  0
M  END
> <s_m_source_file>
AV-unprocessed.smi

> <i_m_source_file_index>
1603

> <i_lp_mmshare_version>
43012

> <i_f3d_flags>
0

> <s_epik_input>
Tz1jMWMoQyhGKShGKUYpW2NIXWMoW0NIXTJbQ0gyXVtDSDJdMilubjFbQ0gyXVtDQEhdKFtPSF0pW0NIMl1OM1tDSDJdW0NIMl1PW0NIMl1bQ0gyXTM=

> <s_epik_cmdline>
J2VwaWtfcHl0aG9uJywgJy1waCcsICc3LjAnLCAnLXRuJywgJzgnLCAnLW1hJywgJzIwMCcsICctbWV0YWxfYmluZGluZycsICctaW1hZScsICc8aW5maWxlLm1hZT4nLCAnLW9tYWUnLCAnPG91dGZpbGUubWFlPic=

> <r_lp_tautomer_probability>
1

> <r_epik_Ionization_Penalty>
0.450313

> <r_epik_Ionization_Penalty_Charging>
7.22079e-10

> <r_epik_Ionization_Penalty_Neutral>
0.450313

> <r_epik_State_Penalty>
0.45306

> <r_epik_Charging_Adjusted_Penalty>
0.45306

> <i_epik_Tot_Q>
0

> <i_epik_Tot_abs_Q>
0

> <r_epik_Metal_State_Penalty>
0.45306

> <b_epik_Metal_Only>
0

> <s_lp_Force_Field>
OPLS_2005

> <r_lp_Energy>
51.835

> <b_lp_Chiralities_Consistent>
1

> <s_lp_Variant>
AV-unprocessed.smi:1603-4

> <Gold.Version>
5.8.1

> <Gold.Id.Protein>
6NUR|6NUR_protein|mol2

> <Gold.PLP.Fitness>
43.4436

> <Gold.PLP.PLP>
-45.0847

> <Gold.PLP.part.hbond>
0.0000

> <Gold.PLP.part.metal>
0.0000

> <Gold.PLP.part.buried>
-6.8106

> <Gold.PLP.part.nonpolar>
-37.1390

> <Gold.PLP.part.repulsive>
0.0833

> <Gold.PLP.ligand.clash>
0.3864

> <Gold.PLP.ligand.torsion>
0.9407

> <Gold.PLP.Chemscore.Hbond>
0.0000

> <Gold.PLP.Chemscore.CHOScore>
0.0000

> <Gold.PLP.Chemscore.Metal>
0.0000

> <Gold.PLP.Chemscore.Internal.Correction>
0.6268

> <Gold.Rescore>
     Score         DG    S(hbond)    S(metal)    S(lipo)     H(rot)  DE(clash)    DE(int)     intcor
      8.74     -12.90       0.00        0.00     116.53       2.43       0.15       4.01       ----

> <Gold.Chemscore.Fitness>
8.7449

> <Gold.Chemscore.DG>
-12.9002

> <Gold.Chemscore.ZeroCoef>
-5.4800

> <Gold.Chemscore.Hbond>
0.0000

> <Gold.Chemscore.Metal>
0.0000

> <Gold.Chemscore.Lipo>
116.5274

> <Gold.Chemscore.Internal_Hbond>
0.0000

> <Gold.Chemscore.DEClash>
0.1450

> <Gold.Chemscore.DEInternal>
4.0103

> <Gold.Chemscore.Rot>
2.4272

> <Gold.Chemscore.Internal.Correction>
   9.000000E+99

> <Gold.Chemscore.Hbond.Weighted>
-0.0000

> <Gold.Chemscore.Metal.Weighted>
-0.0000

> <Gold.Chemscore.Lipo.Weighted>
-13.6337

> <Gold.Chemscore.Internal_Hbond.Weighted>
0.0000

> <Gold.Chemscore.DEClash.Weighted>
0.1450

> <Gold.Chemscore.DEInternal.Weighted>
4.0103

> <Gold.Chemscore.Rot.Weighted>
6.2135

> <Gold.Chemscore.Internal.Correction.Weighted>
   9.000000E+99

> <Gold.Protein.RotatedTorsions>
[ 6907 6896 6895 6894 ] final    9.99 input  -60.11 | X-H torsion
[ 7974 7965 7964 7962 ] final  -25.64 input  175.53 | X-H torsion
[ 8008 7997 7996 7995 ] final  -55.76 input   59.86 | X-H torsion
[ 10167 10162 10161 10158 ] final  -85.54 input  -65.29 | X-H torsion
[ 10718 10713 10712 10709 ] final -161.29 input   66.30 | X-H torsion
[ 10763 10752 10751 10750 ] final  177.79 input  -60.55 | X-H torsion
[ 11005 11000 10999 10996 ] final  137.66 input  -57.11 | X-H torsion

> <Gold.Protein.ActiveResidues>
 VAL166  LYS551  ARG553  GLY616  TRP617  ASP618  TYR619  PRO620  LYS621  CYS622 
 ASP623  PHE694  ASN695  SER759  ASP760  ASP761  ALA762  ILE779  LEU786  VAL792 
 PHE793  MET794  SER795  GLU796  ALA797  LYS798  CYS799  TRP800  GLU811  SER814 

> <Gold.Protein.RotatedAtoms>
  151.7310  135.0875  160.0299 H   0  0  0  0  0  0  0  0  0  0  0  0  # atno 6907 bound_to 6896
  152.3541  133.6211  159.5975 H   0  0  0  0  0  0  0  0  0  0  0  0  # atno 6908 bound_to 6896
  150.7559  133.9444  159.3507 H   0  0  0  0  0  0  0  0  0  0  0  0  # atno 6909 bound_to 6896
  146.1478  140.4913  142.8624 H   0  0  0  0  0  0  0  0  0  0  0  0  # atno 7974 bound_to 7965
  154.4206  140.1145  156.5528 H   0  0  0  0  0  0  0  0  0  0  0  0  # atno 8008 bound_to 7997
  155.6392  140.3496  155.4690 H   0  0  0  0  0  0  0  0  0  0  0  0  # atno 8009 bound_to 7997
  155.9884  140.1174  157.0651 H   0  0  0  0  0  0  0  0  0  0  0  0  # atno 8010 bound_to 7997
  140.4028  143.2655  151.9120 H   0  0  0  0  0  0  0  0  0  0  0  0  # atno 10167 bound_to 10162
  156.5941  130.8783  151.2897 H   0  0  0  0  0  0  0  0  0  0  0  0  # atno 10718 bound_to 10713
  154.4991  135.2782  155.1435 H   0  0  0  0  0  0  0  0  0  0  0  0  # atno 10763 bound_to 10752
  154.3076  135.6235  153.5455 H   0  0  0  0  0  0  0  0  0  0  0  0  # atno 10764 bound_to 10752
  152.9899  135.5712  154.5429 H   0  0  0  0  0  0  0  0  0  0  0  0  # atno 10765 bound_to 10752
  140.0130  134.9431  157.0317 H   0  0  0  0  0  0  0  0  0  0  0  0  # atno 11005 bound_to 11000
  144.7867  140.5951  143.6569 LP  0  0  0  0  0  0  0  0  0  0  0  0  # atno 17320 bound_to 7965
  145.4896  139.1489  143.3717 LP  0  0  0  0  0  0  0  0  0  0  0  0  # atno 17321 bound_to 7965
  139.4784  144.5616  151.8229 LP  0  0  0  0  0  0  0  0  0  0  0  0  # atno 17342 bound_to 10162
  140.4722  144.1571  150.5919 LP  0  0  0  0  0  0  0  0  0  0  0  0  # atno 17343 bound_to 10162
  157.7296  130.9673  150.1795 LP  0  0  0  0  0  0  0  0  0  0  0  0  # atno 17370 bound_to 10713
  156.2524  130.3702  149.8218 LP  0  0  0  0  0  0  0  0  0  0  0  0  # atno 17371 bound_to 10713
  140.4521  134.1571  155.7182 LP  0  0  0  0  0  0  0  0  0  0  0  0  # atno 17394 bound_to 11000
  141.1723  133.8583  157.1530 LP  0  0  0  0  0  0  0  0  0  0  0  0  # atno 17395 bound_to 11000

$$$$
