AV-unprocessed.smi:1204|AV-procd|sdf|5037|dock5
  -GOLD-   22720 4 63D 1   1.00000     0.00000
 Structure written by MMmdl.
 27 28  0  0  0  0  0  0  0  0  1 V2000
  151.0890  140.2303  158.5369 O   0  0  0  0  0  0  0  0  0  0  0  0
  151.6299  140.9305  157.6799 C   0  0  0  0  0  0  0  0  0  0  0  0
  152.1062  142.1704  157.9043 N   0  0  0  0  0  0  0  0  0  0  0  0
  152.1176  142.9070  159.1183 C   0  0  0  0  0  0  0  0  0  0  0  0
  152.4200  142.1510  160.2735 C   0  0  0  0  0  0  0  0  0  0  0  0
  152.4577  142.7885  161.5288 C   0  0  0  0  0  0  0  0  0  0  0  0
  152.1918  144.1676  161.5967 C   0  0  0  0  0  0  0  0  0  0  0  0
  151.8991  144.8461  160.3992 C   0  0  0  0  0  0  0  0  0  0  0  0
  151.8624  144.2371  159.1951 N   0  0  0  0  0  0  0  0  0  0  0  0
  151.7677  140.4101  156.2407 C   0  0  2  0  0  0  0  0  0  0  0  0
  150.4044  140.0925  155.5830 C   0  0  0  0  0  0  0  0  0  0  0  0
  150.6205  139.5851  154.2723 O   0  0  0  0  0  0  0  0  0  0  0  0
  151.4028  138.3996  154.2975 C   0  0  0  0  0  0  0  0  0  0  0  0
  152.7639  138.7144  154.9387 C   0  0  0  0  0  0  0  0  0  0  0  0
  152.5517  139.2186  156.2504 O   0  0  0  0  0  0  0  0  0  0  0  0
  152.5187  142.6354  157.1088 H   0  0  0  0  0  0  0  0  0  0  0  0
  152.6219  141.0919  160.2031 H   0  0  0  0  0  0  0  0  0  0  0  0
  152.6870  142.2282  162.4231 H   0  0  0  0  0  0  0  0  0  0  0  0
  152.2113  144.6917  162.5408 H   0  0  0  0  0  0  0  0  0  0  0  0
  151.6894  145.9054  160.4077 H   0  0  0  0  0  0  0  0  0  0  0  0
  152.2861  141.1769  155.6623 H   0  0  0  0  0  0  0  0  0  0  0  0
  149.8380  139.3702  156.1740 H   0  0  0  0  0  0  0  0  0  0  0  0
  149.7939  140.9926  155.5035 H   0  0  0  0  0  0  0  0  0  0  0  0
  150.8831  137.6154  154.8503 H   0  0  0  0  0  0  0  0  0  0  0  0
  151.5378  138.0398  153.2775 H   0  0  0  0  0  0  0  0  0  0  0  0
  153.3730  137.8125  154.9985 H   0  0  0  0  0  0  0  0  0  0  0  0
  153.3186  139.4390  154.3404 H   0  0  0  0  0  0  0  0  0  0  0  0
  1  2  2  0  0  0  0
  2  3  1  0  0  0  0
  2 10  1  0  0  0  0
  3  4  1  0  0  0  0
  3 16  1  0  0  0  0
  4  9  1  0  0  0  0
  4  5  2  0  0  0  0
  5  6  1  0  0  0  0
  5 17  1  0  0  0  0
  6  7  2  0  0  0  0
  6 18  1  0  0  0  0
  7  8  1  0  0  0  0
  7 19  1  0  0  0  0
  8  9  2  0  0  0  0
  8 20  1  0  0  0  0
 10 15  1  0  0  0  0
 10 11  1  0  0  0  0
 10 21  1  0  0  0  0
 11 12  1  0  0  0  0
 11 22  1  0  0  0  0
 11 23  1  0  0  0  0
 12 13  1  0  0  0  0
 13 14  1  0  0  0  0
 13 24  1  0  0  0  0
 13 25  1  0  0  0  0
 14 15  1  0  0  0  0
 14 26  1  0  0  0  0
 14 27  1  0  0  0  0
M  END
> <s_m_source_file>
AV-unprocessed.smi

> <i_m_source_file_index>
1204

> <i_lp_mmshare_version>
43012

> <i_f3d_flags>
0

> <s_epik_input>
TzFbQ0gyXVtDSDJdT1tDSDJdW0NASF0xQyg9TylbTkhdYzJbY0hdW2NIXVtjSF1bY0hdbjI=

> <s_epik_cmdline>
J2VwaWtfcHl0aG9uJywgJy1waCcsICc3LjAnLCAnLXRuJywgJzgnLCAnLW1hJywgJzIwMCcsICctbWV0YWxfYmluZGluZycsICctaW1hZScsICc8aW5maWxlLm1hZT4nLCAnLW9tYWUnLCAnPG91dGZpbGUubWFlPic=

> <r_epik_Ionization_Penalty>
0.0014012

> <r_epik_Ionization_Penalty_Charging>
0

> <r_epik_Ionization_Penalty_Neutral>
0.0014012

> <r_epik_State_Penalty>
0.00242437

> <r_epik_Charging_Adjusted_Penalty>
0.00242437

> <i_epik_Tot_Q>
0

> <i_epik_Tot_abs_Q>
0

> <r_epik_Metal_State_Penalty>
-0

> <b_epik_Metal_Only>
0

> <s_lp_Force_Field>
OPLS_2005

> <r_lp_Energy>
11.5524

> <b_lp_Chiralities_Consistent>
1

> <s_lp_Variant>
AV-unprocessed.smi:1204-1

> <Gold.Version>
5.8.1

> <Gold.Id.Protein>
6NUR|6NUR_protein|mol2

> <Gold.PLP.Fitness>
39.8423

> <Gold.PLP.PLP>
-34.4578

> <Gold.PLP.part.hbond>
-2.0000

> <Gold.PLP.part.metal>
0.0000

> <Gold.PLP.part.buried>
-4.1740

> <Gold.PLP.part.nonpolar>
-28.2840

> <Gold.PLP.part.repulsive>
0.2509

> <Gold.PLP.ligand.clash>
0.0000

> <Gold.PLP.ligand.torsion>
0.3087

> <Gold.PLP.Chemscore.Hbond>
2.0000

> <Gold.PLP.Chemscore.CHOScore>
0.0000

> <Gold.PLP.Chemscore.Metal>
0.0000

> <Gold.Chemscore.Hbonds>
donor molecule, donor type, donor heavy atom, donor atom, acceptor molecule, acceptor atom, score
      P1  H  7989  7998       L1    12  1.00
      P1  H  7997  8008       L1    15  0.85

> <Gold.PLP.Chemscore.Internal.Correction>
0.0018

> <Gold.Rescore>
     Score         DG    S(hbond)    S(metal)    S(lipo)     H(rot)  DE(clash)    DE(int)     intcor
     11.46     -13.23       0.42        0.00      76.26       1.00       0.20       1.57       ----

> <Gold.Chemscore.Fitness>
11.4602

> <Gold.Chemscore.DG>
-13.2319

> <Gold.Chemscore.ZeroCoef>
-5.4800

> <Gold.Chemscore.Hbond>
0.4160

> <Gold.Chemscore.Metal>
0.0000

> <Gold.Chemscore.Lipo>
76.2597

> <Gold.Chemscore.Internal_Hbond>
0.0000

> <Gold.Chemscore.DEClash>
0.2041

> <Gold.Chemscore.DEInternal>
1.5676

> <Gold.Chemscore.Rot>
1.0000

> <Gold.Chemscore.Internal.Correction>
   9.000000E+99

> <Gold.Chemscore.Hbonds>
donor molecule, donor type, donor heavy atom, donor atom, acceptor molecule, acceptor atom, score
      P1  H  7989  7998       L1    12  0.27
      P1  H  7997  8008       L1    15  0.04

> <Gold.Chemscore.Hbond.Weighted>
-1.3895

> <Gold.Chemscore.Metal.Weighted>
-0.0000

> <Gold.Chemscore.Lipo.Weighted>
-8.9224

> <Gold.Chemscore.Internal_Hbond.Weighted>
0.0000

> <Gold.Chemscore.DEClash.Weighted>
0.2041

> <Gold.Chemscore.DEInternal.Weighted>
1.5676

> <Gold.Chemscore.Rot.Weighted>
2.5600

> <Gold.Chemscore.Internal.Correction.Weighted>
   9.000000E+99

> <Gold.Protein.RotatedTorsions>
[ 6907 6896 6895 6894 ] final  -14.44 input  -60.11 | X-H torsion
[ 7974 7965 7964 7962 ] final  177.09 input  175.53 | X-H torsion
[ 8008 7997 7996 7995 ] final  -60.78 input   59.86 | X-H torsion
[ 10167 10162 10161 10158 ] final   87.36 input  -65.29 | X-H torsion
[ 10718 10713 10712 10709 ] final -119.35 input   66.30 | X-H torsion
[ 10763 10752 10751 10750 ] final -111.98 input  -60.55 | X-H torsion
[ 11005 11000 10999 10996 ] final  121.92 input  -57.11 | X-H torsion

> <Gold.Protein.ActiveResidues>
 VAL166  LYS551  ARG553  GLY616  TRP617  ASP618  TYR619  PRO620  LYS621  CYS622 
 ASP623  PHE694  ASN695  SER759  ASP760  ASP761  ALA762  ILE779  LEU786  VAL792 
 PHE793  MET794  SER795  GLU796  ALA797  LYS798  CYS799  TRP800  GLU811  SER814 

> <Gold.Protein.RotatedAtoms>
  151.3394  135.0860  159.9365 H   0  0  0  0  0  0  0  0  0  0  0  0  # atno 6907 bound_to 6896
  152.5215  133.9463  159.7661 H   0  0  0  0  0  0  0  0  0  0  0  0  # atno 6908 bound_to 6896
  150.9817  133.6186  159.2751 H   0  0  0  0  0  0  0  0  0  0  0  0  # atno 6909 bound_to 6896
  144.7174  140.0195  143.6440 H   0  0  0  0  0  0  0  0  0  0  0  0  # atno 7974 bound_to 7965
  154.4415  140.1032  156.6327 H   0  0  0  0  0  0  0  0  0  0  0  0  # atno 8008 bound_to 7997
  155.5587  140.3487  155.4467 H   0  0  0  0  0  0  0  0  0  0  0  0  # atno 8009 bound_to 7997
  156.0476  140.1296  157.0076 H   0  0  0  0  0  0  0  0  0  0  0  0  # atno 8010 bound_to 7997
  139.8782  144.6455  150.8873 H   0  0  0  0  0  0  0  0  0  0  0  0  # atno 10167 bound_to 10162
  156.1175  130.6297  150.9406 H   0  0  0  0  0  0  0  0  0  0  0  0  # atno 10718 bound_to 10713
  154.8327  135.4507  154.1123 H   0  0  0  0  0  0  0  0  0  0  0  0  # atno 10763 bound_to 10752
  153.2382  135.6913  153.7819 H   0  0  0  0  0  0  0  0  0  0  0  0  # atno 10764 bound_to 10752
  153.7176  135.3346  155.3236 H   0  0  0  0  0  0  0  0  0  0  0  0  # atno 10765 bound_to 10752
  139.9246  134.9640  156.8032 H   0  0  0  0  0  0  0  0  0  0  0  0  # atno 11005 bound_to 11000
  146.0192  139.3236  143.0823 LP  0  0  0  0  0  0  0  0  0  0  0  0  # atno 17320 bound_to 7965
  145.8589  140.9487  143.0711 LP  0  0  0  0  0  0  0  0  0  0  0  0  # atno 17321 bound_to 7965
  140.7749  143.3608  151.1833 LP  0  0  0  0  0  0  0  0  0  0  0  0  # atno 17342 bound_to 10162
  139.7221  143.9207  152.2989 LP  0  0  0  0  0  0  0  0  0  0  0  0  # atno 17343 bound_to 10162
  157.6358  131.0916  150.8351 LP  0  0  0  0  0  0  0  0  0  0  0  0  # atno 17370 bound_to 10713
  156.8452  130.5062  149.5317 LP  0  0  0  0  0  0  0  0  0  0  0  0  # atno 17371 bound_to 10713
  140.6373  133.9851  155.7690 LP  0  0  0  0  0  0  0  0  0  0  0  0  # atno 17394 bound_to 11000
  141.0794  134.0085  157.3408 LP  0  0  0  0  0  0  0  0  0  0  0  0  # atno 17395 bound_to 11000

$$$$
