AV-unprocessed.smi:2510|AV-procd|sdf|9871|dock3
  -GOLD-   2272013503D 1   1.00000     0.00000
 Structure written by MMmdl.
 48 49  0  0  0  0  0  0  0  0  1 V2000
  149.5090  139.0745  157.6096 C   0  0  0  0  0  0  0  0  0  0  0  0
  150.7099  138.8670  156.6758 C   0  0  0  0  0  0  0  0  0  0  0  0
  150.3688  138.6492  155.1849 C   0  0  0  0  0  0  0  0  0  0  0  0
  151.6533  138.1289  154.4679 C   0  0  0  0  0  0  0  0  0  0  0  0
  152.9608  138.8765  154.7833 C   0  0  0  0  0  0  0  0  0  0  0  0
  149.0673  137.8265  154.9567 C   0  0  2  0  0  0  0  0  0  0  0  0
  149.2690  136.4205  154.6241 N   0  0  0  0  0  0  0  0  0  0  0  0
  149.3167  135.4288  155.5255 C   0  0  0  0  0  0  0  0  0  0  0  0
  149.1239  135.5971  156.7295 O   0  0  0  0  0  0  0  0  0  0  0  0
  149.6566  134.0378  154.9906 C   0  0  0  0  0  0  0  0  0  0  0  0
  148.7769  133.7188  153.8111 C   0  0  0  0  0  0  0  0  0  0  0  0
  147.4593  134.1961  153.5419 C   0  0  0  0  0  0  0  0  0  0  0  0
  147.1277  133.6214  152.3475 C   0  0  0  0  0  0  0  0  0  0  0  0
  145.8969  133.7212  151.5124 C   0  0  0  0  0  0  0  0  0  0  0  0
  148.2063  132.8505  151.9802 N   0  0  0  0  0  0  0  0  0  0  0  0
  149.2181  132.9002  152.8660 N   0  0  0  0  0  0  0  0  0  0  0  0
  148.7695  138.7013  153.7345 C   0  0  1  0  0  0  0  0  0  0  0  0
  147.3257  138.9462  153.3145 C   0  0  0  0  0  0  0  0  0  0  0  0
  149.5798  139.7875  154.4701 C   0  0  1  0  0  0  0  0  0  0  0  0
  148.7868  140.5382  155.3857 O   0  0  0  0  0  0  0  0  0  0  0  0
  148.0053  141.5410  154.7587 C   0  0  0  0  0  0  0  0  0  0  0  0
  148.2654  132.2938  151.1392 H   0  0  0  0  0  0  0  0  0  0  0  0
  149.8270  139.0399  158.6515 H   0  0  0  0  0  0  0  0  0  0  0  0
  148.7529  138.3016  157.4705 H   0  0  0  0  0  0  0  0  0  0  0  0
  149.0431  140.0466  157.4543 H   0  0  0  0  0  0  0  0  0  0  0  0
  151.3971  139.7059  156.7894 H   0  0  0  0  0  0  0  0  0  0  0  0
  151.2674  138.0078  157.0501 H   0  0  0  0  0  0  0  0  0  0  0  0
  151.8017  137.0691  154.6786 H   0  0  0  0  0  0  0  0  0  0  0  0
  151.5438  138.1740  153.3854 H   0  0  0  0  0  0  0  0  0  0  0  0
  153.8132  138.3385  154.3682 H   0  0  0  0  0  0  0  0  0  0  0  0
  153.1357  138.9920  155.8507 H   0  0  0  0  0  0  0  0  0  0  0  0
  152.9676  139.8702  154.3360 H   0  0  0  0  0  0  0  0  0  0  0  0
  148.3240  137.9809  155.7433 H   0  0  0  0  0  0  0  0  0  0  0  0
  149.4337  136.1955  153.6538 H   0  0  0  0  0  0  0  0  0  0  0  0
  150.7115  134.0080  154.7139 H   0  0  0  0  0  0  0  0  0  0  0  0
  149.5217  133.2947  155.7775 H   0  0  0  0  0  0  0  0  0  0  0  0
  146.8547  134.8676  154.1333 H   0  0  0  0  0  0  0  0  0  0  0  0
  145.2798  134.5627  151.8278 H   0  0  0  0  0  0  0  0  0  0  0  0
  145.2987  132.8136  151.5957 H   0  0  0  0  0  0  0  0  0  0  0  0
  146.1498  133.8657  150.4616 H   0  0  0  0  0  0  0  0  0  0  0  0
  149.3502  138.3548  152.8769 H   0  0  0  0  0  0  0  0  0  0  0  0
  146.7137  139.2772  154.1538 H   0  0  0  0  0  0  0  0  0  0  0  0
  146.8735  138.0360  152.9205 H   0  0  0  0  0  0  0  0  0  0  0  0
  147.2639  139.7072  152.5368 H   0  0  0  0  0  0  0  0  0  0  0  0
  150.1815  140.4203  153.8183 H   0  0  0  0  0  0  0  0  0  0  0  0
  147.3942  142.0481  155.5052 H   0  0  0  0  0  0  0  0  0  0  0  0
  147.3377  141.1209  154.0066 H   0  0  0  0  0  0  0  0  0  0  0  0
  148.6407  142.2882  154.2819 H   0  0  0  0  0  0  0  0  0  0  0  0
  1  2  1  0  0  0  0
  1 23  1  0  0  0  0
  1 24  1  0  0  0  0
  1 25  1  0  0  0  0
  2  3  1  0  0  0  0
  2 26  1  0  0  0  0
  2 27  1  0  0  0  0
  3 19  1  0  0  0  0
  3  4  1  0  0  0  0
  3  6  1  0  0  0  0
  4  5  1  0  0  0  0
  4 28  1  0  0  0  0
  4 29  1  0  0  0  0
  5 30  1  0  0  0  0
  5 31  1  0  0  0  0
  5 32  1  0  0  0  0
  6  7  1  0  0  0  0
  6 17  1  0  0  0  0
  6 33  1  0  0  0  0
  7  8  1  0  0  0  0
  7 34  1  0  0  0  0
  8  9  2  0  0  0  0
  8 10  1  0  0  0  0
 10 11  1  0  0  0  0
 10 35  1  0  0  0  0
 10 36  1  0  0  0  0
 11 16  2  0  0  0  0
 11 12  1  0  0  0  0
 12 13  2  0  0  0  0
 12 37  1  0  0  0  0
 13 14  1  0  0  0  0
 13 15  1  0  0  0  0
 14 38  1  0  0  0  0
 14 39  1  0  0  0  0
 14 40  1  0  0  0  0
 15 22  1  0  0  0  0
 15 16  1  0  0  0  0
 17 18  1  0  0  0  0
 17 19  1  0  0  0  0
 17 41  1  0  0  0  0
 18 42  1  0  0  0  0
 18 43  1  0  0  0  0
 18 44  1  0  0  0  0
 19 20  1  0  0  0  0
 19 45  1  0  0  0  0
 20 21  1  0  0  0  0
 21 46  1  0  0  0  0
 21 47  1  0  0  0  0
 21 48  1  0  0  0  0
M  END
> <s_m_source_file>
AV-unprocessed.smi

> <i_m_source_file_index>
2510

> <i_lp_mmshare_version>
43012

> <i_f3d_flags>
0

> <s_epik_input>
W0NIM11PW0NAQEhdMVtDQEhdKFtDSDNdKVtDQEBIXShDMShbQ0gyXVtDSDNdKVtDSDJdW0NIM10pW05IXUMoPU8pW0NIMl1jMltjSF1jKFtDSDNdKVtuSF1uMg==

> <s_epik_cmdline>
J2VwaWtfcHl0aG9uJywgJy1waCcsICc3LjAnLCAnLXRuJywgJzgnLCAnLW1hJywgJzIwMCcsICctbWV0YWxfYmluZGluZycsICctaW1hZScsICc8aW5maWxlLm1hZT4nLCAnLW9tYWUnLCAnPG91dGZpbGUubWFlPic=

> <r_lp_tautomer_probability>
0.5

> <r_epik_Ionization_Penalty>
9.73156e-05

> <r_epik_Ionization_Penalty_Charging>
0

> <r_epik_Ionization_Penalty_Neutral>
9.73156e-05

> <r_epik_State_Penalty>
0.41068

> <r_epik_Charging_Adjusted_Penalty>
0.41068

> <i_epik_Tot_Q>
0

> <i_epik_Tot_abs_Q>
0

> <r_epik_Metal_State_Penalty>
0.410699

> <b_epik_Metal_Only>
0

> <s_lp_Force_Field>
OPLS_2005

> <r_lp_Energy>
28.8176

> <b_lp_Chiralities_Consistent>
1

> <s_lp_Variant>
AV-unprocessed.smi:2510-2

> <Gold.Version>
5.8.1

> <Gold.Id.Protein>
6NUR|6NUR_protein|mol2

> <Gold.PLP.Fitness>
34.3847

> <Gold.PLP.PLP>
-30.1453

> <Gold.PLP.part.hbond>
-2.0000

> <Gold.PLP.part.metal>
0.0000

> <Gold.PLP.part.buried>
-1.6039

> <Gold.PLP.part.nonpolar>
-27.1041

> <Gold.PLP.part.repulsive>
0.3103

> <Gold.PLP.ligand.clash>
0.0000

> <Gold.PLP.ligand.torsion>
1.2062

> <Gold.PLP.Chemscore.Hbond>
1.9920

> <Gold.PLP.Chemscore.CHOScore>
0.0000

> <Gold.PLP.Chemscore.Metal>
0.0000

> <Gold.Chemscore.Hbonds>
donor molecule, donor type, donor heavy atom, donor atom, acceptor molecule, acceptor atom, score
      L1  H     7    34       P1  7948  1.00
      L1  H    15    22       P1 10747  0.96

> <Gold.PLP.Chemscore.Internal.Correction>
0.6757

> <Gold.Rescore>
     Score         DG    S(hbond)    S(metal)    S(lipo)     H(rot)  DE(clash)    DE(int)     intcor
     12.72     -17.15       1.84        0.00      86.73       1.81       1.67       2.76       ----

> <Gold.Chemscore.Fitness>
12.7191

> <Gold.Chemscore.DG>
-17.1508

> <Gold.Chemscore.ZeroCoef>
-5.4800

> <Gold.Chemscore.Hbond>
1.8435

> <Gold.Chemscore.Metal>
0.0000

> <Gold.Chemscore.Lipo>
86.7316

> <Gold.Chemscore.Internal_Hbond>
0.0000

> <Gold.Chemscore.DEClash>
1.6692

> <Gold.Chemscore.DEInternal>
2.7625

> <Gold.Chemscore.Rot>
1.8102

> <Gold.Chemscore.Internal.Correction>
   9.000000E+99

> <Gold.Chemscore.Hbonds>
donor molecule, donor type, donor heavy atom, donor atom, acceptor molecule, acceptor atom, score
      L1  H     7    34       P1  7948  0.68
      L1  H    15    22       P1 10747  0.92

> <Gold.Chemscore.Hbond.Weighted>
-6.1573

> <Gold.Chemscore.Metal.Weighted>
-0.0000

> <Gold.Chemscore.Lipo.Weighted>
-10.1476

> <Gold.Chemscore.Internal_Hbond.Weighted>
0.0000

> <Gold.Chemscore.DEClash.Weighted>
1.6692

> <Gold.Chemscore.DEInternal.Weighted>
2.7625

> <Gold.Chemscore.Rot.Weighted>
4.6341

> <Gold.Chemscore.Internal.Correction.Weighted>
   9.000000E+99

> <Gold.Protein.RotatedTorsions>
[ 6907 6896 6895 6894 ] final  -47.22 input  -60.11 | X-H torsion
[ 7974 7965 7964 7962 ] final   53.76 input  175.53 | X-H torsion
[ 8008 7997 7996 7995 ] final  150.14 input   59.86 | X-H torsion
[ 10167 10162 10161 10158 ] final  -64.13 input  -65.29 | X-H torsion
[ 10718 10713 10712 10709 ] final   65.06 input   66.30 | X-H torsion
[ 10763 10752 10751 10750 ] final   57.73 input  -60.55 | X-H torsion
[ 11005 11000 10999 10996 ] final   59.12 input  -57.11 | X-H torsion

> <Gold.Protein.ActiveResidues>
 VAL166  LYS551  ARG553  GLY616  TRP617  ASP618  TYR619  PRO620  LYS621  CYS622 
 ASP623  PHE694  ASN695  SER759  ASP760  ASP761  ALA762  ILE779  LEU786  VAL792 
 PHE793  MET794  SER795  GLU796  ALA797  LYS798  CYS799  TRP800  GLU811  SER814 

> <Gold.Protein.RotatedAtoms>
  150.9031  134.8444  159.7373 H   0  0  0  0  0  0  0  0  0  0  0  0  # atno 6907 bound_to 6896
  152.4903  134.4472  159.9572 H   0  0  0  0  0  0  0  0  0  0  0  0  # atno 6908 bound_to 6896
  151.4522  133.3575  159.2832 H   0  0  0  0  0  0  0  0  0  0  0  0  # atno 6909 bound_to 6896
  145.9679  139.4121  143.0208 H   0  0  0  0  0  0  0  0  0  0  0  0  # atno 7974 bound_to 7965
  156.2727  140.2083  156.5970 H   0  0  0  0  0  0  0  0  0  0  0  0  # atno 8008 bound_to 7997
  154.6937  140.0527  157.0412 H   0  0  0  0  0  0  0  0  0  0  0  0  # atno 8009 bound_to 7997
  155.0831  140.3188  155.4598 H   0  0  0  0  0  0  0  0  0  0  0  0  # atno 8010 bound_to 7997
  140.5822  143.2329  151.6318 H   0  0  0  0  0  0  0  0  0  0  0  0  # atno 10167 bound_to 10162
  157.6080  130.9193  149.9926 H   0  0  0  0  0  0  0  0  0  0  0  0  # atno 10718 bound_to 10713
  152.9856  135.5631  154.5438 H   0  0  0  0  0  0  0  0  0  0  0  0  # atno 10763 bound_to 10752
  154.4888  135.2792  155.1515 H   0  0  0  0  0  0  0  0  0  0  0  0  # atno 10764 bound_to 10752
  154.2993  135.6310  153.5471 H   0  0  0  0  0  0  0  0  0  0  0  0  # atno 10765 bound_to 10752
  140.0327  134.5988  155.9485 H   0  0  0  0  0  0  0  0  0  0  0  0  # atno 11005 bound_to 11000
  145.7948  140.9798  143.1030 LP  0  0  0  0  0  0  0  0  0  0  0  0  # atno 17320 bound_to 7965
  144.6830  139.9727  143.7482 LP  0  0  0  0  0  0  0  0  0  0  0  0  # atno 17321 bound_to 7965
  139.5176  144.3309  152.0827 LP  0  0  0  0  0  0  0  0  0  0  0  0  # atno 17342 bound_to 10162
  140.2461  144.4219  150.6240 LP  0  0  0  0  0  0  0  0  0  0  0  0  # atno 17343 bound_to 10162
  156.1173  130.3647  149.9946 LP  0  0  0  0  0  0  0  0  0  0  0  0  # atno 17370 bound_to 10713
  156.8033  130.9298  151.3645 LP  0  0  0  0  0  0  0  0  0  0  0  0  # atno 17371 bound_to 10713
  141.1840  133.6552  156.5140 LP  0  0  0  0  0  0  0  0  0  0  0  0  # atno 17394 bound_to 11000
  140.4198  134.7197  157.4883 LP  0  0  0  0  0  0  0  0  0  0  0  0  # atno 17395 bound_to 11000

$$$$
