AV-unprocessed.smi:3246|AV-procd|sdf|12411|dock3
  -GOLD-   2272018293D 1   1.00000     0.00000
 Structure written by MMmdl.
 36 37  0  0  0  0  0  0  0  0  2 V2000
  153.9640  139.1851  158.6335 O   0  0  0  0  0  0  0  0  0  0  0  0
  154.5753  139.2163  159.7012 C   0  0  0  0  0  0  0  0  0  0  0  0
  155.2207  137.9233  160.2268 C   0  0  0  0  0  0  0  0  0  0  0  0
  154.6897  137.4389  161.5037 N   0  0  0  0  0  0  0  0  0  0  0  0
  154.9422  138.1694  162.7351 C   0  0  0  0  0  0  0  0  0  0  0  0
  154.0570  137.4905  163.7899 C   0  0  0  0  0  0  0  0  0  0  0  0
  153.6037  136.1668  163.1647 C   0  0  0  0  0  0  0  0  0  0  0  0
  153.9696  136.3270  161.6992 C   0  0  0  0  0  0  0  0  0  0  0  0
  153.6245  135.5255  160.8325 O   0  0  0  0  0  0  0  0  0  0  0  0
  154.7075  140.3405  160.4263 N   0  0  0  0  0  0  0  0  0  0  0  0
  154.1552  141.6403  160.0662 C   0  0  0  0  0  0  0  0  0  0  0  0
  152.6357  141.5649  159.8462 C   0  0  0  0  0  0  0  0  0  0  0  0
  152.0541  142.8985  159.4202 C   0  0  0  0  0  0  0  0  0  0  0  0
  152.2643  144.0585  160.1983 C   0  0  0  0  0  0  0  0  0  0  0  0
  151.7071  145.2839  159.7766 C   0  0  0  0  0  0  0  0  0  0  0  0
  150.9520  145.3214  158.5862 C   0  0  0  0  0  0  0  0  0  0  0  0
  150.7709  144.1906  157.8688 N   0  3  0  0  0  0  0  0  0  0  0  0
  151.2876  142.9981  158.2387 C   0  0  0  0  0  0  0  0  0  0  0  0
  155.1095  137.1461  159.4690 H   0  0  0  0  0  0  0  0  0  0  0  0
  156.2931  138.0936  160.3295 H   0  0  0  0  0  0  0  0  0  0  0  0
  155.9979  138.0822  162.9956 H   0  0  0  0  0  0  0  0  0  0  0  0
  154.7024  139.2280  162.6261 H   0  0  0  0  0  0  0  0  0  0  0  0
  154.5929  137.3370  164.7272 H   0  0  0  0  0  0  0  0  0  0  0  0
  153.1883  138.1136  164.0072 H   0  0  0  0  0  0  0  0  0  0  0  0
  154.1485  135.3205  163.5843 H   0  0  0  0  0  0  0  0  0  0  0  0
  152.5346  135.9948  163.2927 H   0  0  0  0  0  0  0  0  0  0  0  0
  155.2210  140.2857  161.2942 H   0  0  0  0  0  0  0  0  0  0  0  0
  154.3958  142.3737  160.8381 H   0  0  0  0  0  0  0  0  0  0  0  0
  154.6482  141.9773  159.1540 H   0  0  0  0  0  0  0  0  0  0  0  0
  152.4042  140.8145  159.0890 H   0  0  0  0  0  0  0  0  0  0  0  0
  152.1355  141.2422  160.7605 H   0  0  0  0  0  0  0  0  0  0  0  0
  152.8446  144.0117  161.1085 H   0  0  0  0  0  0  0  0  0  0  0  0
  151.8573  146.1819  160.3580 H   0  0  0  0  0  0  0  0  0  0  0  0
  150.4904  146.2141  158.1899 H   0  0  0  0  0  0  0  0  0  0  0  0
  151.0727  142.1658  157.5837 H   0  0  0  0  0  0  0  0  0  0  0  0
  150.2205  144.2392  157.0107 H   0  0  0  0  0  0  0  0  0  0  0  0
  1  2  2  0  0  0  0
  2  3  1  0  0  0  0
  2 10  1  0  0  0  0
  3  4  1  0  0  0  0
  3 19  1  0  0  0  0
  3 20  1  0  0  0  0
  4  8  1  0  0  0  0
  4  5  1  0  0  0  0
  5  6  1  0  0  0  0
  5 21  1  0  0  0  0
  5 22  1  0  0  0  0
  6  7  1  0  0  0  0
  6 23  1  0  0  0  0
  6 24  1  0  0  0  0
  7  8  1  0  0  0  0
  7 25  1  0  0  0  0
  7 26  1  0  0  0  0
  8  9  2  0  0  0  0
 10 11  1  0  0  0  0
 10 27  1  0  0  0  0
 11 12  1  0  0  0  0
 11 28  1  0  0  0  0
 11 29  1  0  0  0  0
 12 13  1  0  0  0  0
 12 30  1  0  0  0  0
 12 31  1  0  0  0  0
 13 18  1  0  0  0  0
 13 14  2  0  0  0  0
 14 15  1  0  0  0  0
 14 32  1  0  0  0  0
 15 16  2  0  0  0  0
 15 33  1  0  0  0  0
 16 17  1  0  0  0  0
 16 34  1  0  0  0  0
 17 18  2  0  0  0  0
 17 36  1  0  0  0  0
 18 35  1  0  0  0  0
M  CHG  1  17   1
M  END
> <s_m_source_file>
AV-unprocessed.smi

> <i_m_source_file_index>
3246

> <i_lp_mmshare_version>
43012

> <i_f3d_flags>
0

> <s_epik_input>
Tz1DMVtDSDJdW0NIMl1bQ0gyXU4xW0NIMl1DKD1PKVtOSF1bQ0gyXVtDSDJdYzJbY0hdW2NIXVtjSF1uW2NIXTI=

> <s_epik_cmdline>
J2VwaWtfcHl0aG9uJywgJy1waCcsICc3LjAnLCAnLXRuJywgJzgnLCAnLW1hJywgJzIwMCcsICctbWV0YWxfYmluZGluZycsICctaW1hZScsICc8aW5maWxlLm1hZT4nLCAnLW9tYWUnLCAnPG91dGZpbGUubWFlPic=

> <r_epik_Ionization_Penalty>
2.27275

> <r_epik_Ionization_Penalty_Charging>
2.27275

> <r_epik_Ionization_Penalty_Neutral>
5.87859e-08

> <r_epik_State_Penalty>
2.42145

> <r_epik_Charging_Adjusted_Penalty>
4.69419

> <i_epik_Tot_Q>
1

> <i_epik_Tot_abs_Q>
1

> <r_epik_Metal_State_Penalty>
2.43419

> <b_epik_Metal_Only>
0

> <s_lp_Force_Field>
OPLS_2005

> <r_lp_Energy>
18.8936

> <b_lp_Chiralities_Consistent>
1

> <s_lp_Variant>
AV-unprocessed.smi:3246-2

> <Gold.Version>
5.8.1

> <Gold.Id.Protein>
6NUR|6NUR_protein|mol2

> <Gold.PLP.Fitness>
48.8987

> <Gold.PLP.PLP>
-37.1225

> <Gold.PLP.part.hbond>
-3.0000

> <Gold.PLP.part.metal>
0.0000

> <Gold.PLP.part.buried>
-4.5683

> <Gold.PLP.part.nonpolar>
-30.1151

> <Gold.PLP.part.repulsive>
0.0990

> <Gold.PLP.ligand.clash>
0.0000

> <Gold.PLP.ligand.torsion>
0.1198

> <Gold.PLP.Chemscore.Hbond>
4.0000

> <Gold.PLP.Chemscore.CHOScore>
0.0000

> <Gold.PLP.Chemscore.Metal>
0.0000

> <Gold.Chemscore.Hbonds>
donor molecule, donor type, donor heavy atom, donor atom, acceptor molecule, acceptor atom, score
      L1  H    17    36       P1  8028  2.00
      P1  H  6896  6909       L1     9  1.00
      P1  H  7997  8008       L1     1  1.00

> <Gold.PLP.Chemscore.Internal.Correction>
0.0158

> <Gold.Rescore>
     Score         DG    S(hbond)    S(metal)    S(lipo)     H(rot)  DE(clash)    DE(int)     intcor
     22.00     -22.42       2.89        0.00     105.10       1.96       0.18       0.24       ----

> <Gold.Chemscore.Fitness>
21.9993

> <Gold.Chemscore.DG>
-22.4181

> <Gold.Chemscore.ZeroCoef>
-5.4800

> <Gold.Chemscore.Hbond>
2.8903

> <Gold.Chemscore.Metal>
0.0000

> <Gold.Chemscore.Lipo>
105.0988

> <Gold.Chemscore.Internal_Hbond>
0.0000

> <Gold.Chemscore.DEClash>
0.1781

> <Gold.Chemscore.DEInternal>
0.2407

> <Gold.Chemscore.Rot>
1.9579

> <Gold.Chemscore.Internal.Correction>
   9.000000E+99

> <Gold.Chemscore.Hbonds>
donor molecule, donor type, donor heavy atom, donor atom, acceptor molecule, acceptor atom, score
      L1  H    17    36       P1  8028  0.87
      P1  H  6896  6909       L1     9  0.98
      P1  H  7997  8008       L1     1  0.59

> <Gold.Chemscore.Hbond.Weighted>
-9.6537

> <Gold.Chemscore.Metal.Weighted>
-0.0000

> <Gold.Chemscore.Lipo.Weighted>
-12.2966

> <Gold.Chemscore.Internal_Hbond.Weighted>
0.0000

> <Gold.Chemscore.DEClash.Weighted>
0.1781

> <Gold.Chemscore.DEInternal.Weighted>
0.2407

> <Gold.Chemscore.Rot.Weighted>
5.0121

> <Gold.Chemscore.Internal.Correction.Weighted>
   9.000000E+99

> <Gold.Protein.RotatedTorsions>
[ 6907 6896 6895 6894 ] final  172.72 input  -60.11 | X-H torsion
[ 7974 7965 7964 7962 ] final   11.11 input  175.53 | X-H torsion
[ 8008 7997 7996 7995 ] final -121.06 input   59.86 | X-H torsion
[ 10167 10162 10161 10158 ] final   -2.76 input  -65.29 | X-H torsion
[ 10718 10713 10712 10709 ] final -135.91 input   66.30 | X-H torsion
[ 10763 10752 10751 10750 ] final  -32.31 input  -60.55 | X-H torsion
[ 11005 11000 10999 10996 ] final    8.57 input  -57.11 | X-H torsion

> <Gold.Protein.ActiveResidues>
 VAL166  LYS551  ARG553  GLY616  TRP617  ASP618  TYR619  PRO620  LYS621  CYS622 
 ASP623  PHE694  ASN695  SER759  ASP760  ASP761  ALA762  ILE779  LEU786  VAL792 
 PHE793  MET794  SER795  GLU796  ALA797  LYS798  CYS799  TRP800  GLU811  SER814 

> <Gold.Protein.RotatedAtoms>
  151.7797  133.3348  159.3467 H   0  0  0  0  0  0  0  0  0  0  0  0  # atno 6907 bound_to 6896
  150.7431  134.5942  159.6012 H   0  0  0  0  0  0  0  0  0  0  0  0  # atno 6908 bound_to 6896
  152.3284  134.7292  160.0347 H   0  0  0  0  0  0  0  0  0  0  0  0  # atno 6909 bound_to 6896
  146.2377  139.9534  142.8467 H   0  0  0  0  0  0  0  0  0  0  0  0  # atno 7974 bound_to 7965
  155.1419  140.0402  157.2800 H   0  0  0  0  0  0  0  0  0  0  0  0  # atno 8008 bound_to 7997
  154.6466  140.2559  155.7234 H   0  0  0  0  0  0  0  0  0  0  0  0  # atno 8009 bound_to 7997
  156.2558  140.2845  156.0883 H   0  0  0  0  0  0  0  0  0  0  0  0  # atno 8010 bound_to 7997
  140.6863  143.6620  150.8259 H   0  0  0  0  0  0  0  0  0  0  0  0  # atno 10167 bound_to 10162
  156.2713  130.7267  151.1235 H   0  0  0  0  0  0  0  0  0  0  0  0  # atno 10718 bound_to 10713
  153.8117  135.6882  153.4840 H   0  0  0  0  0  0  0  0  0  0  0  0  # atno 10763 bound_to 10752
  153.1624  135.4574  154.9789 H   0  0  0  0  0  0  0  0  0  0  0  0  # atno 10764 bound_to 10752
  154.7965  135.3321  154.7597 H   0  0  0  0  0  0  0  0  0  0  0  0  # atno 10765 bound_to 10752
  140.5355  134.0425  155.7887 H   0  0  0  0  0  0  0  0  0  0  0  0  # atno 11005 bound_to 11000
  145.1839  140.9780  143.4250 LP  0  0  0  0  0  0  0  0  0  0  0  0  # atno 17320 bound_to 7965
  144.9917  139.3683  143.6211 LP  0  0  0  0  0  0  0  0  0  0  0  0  # atno 17321 bound_to 7965
  140.0327  143.5427  152.2753 LP  0  0  0  0  0  0  0  0  0  0  0  0  # atno 17342 bound_to 10162
  139.6225  144.7631  151.2709 LP  0  0  0  0  0  0  0  0  0  0  0  0  # atno 17343 bound_to 10162
  157.7284  131.0631  150.5819 LP  0  0  0  0  0  0  0  0  0  0  0  0  # atno 17370 bound_to 10713
  156.5916  130.4330  149.5934 LP  0  0  0  0  0  0  0  0  0  0  0  0  # atno 17371 bound_to 10713
  141.1257  133.9386  157.2639 LP  0  0  0  0  0  0  0  0  0  0  0  0  # atno 17394 bound_to 11000
  139.9532  135.0171  156.9053 LP  0  0  0  0  0  0  0  0  0  0  0  0  # atno 17395 bound_to 11000

$$$$
