AV-unprocessed.smi:283|AV-procd|sdf|2147|dock1
  -GOLD-   2262021483D 1   1.00000     0.00000
 Structure written by MMmdl.
 48 51  0  0  0  0  0  0  0  0  1 V2000
  151.6666  141.0545  156.7370 C   0  0  0  0  0  0  0  0  0  0  0  0
  150.5733  141.7019  157.5971 C   0  0  2  0  0  0  0  0  0  0  0  0
  149.4777  142.1615  156.7440 N   0  0  0  0  0  0  0  0  0  0  0  0
  148.3639  141.4089  156.6060 C   0  0  0  0  0  0  0  0  0  0  0  0
  147.2977  141.7874  157.3503 N   0  0  0  0  0  0  0  0  0  0  0  0
  146.1694  141.0730  157.3145 C   0  0  0  0  0  0  0  0  0  0  0  0
  145.9066  139.9634  156.6218 N   0  0  0  0  0  0  0  0  0  0  0  0
  146.9724  139.5825  155.8595 C   0  0  0  0  0  0  0  0  0  0  0  0
  148.2217  140.2597  155.7751 C   0  0  0  0  0  0  0  0  0  0  0  0
  149.0348  139.6090  154.8561 N   0  0  0  0  0  0  0  0  0  0  0  0
  148.3165  138.6010  154.4456 C   0  0  0  0  0  0  0  0  0  0  0  0
  147.0808  138.4745  155.0432 N   0  0  0  0  0  0  0  0  0  0  0  0
  146.0257  137.4341  154.8067 C   0  0  1  0  0  0  0  0  0  0  0  0
  145.0650  137.9720  153.9429 O   0  0  0  0  0  0  0  0  0  0  0  0
  145.2649  137.5051  152.6113 C   0  0  1  0  0  0  0  0  0  0  0  0
  146.2250  138.4491  151.8502 C   0  0  0  0  0  0  0  0  0  0  0  0
  146.4499  137.9849  150.5353 O   0  0  0  0  0  0  0  0  0  0  0  0
  145.7626  136.0724  152.8450 C   0  0  1  0  0  0  0  0  0  0  0  0
  146.5126  135.5625  151.7596 O   0  0  0  0  0  0  0  0  0  0  0  0
  146.6095  136.1864  154.1079 C   0  0  2  0  0  0  0  0  0  0  0  0
  146.4536  135.0237  154.8971 O   0  0  0  0  0  0  0  0  0  0  0  0
  151.1768  142.7800  158.5042 C   0  0  0  0  0  0  0  0  0  0  0  0
  150.7446  144.1218  158.3857 C   0  0  0  0  0  0  0  0  0  0  0  0
  151.2692  145.1229  159.2242 C   0  0  0  0  0  0  0  0  0  0  0  0
  152.2426  144.7957  160.1848 C   0  0  0  0  0  0  0  0  0  0  0  0
  152.6955  143.4687  160.2985 C   0  0  0  0  0  0  0  0  0  0  0  0
  152.1732  142.4617  159.4619 C   0  0  0  0  0  0  0  0  0  0  0  0
  152.7797  140.8521  159.6391 Cl  0  0  0  0  0  0  0  0  0  0  0  0
  145.6063  137.2486  155.7965 H   0  0  0  0  0  0  0  0  0  0  0  0
  144.2986  137.5005  152.1051 H   0  0  0  0  0  0  0  0  0  0  0  0
  144.8986  135.4289  153.0206 H   0  0  0  0  0  0  0  0  0  0  0  0
  147.6598  136.3444  153.8581 H   0  0  0  0  0  0  0  0  0  0  0  0
  152.4525  140.6272  157.3605 H   0  0  0  0  0  0  0  0  0  0  0  0
  152.1301  141.7813  156.0690 H   0  0  0  0  0  0  0  0  0  0  0  0
  151.2602  140.2493  156.1241 H   0  0  0  0  0  0  0  0  0  0  0  0
  150.1544  140.9108  158.2161 H   0  0  0  0  0  0  0  0  0  0  0  0
  149.4622  143.1585  156.5864 H   0  0  0  0  0  0  0  0  0  0  0  0
  145.3662  141.4351  157.9391 H   0  0  0  0  0  0  0  0  0  0  0  0
  148.6846  137.9119  153.7000 H   0  0  0  0  0  0  0  0  0  0  0  0
  145.7794  139.4396  151.7627 H   0  0  0  0  0  0  0  0  0  0  0  0
  147.1766  138.5678  152.3696 H   0  0  0  0  0  0  0  0  0  0  0  0
  145.7068  138.2230  150.0019 H   0  0  0  0  0  0  0  0  0  0  0  0
  147.4085  135.8489  151.8534 H   0  0  0  0  0  0  0  0  0  0  0  0
  145.8884  134.4216  154.4380 H   0  0  0  0  0  0  0  0  0  0  0  0
  149.9975  144.3904  157.6533 H   0  0  0  0  0  0  0  0  0  0  0  0
  150.9234  146.1417  159.1303 H   0  0  0  0  0  0  0  0  0  0  0  0
  152.6457  145.5625  160.8297 H   0  0  0  0  0  0  0  0  0  0  0  0
  153.4495  143.2226  161.0316 H   0  0  0  0  0  0  0  0  0  0  0  0
  1  2  1  0  0  0  0
  1 33  1  0  0  0  0
  1 34  1  0  0  0  0
  1 35  1  0  0  0  0
  2  3  1  0  0  0  0
  2 22  1  0  0  0  0
  2 36  1  0  0  0  0
  3  4  1  0  0  0  0
  3 37  1  0  0  0  0
  4  9  1  0  0  0  0
  4  5  2  0  0  0  0
  5  6  1  0  0  0  0
  6  7  2  0  0  0  0
  6 38  1  0  0  0  0
  7  8  1  0  0  0  0
  8 12  1  0  0  0  0
  8  9  2  0  0  0  0
  9 10  1  0  0  0  0
 10 11  2  0  0  0  0
 11 12  1  0  0  0  0
 11 39  1  0  0  0  0
 12 13  1  0  0  0  0
 13 29  1  0  0  0  0
 13 20  1  0  0  0  0
 13 14  1  0  0  0  0
 14 15  1  0  0  0  0
 15 30  1  0  0  0  0
 15 16  1  0  0  0  0
 15 18  1  0  0  0  0
 16 17  1  0  0  0  0
 16 40  1  0  0  0  0
 16 41  1  0  0  0  0
 17 42  1  0  0  0  0
 18 31  1  0  0  0  0
 18 19  1  0  0  0  0
 18 20  1  0  0  0  0
 19 43  1  0  0  0  0
 20 32  1  0  0  0  0
 20 21  1  0  0  0  0
 21 44  1  0  0  0  0
 22 27  1  0  0  0  0
 22 23  2  0  0  0  0
 23 24  1  0  0  0  0
 23 45  1  0  0  0  0
 24 25  2  0  0  0  0
 24 46  1  0  0  0  0
 25 26  1  0  0  0  0
 25 47  1  0  0  0  0
 26 27  2  0  0  0  0
 26 48  1  0  0  0  0
 27 28  1  0  0  0  0
M  END
> <s_m_source_file>
AV-unprocessed.smi

> <i_m_source_file_index>
283

> <i_lp_mmshare_version>
43012

> <i_f3d_flags>
0

> <s_epik_input>
Q2xjMVtjSF1bY0hdW2NIXVtjSF1jMVtDQEhdKFtDSDNdKVtOSF1jKG5bY0hdbjIpYyhjMjMpbltjSF1uM1tDQEBIXTRPW0NASF0oW0NIMl1bT0hdKVtDQEBIXShbT0hdKVtDQEhdNFtPSF0=

> <s_epik_cmdline>
J2VwaWtfcHl0aG9uJywgJy1waCcsICc3LjAnLCAnLXRuJywgJzgnLCAnLW1hJywgJzIwMCcsICctbWV0YWxfYmluZGluZycsICctaW1hZScsICc8aW5maWxlLm1hZT4nLCAnLW9tYWUnLCAnPG91dGZpbGUubWFlPic=

> <r_lp_tautomer_probability>
1

> <r_epik_Ionization_Penalty>
0.000266407

> <r_epik_Ionization_Penalty_Charging>
0

> <r_epik_Ionization_Penalty_Neutral>
0.000266407

> <r_epik_State_Penalty>
-0

> <r_epik_Charging_Adjusted_Penalty>
0

> <i_epik_Tot_Q>
0

> <i_epik_Tot_abs_Q>
0

> <r_epik_Metal_State_Penalty>
-0

> <b_epik_Metal_Only>
0

> <s_epik_Chemistry_Notes>
This compound contains an acetal/aminal-like group ( X-CH(R)-Y where X, Y are N, S, or O) that may be acid/base labile, releasing an aldehyde.

> <s_lp_Force_Field>
OPLS_2005

> <r_lp_Energy>
42.7281

> <b_lp_Chiralities_Consistent>
1

> <s_lp_Variant>
AV-unprocessed.smi:283-23

> <Gold.Version>
5.8.1

> <Gold.Id.Protein>
6NUR|6NUR_protein|mol2

> <Gold.PLP.Fitness>
51.5469

> <Gold.PLP.PLP>
-39.3299

> <Gold.PLP.part.hbond>
-4.5895

> <Gold.PLP.part.metal>
0.0000

> <Gold.PLP.part.buried>
-6.9598

> <Gold.PLP.part.nonpolar>
-29.4856

> <Gold.PLP.part.repulsive>
0.3809

> <Gold.PLP.ligand.clash>
0.0000

> <Gold.PLP.ligand.torsion>
1.4656

> <Gold.PLP.Chemscore.Hbond>
4.0000

> <Gold.PLP.Chemscore.CHOScore>
1.0000

> <Gold.PLP.Chemscore.Metal>
0.0000

> <Gold.Chemscore.Hbonds>
donor molecule, donor type, donor heavy atom, donor atom, acceptor molecule, acceptor atom, score
      L1  H     3    37       P1  8028  1.00
      L1  H    17    42       P1 10171  1.00
      L1  H    19    43       P1  7948  1.00
      P1  H  7954  7966       L1    17  0.93
      L1  C    11    39       P1  7948  1.00

> <Gold.PLP.Chemscore.Internal.Correction>
0.1482

> <Gold.Rescore>
     Score         DG    S(hbond)    S(metal)    S(lipo)     H(rot)  DE(clash)    DE(int)     intcor
     19.02     -20.44       3.88        0.00     106.88       4.10       0.04       1.39       ----

> <Gold.Chemscore.Fitness>
19.0178

> <Gold.Chemscore.DG>
-20.4403

> <Gold.Chemscore.ZeroCoef>
-5.4800

> <Gold.Chemscore.Hbond>
3.8750

> <Gold.Chemscore.Metal>
0.0000

> <Gold.Chemscore.Lipo>
106.8850

> <Gold.Chemscore.Internal_Hbond>
0.0000

> <Gold.Chemscore.DEClash>
0.0374

> <Gold.Chemscore.DEInternal>
1.3851

> <Gold.Chemscore.Rot>
4.0968

> <Gold.Chemscore.Internal.Correction>
   9.000000E+99

> <Gold.Chemscore.Hbonds>
donor molecule, donor type, donor heavy atom, donor atom, acceptor molecule, acceptor atom, score
      L1  H     3    37       P1  8028  0.97
      L1  H    17    42       P1 10171  0.96
      L1  H    19    43       P1  7948  0.96
      P1  H  7954  7966       L1    17  0.88

> <Gold.Chemscore.Hbond.Weighted>
-12.9427

> <Gold.Chemscore.Metal.Weighted>
-0.0000

> <Gold.Chemscore.Lipo.Weighted>
-12.5055

> <Gold.Chemscore.Internal_Hbond.Weighted>
0.0000

> <Gold.Chemscore.DEClash.Weighted>
0.0374

> <Gold.Chemscore.DEInternal.Weighted>
1.3851

> <Gold.Chemscore.Rot.Weighted>
10.4879

> <Gold.Chemscore.Internal.Correction.Weighted>
   9.000000E+99

> <Gold.Protein.RotatedTorsions>
[ 6907 6896 6895 6894 ] final -100.50 input  -60.11 | X-H torsion
[ 7974 7965 7964 7962 ] final  -95.40 input  175.53 | X-H torsion
[ 8008 7997 7996 7995 ] final   24.56 input   59.86 | X-H torsion
[ 10167 10162 10161 10158 ] final -140.55 input  -65.29 | X-H torsion
[ 10718 10713 10712 10709 ] final  -23.07 input   66.30 | X-H torsion
[ 10763 10752 10751 10750 ] final  115.57 input  -60.55 | X-H torsion
[ 11005 11000 10999 10996 ] final -106.98 input  -57.11 | X-H torsion

> <Gold.Protein.ActiveResidues>
 VAL166  LYS551  ARG553  GLY616  TRP617  ASP618  TYR619  PRO620  LYS621  CYS622 
 ASP623  PHE694  ASN695  SER759  ASP760  ASP761  ALA762  ILE779  LEU786  VAL792 
 PHE793  MET794  SER795  GLU796  ALA797  LYS798  CYS799  TRP800  GLU811  SER814 

> <Gold.Protein.RotatedAtoms>
  150.7118  134.0878  159.3920 H   0  0  0  0  0  0  0  0  0  0  0  0  # atno 6907 bound_to 6896
  151.8863  135.0432  160.0503 H   0  0  0  0  0  0  0  0  0  0  0  0  # atno 6908 bound_to 6896
  152.2528  133.5194  159.5372 H   0  0  0  0  0  0  0  0  0  0  0  0  # atno 6909 bound_to 6896
  145.3606  140.9491  143.2503 H   0  0  0  0  0  0  0  0  0  0  0  0  # atno 7974 bound_to 7965
  154.9981  140.3122  155.4878 H   0  0  0  0  0  0  0  0  0  0  0  0  # atno 8008 bound_to 7997
  156.2929  140.2237  156.5030 H   0  0  0  0  0  0  0  0  0  0  0  0  # atno 8009 bound_to 7997
  154.7643  140.0457  157.0987 H   0  0  0  0  0  0  0  0  0  0  0  0  # atno 8010 bound_to 7997
  139.8271  143.7496  152.2666 H   0  0  0  0  0  0  0  0  0  0  0  0  # atno 10167 bound_to 10162
  156.4959  130.4577  149.6728 H   0  0  0  0  0  0  0  0  0  0  0  0  # atno 10718 bound_to 10713
  153.5241  135.3592  155.2645 H   0  0  0  0  0  0  0  0  0  0  0  0  # atno 10763 bound_to 10752
  154.8732  135.4052  154.3226 H   0  0  0  0  0  0  0  0  0  0  0  0  # atno 10764 bound_to 10752
  153.3902  135.7071  153.6567 H   0  0  0  0  0  0  0  0  0  0  0  0  # atno 10765 bound_to 10752
  141.0977  133.8940  157.1921 H   0  0  0  0  0  0  0  0  0  0  0  0  # atno 11005 bound_to 11000
  144.8649  139.5122  143.6795 LP  0  0  0  0  0  0  0  0  0  0  0  0  # atno 17320 bound_to 7965
  146.2929  139.7192  142.9148 LP  0  0  0  0  0  0  0  0  0  0  0  0  # atno 17321 bound_to 7965
  139.7692  144.7482  151.0249 LP  0  0  0  0  0  0  0  0  0  0  0  0  # atno 17342 bound_to 10162
  140.7809  143.4663  151.0207 LP  0  0  0  0  0  0  0  0  0  0  0  0  # atno 17343 bound_to 10162
  156.3380  130.7367  151.2307 LP  0  0  0  0  0  0  0  0  0  0  0  0  # atno 17370 bound_to 10713
  157.7468  131.0411  150.4632 LP  0  0  0  0  0  0  0  0  0  0  0  0  # atno 17371 bound_to 10713
  139.9819  135.0095  156.9770 LP  0  0  0  0  0  0  0  0  0  0  0  0  # atno 17394 bound_to 11000
  140.5099  134.1013  155.7268 LP  0  0  0  0  0  0  0  0  0  0  0  0  # atno 17395 bound_to 11000

$$$$
