AV-unprocessed.smi:1430|AV-procd|sdf|5827|dock8
  -GOLD-   22720 5483D 1   1.00000     0.00000
 Structure written by MMmdl.
 47 48  0  0  0  0  0  0  0  0  2 V2000
  152.5972  143.2284  162.2411 C   0  0  0  0  0  0  0  0  0  0  0  0
  152.0851  144.0585  161.2049 O   0  0  0  0  0  0  0  0  0  0  0  0
  151.8487  143.4930  159.9686 C   0  0  0  0  0  0  0  0  0  0  0  0
  151.9304  144.3130  158.8259 C   0  0  0  0  0  0  0  0  0  0  0  0
  151.6908  143.7447  157.5602 C   0  0  0  0  0  0  0  0  0  0  0  0
  151.3830  142.3656  157.4760 C   0  0  0  0  0  0  0  0  0  0  0  0
  151.1032  141.6768  156.2644 N   0  0  0  0  0  0  0  0  0  0  0  0
  150.4619  140.5086  156.0922 C   0  0  0  0  0  0  0  0  0  0  0  0
  149.9538  139.8339  156.9864 O   0  0  0  0  0  0  0  0  0  0  0  0
  150.4345  140.1567  154.7989 N   0  0  0  0  0  0  0  0  0  0  0  0
  149.8093  138.9482  154.2637 C   0  0  0  0  0  0  0  0  0  0  0  0
  150.5616  137.6479  154.6270 C   0  0  0  0  0  0  0  0  0  0  0  0
  149.7253  136.4296  154.4844 N   0  3  1  0  0  0  0  0  0  0  0  0
  150.4754  135.1804  154.7427 C   0  0  0  0  0  0  0  0  0  0  0  0
  149.5909  133.9581  154.4384 C   0  0  1  0  0  0  0  0  0  0  0  0
  150.2963  132.6402  154.7763 C   0  0  0  0  0  0  0  0  0  0  0  0
  148.3963  134.0301  155.2135 O   0  0  0  0  0  0  0  0  0  0  0  0
  147.6217  135.2145  155.0201 C   0  0  2  0  0  0  0  0  0  0  0  0
  146.9255  135.2401  153.6475 C   0  0  0  0  0  0  0  0  0  0  0  0
  148.4829  136.4630  155.2916 C   0  0  0  0  0  0  0  0  0  0  0  0
  151.3129  141.6358  158.6809 C   0  0  0  0  0  0  0  0  0  0  0  0
  151.5414  142.1743  159.8970 N   0  0  0  0  0  0  0  0  0  0  0  0
  152.7273  143.8208  163.1468 H   0  0  0  0  0  0  0  0  0  0  0  0
  153.5702  142.8131  161.9751 H   0  0  0  0  0  0  0  0  0  0  0  0
  151.9110  142.4134  162.4756 H   0  0  0  0  0  0  0  0  0  0  0  0
  152.1694  145.3621  158.9190 H   0  0  0  0  0  0  0  0  0  0  0  0
  151.7346  144.3799  156.6896 H   0  0  0  0  0  0  0  0  0  0  0  0
  151.3900  142.1550  155.4226 H   0  0  0  0  0  0  0  0  0  0  0  0
  150.8641  140.7792  154.1299 H   0  0  0  0  0  0  0  0  0  0  0  0
  148.7732  138.8890  154.6004 H   0  0  0  0  0  0  0  0  0  0  0  0
  149.7667  139.0568  153.1799 H   0  0  0  0  0  0  0  0  0  0  0  0
  151.4216  137.5582  153.9622 H   0  0  0  0  0  0  0  0  0  0  0  0
  150.9683  137.7102  155.6374 H   0  0  0  0  0  0  0  0  0  0  0  0
  151.3676  135.1495  154.1156 H   0  0  0  0  0  0  0  0  0  0  0  0
  150.8111  135.1627  155.7810 H   0  0  0  0  0  0  0  0  0  0  0  0
  149.3400  133.9435  153.3773 H   0  0  0  0  0  0  0  0  0  0  0  0
  151.2177  132.5297  154.2037 H   0  0  0  0  0  0  0  0  0  0  0  0
  149.6589  131.7861  154.5457 H   0  0  0  0  0  0  0  0  0  0  0  0
  150.5521  132.5886  155.8350 H   0  0  0  0  0  0  0  0  0  0  0  0
  146.8330  135.1856  155.7726 H   0  0  0  0  0  0  0  0  0  0  0  0
  146.2404  136.0854  153.5785 H   0  0  0  0  0  0  0  0  0  0  0  0
  146.3431  134.3321  153.4904 H   0  0  0  0  0  0  0  0  0  0  0  0
  147.6335  135.3312  152.8240 H   0  0  0  0  0  0  0  0  0  0  0  0
  148.7463  136.5063  156.3495 H   0  0  0  0  0  0  0  0  0  0  0  0
  147.9062  137.3620  155.0738 H   0  0  0  0  0  0  0  0  0  0  0  0
  151.0684  140.5836  158.6708 H   0  0  0  0  0  0  0  0  0  0  0  0
  149.4459  136.3934  153.5144 H   0  0  0  0  0  0  0  0  0  0  0  0
  1  2  1  0  0  0  0
  1 23  1  0  0  0  0
  1 24  1  0  0  0  0
  1 25  1  0  0  0  0
  2  3  1  0  0  0  0
  3 22  1  0  0  0  0
  3  4  2  0  0  0  0
  4  5  1  0  0  0  0
  4 26  1  0  0  0  0
  5  6  2  0  0  0  0
  5 27  1  0  0  0  0
  6  7  1  0  0  0  0
  6 21  1  0  0  0  0
  7  8  1  0  0  0  0
  7 28  1  0  0  0  0
  8  9  2  0  0  0  0
  8 10  1  0  0  0  0
 10 11  1  0  0  0  0
 10 29  1  0  0  0  0
 11 12  1  0  0  0  0
 11 30  1  0  0  0  0
 11 31  1  0  0  0  0
 12 13  1  0  0  0  0
 12 32  1  0  0  0  0
 12 33  1  0  0  0  0
 13 20  1  0  0  0  0
 13 14  1  0  0  0  0
 13 47  1  0  0  0  0
 14 15  1  0  0  0  0
 14 34  1  0  0  0  0
 14 35  1  0  0  0  0
 15 16  1  0  0  0  0
 15 17  1  0  0  0  0
 15 36  1  0  0  0  0
 16 37  1  0  0  0  0
 16 38  1  0  0  0  0
 16 39  1  0  0  0  0
 17 18  1  0  0  0  0
 18 19  1  0  0  0  0
 18 20  1  0  0  0  0
 18 40  1  0  0  0  0
 19 41  1  0  0  0  0
 19 42  1  0  0  0  0
 19 43  1  0  0  0  0
 20 44  1  0  0  0  0
 20 45  1  0  0  0  0
 21 22  2  0  0  0  0
 21 46  1  0  0  0  0
M  CHG  1  13   1
M  END
> <s_m_source_file>
AV-unprocessed.smi

> <i_m_source_file_index>
1430

> <i_lp_mmshare_version>
43012

> <i_f3d_flags>
0

> <s_epik_input>
W0NIM11PYzFbY0hdW2NIXWMoW2NIXW4xKVtOSF1DKD1PKVtOSF1bQ0gyXVtDSDJdTjJbQ0gyXVtDQEBIXShbQ0gzXSlPW0NAQEhdKFtDSDNdKVtDSDJdMg==

> <s_epik_cmdline>
J2VwaWtfcHl0aG9uJywgJy1waCcsICc3LjAnLCAnLXRuJywgJzgnLCAnLW1hJywgJzIwMCcsICctbWV0YWxfYmluZGluZycsICctaW1hZScsICc8aW5maWxlLm1hZT4nLCAnLW9tYWUnLCAnPG91dGZpbGUubWFlPic=

> <r_lp_tautomer_probability>
1

> <r_epik_Ionization_Penalty>
0.602607

> <r_epik_Ionization_Penalty_Charging>
0.602531

> <r_epik_Ionization_Penalty_Neutral>
7.66983e-05

> <r_epik_State_Penalty>
0.617039

> <r_epik_Charging_Adjusted_Penalty>
1.21957

> <i_epik_Tot_Q>
1

> <i_epik_Tot_abs_Q>
1

> <r_epik_Metal_State_Penalty>
0.617043

> <b_epik_Metal_Only>
0

> <s_lp_Force_Field>
OPLS_2005

> <r_lp_Energy>
27.5675

> <b_lp_Chiralities_Consistent>
1

> <s_lp_Variant>
AV-unprocessed.smi:1430-6

> <Gold.Version>
5.8.1

> <Gold.Id.Protein>
6NUR|6NUR_protein|mol2

> <Gold.PLP.Fitness>
43.3417

> <Gold.PLP.PLP>
-38.5084

> <Gold.PLP.part.hbond>
-1.6847

> <Gold.PLP.part.metal>
0.0000

> <Gold.PLP.part.buried>
-5.9599

> <Gold.PLP.part.nonpolar>
-31.4180

> <Gold.PLP.part.repulsive>
1.1489

> <Gold.PLP.ligand.clash>
0.0000

> <Gold.PLP.ligand.torsion>
0.5950

> <Gold.PLP.Chemscore.Hbond>
2.0000

> <Gold.PLP.Chemscore.CHOScore>
0.0000

> <Gold.PLP.Chemscore.Metal>
0.0000

> <Gold.Chemscore.Hbonds>
donor molecule, donor type, donor heavy atom, donor atom, acceptor molecule, acceptor atom, score
      L1  H    13    47       P1  7948  2.00

> <Gold.PLP.Chemscore.Internal.Correction>
0.0234

> <Gold.Rescore>
     Score         DG    S(hbond)    S(metal)    S(lipo)     H(rot)  DE(clash)    DE(int)     intcor
     12.39     -14.36       0.98        0.00      86.38       1.76       0.01       1.96       ----

> <Gold.Chemscore.Fitness>
12.3905

> <Gold.Chemscore.DG>
-14.3649

> <Gold.Chemscore.ZeroCoef>
-5.4800

> <Gold.Chemscore.Hbond>
0.9838

> <Gold.Chemscore.Metal>
0.0000

> <Gold.Chemscore.Lipo>
86.3789

> <Gold.Chemscore.Internal_Hbond>
0.0000

> <Gold.Chemscore.DEClash>
0.0126

> <Gold.Chemscore.DEInternal>
1.9618

> <Gold.Chemscore.Rot>
1.7606

> <Gold.Chemscore.Internal.Correction>
   9.000000E+99

> <Gold.Chemscore.Hbonds>
donor molecule, donor type, donor heavy atom, donor atom, acceptor molecule, acceptor atom, score
      L1  H    13    47       P1  7948  0.74

> <Gold.Chemscore.Hbond.Weighted>
-3.2858

> <Gold.Chemscore.Metal.Weighted>
-0.0000

> <Gold.Chemscore.Lipo.Weighted>
-10.1063

> <Gold.Chemscore.Internal_Hbond.Weighted>
0.0000

> <Gold.Chemscore.DEClash.Weighted>
0.0126

> <Gold.Chemscore.DEInternal.Weighted>
1.9618

> <Gold.Chemscore.Rot.Weighted>
4.5072

> <Gold.Chemscore.Internal.Correction.Weighted>
   9.000000E+99

> <Gold.Protein.RotatedTorsions>
[ 6907 6896 6895 6894 ] final   65.70 input  -60.11 | X-H torsion
[ 7974 7965 7964 7962 ] final  -52.94 input  175.53 | X-H torsion
[ 8008 7997 7996 7995 ] final   31.13 input   59.86 | X-H torsion
[ 10167 10162 10161 10158 ] final  -50.13 input  -65.29 | X-H torsion
[ 10718 10713 10712 10709 ] final  145.36 input   66.30 | X-H torsion
[ 10763 10752 10751 10750 ] final -135.91 input  -60.55 | X-H torsion
[ 11005 11000 10999 10996 ] final   17.47 input  -57.11 | X-H torsion

> <Gold.Protein.ActiveResidues>
 VAL166  LYS551  ARG553  GLY616  TRP617  ASP618  TYR619  PRO620  LYS621  CYS622 
 ASP623  PHE694  ASN695  SER759  ASP760  ASP761  ALA762  ILE779  LEU786  VAL792 
 PHE793  MET794  SER795  GLU796  ALA797  LYS798  CYS799  TRP800  GLU811  SER814 

> <Gold.Protein.RotatedAtoms>
  152.4427  134.5559  159.9879 H   0  0  0  0  0  0  0  0  0  0  0  0  # atno 6907 bound_to 6896
  151.5652  133.3392  159.2987 H   0  0  0  0  0  0  0  0  0  0  0  0  # atno 6908 bound_to 6896
  150.8336  134.7633  159.6938 H   0  0  0  0  0  0  0  0  0  0  0  0  # atno 6909 bound_to 6896
  145.9023  140.7984  142.9737 H   0  0  0  0  0  0  0  0  0  0  0  0  # atno 7974 bound_to 7965
  155.1016  140.3230  155.4546 H   0  0  0  0  0  0  0  0  0  0  0  0  # atno 8008 bound_to 7997
  156.2715  140.2060  156.6088 H   0  0  0  0  0  0  0  0  0  0  0  0  # atno 8009 bound_to 7997
  154.6825  140.0525  157.0268 H   0  0  0  0  0  0  0  0  0  0  0  0  # atno 8010 bound_to 7997
  140.6652  143.2670  151.4314 H   0  0  0  0  0  0  0  0  0  0  0  0  # atno 10167 bound_to 10162
  157.3462  131.0943  151.1040 H   0  0  0  0  0  0  0  0  0  0  0  0  # atno 10718 bound_to 10713
  154.8694  135.3689  154.4974 H   0  0  0  0  0  0  0  0  0  0  0  0  # atno 10763 bound_to 10752
  153.5617  135.7023  153.5549 H   0  0  0  0  0  0  0  0  0  0  0  0  # atno 10764 bound_to 10752
  153.3622  135.4043  155.1690 H   0  0  0  0  0  0  0  0  0  0  0  0  # atno 10765 bound_to 10752
  140.4356  134.1374  155.7685 H   0  0  0  0  0  0  0  0  0  0  0  0  # atno 11005 bound_to 11000
  144.6737  140.1696  143.7415 LP  0  0  0  0  0  0  0  0  0  0  0  0  # atno 17320 bound_to 7965
  145.8775  139.2305  143.1625 LP  0  0  0  0  0  0  0  0  0  0  0  0  # atno 17321 bound_to 7965
  139.5899  144.1522  152.2075 LP  0  0  0  0  0  0  0  0  0  0  0  0  # atno 17342 bound_to 10162
  140.0873  144.5650  150.7079 LP  0  0  0  0  0  0  0  0  0  0  0  0  # atno 17343 bound_to 10162
  157.2233  130.6491  149.5820 LP  0  0  0  0  0  0  0  0  0  0  0  0  # atno 17370 bound_to 10713
  155.9714  130.4622  150.6137 LP  0  0  0  0  0  0  0  0  0  0  0  0  # atno 17371 bound_to 10713
  141.1727  133.8576  157.1520 LP  0  0  0  0  0  0  0  0  0  0  0  0  # atno 17394 bound_to 11000
  140.0104  134.9990  157.0383 LP  0  0  0  0  0  0  0  0  0  0  0  0  # atno 17395 bound_to 11000

$$$$
