#       Name:                AV-unprocessed.smi:2371
#       Creating user name   scv26
#       Creation time:       Fri Mar 27 13:06:42 2020


#       File generated by GOLD software.
#

@<TRIPOS>MOLECULE
AV-unprocessed.smi:2371
    41    42     1
SMALL
NO_CHARGES


@<TRIPOS>ATOM
      1 ****        -4.4506   3.3669   1.2973 C.3            1 S1                 0.0000
      2 ****        -3.7868   2.0610   1.3207 N.am           1 S1                 0.0000
      3 ****        -4.5989   0.9211   1.4460 C.2            1 S1                 0.0000
      4 ****        -4.0781  -0.3134   1.4776 C.2            1 S1                 0.0000
      5 ****        -2.6455  -0.4564   1.3776 C.2            1 S1                 0.0000
      6 ****        -1.8433   0.6303   1.2480 C.2            1 S1                 0.0000
      7 ****        -0.4418   0.5805   1.1526 N.am           1 S1                 0.0000
      8 ****         0.3545  -0.4597   0.8442 C.2            1 S1                 0.0000
      9 ****        -0.0231  -1.5942   0.5529 O.2            1 S1                 0.0000
     10 ****         1.6444  -0.0962   0.8676 N.am           1 S1                 0.0000
     11 ****         2.7757  -0.9637   0.5547 C.3            1 S1                 0.0000
     12 ****         3.2364  -0.7982  -0.9038 C.3            1 S1                 0.0000
     13 ****         2.2359  -1.2702  -1.9598 C.3            1 S1                 0.0000
     14 ****         3.1457  -1.5619  -3.1304 C.3            1 S1                 0.0000
     15 ****         4.3617  -2.1661  -2.4342 C.3            1 S1                 0.0000
     16 ****         4.4108  -1.5709  -1.1395 O.3            1 S1                 0.0000
     17 ****        -2.4256   1.9865   1.2274 C.2            1 S1                 0.0000
     18 ****        -1.7363   3.0048   1.1303 O.2            1 S1                 0.0000
     19 ****        -5.5378   3.2873   1.3284 H              1 S1                 0.0000
     20 ****        -4.1931   3.9138   0.3890 H              1 S1                 0.0000
     21 ****        -4.1422   3.9668   2.1547 H              1 S1                 0.0000
     22 ****        -5.6600   1.1111   1.5154 H              1 S1                 0.0000
     23 ****        -4.7146  -1.1805   1.5748 H              1 S1                 0.0000
     24 ****        -2.2461  -1.4564   1.4272 H              1 S1                 0.0000
     25 ****         0.0184   1.4676   1.2981 H              1 S1                 0.0000
     26 ****         1.8626   0.8587   1.1123 H              1 S1                 0.0000
     27 ****         3.5924  -0.6938   1.2245 H              1 S1                 0.0000
     28 ****         2.5427  -2.0086   0.7667 H              1 S1                 0.0000
     29 ****         3.4925   0.2450  -1.0960 H              1 S1                 0.0000
     30 ****         1.7391  -2.1869  -1.6386 H              1 S1                 0.0000
     31 ****         1.4713  -0.5266  -2.1861 H              1 S1                 0.0000
     32 ****         2.6991  -2.2297  -3.8676 H              1 S1                 0.0000
     33 ****         3.4208  -0.6326  -3.6312 H              1 S1                 0.0000
     34 ****         4.2358  -3.2427  -2.3137 H              1 S1                 0.0000
     35 ****         5.2849  -1.9935  -2.9877 H              1 S1                 0.0000
     36 ****        -1.0002  -1.8058   0.5314 LP             1 S1                 0.0000
     37 ****         0.6472  -2.3044   0.3378 LP             1 S1                 0.0000
     38 ****         4.4762  -2.2904  -0.4481 LP             1 S1                 0.0000
     39 ****         5.2134  -0.9773  -1.0798 LP             1 S1                 0.0000
     40 ****        -2.1725   3.9046   1.1189 LP             1 S1                 0.0000
     41 ****        -0.7414   2.9306   1.0631 LP             1 S1                 0.0000
@<TRIPOS>BOND
    1    1    2 1     
    2    1   19 1     
    3    1   20 1     
    4    1   21 1     
    5    2   17 am    
    6    2    3 1     
    7    3    4 2     
    8    3   22 1     
    9    4    5 1     
   10    4   23 1     
   11    5    6 2     
   12    5   24 1     
   13    6    7 1     
   14    6   17 1     
   15    7    8 am    
   16    7   25 1     
   17    8    9 2     
   18    8   10 am    
   19   10   11 1     
   20   10   26 1     
   21   11   12 1     
   22   11   27 1     
   23   11   28 1     
   24   12   16 1     
   25   12   13 1     
   26   12   29 1     
   27   13   14 1     
   28   13   30 1     
   29   13   31 1     
   30   14   15 1     
   31   14   32 1     
   32   14   33 1     
   33   15   16 1     
   34   15   34 1     
   35   15   35 1     
   36   17   18 2     
   37    9   36 1     
   38    9   37 1     
   39   16   38 1     
   40   16   39 1     
   41   18   40 1     
   42   18   41 1     
@<TRIPOS>SUBSTRUCTURE
      1 S1             1
@<TRIPOS>SET
LONE_PAIRS      STATIC     ATOMS    <user>   **** ""
6 36 37 38 39 40 41
DONOR_HYDROGENS      STATIC     ATOMS    <user>   **** ""
2 25 26
ATOM$BLUE        STATIC     ATOMS    COLORGROUP SYSTEM
6 36 37 38 39 40 41
ATOM$RED        STATIC     ATOMS    COLORGROUP SYSTEM
2 25 26
