AV-unprocessed.smi:1835|AV-procd|sdf|7473|dock7
  -GOLD-   22720 9173D 1   1.00000     0.00000
 Structure written by MMmdl.
 41 42  0  0  0  0  0  0  0  0  1 V2000
  146.0631  141.0929  155.5079 C   0  0  0  0  0  0  0  0  0  0  0  0
  146.0148  142.3602  156.4000 C   0  0  2  0  0  0  0  0  0  0  0  0
  146.8531  142.1042  157.6830 C   0  0  0  0  0  0  0  0  0  0  0  0
  148.2821  142.2921  157.4585 N   0  0  0  0  0  0  0  0  0  0  0  0
  149.2225  141.3732  157.7187 C   0  0  0  0  0  0  0  0  0  0  0  0
  148.9663  140.2635  158.1886 O   0  0  0  0  0  0  0  0  0  0  0  0
  150.6674  141.7921  157.4102 C   0  0  0  0  0  0  0  0  0  0  0  0
  151.2346  142.7282  158.3949 N   0  0  0  0  0  0  0  0  0  0  0  0
  150.5992  143.9790  158.5278 C   0  0  0  0  0  0  0  0  0  0  0  0
  151.0346  144.9082  159.3932 C   0  0  0  0  0  0  0  0  0  0  0  0
  152.1901  144.5995  160.2018 C   0  0  0  0  0  0  0  0  0  0  0  0
  152.8019  143.4040  160.0867 C   0  0  0  0  0  0  0  0  0  0  0  0
  152.3264  142.3832  159.1453 C   0  0  0  0  0  0  0  0  0  0  0  0
  152.8764  141.2869  159.0374 O   0  0  0  0  0  0  0  0  0  0  0  0
  144.6291  142.8068  156.6770 N   0  0  0  0  0  0  0  0  0  0  0  0
  143.9425  143.2788  155.4684 C   0  0  0  0  0  0  0  0  0  0  0  0
  142.5117  143.7713  155.7450 C   0  0  0  0  0  0  0  0  0  0  0  0
  142.5426  144.8037  156.7203 O   0  0  0  0  0  0  0  0  0  0  0  0
  143.1266  144.3662  157.9391 C   0  0  0  0  0  0  0  0  0  0  0  0
  144.5621  143.8750  157.6814 C   0  0  0  0  0  0  0  0  0  0  0  0
  147.0782  140.7331  155.3444 H   0  0  0  0  0  0  0  0  0  0  0  0
  145.6643  141.2730  154.5106 H   0  0  0  0  0  0  0  0  0  0  0  0
  145.4958  140.2758  155.9552 H   0  0  0  0  0  0  0  0  0  0  0  0
  146.5184  143.1565  155.8497 H   0  0  0  0  0  0  0  0  0  0  0  0
  146.5801  142.7955  158.4791 H   0  0  0  0  0  0  0  0  0  0  0  0
  146.6730  141.0946  158.0562 H   0  0  0  0  0  0  0  0  0  0  0  0
  148.5728  143.1797  157.0753 H   0  0  0  0  0  0  0  0  0  0  0  0
  151.2902  140.8984  157.3379 H   0  0  0  0  0  0  0  0  0  0  0  0
  150.6886  142.2339  156.4129 H   0  0  0  0  0  0  0  0  0  0  0  0
  149.7389  144.1282  157.8916 H   0  0  0  0  0  0  0  0  0  0  0  0
  150.5317  145.8598  159.4844 H   0  0  0  0  0  0  0  0  0  0  0  0
  152.5652  145.3303  160.9028 H   0  0  0  0  0  0  0  0  0  0  0  0
  153.6644  143.1904  160.7009 H   0  0  0  0  0  0  0  0  0  0  0  0
  144.5174  144.0833  155.0069 H   0  0  0  0  0  0  0  0  0  0  0  0
  143.8673  142.4814  154.7316 H   0  0  0  0  0  0  0  0  0  0  0  0
  142.0624  144.1600  154.8311 H   0  0  0  0  0  0  0  0  0  0  0  0
  141.8798  142.9510  156.0892 H   0  0  0  0  0  0  0  0  0  0  0  0
  143.1325  145.1946  158.6475 H   0  0  0  0  0  0  0  0  0  0  0  0
  142.5194  143.5733  158.3786 H   0  0  0  0  0  0  0  0  0  0  0  0
  144.9500  143.5289  158.6373 H   0  0  0  0  0  0  0  0  0  0  0  0
  145.1830  144.7163  157.3703 H   0  0  0  0  0  0  0  0  0  0  0  0
  1  2  1  0  0  0  0
  1 21  1  0  0  0  0
  1 22  1  0  0  0  0
  1 23  1  0  0  0  0
  2  3  1  0  0  0  0
  2 15  1  0  0  0  0
  2 24  1  0  0  0  0
  3  4  1  0  0  0  0
  3 25  1  0  0  0  0
  3 26  1  0  0  0  0
  4  5  1  0  0  0  0
  4 27  1  0  0  0  0
  5  6  2  0  0  0  0
  5  7  1  0  0  0  0
  7  8  1  0  0  0  0
  7 28  1  0  0  0  0
  7 29  1  0  0  0  0
  8 13  1  0  0  0  0
  8  9  1  0  0  0  0
  9 10  2  0  0  0  0
  9 30  1  0  0  0  0
 10 11  1  0  0  0  0
 10 31  1  0  0  0  0
 11 12  2  0  0  0  0
 11 32  1  0  0  0  0
 12 13  1  0  0  0  0
 12 33  1  0  0  0  0
 13 14  2  0  0  0  0
 15 20  1  0  0  0  0
 15 16  1  0  0  0  0
 16 17  1  0  0  0  0
 16 34  1  0  0  0  0
 16 35  1  0  0  0  0
 17 18  1  0  0  0  0
 17 36  1  0  0  0  0
 17 37  1  0  0  0  0
 18 19  1  0  0  0  0
 19 20  1  0  0  0  0
 19 38  1  0  0  0  0
 19 39  1  0  0  0  0
 20 40  1  0  0  0  0
 20 41  1  0  0  0  0
M  END
> <s_m_source_file>
AV-unprocessed.smi

> <i_m_source_file_index>
1835

> <i_lp_mmshare_version>
43012

> <i_f3d_flags>
0

> <s_epik_input>
W0NIMl0xW0NIMl1PW0NIMl1bQ0gyXU4xW0NASF0oW0NIM10pW0NIMl1bTkhdQyg9TylbQ0gyXW4yW2NIXVtjSF1bY0hdW2NIXWMyPU8=

> <s_epik_cmdline>
J2VwaWtfcHl0aG9uJywgJy1waCcsICc3LjAnLCAnLXRuJywgJzgnLCAnLW1hJywgJzIwMCcsICctbWV0YWxfYmluZGluZycsICctaW1hZScsICc8aW5maWxlLm1hZT4nLCAnLW9tYWUnLCAnPG91dGZpbGUubWFlPic=

> <r_lp_tautomer_probability>
1

> <r_epik_Ionization_Penalty>
0.237383

> <r_epik_Ionization_Penalty_Charging>
3.58805e-07

> <r_epik_Ionization_Penalty_Neutral>
0.237382

> <r_epik_State_Penalty>
0.228245

> <r_epik_Charging_Adjusted_Penalty>
0.228245

> <i_epik_Tot_Q>
0

> <i_epik_Tot_abs_Q>
0

> <r_epik_Metal_State_Penalty>
0.22822

> <b_epik_Metal_Only>
0

> <s_lp_Force_Field>
OPLS_2005

> <r_lp_Energy>
38.378

> <b_lp_Chiralities_Consistent>
1

> <s_lp_Variant>
AV-unprocessed.smi:1835-1

> <Gold.Version>
5.8.1

> <Gold.Id.Protein>
6NUR|6NUR_protein|mol2

> <Gold.PLP.Fitness>
38.7385

> <Gold.PLP.PLP>
-33.4945

> <Gold.PLP.part.hbond>
-1.2569

> <Gold.PLP.part.metal>
0.0000

> <Gold.PLP.part.buried>
-4.8398

> <Gold.PLP.part.nonpolar>
-26.5908

> <Gold.PLP.part.repulsive>
0.1590

> <Gold.PLP.ligand.clash>
0.0000

> <Gold.PLP.ligand.torsion>
0.5808

> <Gold.PLP.Chemscore.Hbond>
1.0000

> <Gold.PLP.Chemscore.CHOScore>
1.1247

> <Gold.PLP.Chemscore.Metal>
0.0000

> <Gold.Chemscore.Hbonds>
donor molecule, donor type, donor heavy atom, donor atom, acceptor molecule, acceptor atom, score
      L1  H     4    27       P1  8028  0.83
      L1  C     9    30       P1  8028  0.87
      L1  C     9    30       P1  8029  0.26

> <Gold.PLP.Chemscore.Internal.Correction>
0.0316

> <Gold.Rescore>
     Score         DG    S(hbond)    S(metal)    S(lipo)     H(rot)  DE(clash)    DE(int)     intcor
     12.82     -13.85       1.18        0.00      79.32       1.89       0.28       0.75       ----

> <Gold.Chemscore.Fitness>
12.8205

> <Gold.Chemscore.DG>
-13.8535

> <Gold.Chemscore.ZeroCoef>
-5.4800

> <Gold.Chemscore.Hbond>
1.1756

> <Gold.Chemscore.Metal>
0.0000

> <Gold.Chemscore.Lipo>
79.3239

> <Gold.Chemscore.Internal_Hbond>
0.0000

> <Gold.Chemscore.DEClash>
0.2795

> <Gold.Chemscore.DEInternal>
0.7535

> <Gold.Chemscore.Rot>
1.8882

> <Gold.Chemscore.Internal.Correction>
   9.000000E+99

> <Gold.Chemscore.Hbonds>
donor molecule, donor type, donor heavy atom, donor atom, acceptor molecule, acceptor atom, score
      L1  H     4    27       P1  8028  0.32

> <Gold.Chemscore.Hbond.Weighted>
-3.9264

> <Gold.Chemscore.Metal.Weighted>
-0.0000

> <Gold.Chemscore.Lipo.Weighted>
-9.2809

> <Gold.Chemscore.Internal_Hbond.Weighted>
0.0000

> <Gold.Chemscore.DEClash.Weighted>
0.2795

> <Gold.Chemscore.DEInternal.Weighted>
0.7535

> <Gold.Chemscore.Rot.Weighted>
4.8338

> <Gold.Chemscore.Internal.Correction.Weighted>
   9.000000E+99

> <Gold.Protein.RotatedTorsions>
[ 6907 6896 6895 6894 ] final -136.53 input  -60.11 | X-H torsion
[ 7974 7965 7964 7962 ] final   75.69 input  175.53 | X-H torsion
[ 8008 7997 7996 7995 ] final  150.46 input   59.86 | X-H torsion
[ 10167 10162 10161 10158 ] final  166.72 input  -65.29 | X-H torsion
[ 10718 10713 10712 10709 ] final -141.12 input   66.30 | X-H torsion
[ 10763 10752 10751 10750 ] final  -73.70 input  -60.55 | X-H torsion
[ 11005 11000 10999 10996 ] final   30.98 input  -57.11 | X-H torsion

> <Gold.Protein.ActiveResidues>
 VAL166  LYS551  ARG553  GLY616  TRP617  ASP618  TYR619  PRO620  LYS621  CYS622 
 ASP623  PHE694  ASN695  SER759  ASP760  ASP761  ALA762  ILE779  LEU786  VAL792 
 PHE793  MET794  SER795  GLU796  ALA797  LYS798  CYS799  TRP800  GLU811  SER814 

> <Gold.Protein.RotatedAtoms>
  151.0112  133.5964  159.2682 H   0  0  0  0  0  0  0  0  0  0  0  0  # atno 6907 bound_to 6896
  151.3115  135.0794  159.9283 H   0  0  0  0  0  0  0  0  0  0  0  0  # atno 6908 bound_to 6896
  152.5300  133.9776  159.7845 H   0  0  0  0  0  0  0  0  0  0  0  0  # atno 6909 bound_to 6896
  145.7124  139.2619  143.1643 H   0  0  0  0  0  0  0  0  0  0  0  0  # atno 7974 bound_to 7965
  156.2714  140.2074  156.6021 H   0  0  0  0  0  0  0  0  0  0  0  0  # atno 8008 bound_to 7997
  154.6898  140.0531  157.0375 H   0  0  0  0  0  0  0  0  0  0  0  0  # atno 8009 bound_to 7997
  155.0883  140.3194  155.4584 H   0  0  0  0  0  0  0  0  0  0  0  0  # atno 8010 bound_to 7997
  139.4930  144.3997  151.9423 H   0  0  0  0  0  0  0  0  0  0  0  0  # atno 10167 bound_to 10162
  156.3303  130.7582  151.1698 H   0  0  0  0  0  0  0  0  0  0  0  0  # atno 10718 bound_to 10713
  154.4631  135.5888  153.6269 H   0  0  0  0  0  0  0  0  0  0  0  0  # atno 10763 bound_to 10752
  152.9825  135.6048  154.3461 H   0  0  0  0  0  0  0  0  0  0  0  0  # atno 10764 bound_to 10752
  154.3335  135.2842  155.2438 H   0  0  0  0  0  0  0  0  0  0  0  0  # atno 10765 bound_to 10752
  140.2887  134.2890  155.7781 H   0  0  0  0  0  0  0  0  0  0  0  0  # atno 11005 bound_to 11000
  146.0700  140.7879  142.9693 LP  0  0  0  0  0  0  0  0  0  0  0  0  # atno 17320 bound_to 7965
  144.6938  140.3327  143.7213 LP  0  0  0  0  0  0  0  0  0  0  0  0  # atno 17321 bound_to 7965
  140.3436  144.3174  150.5962 LP  0  0  0  0  0  0  0  0  0  0  0  0  # atno 17342 bound_to 10162
  140.5545  143.2201  151.7871 LP  0  0  0  0  0  0  0  0  0  0  0  0  # atno 17343 bound_to 10162
  157.7429  131.0483  150.4989 LP  0  0  0  0  0  0  0  0  0  0  0  0  # atno 17370 bound_to 10713
  156.5154  130.4149  149.6279 LP  0  0  0  0  0  0  0  0  0  0  0  0  # atno 17371 bound_to 10713
  141.2150  133.7571  156.9591 LP  0  0  0  0  0  0  0  0  0  0  0  0  # atno 17394 bound_to 11000
  140.1216  134.9413  157.2211 LP  0  0  0  0  0  0  0  0  0  0  0  0  # atno 17395 bound_to 11000

$$$$
