AV-unprocessed.smi:3172|AV-procd|sdf|12113|dock1
  -GOLD-   2272017553D 1   1.00000     0.00000
 Structure written by MMmdl.
 44 45  0  0  0  0  0  0  0  0  3 V2000
  146.6831  138.9294  152.1765 C   0  0  0  0  0  0  0  0  0  0  0  0
  147.7696  139.3856  153.0917 C   0  0  0  0  0  0  0  0  0  0  0  0
  148.8381  138.5894  153.4080 N   0  3  0  0  0  0  0  0  0  0  0  0
  149.6652  139.2235  154.2400 C   0  0  0  0  0  0  0  0  0  0  0  0
  149.1317  140.4282  154.4741 N   0  0  0  0  0  0  0  0  0  0  0  0
  149.7867  141.4025  155.3621 C   0  0  0  0  0  0  0  0  0  0  0  0
  149.2314  141.3698  156.8001 C   0  0  2  0  0  0  0  0  0  0  0  0
  147.7269  141.0617  156.8037 C   0  0  0  0  0  0  0  0  0  0  0  0
  149.4918  142.6579  157.4847 N   0  3  0  0  0  0  0  0  0  0  0  0
  150.9044  142.9242  157.8365 C   0  0  0  0  0  0  0  0  0  0  0  0
  151.3991  141.8677  158.8425 C   0  0  0  0  0  0  0  0  0  0  0  0
  152.8538  142.1287  159.2659 C   0  0  0  0  0  0  0  0  0  0  0  0
  153.0196  143.5429  159.8429 C   0  0  0  0  0  0  0  0  0  0  0  0
  152.5251  144.6068  158.8509 C   0  0  0  0  0  0  0  0  0  0  0  0
  151.0717  144.3422  158.4262 C   0  0  0  0  0  0  0  0  0  0  0  0
  147.9560  140.5696  153.7679 C   0  0  0  0  0  0  0  0  0  0  0  0
  147.1137  141.8046  153.7987 C   0  0  0  0  0  0  0  0  0  0  0  0
  146.3116  139.7638  151.5815 H   0  0  0  0  0  0  0  0  0  0  0  0
  145.8551  138.5179  152.7539 H   0  0  0  0  0  0  0  0  0  0  0  0
  147.0507  138.1602  151.4966 H   0  0  0  0  0  0  0  0  0  0  0  0
  150.5831  138.8342  154.6436 H   0  0  0  0  0  0  0  0  0  0  0  0
  150.8611  141.2104  155.3600 H   0  0  0  0  0  0  0  0  0  0  0  0
  149.6503  142.3901  154.9203 H   0  0  0  0  0  0  0  0  0  0  0  0
  149.7346  140.5668  157.3369 H   0  0  0  0  0  0  0  0  0  0  0  0
  147.5218  140.1081  156.3160 H   0  0  0  0  0  0  0  0  0  0  0  0
  147.1618  141.8312  156.2765 H   0  0  0  0  0  0  0  0  0  0  0  0
  147.3347  140.9983  157.8191 H   0  0  0  0  0  0  0  0  0  0  0  0
  149.1834  143.4129  156.8893 H   0  0  0  0  0  0  0  0  0  0  0  0
  151.5108  142.8372  156.9336 H   0  0  0  0  0  0  0  0  0  0  0  0
  150.7601  141.8682  159.7269 H   0  0  0  0  0  0  0  0  0  0  0  0
  151.3210  140.8710  158.4063 H   0  0  0  0  0  0  0  0  0  0  0  0
  153.1657  141.3883  160.0035 H   0  0  0  0  0  0  0  0  0  0  0  0
  153.5136  142.0046  158.4062 H   0  0  0  0  0  0  0  0  0  0  0  0
  152.4619  143.6252  160.7769 H   0  0  0  0  0  0  0  0  0  0  0  0
  154.0660  143.7237  160.0912 H   0  0  0  0  0  0  0  0  0  0  0  0
  152.6078  145.5978  159.2983 H   0  0  0  0  0  0  0  0  0  0  0  0
  153.1681  144.6113  157.9696 H   0  0  0  0  0  0  0  0  0  0  0  0
  150.7708  145.1009  157.7043 H   0  0  0  0  0  0  0  0  0  0  0  0
  150.4148  144.4642  159.2888 H   0  0  0  0  0  0  0  0  0  0  0  0
  146.4971  141.8647  152.9019 H   0  0  0  0  0  0  0  0  0  0  0  0
  147.7322  142.7010  153.8420 H   0  0  0  0  0  0  0  0  0  0  0  0
  146.4540  141.7896  154.6659 H   0  0  0  0  0  0  0  0  0  0  0  0
  148.9393  142.6736  158.3305 H   0  0  0  0  0  0  0  0  0  0  0  0
  148.9855  137.6520  153.0542 H   0  0  0  0  0  0  0  0  0  0  0  0
  1  2  1  0  0  0  0
  1 18  1  0  0  0  0
  1 19  1  0  0  0  0
  1 20  1  0  0  0  0
  2 16  2  0  0  0  0
  2  3  1  0  0  0  0
  3  4  2  0  0  0  0
  3 44  1  0  0  0  0
  4  5  1  0  0  0  0
  4 21  1  0  0  0  0
  5  6  1  0  0  0  0
  5 16  1  0  0  0  0
  6  7  1  0  0  0  0
  6 22  1  0  0  0  0
  6 23  1  0  0  0  0
  7  8  1  0  0  0  0
  7  9  1  0  0  0  0
  7 24  1  0  0  0  0
  8 25  1  0  0  0  0
  8 26  1  0  0  0  0
  8 27  1  0  0  0  0
  9 10  1  0  0  0  0
  9 28  1  0  0  0  0
  9 43  1  0  0  0  0
 10 15  1  0  0  0  0
 10 11  1  0  0  0  0
 10 29  1  0  0  0  0
 11 12  1  0  0  0  0
 11 30  1  0  0  0  0
 11 31  1  0  0  0  0
 12 13  1  0  0  0  0
 12 32  1  0  0  0  0
 12 33  1  0  0  0  0
 13 14  1  0  0  0  0
 13 34  1  0  0  0  0
 13 35  1  0  0  0  0
 14 15  1  0  0  0  0
 14 36  1  0  0  0  0
 14 37  1  0  0  0  0
 15 38  1  0  0  0  0
 15 39  1  0  0  0  0
 16 17  1  0  0  0  0
 17 40  1  0  0  0  0
 17 41  1  0  0  0  0
 17 42  1  0  0  0  0
M  CHG  1   3   1
M  CHG  1   9   1
M  END
> <s_m_source_file>
AV-unprocessed.smi

> <i_m_source_file_index>
3172

> <i_lp_mmshare_version>
43012

> <i_f3d_flags>
0

> <s_epik_input>
W0NIM11jMW5bY0hdbihjMVtDSDNdKVtDSDJdW0NASF0oW0NIM10pW05IXVtDSF0yW0NIMl1bQ0gyXVtDSDJdW0NIMl1bQ0gyXTI=

> <s_epik_cmdline>
J2VwaWtfcHl0aG9uJywgJy1waCcsICc3LjAnLCAnLXRuJywgJzgnLCAnLW1hJywgJzIwMCcsICctbWV0YWxfYmluZGluZycsICctaW1hZScsICc8aW5maWxlLm1hZT4nLCAnLW9tYWUnLCAnPG91dGZpbGUubWFlPic=

> <r_lp_tautomer_probability>
1

> <r_epik_Ionization_Penalty>
0.509043

> <r_epik_Ionization_Penalty_Charging>
0.00159961

> <r_epik_Ionization_Penalty_Neutral>
0.507444

> <r_epik_State_Penalty>
0.272352

> <r_epik_Charging_Adjusted_Penalty>
0.273952

> <i_epik_Tot_Q>
2

> <i_epik_Tot_abs_Q>
2

> <r_epik_Metal_State_Penalty>
3.76994

> <b_epik_Metal_Only>
0

> <s_lp_Force_Field>
OPLS_2005

> <r_lp_Energy>
25.5447

> <b_lp_Chiralities_Consistent>
1

> <s_lp_Variant>
AV-unprocessed.smi:3172-1

> <Gold.Version>
5.8.1

> <Gold.Id.Protein>
6NUR|6NUR_protein|mol2

> <Gold.PLP.Fitness>
52.6847

> <Gold.PLP.PLP>
-41.9744

> <Gold.PLP.part.hbond>
-3.0000

> <Gold.PLP.part.metal>
0.0000

> <Gold.PLP.part.buried>
-0.8139

> <Gold.PLP.part.nonpolar>
-38.6403

> <Gold.PLP.part.repulsive>
0.0979

> <Gold.PLP.ligand.clash>
0.0000

> <Gold.PLP.ligand.torsion>
0.6891

> <Gold.PLP.Chemscore.Hbond>
4.0000

> <Gold.PLP.Chemscore.CHOScore>
0.0000

> <Gold.PLP.Chemscore.Metal>
0.0000

> <Gold.Chemscore.Hbonds>
donor molecule, donor type, donor heavy atom, donor atom, acceptor molecule, acceptor atom, score
      L1  H     3    44       P1  7948  2.00
      L1  H     9    28       P1  8028  2.00

> <Gold.PLP.Chemscore.Internal.Correction>
0.0884

> <Gold.Rescore>
     Score         DG    S(hbond)    S(metal)    S(lipo)     H(rot)  DE(clash)    DE(int)     intcor
     19.76     -20.59       1.82        0.00     111.38       1.56       0.13       0.70       ----

> <Gold.Chemscore.Fitness>
19.7650

> <Gold.Chemscore.DG>
-20.5939

> <Gold.Chemscore.ZeroCoef>
-5.4800

> <Gold.Chemscore.Hbond>
1.8166

> <Gold.Chemscore.Metal>
0.0000

> <Gold.Chemscore.Lipo>
111.3813

> <Gold.Chemscore.Internal_Hbond>
0.0000

> <Gold.Chemscore.DEClash>
0.1285

> <Gold.Chemscore.DEInternal>
0.7004

> <Gold.Chemscore.Rot>
1.5567

> <Gold.Chemscore.Internal.Correction>
   9.000000E+99

> <Gold.Chemscore.Hbonds>
donor molecule, donor type, donor heavy atom, donor atom, acceptor molecule, acceptor atom, score
      L1  H     3    44       P1  7948  0.99
      L1  H     9    28       P1  8028  0.91

> <Gold.Chemscore.Hbond.Weighted>
-6.0675

> <Gold.Chemscore.Metal.Weighted>
-0.0000

> <Gold.Chemscore.Lipo.Weighted>
-13.0316

> <Gold.Chemscore.Internal_Hbond.Weighted>
0.0000

> <Gold.Chemscore.DEClash.Weighted>
0.1285

> <Gold.Chemscore.DEInternal.Weighted>
0.7004

> <Gold.Chemscore.Rot.Weighted>
3.9852

> <Gold.Chemscore.Internal.Correction.Weighted>
   9.000000E+99

> <Gold.Protein.RotatedTorsions>
[ 6907 6896 6895 6894 ] final   69.71 input  -60.11 | X-H torsion
[ 7974 7965 7964 7962 ] final  -38.04 input  175.53 | X-H torsion
[ 8008 7997 7996 7995 ] final   94.70 input   59.86 | X-H torsion
[ 10167 10162 10161 10158 ] final -102.47 input  -65.29 | X-H torsion
[ 10718 10713 10712 10709 ] final  -84.99 input   66.30 | X-H torsion
[ 10763 10752 10751 10750 ] final  -11.30 input  -60.55 | X-H torsion
[ 11005 11000 10999 10996 ] final -165.73 input  -57.11 | X-H torsion

> <Gold.Protein.ActiveResidues>
 VAL166  LYS551  ARG553  GLY616  TRP617  ASP618  TYR619  PRO620  LYS621  CYS622 
 ASP623  PHE694  ASN695  SER759  ASP760  ASP761  ALA762  ILE779  LEU786  VAL792 
 PHE793  MET794  SER795  GLU796  ALA797  LYS798  CYS799  TRP800  GLU811  SER814 

> <Gold.Protein.RotatedAtoms>
  152.4703  134.4976  159.9714 H   0  0  0  0  0  0  0  0  0  0  0  0  # atno 6907 bound_to 6896
  151.5004  133.3499  159.2876 H   0  0  0  0  0  0  0  0  0  0  0  0  # atno 6908 bound_to 6896
  150.8709  134.8111  159.7216 H   0  0  0  0  0  0  0  0  0  0  0  0  # atno 6909 bound_to 6896
  146.0522  140.6465  142.9036 H   0  0  0  0  0  0  0  0  0  0  0  0  # atno 7974 bound_to 7965
  156.0608  140.3296  155.7460 H   0  0  0  0  0  0  0  0  0  0  0  0  # atno 8008 bound_to 7997
  155.5457  140.0605  157.2878 H   0  0  0  0  0  0  0  0  0  0  0  0  # atno 8009 bound_to 7997
  154.4481  140.1903  156.0624 H   0  0  0  0  0  0  0  0  0  0  0  0  # atno 8010 bound_to 7997
  140.2303  143.3611  152.0892 H   0  0  0  0  0  0  0  0  0  0  0  0  # atno 10167 bound_to 10162
  156.0001  130.4716  150.4495 H   0  0  0  0  0  0  0  0  0  0  0  0  # atno 10718 bound_to 10713
  153.4818  135.7017  153.5933 H   0  0  0  0  0  0  0  0  0  0  0  0  # atno 10763 bound_to 10752
  153.4143  135.3841  155.2071 H   0  0  0  0  0  0  0  0  0  0  0  0  # atno 10764 bound_to 10752
  154.8721  135.3912  154.4269 H   0  0  0  0  0  0  0  0  0  0  0  0  # atno 10765 bound_to 10752
  140.5725  134.5223  157.5164 H   0  0  0  0  0  0  0  0  0  0  0  0  # atno 11005 bound_to 11000
  144.7129  140.4103  143.7067 LP  0  0  0  0  0  0  0  0  0  0  0  0  # atno 17320 bound_to 7965
  145.6705  139.1598  143.2757 LP  0  0  0  0  0  0  0  0  0  0  0  0  # atno 17321 bound_to 7965
  139.5112  144.6897  151.5793 LP  0  0  0  0  0  0  0  0  0  0  0  0  # atno 17342 bound_to 10162
  140.6190  143.9295  150.6511 LP  0  0  0  0  0  0  0  0  0  0  0  0  # atno 17343 bound_to 10162
  157.2529  131.0550  151.2368 LP  0  0  0  0  0  0  0  0  0  0  0  0  # atno 17370 bound_to 10713
  157.3511  130.7082  149.6441 LP  0  0  0  0  0  0  0  0  0  0  0  0  # atno 17371 bound_to 10713
  139.9355  134.7883  156.0814 LP  0  0  0  0  0  0  0  0  0  0  0  0  # atno 17394 bound_to 11000
  141.1047  133.6664  156.2836 LP  0  0  0  0  0  0  0  0  0  0  0  0  # atno 17395 bound_to 11000

$$$$
