AV-unprocessed.smi:3206|AV-procd|sdf|12257|dock9
  -GOLD-   2272018 93D 1   1.00000     0.00000
 Structure written by MMmdl.
 42 43  0  0  0  0  0  0  0  0  2 V2000
  153.7217  141.4752  160.9423 C   0  0  0  0  0  0  0  0  0  0  0  0
  153.3722  142.7866  160.2246 C   0  0  2  0  0  0  0  0  0  0  0  0
  152.4554  143.6739  161.0866 C   0  0  0  0  0  0  0  0  0  0  0  0
  152.0986  144.9872  160.3675 C   0  0  0  0  0  0  0  0  0  0  0  0
  151.4615  144.7510  158.9813 C   0  0  2  0  0  0  0  0  0  0  0  0
  150.0072  144.2274  159.0747 C   0  0  0  0  0  0  0  0  0  0  0  0
  149.6548  143.3891  157.9109 N   0  3  0  0  0  0  0  0  0  0  0  0
  148.6332  142.3631  158.1971 C   0  0  0  0  0  0  0  0  0  0  0  0
  147.3958  142.5491  157.3031 C   0  0  0  0  0  0  0  0  0  0  0  0
  147.5905  142.1191  155.8780 C   0  0  0  0  0  0  0  0  0  0  0  0
  148.5748  141.3370  155.4423 N   0  0  0  0  0  0  0  0  0  0  0  0
  148.2737  141.2754  154.1129 C   0  0  0  0  0  0  0  0  0  0  0  0
  147.1960  141.9552  153.7323 N   0  0  0  0  0  0  0  0  0  0  0  0
  146.7630  142.4984  154.8927 N   0  0  0  0  0  0  0  0  0  0  0  0
  145.5770  143.3337  154.8976 C   0  0  0  0  0  0  0  0  0  0  0  0
  152.3696  143.8362  158.1320 C   0  0  0  0  0  0  0  0  0  0  0  0
  152.7264  142.5231  158.8519 C   0  0  0  0  0  0  0  0  0  0  0  0
  152.8292  140.8807  161.1402 H   0  0  0  0  0  0  0  0  0  0  0  0
  154.2114  141.6686  161.8971 H   0  0  0  0  0  0  0  0  0  0  0  0
  154.4000  140.8679  160.3423 H   0  0  0  0  0  0  0  0  0  0  0  0
  154.3047  143.3282  160.0588 H   0  0  0  0  0  0  0  0  0  0  0  0
  151.5453  143.1285  161.3384 H   0  0  0  0  0  0  0  0  0  0  0  0
  152.9450  143.9021  162.0342 H   0  0  0  0  0  0  0  0  0  0  0  0
  151.4347  145.5867  160.9914 H   0  0  0  0  0  0  0  0  0  0  0  0
  153.0077  145.5775  160.2451 H   0  0  0  0  0  0  0  0  0  0  0  0
  151.4383  145.7198  158.4796 H   0  0  0  0  0  0  0  0  0  0  0  0
  149.8625  143.6377  159.9807 H   0  0  0  0  0  0  0  0  0  0  0  0
  149.2980  145.0540  159.1315 H   0  0  0  0  0  0  0  0  0  0  0  0
  149.3096  143.9908  157.1766 H   0  0  0  0  0  0  0  0  0  0  0  0
  149.0670  141.3750  158.0364 H   0  0  0  0  0  0  0  0  0  0  0  0
  148.3494  142.4277  159.2486 H   0  0  0  0  0  0  0  0  0  0  0  0
  146.5590  141.9855  157.7175 H   0  0  0  0  0  0  0  0  0  0  0  0
  147.1000  143.5990  157.3045 H   0  0  0  0  0  0  0  0  0  0  0  0
  148.8660  140.7134  153.4059 H   0  0  0  0  0  0  0  0  0  0  0  0
  145.3585  143.6941  155.9022 H   0  0  0  0  0  0  0  0  0  0  0  0
  144.7227  142.7598  154.5373 H   0  0  0  0  0  0  0  0  0  0  0  0
  145.7301  144.1920  154.2427 H   0  0  0  0  0  0  0  0  0  0  0  0
  151.8977  143.6204  157.1729 H   0  0  0  0  0  0  0  0  0  0  0  0
  153.2922  144.3689  157.8981 H   0  0  0  0  0  0  0  0  0  0  0  0
  153.4065  141.9420  158.2279 H   0  0  0  0  0  0  0  0  0  0  0  0
  151.8317  141.9123  158.9766 H   0  0  0  0  0  0  0  0  0  0  0  0
  150.4918  142.9274  157.5845 H   0  0  0  0  0  0  0  0  0  0  0  0
  1  2  1  0  0  0  0
  1 18  1  0  0  0  0
  1 19  1  0  0  0  0
  1 20  1  0  0  0  0
  2 17  1  0  0  0  0
  2  3  1  0  0  0  0
  2 21  1  0  0  0  0
  3  4  1  0  0  0  0
  3 22  1  0  0  0  0
  3 23  1  0  0  0  0
  4  5  1  0  0  0  0
  4 24  1  0  0  0  0
  4 25  1  0  0  0  0
  5  6  1  0  0  0  0
  5 16  1  0  0  0  0
  5 26  1  0  0  0  0
  6  7  1  0  0  0  0
  6 27  1  0  0  0  0
  6 28  1  0  0  0  0
  7  8  1  0  0  0  0
  7 29  1  0  0  0  0
  7 42  1  0  0  0  0
  8  9  1  0  0  0  0
  8 30  1  0  0  0  0
  8 31  1  0  0  0  0
  9 10  1  0  0  0  0
  9 32  1  0  0  0  0
  9 33  1  0  0  0  0
 10 14  1  0  0  0  0
 10 11  2  0  0  0  0
 11 12  1  0  0  0  0
 12 13  2  0  0  0  0
 12 34  1  0  0  0  0
 13 14  1  0  0  0  0
 14 15  1  0  0  0  0
 15 35  1  0  0  0  0
 15 36  1  0  0  0  0
 15 37  1  0  0  0  0
 16 17  1  0  0  0  0
 16 38  1  0  0  0  0
 16 39  1  0  0  0  0
 17 40  1  0  0  0  0
 17 41  1  0  0  0  0
M  CHG  1   7   1
M  END
> <s_m_source_file>
AV-unprocessed.smi

> <i_m_source_file_index>
3206

> <i_lp_mmshare_version>
43012

> <i_f3d_flags>
0

> <s_epik_input>
W0NIM11bQ0BASF0xW0NIMl1bQ0gyXVtDQEhdKFtDSDJdW0NIMl0xKVtDSDJdW05IXVtDSDJdW0NIMl1jMm5bY0hdbm4yW0NIM10=

> <s_epik_cmdline>
J2VwaWtfcHl0aG9uJywgJy1waCcsICc3LjAnLCAnLXRuJywgJzgnLCAnLW1hJywgJzIwMCcsICctbWV0YWxfYmluZGluZycsICctaW1hZScsICc8aW5maWxlLm1hZT4nLCAnLW9tYWUnLCAnPG91dGZpbGUubWFlPic=

> <r_lp_tautomer_probability>
1

> <r_epik_Ionization_Penalty>
0.00114491

> <r_epik_Ionization_Penalty_Charging>
0.00114083

> <r_epik_Ionization_Penalty_Neutral>
4.0852e-06

> <r_epik_State_Penalty>
-0

> <r_epik_Charging_Adjusted_Penalty>
0.00114083

> <i_epik_Tot_Q>
1

> <i_epik_Tot_abs_Q>
1

> <r_epik_Metal_State_Penalty>
-0

> <b_epik_Metal_Only>
0

> <s_lp_Force_Field>
OPLS_2005

> <r_lp_Energy>
20.2126

> <b_lp_Chiralities_Consistent>
1

> <s_lp_Variant>
AV-unprocessed.smi:3206-2

> <Gold.Version>
5.8.1

> <Gold.Id.Protein>
6NUR|6NUR_protein|mol2

> <Gold.PLP.Fitness>
48.4742

> <Gold.PLP.PLP>
-41.9577

> <Gold.PLP.part.hbond>
-1.0000

> <Gold.PLP.part.metal>
0.0000

> <Gold.PLP.part.buried>
-2.7777

> <Gold.PLP.part.nonpolar>
-37.5721

> <Gold.PLP.part.repulsive>
0.3007

> <Gold.PLP.ligand.clash>
0.0000

> <Gold.PLP.ligand.torsion>
1.2254

> <Gold.PLP.Chemscore.Hbond>
2.0000

> <Gold.PLP.Chemscore.CHOScore>
0.9823

> <Gold.PLP.Chemscore.Metal>
0.0000

> <Gold.Chemscore.Hbonds>
donor molecule, donor type, donor heavy atom, donor atom, acceptor molecule, acceptor atom, score
      L1  H     7    29       P1  8028  2.00
      L1  C    12    34       P1  7957  1.00

> <Gold.PLP.Chemscore.Internal.Correction>
0.0205

> <Gold.Rescore>
     Score         DG    S(hbond)    S(metal)    S(lipo)     H(rot)  DE(clash)    DE(int)     intcor
     13.34     -14.60       0.78        0.00     100.49       2.05       0.14       1.12       ----

> <Gold.Chemscore.Fitness>
13.3391

> <Gold.Chemscore.DG>
-14.6023

> <Gold.Chemscore.ZeroCoef>
-5.4800

> <Gold.Chemscore.Hbond>
0.7843

> <Gold.Chemscore.Metal>
0.0000

> <Gold.Chemscore.Lipo>
100.4945

> <Gold.Chemscore.Internal_Hbond>
0.0000

> <Gold.Chemscore.DEClash>
0.1424

> <Gold.Chemscore.DEInternal>
1.1207

> <Gold.Chemscore.Rot>
2.0528

> <Gold.Chemscore.Internal.Correction>
   9.000000E+99

> <Gold.Chemscore.Hbonds>
donor molecule, donor type, donor heavy atom, donor atom, acceptor molecule, acceptor atom, score
      L1  H     7    29       P1  8028  0.35

> <Gold.Chemscore.Hbond.Weighted>
-2.6195

> <Gold.Chemscore.Metal.Weighted>
-0.0000

> <Gold.Chemscore.Lipo.Weighted>
-11.7579

> <Gold.Chemscore.Internal_Hbond.Weighted>
0.0000

> <Gold.Chemscore.DEClash.Weighted>
0.1424

> <Gold.Chemscore.DEInternal.Weighted>
1.1207

> <Gold.Chemscore.Rot.Weighted>
5.2551

> <Gold.Chemscore.Internal.Correction.Weighted>
   9.000000E+99

> <Gold.Protein.RotatedTorsions>
[ 6907 6896 6895 6894 ] final -139.74 input  -60.11 | X-H torsion
[ 7974 7965 7964 7962 ] final  -18.49 input  175.53 | X-H torsion
[ 8008 7997 7996 7995 ] final  177.87 input   59.86 | X-H torsion
[ 10167 10162 10161 10158 ] final   -5.29 input  -65.29 | X-H torsion
[ 10718 10713 10712 10709 ] final  158.34 input   66.30 | X-H torsion
[ 10763 10752 10751 10750 ] final -145.02 input  -60.55 | X-H torsion
[ 11005 11000 10999 10996 ] final   -1.62 input  -57.11 | X-H torsion

> <Gold.Protein.ActiveResidues>
 VAL166  LYS551  ARG553  GLY616  TRP617  ASP618  TYR619  PRO620  LYS621  CYS622 
 ASP623  PHE694  ASN695  SER759  ASP760  ASP761  ALA762  ILE779  LEU786  VAL792 
 PHE793  MET794  SER795  GLU796  ALA797  LYS798  CYS799  TRP800  GLU811  SER814 

> <Gold.Protein.RotatedAtoms>
  151.0517  133.5619  159.2641 H   0  0  0  0  0  0  0  0  0  0  0  0  # atno 6907 bound_to 6896
  151.2627  135.0658  159.9114 H   0  0  0  0  0  0  0  0  0  0  0  0  # atno 6908 bound_to 6896
  152.5383  134.0260  159.8057 H   0  0  0  0  0  0  0  0  0  0  0  0  # atno 6909 bound_to 6896
  146.1889  140.3928  142.8465 H   0  0  0  0  0  0  0  0  0  0  0  0  # atno 7974 bound_to 7965
  156.0609  140.1347  156.9942 H   0  0  0  0  0  0  0  0  0  0  0  0  # atno 8008 bound_to 7997
  154.4481  140.0991  156.6587 H   0  0  0  0  0  0  0  0  0  0  0  0  # atno 8009 bound_to 7997
  155.5378  140.3460  155.4442 H   0  0  0  0  0  0  0  0  0  0  0  0  # atno 8010 bound_to 7997
  140.6958  143.6325  150.8510 H   0  0  0  0  0  0  0  0  0  0  0  0  # atno 10167 bound_to 10162
  157.1792  131.0628  151.2141 H   0  0  0  0  0  0  0  0  0  0  0  0  # atno 10718 bound_to 10713
  154.8402  135.3424  154.6439 H   0  0  0  0  0  0  0  0  0  0  0  0  # atno 10763 bound_to 10752
  153.7051  135.6967  153.5057 H   0  0  0  0  0  0  0  0  0  0  0  0  # atno 10764 bound_to 10752
  153.2494  135.4358  155.0735 H   0  0  0  0  0  0  0  0  0  0  0  0  # atno 10765 bound_to 10752
  140.6493  133.9419  155.8371 H   0  0  0  0  0  0  0  0  0  0  0  0  # atno 11005 bound_to 11000
  144.8450  140.6915  143.6205 LP  0  0  0  0  0  0  0  0  0  0  0  0  # atno 17320 bound_to 7965
  145.3852  139.1628  143.4259 LP  0  0  0  0  0  0  0  0  0  0  0  0  # atno 17321 bound_to 7965
  140.0043  143.5711  152.2864 LP  0  0  0  0  0  0  0  0  0  0  0  0  # atno 17342 bound_to 10162
  139.6411  144.7654  151.2336 LP  0  0  0  0  0  0  0  0  0  0  0  0  # atno 17343 bound_to 10162
  157.3968  130.7312  149.6738 LP  0  0  0  0  0  0  0  0  0  0  0  0  # atno 17370 bound_to 10713
  155.9727  130.4131  150.4067 LP  0  0  0  0  0  0  0  0  0  0  0  0  # atno 17371 bound_to 10713
  141.0548  134.0432  157.3736 LP  0  0  0  0  0  0  0  0  0  0  0  0  # atno 17394 bound_to 11000
  139.9051  135.0177  156.7451 LP  0  0  0  0  0  0  0  0  0  0  0  0  # atno 17395 bound_to 11000

$$$$
