AV-unprocessed.smi:1787|AV-procd|sdf|7209|dock4
  -GOLD-   22720 8453D 1   1.00000     0.00000
 Structure written by MMmdl.
 45 47  0  0  0  0  0  0  0  0  2 V2000
  144.7585  136.1846  153.1800 O   0  0  0  0  0  0  0  0  0  0  0  0
  145.9181  136.1304  152.7743 C   0  0  0  0  0  0  0  0  0  0  0  0
  146.8690  136.9966  153.1519 N   0  0  0  0  0  0  0  0  0  0  0  0
  146.6995  138.1032  154.0941 C   0  0  0  0  0  0  0  0  0  0  0  0
  147.9792  138.9836  154.2539 C   0  0  2  0  0  0  0  0  0  0  0  0
  149.1824  138.0728  154.2815 N   0  3  0  0  0  0  0  0  0  0  0  0
  150.4945  138.7763  154.3423 C   0  0  0  0  0  0  0  0  0  0  0  0
  151.6505  137.7873  154.1311 C   0  0  0  0  0  0  0  0  0  0  0  0
  151.5891  136.7828  155.1332 O   0  0  0  0  0  0  0  0  0  0  0  0
  150.3883  136.0296  155.0445 C   0  0  0  0  0  0  0  0  0  0  0  0
  149.1662  136.9430  155.2500 C   0  0  0  0  0  0  0  0  0  0  0  0
  147.8410  139.8812  155.5168 C   0  0  0  0  0  0  0  0  0  0  0  0
  146.7829  140.9522  155.2365 C   0  0  0  0  0  0  0  0  0  0  0  0
  146.9290  141.3923  153.4883 S   0  0  0  0  0  0  0  0  0  0  0  0
  148.0543  140.0204  153.1080 C   0  0  0  0  0  0  0  0  0  0  0  0
  146.4048  135.2309  151.9026 N   0  0  0  0  0  0  0  0  0  0  0  0
  145.7451  134.1579  151.2407 C   0  0  0  0  0  0  0  0  0  0  0  0
  144.3401  134.0029  151.1374 C   0  0  0  0  0  0  0  0  0  0  0  0
  143.8278  132.8857  150.4500 C   0  0  0  0  0  0  0  0  0  0  0  0
  144.7339  131.9639  149.8912 C   0  0  0  0  0  0  0  0  0  0  0  0
  146.0733  132.0988  149.9799 N   0  0  0  0  0  0  0  0  0  0  0  0
  146.5573  133.1718  150.6401 C   0  0  0  0  0  0  0  0  0  0  0  0
  147.7948  136.8735  152.7676 H   0  0  0  0  0  0  0  0  0  0  0  0
  145.8381  138.7057  153.8051 H   0  0  0  0  0  0  0  0  0  0  0  0
  146.4081  137.6614  155.0462 H   0  0  0  0  0  0  0  0  0  0  0  0
  150.5552  139.5560  153.5847 H   0  0  0  0  0  0  0  0  0  0  0  0
  150.6198  139.2623  155.3104 H   0  0  0  0  0  0  0  0  0  0  0  0
  151.6113  137.3387  153.1373 H   0  0  0  0  0  0  0  0  0  0  0  0
  152.6064  138.3054  154.2094 H   0  0  0  0  0  0  0  0  0  0  0  0
  150.3354  135.5257  154.0778 H   0  0  0  0  0  0  0  0  0  0  0  0
  150.4050  135.2499  155.8060 H   0  0  0  0  0  0  0  0  0  0  0  0
  149.1463  137.3288  156.2701 H   0  0  0  0  0  0  0  0  0  0  0  0
  148.2825  136.3219  155.1097 H   0  0  0  0  0  0  0  0  0  0  0  0
  147.6160  139.3170  156.4222 H   0  0  0  0  0  0  0  0  0  0  0  0
  148.7632  140.4295  155.7073 H   0  0  0  0  0  0  0  0  0  0  0  0
  145.7808  140.5645  155.4199 H   0  0  0  0  0  0  0  0  0  0  0  0
  146.9145  141.8303  155.8693 H   0  0  0  0  0  0  0  0  0  0  0  0
  149.0571  140.4447  153.0443 H   0  0  0  0  0  0  0  0  0  0  0  0
  147.8165  139.5942  152.1328 H   0  0  0  0  0  0  0  0  0  0  0  0
  147.3850  135.3253  151.6792 H   0  0  0  0  0  0  0  0  0  0  0  0
  143.6417  134.7047  151.5631 H   0  0  0  0  0  0  0  0  0  0  0  0
  142.7623  132.7375  150.3537 H   0  0  0  0  0  0  0  0  0  0  0  0
  144.3736  131.0962  149.3587 H   0  0  0  0  0  0  0  0  0  0  0  0
  147.6339  133.2452  150.6904 H   0  0  0  0  0  0  0  0  0  0  0  0
  149.1678  137.6217  153.3774 H   0  0  0  0  0  0  0  0  0  0  0  0
  1  2  2  0  0  0  0
  2  3  1  0  0  0  0
  2 16  1  0  0  0  0
  3  4  1  0  0  0  0
  3 23  1  0  0  0  0
  4  5  1  0  0  0  0
  4 24  1  0  0  0  0
  4 25  1  0  0  0  0
  5 15  1  0  0  0  0
  5  6  1  0  0  0  0
  5 12  1  0  0  0  0
  6 11  1  0  0  0  0
  6  7  1  0  0  0  0
  6 45  1  0  0  0  0
  7  8  1  0  0  0  0
  7 26  1  0  0  0  0
  7 27  1  0  0  0  0
  8  9  1  0  0  0  0
  8 28  1  0  0  0  0
  8 29  1  0  0  0  0
  9 10  1  0  0  0  0
 10 11  1  0  0  0  0
 10 30  1  0  0  0  0
 10 31  1  0  0  0  0
 11 32  1  0  0  0  0
 11 33  1  0  0  0  0
 12 13  1  0  0  0  0
 12 34  1  0  0  0  0
 12 35  1  0  0  0  0
 13 14  1  0  0  0  0
 13 36  1  0  0  0  0
 13 37  1  0  0  0  0
 14 15  1  0  0  0  0
 15 38  1  0  0  0  0
 15 39  1  0  0  0  0
 16 17  1  0  0  0  0
 16 40  1  0  0  0  0
 17 22  1  0  0  0  0
 17 18  2  0  0  0  0
 18 19  1  0  0  0  0
 18 41  1  0  0  0  0
 19 20  2  0  0  0  0
 19 42  1  0  0  0  0
 20 21  1  0  0  0  0
 20 43  1  0  0  0  0
 21 22  2  0  0  0  0
 22 44  1  0  0  0  0
M  CHG  1   6   1
M  END
> <s_m_source_file>
AV-unprocessed.smi

> <i_m_source_file_index>
1787

> <i_lp_mmshare_version>
43012

> <i_f3d_flags>
0

> <s_epik_input>
W2NIXTFuW2NIXVtjSF1bY0hdYzFbTkhdQyg9TylbTkhdW0NIMl1bQ0BdMihbQ0gyXVtDSDJdU1tDSDJdMilOM1tDSDJdW0NIMl1PW0NIMl1bQ0gyXTM=

> <s_epik_cmdline>
J2VwaWtfcHl0aG9uJywgJy1waCcsICc3LjAnLCAnLXRuJywgJzgnLCAnLW1hJywgJzIwMCcsICctbWV0YWxfYmluZGluZycsICctaW1hZScsICc8aW5maWxlLm1hZT4nLCAnLW9tYWUnLCAnPG91dGZpbGUubWFlPic=

> <r_epik_Ionization_Penalty>
2.03633

> <r_epik_Ionization_Penalty_Charging>
2.03219

> <r_epik_Ionization_Penalty_Neutral>
0.00414252

> <r_epik_State_Penalty>
2.16328

> <r_epik_Charging_Adjusted_Penalty>
4.19546

> <i_epik_Tot_Q>
1

> <i_epik_Tot_abs_Q>
1

> <r_epik_Metal_State_Penalty>
2.16381

> <b_epik_Metal_Only>
0

> <s_lp_Force_Field>
OPLS_2005

> <r_lp_Energy>
44.9439

> <b_lp_Chiralities_Consistent>
1

> <s_lp_Variant>
AV-unprocessed.smi:1787-4

> <Gold.Version>
5.8.1

> <Gold.Id.Protein>
6NUR|6NUR_protein|mol2

> <Gold.PLP.Fitness>
47.4950

> <Gold.PLP.PLP>
-32.3346

> <Gold.PLP.part.hbond>
-4.0000

> <Gold.PLP.part.metal>
0.0000

> <Gold.PLP.part.buried>
-1.5486

> <Gold.PLP.part.nonpolar>
-27.4062

> <Gold.PLP.part.repulsive>
0.4616

> <Gold.PLP.ligand.clash>
0.0000

> <Gold.PLP.ligand.torsion>
0.3814

> <Gold.PLP.Chemscore.Hbond>
5.0000

> <Gold.PLP.Chemscore.CHOScore>
0.2629

> <Gold.PLP.Chemscore.Metal>
0.0000

> <Gold.Chemscore.Hbonds>
donor molecule, donor type, donor heavy atom, donor atom, acceptor molecule, acceptor atom, score
      L1  H     3    23       P1  7948  1.00
      L1  H     6    45       P1  7948  1.95
      L1  H    16    40       P1  7948  1.00
      P1  H 10752 10763       L1     9  1.00
      L1  C    22    44       P1 10747  0.31

> <Gold.PLP.Chemscore.Internal.Correction>
0.1346

> <Gold.Rescore>
     Score         DG    S(hbond)    S(metal)    S(lipo)     H(rot)  DE(clash)    DE(int)     intcor
     20.69     -23.64       3.31        0.00      93.29       1.49       1.70       1.25       ----

> <Gold.Chemscore.Fitness>
20.6879

> <Gold.Chemscore.DG>
-23.6410

> <Gold.Chemscore.ZeroCoef>
-5.4800

> <Gold.Chemscore.Hbond>
3.3086

> <Gold.Chemscore.Metal>
0.0000

> <Gold.Chemscore.Lipo>
93.2869

> <Gold.Chemscore.Internal_Hbond>
0.0000

> <Gold.Chemscore.DEClash>
1.6998

> <Gold.Chemscore.DEInternal>
1.2533

> <Gold.Chemscore.Rot>
1.4860

> <Gold.Chemscore.Internal.Correction>
   9.000000E+99

> <Gold.Chemscore.Hbonds>
donor molecule, donor type, donor heavy atom, donor atom, acceptor molecule, acceptor atom, score
      L1  H     3    23       P1  7948  0.98
      L1  H     6    45       P1  7948  0.91
      L1  H    16    40       P1  7948  0.91
      P1  H 10752 10763       L1     9  0.27

> <Gold.Chemscore.Hbond.Weighted>
-11.0507

> <Gold.Chemscore.Metal.Weighted>
-0.0000

> <Gold.Chemscore.Lipo.Weighted>
-10.9146

> <Gold.Chemscore.Internal_Hbond.Weighted>
0.0000

> <Gold.Chemscore.DEClash.Weighted>
1.6998

> <Gold.Chemscore.DEInternal.Weighted>
1.2533

> <Gold.Chemscore.Rot.Weighted>
3.8042

> <Gold.Chemscore.Internal.Correction.Weighted>
   9.000000E+99

> <Gold.Protein.RotatedTorsions>
[ 6907 6896 6895 6894 ] final   16.49 input  -60.11 | X-H torsion
[ 7974 7965 7964 7962 ] final  164.34 input  175.53 | X-H torsion
[ 8008 7997 7996 7995 ] final   41.55 input   59.86 | X-H torsion
[ 10167 10162 10161 10158 ] final   52.17 input  -65.29 | X-H torsion
[ 10718 10713 10712 10709 ] final   71.29 input   66.30 | X-H torsion
[ 10763 10752 10751 10750 ] final   68.24 input  -60.55 | X-H torsion
[ 11005 11000 10999 10996 ] final   41.45 input  -57.11 | X-H torsion

> <Gold.Protein.ActiveResidues>
 VAL166  LYS551  ARG553  GLY616  TRP617  ASP618  TYR619  PRO620  LYS621  CYS622 
 ASP623  PHE694  ASN695  SER759  ASP760  ASP761  ALA762  ILE779  LEU786  VAL792 
 PHE793  MET794  SER795  GLU796  ALA797  LYS798  CYS799  TRP800  GLU811  SER814 

> <Gold.Protein.RotatedAtoms>
  151.8347  135.0610  160.0440 H   0  0  0  0  0  0  0  0  0  0  0  0  # atno 6907 bound_to 6896
  152.2854  133.5505  159.5532 H   0  0  0  0  0  0  0  0  0  0  0  0  # atno 6908 bound_to 6896
  150.7207  134.0421  159.3811 H   0  0  0  0  0  0  0  0  0  0  0  0  # atno 6909 bound_to 6896
  144.7549  139.8312  143.6353 H   0  0  0  0  0  0  0  0  0  0  0  0  # atno 7974 bound_to 7965
  155.2715  140.3366  155.4265 H   0  0  0  0  0  0  0  0  0  0  0  0  # atno 8008 bound_to 7997
  156.2130  140.1777  156.7694 H   0  0  0  0  0  0  0  0  0  0  0  0  # atno 8009 bound_to 7997
  154.5713  140.0669  156.8953 H   0  0  0  0  0  0  0  0  0  0  0  0  # atno 8010 bound_to 7997
  140.2542  144.3445  150.6338 H   0  0  0  0  0  0  0  0  0  0  0  0  # atno 10167 bound_to 10162
  157.6444  130.9521  150.0769 H   0  0  0  0  0  0  0  0  0  0  0  0  # atno 10718 bound_to 10713
  153.0225  135.5254  154.7104 H   0  0  0  0  0  0  0  0  0  0  0  0  # atno 10763 bound_to 10752
  154.6188  135.2886  155.0352 H   0  0  0  0  0  0  0  0  0  0  0  0  # atno 10764 bound_to 10752
  154.1346  135.6587  153.4981 H   0  0  0  0  0  0  0  0  0  0  0  0  # atno 10765 bound_to 10752
  140.1833  134.4077  155.8187 H   0  0  0  0  0  0  0  0  0  0  0  0  # atno 11005 bound_to 11000
  146.1548  139.4642  143.0026 LP  0  0  0  0  0  0  0  0  0  0  0  0  # atno 17320 bound_to 7965
  145.6812  141.0190  143.1605 LP  0  0  0  0  0  0  0  0  0  0  0  0  # atno 17321 bound_to 7965
  140.6016  143.2167  151.7060 LP  0  0  0  0  0  0  0  0  0  0  0  0  # atno 17342 bound_to 10162
  139.5036  144.3783  152.0401 LP  0  0  0  0  0  0  0  0  0  0  0  0  # atno 17343 bound_to 10162
  156.1756  130.3648  149.9104 LP  0  0  0  0  0  0  0  0  0  0  0  0  # atno 17370 bound_to 10713
  156.7069  130.8955  151.3605 LP  0  0  0  0  0  0  0  0  0  0  0  0  # atno 17371 bound_to 10713
  141.2224  133.7011  156.7968 LP  0  0  0  0  0  0  0  0  0  0  0  0  # atno 17394 bound_to 11000
  140.2242  134.8734  157.3409 LP  0  0  0  0  0  0  0  0  0  0  0  0  # atno 17395 bound_to 11000

$$$$
