AV-unprocessed.smi:565|AV-procd|sdf|2952|dock1
  -GOLD-   2262023453D 1   1.00000     0.00000
 Structure written by MMmdl.
 50 51  0  0  0  0  0  0  0  0  2 V2000
  153.2705  137.6345  156.0093 C   0  0  0  0  0  0  0  0  0  0  0  0
  152.3891  138.7849  156.4046 C   0  0  0  0  0  0  0  0  0  0  0  0
  152.6350  139.4274  157.5338 N   0  0  0  0  0  0  0  0  0  0  0  0
  151.6815  140.3777  157.6044 N   0  0  0  0  0  0  0  0  0  0  0  0
  151.6607  141.2811  158.7386 C   0  0  0  0  0  0  0  0  0  0  0  0
  150.8258  140.3303  156.5211 C   0  0  0  0  0  0  0  0  0  0  0  0
  149.6759  141.2740  156.3719 C   0  0  0  0  0  0  0  0  0  0  0  0
  151.2558  139.3099  155.7151 C   0  0  0  0  0  0  0  0  0  0  0  0
  150.6724  138.8344  154.4087 C   0  0  0  0  0  0  0  0  0  0  0  0
  149.1690  138.6209  154.5765 C   0  0  0  0  0  0  0  0  0  0  0  0
  148.6875  138.4774  155.7004 O   0  0  0  0  0  0  0  0  0  0  0  0
  148.4411  138.5762  153.4501 N   0  0  0  0  0  0  0  0  0  0  0  0
  147.0100  138.3088  153.3927 C   0  0  0  0  0  0  0  0  0  0  0  0
  146.6787  136.9306  153.9972 C   0  0  0  0  0  0  0  0  0  0  0  0
  146.4926  135.8843  152.9609 N   0  3  2  0  0  0  0  0  0  0  0  0
  145.5669  136.3208  151.8838 C   0  0  0  0  0  0  0  0  0  0  0  0
  145.5186  135.2915  150.7434 C   0  0  0  0  0  0  0  0  0  0  0  0
  145.1353  133.9015  151.2707 C   0  0  0  0  0  0  0  0  0  0  0  0
  146.0517  133.4714  152.4308 C   0  0  1  0  0  0  0  0  0  0  0  0
  147.4597  133.0649  151.9605 C   0  0  0  0  0  0  0  0  0  0  0  0
  146.0948  134.5634  153.5198 C   0  0  0  0  0  0  0  0  0  0  0  0
  153.4363  137.6171  154.9322 H   0  0  0  0  0  0  0  0  0  0  0  0
  152.8163  136.6846  156.2913 H   0  0  0  0  0  0  0  0  0  0  0  0
  154.2476  137.6919  156.4907 H   0  0  0  0  0  0  0  0  0  0  0  0
  151.6804  142.3126  158.3860 H   0  0  0  0  0  0  0  0  0  0  0  0
  152.5254  141.1129  159.3820 H   0  0  0  0  0  0  0  0  0  0  0  0
  150.7520  141.1197  159.3185 H   0  0  0  0  0  0  0  0  0  0  0  0
  148.9871  140.9388  155.5965 H   0  0  0  0  0  0  0  0  0  0  0  0
  150.0270  142.2703  156.1029 H   0  0  0  0  0  0  0  0  0  0  0  0
  149.1115  141.3525  157.3014 H   0  0  0  0  0  0  0  0  0  0  0  0
  150.8377  139.5555  153.6078 H   0  0  0  0  0  0  0  0  0  0  0  0
  151.1418  137.9078  154.0762 H   0  0  0  0  0  0  0  0  0  0  0  0
  148.9199  138.7083  152.5706 H   0  0  0  0  0  0  0  0  0  0  0  0
  146.4592  139.0975  153.9083 H   0  0  0  0  0  0  0  0  0  0  0  0
  146.7156  138.3578  152.3452 H   0  0  0  0  0  0  0  0  0  0  0  0
  147.4504  136.6205  154.7039 H   0  0  0  0  0  0  0  0  0  0  0  0
  145.7565  137.0236  154.5728 H   0  0  0  0  0  0  0  0  0  0  0  0
  144.5693  136.4728  152.2995 H   0  0  0  0  0  0  0  0  0  0  0  0
  145.8920  137.2807  151.4809 H   0  0  0  0  0  0  0  0  0  0  0  0
  144.8018  135.6106  149.9863 H   0  0  0  0  0  0  0  0  0  0  0  0
  146.4877  135.2480  150.2455 H   0  0  0  0  0  0  0  0  0  0  0  0
  144.1023  133.9268  151.6202 H   0  0  0  0  0  0  0  0  0  0  0  0
  145.1661  133.1681  150.4641 H   0  0  0  0  0  0  0  0  0  0  0  0
  145.6100  132.5804  152.8791 H   0  0  0  0  0  0  0  0  0  0  0  0
  147.9987  133.9012  151.5152 H   0  0  0  0  0  0  0  0  0  0  0  0
  147.4098  132.2691  151.2168 H   0  0  0  0  0  0  0  0  0  0  0  0
  148.0584  132.6954  152.7936 H   0  0  0  0  0  0  0  0  0  0  0  0
  146.7811  134.2537  154.3069 H   0  0  0  0  0  0  0  0  0  0  0  0
  145.1129  134.6568  153.9870 H   0  0  0  0  0  0  0  0  0  0  0  0
  147.3930  135.7586  152.5206 H   0  0  0  0  0  0  0  0  0  0  0  0
  1  2  1  0  0  0  0
  1 22  1  0  0  0  0
  1 23  1  0  0  0  0
  1 24  1  0  0  0  0
  2  8  1  0  0  0  0
  2  3  2  0  0  0  0
  3  4  1  0  0  0  0
  4  5  1  0  0  0  0
  4  6  1  0  0  0  0
  5 25  1  0  0  0  0
  5 26  1  0  0  0  0
  5 27  1  0  0  0  0
  6  7  1  0  0  0  0
  6  8  2  0  0  0  0
  7 28  1  0  0  0  0
  7 29  1  0  0  0  0
  7 30  1  0  0  0  0
  8  9  1  0  0  0  0
  9 10  1  0  0  0  0
  9 31  1  0  0  0  0
  9 32  1  0  0  0  0
 10 11  2  0  0  0  0
 10 12  1  0  0  0  0
 12 13  1  0  0  0  0
 12 33  1  0  0  0  0
 13 14  1  0  0  0  0
 13 34  1  0  0  0  0
 13 35  1  0  0  0  0
 14 15  1  0  0  0  0
 14 36  1  0  0  0  0
 14 37  1  0  0  0  0
 15 21  1  0  0  0  0
 15 16  1  0  0  0  0
 15 50  1  0  0  0  0
 16 17  1  0  0  0  0
 16 38  1  0  0  0  0
 16 39  1  0  0  0  0
 17 18  1  0  0  0  0
 17 40  1  0  0  0  0
 17 41  1  0  0  0  0
 18 19  1  0  0  0  0
 18 42  1  0  0  0  0
 18 43  1  0  0  0  0
 19 20  1  0  0  0  0
 19 21  1  0  0  0  0
 19 44  1  0  0  0  0
 20 45  1  0  0  0  0
 20 46  1  0  0  0  0
 20 47  1  0  0  0  0
 21 48  1  0  0  0  0
 21 49  1  0  0  0  0
M  CHG  1  15   1
M  END
> <s_m_source_file>
AV-unprocessed.smi

> <i_m_source_file_index>
565

> <i_lp_mmshare_version>
43012

> <i_f3d_flags>
0

> <s_epik_input>
W0NIM11jMW5uKFtDSDNdKWMoW0NIM10pYzFbQ0gyXUMoPU8pW05IXVtDSDJdW0NIMl1OMltDSDJdW0NIMl1bQ0gyXVtDQEBIXShbQ0gzXSlbQ0gyXTI=

> <s_epik_cmdline>
J2VwaWtfcHl0aG9uJywgJy1waCcsICc3LjAnLCAnLXRuJywgJzgnLCAnLW1hJywgJzIwMCcsICctbWV0YWxfYmluZGluZycsICctaW1hZScsICc8aW5maWxlLm1hZT4nLCAnLW9tYWUnLCAnPG91dGZpbGUubWFlPic=

> <r_lp_tautomer_probability>
1

> <r_epik_Ionization_Penalty>
0.00411138

> <r_epik_Ionization_Penalty_Charging>
0.0019503

> <r_epik_Ionization_Penalty_Neutral>
0.00216107

> <r_epik_State_Penalty>
-0

> <r_epik_Charging_Adjusted_Penalty>
0.0019503

> <i_epik_Tot_Q>
1

> <i_epik_Tot_abs_Q>
1

> <r_epik_Metal_State_Penalty>
-0

> <b_epik_Metal_Only>
0

> <s_lp_Force_Field>
OPLS_2005

> <r_lp_Energy>
12.6128

> <b_lp_Chiralities_Consistent>
1

> <s_lp_Variant>
AV-unprocessed.smi:565-2

> <Gold.Version>
5.8.1

> <Gold.Id.Protein>
6NUR|6NUR_protein|mol2

> <Gold.PLP.Fitness>
46.0424

> <Gold.PLP.PLP>
-35.3182

> <Gold.PLP.part.hbond>
-4.0000

> <Gold.PLP.part.metal>
0.0000

> <Gold.PLP.part.buried>
0.2337

> <Gold.PLP.part.nonpolar>
-31.7014

> <Gold.PLP.part.repulsive>
0.1008

> <Gold.PLP.ligand.clash>
0.0000

> <Gold.PLP.ligand.torsion>
0.6684

> <Gold.PLP.Chemscore.Hbond>
4.0000

> <Gold.PLP.Chemscore.CHOScore>
0.0000

> <Gold.PLP.Chemscore.Metal>
0.0000

> <Gold.Chemscore.Hbonds>
donor molecule, donor type, donor heavy atom, donor atom, acceptor molecule, acceptor atom, score
      L1  H    12    33       P1  7957  0.94
      L1  H    15    50       P1  7948  2.00
      P1  H  7997  8008       L1     3  0.57

> <Gold.PLP.Chemscore.Internal.Correction>
0.0609

> <Gold.Rescore>
     Score         DG    S(hbond)    S(metal)    S(lipo)     H(rot)  DE(clash)    DE(int)     intcor
     16.10     -20.97       2.76        0.00      88.86       1.61       0.81       4.06       ----

> <Gold.Chemscore.Fitness>
16.1050

> <Gold.Chemscore.DG>
-20.9717

> <Gold.Chemscore.ZeroCoef>
-5.4800

> <Gold.Chemscore.Hbond>
2.7627

> <Gold.Chemscore.Metal>
0.0000

> <Gold.Chemscore.Lipo>
88.8615

> <Gold.Chemscore.Internal_Hbond>
0.0000

> <Gold.Chemscore.DEClash>
0.8091

> <Gold.Chemscore.DEInternal>
4.0576

> <Gold.Chemscore.Rot>
1.6142

> <Gold.Chemscore.Internal.Correction>
   9.000000E+99

> <Gold.Chemscore.Hbonds>
donor molecule, donor type, donor heavy atom, donor atom, acceptor molecule, acceptor atom, score
      L1  H    12    33       P1  7957  0.79
      L1  H    15    50       P1  7948  0.99
      P1  H  7997  8008       L1     3  0.04

> <Gold.Chemscore.Hbond.Weighted>
-9.2273

> <Gold.Chemscore.Metal.Weighted>
-0.0000

> <Gold.Chemscore.Lipo.Weighted>
-10.3968

> <Gold.Chemscore.Internal_Hbond.Weighted>
0.0000

> <Gold.Chemscore.DEClash.Weighted>
0.8091

> <Gold.Chemscore.DEInternal.Weighted>
4.0576

> <Gold.Chemscore.Rot.Weighted>
4.1324

> <Gold.Chemscore.Internal.Correction.Weighted>
   9.000000E+99

> <Gold.Protein.RotatedTorsions>
[ 6907 6896 6895 6894 ] final  -17.94 input  -60.11 | X-H torsion
[ 7974 7965 7964 7962 ] final  -63.20 input  175.53 | X-H torsion
[ 8008 7997 7996 7995 ] final  -74.12 input   59.86 | X-H torsion
[ 10167 10162 10161 10158 ] final -102.96 input  -65.29 | X-H torsion
[ 10718 10713 10712 10709 ] final -162.35 input   66.30 | X-H torsion
[ 10763 10752 10751 10750 ] final -103.08 input  -60.55 | X-H torsion
[ 11005 11000 10999 10996 ] final -143.01 input  -57.11 | X-H torsion

> <Gold.Protein.ActiveResidues>
 VAL166  LYS551  ARG553  GLY616  TRP617  ASP618  TYR619  PRO620  LYS621  CYS622 
 ASP623  PHE694  ASN695  SER759  ASP760  ASP761  ALA762  ILE779  LEU786  VAL792 
 PHE793  MET794  SER795  GLU796  ALA797  LYS798  CYS799  TRP800  GLU811  SER814 

> <Gold.Protein.RotatedAtoms>
  151.2857  135.0727  159.9185 H   0  0  0  0  0  0  0  0  0  0  0  0  # atno 6907 bound_to 6896
  152.5326  133.9984  159.7893 H   0  0  0  0  0  0  0  0  0  0  0  0  # atno 6908 bound_to 6896
  151.0246  133.5795  159.2698 H   0  0  0  0  0  0  0  0  0  0  0  0  # atno 6909 bound_to 6896
  145.7819  140.8757  143.0326 H   0  0  0  0  0  0  0  0  0  0  0  0  # atno 7974 bound_to 7965
  154.5304  140.0767  156.8335 H   0  0  0  0  0  0  0  0  0  0  0  0  # atno 8008 bound_to 7997
  155.3386  140.3406  155.4221 H   0  0  0  0  0  0  0  0  0  0  0  0  # atno 8009 bound_to 7997
  156.1775  140.1641  156.8321 H   0  0  0  0  0  0  0  0  0  0  0  0  # atno 8010 bound_to 7997
  140.2251  143.3648  152.0936 H   0  0  0  0  0  0  0  0  0  0  0  0  # atno 10167 bound_to 10162
  156.6092  130.8843  151.2932 H   0  0  0  0  0  0  0  0  0  0  0  0  # atno 10718 bound_to 10713
  154.7781  135.4837  153.9787 H   0  0  0  0  0  0  0  0  0  0  0  0  # atno 10763 bound_to 10752
  153.1456  135.6781  153.8967 H   0  0  0  0  0  0  0  0  0  0  0  0  # atno 10764 bound_to 10752
  153.8627  135.3153  155.3417 H   0  0  0  0  0  0  0  0  0  0  0  0  # atno 10765 bound_to 10752
  140.8168  134.2679  157.4918 H   0  0  0  0  0  0  0  0  0  0  0  0  # atno 11005 bound_to 11000
  144.6795  140.0001  143.7484 LP  0  0  0  0  0  0  0  0  0  0  0  0  # atno 17320 bound_to 7965
  146.0065  139.3134  143.0896 LP  0  0  0  0  0  0  0  0  0  0  0  0  # atno 17321 bound_to 7965
  139.5130  144.6926  151.5719 LP  0  0  0  0  0  0  0  0  0  0  0  0  # atno 17342 bound_to 10162
  140.6227  143.9228  150.6539 LP  0  0  0  0  0  0  0  0  0  0  0  0  # atno 17343 bound_to 10162
  157.7259  130.9622  150.1633 LP  0  0  0  0  0  0  0  0  0  0  0  0  # atno 17370 bound_to 10713
  156.2404  130.3690  149.8343 LP  0  0  0  0  0  0  0  0  0  0  0  0  # atno 17371 bound_to 10713
  139.8710  134.9513  156.4082 LP  0  0  0  0  0  0  0  0  0  0  0  0  # atno 17394 bound_to 11000
  140.9141  133.7691  155.9827 LP  0  0  0  0  0  0  0  0  0  0  0  0  # atno 17395 bound_to 11000

$$$$
