#       Name:                AV-unprocessed.smi:2091
#       Creating user name   scv26
#       Creation time:       Fri Mar 27 11:26:22 2020


#       File generated by GOLD software.
#

@<TRIPOS>MOLECULE
AV-unprocessed.smi:2091
    44    45     1
SMALL
NO_CHARGES


@<TRIPOS>ATOM
      1 ****         0.4239   1.4745   0.6828 O.2            1 S1                 0.0000
      2 ****         1.0139   0.4883   0.2391 C.2            1 S1                 0.0000
      3 ****         2.5244   0.5329  -0.0271 C.3            1 S1                 0.0000
      4 ****         2.9887   1.8542  -0.4799 N.am           1 S1                 0.0000
      5 ****         3.5596   2.7110   0.4777 C.2            1 S1                 0.0000
      6 ****         4.0122   3.9373   0.1539 C.2            1 S1                 0.0000
      7 ****         3.8991   4.3709  -1.2332 C.2            1 S1                 0.0000
      8 ****         4.3128   5.4851  -1.5481 O.2            1 S1                 0.0000
      9 ****         3.3321   3.5058  -2.1242 N.pl3          1 S1                -1.0000
     10 ****         2.8732   2.2623  -1.7798 C.2            1 S1                 0.0000
     11 ****         2.3622   1.4981  -2.5995 O.2            1 S1                 0.0000
     12 ****         0.4056  -0.6818  -0.0122 N.am           1 S1                 0.0000
     13 ****        -1.0186  -0.9604   0.1851 C.3            1 S1                 0.0000
     14 ****        -1.4057  -2.1085  -0.7751 C.3            1 S1                 0.0000
     15 ****        -2.9092  -2.1698  -1.0966 C.3            1 S1                 0.0000
     16 ****        -3.8161  -2.4949   0.0999 C.3            1 S1                 0.0000
     17 ****        -3.7626  -1.4426   1.2205 C.3            1 S1                 0.0000
     18 ****        -2.5644  -1.5740   2.0392 N.am           1 S1                 0.0000
     19 ****        -1.2943  -1.4023   1.6417 C.2            1 S1                 0.0000
     20 ****        -0.3663  -1.5995   2.4263 O.2            1 S1                 0.0000
     21 ****         3.0372   0.2420   0.8905 H              1 S1                 0.0000
     22 ****         2.7952  -0.2299  -0.7599 H              1 S1                 0.0000
     23 ****         3.6001   2.3165   1.4822 H              1 S1                 0.0000
     24 ****         4.4456   4.5843   0.9021 H              1 S1                 0.0000
     25 ****         0.9718  -1.4397  -0.3642 H              1 S1                 0.0000
     26 ****        -1.5930  -0.0628  -0.0510 H              1 S1                 0.0000
     27 ****        -0.8842  -1.9691  -1.7233 H              1 S1                 0.0000
     28 ****        -1.0614  -3.0712  -0.3930 H              1 S1                 0.0000
     29 ****        -3.2221  -1.2249  -1.5426 H              1 S1                 0.0000
     30 ****        -3.0684  -2.9263  -1.8655 H              1 S1                 0.0000
     31 ****        -4.8425  -2.5605  -0.2627 H              1 S1                 0.0000
     32 ****        -3.5769  -3.4819   0.4981 H              1 S1                 0.0000
     33 ****        -3.8435  -0.4315   0.8189 H              1 S1                 0.0000
     34 ****        -4.6187  -1.5795   1.8813 H              1 S1                 0.0000
     35 ****        -2.7096  -1.8515   2.9992 H              1 S1                 0.0000
     36 ****         0.9296   2.3158   0.8734 LP             1 S1                 0.0000
     37 ****        -0.5608   1.4337   0.8523 LP             1 S1                 0.0000
     38 ****         4.7205   6.0810  -0.8563 LP             1 S1                 0.0000
     39 ****         4.2415   5.7954  -2.4961 LP             1 S1                 0.0000
     40 ****         3.2475   3.7951  -3.0777 LP             1 S1                 0.0000
     41 ****         2.0403   0.5967  -2.3098 LP             1 S1                 0.0000
     42 ****         2.2692   1.7790  -3.5547 LP             1 S1                 0.0000
     43 ****         0.5788  -1.4743   2.1245 LP             1 S1                 0.0000
     44 ****        -0.5576  -1.8849   3.3654 LP             1 S1                 0.0000
@<TRIPOS>BOND
    1    1    2 2     
    2    2    3 1     
    3    2   12 am    
    4    3    4 1     
    5    3   21 1     
    6    3   22 1     
    7    4   10 am    
    8    4    5 1     
    9    5    6 2     
   10    5   23 1     
   11    6    7 1     
   12    6   24 1     
   13    7    8 2     
   14    7    9 1     
   15    9   10 1     
   16   10   11 2     
   17   12   13 1     
   18   12   25 1     
   19   13   19 1     
   20   13   14 1     
   21   13   26 1     
   22   14   15 1     
   23   14   27 1     
   24   14   28 1     
   25   15   16 1     
   26   15   29 1     
   27   15   30 1     
   28   16   17 1     
   29   16   31 1     
   30   16   32 1     
   31   17   18 1     
   32   17   33 1     
   33   17   34 1     
   34   18   19 am    
   35   18   35 1     
   36   19   20 2     
   37    1   36 1     
   38    1   37 1     
   39    8   38 1     
   40    8   39 1     
   41    9   40 1     
   42   11   41 1     
   43   11   42 1     
   44   20   43 1     
   45   20   44 1     
@<TRIPOS>SUBSTRUCTURE
      1 S1             1
@<TRIPOS>SET
LONE_PAIRS      STATIC     ATOMS    <user>   **** ""
9 36 37 38 39 40 41 42 43 44
DONOR_HYDROGENS      STATIC     ATOMS    <user>   **** ""
2 25 35
ATOM$BLUE        STATIC     ATOMS    COLORGROUP SYSTEM
9 36 37 38 39 40 41 42 43 44
ATOM$RED        STATIC     ATOMS    COLORGROUP SYSTEM
2 25 35
