#       Name:                AV-unprocessed.smi:131
#       Creating user name   scv26
#       Creation time:       Thu Mar 26 18:30:05 2020


#       File generated by GOLD software.
#

@<TRIPOS>MOLECULE
AV-unprocessed.smi:131
    64    67     1
SMALL
NO_CHARGES


@<TRIPOS>ATOM
      1 ****         1.0702   0.6968   0.6896 O.2            1 S1                 0.0000
      2 ****         1.5691  -0.3943   0.9670 C.2            1 S1                 0.0000
      3 ****         3.0971  -0.5588   0.9957 C.3            1 S1                 0.0000
      4 ****         3.7990   0.3784   0.0917 N.am           1 S1                 0.0000
      5 ****         3.9852  -0.0009  -1.2608 C.2            1 S1                 0.0000
      6 ****         3.5853  -1.0883  -1.6796 O.2            1 S1                 0.0000
      7 ****         4.6674   0.9766  -2.1012 C.2            1 S1                 0.0000
      8 ****         4.9028   0.6936  -3.3936 F              1 S1                 0.0000
      9 ****         5.0682   2.1638  -1.6018 C.2            1 S1                 0.0000
     10 ****         4.8608   2.5300  -0.2836 N.am           1 S1                 0.0000
     11 ****         5.3047   3.8725   0.2591 C.3            1 S1                 0.0000
     12 ****         4.0890   4.7875   0.5050 C.3            1 S1                 0.0000
     13 ****         4.4658   6.0547  -0.2367 C.3            1 S1                 0.0000
     14 ****         5.3570   5.5171  -1.3459 C.3            1 S1                 0.0000
     15 ****         6.1182   4.5195  -0.6780 O.3            1 S1                 0.0000
     16 ****         4.2254   1.6291   0.5985 C.2            1 S1                 0.0000
     17 ****         4.0398   1.9333   1.7790 O.2            1 S1                 0.0000
     18 ****         0.8687  -1.4939   1.3013 N.am           1 S1                 0.0000
     19 ****        -0.5399  -1.6842   1.3561 C.ar           1 S1                 0.0000
     20 ****        -1.0034  -2.8099   2.0708 C.ar           1 S1                 0.0000
     21 ****        -2.3813  -3.0863   2.1611 C.ar           1 S1                 0.0000
     22 ****        -3.3037  -2.2314   1.5284 C.ar           1 S1                 0.0000
     23 ****        -5.0548  -2.5839   1.6122 S.o2           1 S1                 0.0000
     24 ****        -5.2581  -3.9611   2.0891 O.2            1 S1                 0.0000
     25 ****        -5.7023  -1.4566   2.3009 O.2            1 S1                 0.0000
     26 ****        -5.5324  -2.5214  -0.0508 N.3            1 S1                 0.0000
     27 ****        -6.9308  -2.2234  -0.3842 C.3            1 S1                 0.0000
     28 ****        -7.3293  -3.2541  -1.4415 C.3            1 S1                 0.0000
     29 ****        -6.0118  -3.5807  -2.1305 C.3            1 S1                 0.0000
     30 ****        -4.9979  -3.5161  -0.9892 C.3            1 S1                 0.0000
     31 ****        -2.8575  -1.1123   0.8002 C.ar           1 S1                 0.0000
     32 ****        -1.4786  -0.8411   0.7094 C.ar           1 S1                 0.0000
     33 ****         3.4311  -0.4425   2.0277 H              1 S1                 0.0000
     34 ****         3.3546  -1.5908   0.7505 H              1 S1                 0.0000
     35 ****         5.5697   2.8401  -2.2767 H              1 S1                 0.0000
     36 ****         5.8868   3.6500   1.1552 H              1 S1                 0.0000
     37 ****         3.1894   4.3469   0.0718 H              1 S1                 0.0000
     38 ****         3.9278   4.9455   1.5716 H              1 S1                 0.0000
     39 ****         3.6020   6.6049  -0.6108 H              1 S1                 0.0000
     40 ****         5.0390   6.7154   0.4150 H              1 S1                 0.0000
     41 ****         4.7600   5.0681  -2.1411 H              1 S1                 0.0000
     42 ****         5.9957   6.2839  -1.7842 H              1 S1                 0.0000
     43 ****         1.4198  -2.2904   1.5871 H              1 S1                 0.0000
     44 ****        -0.2996  -3.4699   2.5569 H              1 S1                 0.0000
     45 ****        -2.7210  -3.9508   2.7117 H              1 S1                 0.0000
     46 ****        -7.5719  -2.2832   0.4960 H              1 S1                 0.0000
     47 ****        -6.9894  -1.2098  -0.7815 H              1 S1                 0.0000
     48 ****        -7.7239  -4.1482  -0.9567 H              1 S1                 0.0000
     49 ****        -8.0875  -2.8813  -2.1306 H              1 S1                 0.0000
     50 ****        -6.0235  -4.5487  -2.6321 H              1 S1                 0.0000
     51 ****        -5.7835  -2.8166  -2.8749 H              1 S1                 0.0000
     52 ****        -4.0007  -3.2352  -1.3291 H              1 S1                 0.0000
     53 ****        -4.9307  -4.4851  -0.4936 H              1 S1                 0.0000
     54 ****        -3.5682  -0.4662   0.3058 H              1 S1                 0.0000
     55 ****        -1.1704   0.0113   0.1253 H              1 S1                 0.0000
     56 ****         1.6594   1.4778   0.4825 LP             1 S1                 0.0000
     57 ****         0.0759   0.8018   0.6714 LP             1 S1                 0.0000
     58 ****         3.1197  -1.7216  -1.0615 LP             1 S1                 0.0000
     59 ****         3.7264  -1.3377  -2.6377 LP             1 S1                 0.0000
     60 ****         6.4559   3.8543  -1.3440 LP             1 S1                 0.0000
     61 ****         6.8927   4.9462  -0.2110 LP             1 S1                 0.0000
     62 ****         3.5817   1.2920   2.3945 LP             1 S1                 0.0000
     63 ****         4.3475   2.8212   2.1208 LP             1 S1                 0.0000
     64 ****        -5.0166  -1.6789  -0.2064 LP             1 S1                 0.0000
@<TRIPOS>BOND
    1    1    2 2     
    2    2    3 1     
    3    2   18 am    
    4    3    4 1     
    5    3   33 1     
    6    3   34 1     
    7    4   16 am    
    8    4    5 am    
    9    5    6 2     
   10    5    7 1     
   11    7    8 1     
   12    7    9 2     
   13    9   10 1     
   14    9   35 1     
   15   10   11 1     
   16   10   16 am    
   17   11   15 1     
   18   11   12 1     
   19   11   36 1     
   20   12   13 1     
   21   12   37 1     
   22   12   38 1     
   23   13   14 1     
   24   13   39 1     
   25   13   40 1     
   26   14   15 1     
   27   14   41 1     
   28   14   42 1     
   29   16   17 2     
   30   18   19 1     
   31   18   43 1     
   32   19   32 ar    
   33   19   20 ar    
   34   20   21 ar    
   35   20   44 1     
   36   21   22 ar    
   37   21   45 1     
   38   22   23 1     
   39   22   31 ar    
   40   23   24 2     
   41   23   25 2     
   42   23   26 1     
   43   26   30 1     
   44   26   27 1     
   45   27   28 1     
   46   27   46 1     
   47   27   47 1     
   48   28   29 1     
   49   28   48 1     
   50   28   49 1     
   51   29   30 1     
   52   29   50 1     
   53   29   51 1     
   54   30   52 1     
   55   30   53 1     
   56   31   32 ar    
   57   31   54 1     
   58   32   55 1     
   59    1   56 1     
   60    1   57 1     
   61    6   58 1     
   62    6   59 1     
   63   15   60 1     
   64   15   61 1     
   65   17   62 1     
   66   17   63 1     
   67   26   64 1     
@<TRIPOS>SUBSTRUCTURE
      1 S1             1
@<TRIPOS>SET
LONE_PAIRS      STATIC     ATOMS    <user>   **** ""
11 56 57 58 59 60 61 62 63 24 25 64
DONOR_HYDROGENS      STATIC     ATOMS    <user>   **** ""
1 43
ATOM$BLUE        STATIC     ATOMS    COLORGROUP SYSTEM
11 56 57 58 59 60 61 62 63 24 25 64
ATOM$RED        STATIC     ATOMS    COLORGROUP SYSTEM
1 43
