AV-unprocessed.smi:1314|AV-procd|sdf|5453|dock1
  -GOLD-   22720 5 23D 1   1.00000     0.00000
 Structure written by MMmdl.
 41 42  0  0  0  0  0  0  0  0  1 V2000
  148.8735  135.7848  155.5458 C   0  0  0  0  0  0  0  0  0  0  0  0
  149.7518  136.2252  156.6816 C   0  0  0  0  0  0  0  0  0  0  0  0
  149.4724  135.8356  157.9143 N   0  0  0  0  0  0  0  0  0  0  0  0
  150.4610  136.3987  158.7270 O   0  0  0  0  0  0  0  0  0  0  0  0
  151.3060  137.1146  157.9421 C   0  0  0  0  0  0  0  0  0  0  0  0
  152.4424  137.7959  158.6265 C   0  0  0  0  0  0  0  0  0  0  0  0
  150.9118  137.0502  156.6338 C   0  0  0  0  0  0  0  0  0  0  0  0
  151.5453  137.6891  155.4247 C   0  0  0  0  0  0  0  0  0  0  0  0
  151.7199  139.1909  155.6594 C   0  0  0  0  0  0  0  0  0  0  0  0
  152.8443  139.6603  155.8357 O   0  0  0  0  0  0  0  0  0  0  0  0
  150.5992  139.9294  155.6631 N   0  0  0  0  0  0  0  0  0  0  0  0
  150.5299  141.3699  155.8890 C   0  0  0  0  0  0  0  0  0  0  0  0
  150.5748  141.7228  157.3845 C   0  0  0  0  0  0  0  0  0  0  0  0
  152.1622  141.2939  158.1565 S   0  0  0  0  0  0  0  0  0  0  0  0
  152.6052  142.8856  158.9101 C   0  0  0  0  0  0  0  0  0  0  0  0
  151.8674  143.1337  160.2251 C   0  0  0  0  0  0  0  0  0  0  0  0
  151.9570  144.6472  160.4338 C   0  0  0  0  0  0  0  0  0  0  0  0
  152.0705  145.2637  159.0310 C   0  0  0  0  0  0  0  0  0  0  0  0
  152.2174  144.0920  158.0507 C   0  0  0  0  0  0  0  0  0  0  0  0
  149.4713  135.4397  154.7022 H   0  0  0  0  0  0  0  0  0  0  0  0
  148.2491  136.6069  155.1960 H   0  0  0  0  0  0  0  0  0  0  0  0
  148.2140  134.9669  155.8383 H   0  0  0  0  0  0  0  0  0  0  0  0
  153.3646  137.6744  158.0581 H   0  0  0  0  0  0  0  0  0  0  0  0
  152.6050  137.3832  159.6225 H   0  0  0  0  0  0  0  0  0  0  0  0
  152.2459  138.8629  158.7295 H   0  0  0  0  0  0  0  0  0  0  0  0
  152.5252  137.2589  155.2155 H   0  0  0  0  0  0  0  0  0  0  0  0
  150.9443  137.5180  154.5303 H   0  0  0  0  0  0  0  0  0  0  0  0
  149.7227  139.4535  155.5055 H   0  0  0  0  0  0  0  0  0  0  0  0
  151.3933  141.8140  155.3930 H   0  0  0  0  0  0  0  0  0  0  0  0
  149.6509  141.8105  155.4156 H   0  0  0  0  0  0  0  0  0  0  0  0
  150.3733  142.7842  157.5339 H   0  0  0  0  0  0  0  0  0  0  0  0
  149.7879  141.1757  157.9034 H   0  0  0  0  0  0  0  0  0  0  0  0
  153.6796  142.9025  159.0984 H   0  0  0  0  0  0  0  0  0  0  0  0
  150.8205  142.8426  160.1262 H   0  0  0  0  0  0  0  0  0  0  0  0
  152.2910  142.5709  161.0574 H   0  0  0  0  0  0  0  0  0  0  0  0
  151.0997  145.0328  160.9866 H   0  0  0  0  0  0  0  0  0  0  0  0
  152.8514  144.8862  161.0105 H   0  0  0  0  0  0  0  0  0  0  0  0
  151.1948  145.8655  158.7858 H   0  0  0  0  0  0  0  0  0  0  0  0
  152.9403  145.9198  158.9809 H   0  0  0  0  0  0  0  0  0  0  0  0
  152.9483  144.2987  157.2685 H   0  0  0  0  0  0  0  0  0  0  0  0
  151.2586  143.9077  157.5641 H   0  0  0  0  0  0  0  0  0  0  0  0
  1  2  1  0  0  0  0
  1 20  1  0  0  0  0
  1 21  1  0  0  0  0
  1 22  1  0  0  0  0
  2  7  1  0  0  0  0
  2  3  2  0  0  0  0
  3  4  1  0  0  0  0
  4  5  1  0  0  0  0
  5  6  1  0  0  0  0
  5  7  2  0  0  0  0
  6 23  1  0  0  0  0
  6 24  1  0  0  0  0
  6 25  1  0  0  0  0
  7  8  1  0  0  0  0
  8  9  1  0  0  0  0
  8 26  1  0  0  0  0
  8 27  1  0  0  0  0
  9 10  2  0  0  0  0
  9 11  1  0  0  0  0
 11 12  1  0  0  0  0
 11 28  1  0  0  0  0
 12 13  1  0  0  0  0
 12 29  1  0  0  0  0
 12 30  1  0  0  0  0
 13 14  1  0  0  0  0
 13 31  1  0  0  0  0
 13 32  1  0  0  0  0
 14 15  1  0  0  0  0
 15 19  1  0  0  0  0
 15 16  1  0  0  0  0
 15 33  1  0  0  0  0
 16 17  1  0  0  0  0
 16 34  1  0  0  0  0
 16 35  1  0  0  0  0
 17 18  1  0  0  0  0
 17 36  1  0  0  0  0
 17 37  1  0  0  0  0
 18 19  1  0  0  0  0
 18 38  1  0  0  0  0
 18 39  1  0  0  0  0
 19 40  1  0  0  0  0
 19 41  1  0  0  0  0
M  END
> <s_m_source_file>
AV-unprocessed.smi

> <i_m_source_file_index>
1314

> <i_lp_mmshare_version>
43012

> <i_f3d_flags>
0

> <s_epik_input>
W0NIM11jMW5vYyhbQ0gzXSljMVtDSDJdQyg9TylbTkhdW0NIMl1bQ0gyXVNbQ0hdMltDSDJdW0NIMl1bQ0gyXVtDSDJdMg==

> <s_epik_cmdline>
J2VwaWtfcHl0aG9uJywgJy1waCcsICc3LjAnLCAnLXRuJywgJzgnLCAnLW1hJywgJzIwMCcsICctbWV0YWxfYmluZGluZycsICctaW1hZScsICc8aW5maWxlLm1hZT4nLCAnLW9tYWUnLCAnPG91dGZpbGUubWFlPic=

> <r_lp_tautomer_probability>
1

> <r_epik_Ionization_Penalty>
2.75407e-08

> <r_epik_Ionization_Penalty_Charging>
0

> <r_epik_Ionization_Penalty_Neutral>
2.75407e-08

> <r_epik_State_Penalty>
-0

> <r_epik_Charging_Adjusted_Penalty>
0

> <i_epik_Tot_Q>
0

> <i_epik_Tot_abs_Q>
0

> <r_epik_Metal_State_Penalty>
-0

> <b_epik_Metal_Only>
0

> <s_lp_Force_Field>
OPLS_2005

> <r_lp_Energy>
14.7141

> <b_lp_Chiralities_Consistent>
1

> <s_lp_Variant>
AV-unprocessed.smi:1314-1

> <Gold.Version>
5.8.1

> <Gold.Id.Protein>
6NUR|6NUR_protein|mol2

> <Gold.PLP.Fitness>
42.2961

> <Gold.PLP.PLP>
-37.9016

> <Gold.PLP.part.hbond>
-2.3893

> <Gold.PLP.part.metal>
0.0000

> <Gold.PLP.part.buried>
-5.5703

> <Gold.PLP.part.nonpolar>
-30.4066

> <Gold.PLP.part.repulsive>
0.0877

> <Gold.PLP.ligand.clash>
0.0000

> <Gold.PLP.ligand.torsion>
0.8937

> <Gold.PLP.Chemscore.Hbond>
2.0000

> <Gold.PLP.Chemscore.CHOScore>
0.0000

> <Gold.PLP.Chemscore.Metal>
0.0000

> <Gold.Chemscore.Hbonds>
donor molecule, donor type, donor heavy atom, donor atom, acceptor molecule, acceptor atom, score
      P1  H  6896  6909       L1     4  1.00
      P1  H  7997  8009       L1    10  1.00

> <Gold.PLP.Chemscore.Internal.Correction>
0.1818

> <Gold.Rescore>
     Score         DG    S(hbond)    S(metal)    S(lipo)     H(rot)  DE(clash)    DE(int)     intcor
     17.73     -19.77       1.85        0.00     105.89       1.66       0.04       2.01       ----

> <Gold.Chemscore.Fitness>
17.7255

> <Gold.Chemscore.DG>
-19.7702

> <Gold.Chemscore.ZeroCoef>
-5.4800

> <Gold.Chemscore.Hbond>
1.8453

> <Gold.Chemscore.Metal>
0.0000

> <Gold.Chemscore.Lipo>
105.8870

> <Gold.Chemscore.Internal_Hbond>
0.0000

> <Gold.Chemscore.DEClash>
0.0352

> <Gold.Chemscore.DEInternal>
2.0094

> <Gold.Chemscore.Rot>
1.6648

> <Gold.Chemscore.Internal.Correction>
   9.000000E+99

> <Gold.Chemscore.Hbonds>
donor molecule, donor type, donor heavy atom, donor atom, acceptor molecule, acceptor atom, score
      P1  H  6896  6909       L1     4  0.43
      P1  H  7997  8009       L1    10  0.99

> <Gold.Chemscore.Hbond.Weighted>
-6.1633

> <Gold.Chemscore.Metal.Weighted>
-0.0000

> <Gold.Chemscore.Lipo.Weighted>
-12.3888

> <Gold.Chemscore.Internal_Hbond.Weighted>
0.0000

> <Gold.Chemscore.DEClash.Weighted>
0.0352

> <Gold.Chemscore.DEInternal.Weighted>
2.0094

> <Gold.Chemscore.Rot.Weighted>
4.2619

> <Gold.Chemscore.Internal.Correction.Weighted>
   9.000000E+99

> <Gold.Protein.RotatedTorsions>
[ 6907 6896 6895 6894 ] final   84.59 input  -60.11 | X-H torsion
[ 7974 7965 7964 7962 ] final  -78.38 input  175.53 | X-H torsion
[ 8008 7997 7996 7995 ] final -138.29 input   59.86 | X-H torsion
[ 10167 10162 10161 10158 ] final -178.12 input  -65.29 | X-H torsion
[ 10718 10713 10712 10709 ] final  173.58 input   66.30 | X-H torsion
[ 10763 10752 10751 10750 ] final   19.09 input  -60.55 | X-H torsion
[ 11005 11000 10999 10996 ] final  121.66 input  -57.11 | X-H torsion

> <Gold.Protein.ActiveResidues>
 VAL166  LYS551  ARG553  GLY616  TRP617  ASP618  TYR619  PRO620  LYS621  CYS622 
 ASP623  PHE694  ASN695  SER759  ASP760  ASP761  ALA762  ILE779  LEU786  VAL792 
 PHE793  MET794  SER795  GLU796  ALA797  LYS798  CYS799  TRP800  GLU811  SER814 

> <Gold.Protein.RotatedAtoms>
  152.5356  134.2718  159.8973 H   0  0  0  0  0  0  0  0  0  0  0  0  # atno 6907 bound_to 6896
  151.2674  133.4265  159.2627 H   0  0  0  0  0  0  0  0  0  0  0  0  # atno 6908 bound_to 6896
  151.0398  134.9614  159.8212 H   0  0  0  0  0  0  0  0  0  0  0  0  # atno 6909 bound_to 6896
  145.5873  140.9436  143.1311 H   0  0  0  0  0  0  0  0  0  0  0  0  # atno 7974 bound_to 7965
  155.4259  140.0521  157.3022 H   0  0  0  0  0  0  0  0  0  0  0  0  # atno 8008 bound_to 7997
  154.4882  140.2109  155.9567 H   0  0  0  0  0  0  0  0  0  0  0  0  # atno 8009 bound_to 7997
  156.1304  140.3172  155.8346 H   0  0  0  0  0  0  0  0  0  0  0  0  # atno 8010 bound_to 7997
  139.5447  144.2267  152.0965 H   0  0  0  0  0  0  0  0  0  0  0  0  # atno 10167 bound_to 10162
  156.9622  131.0064  151.2925 H   0  0  0  0  0  0  0  0  0  0  0  0  # atno 10718 bound_to 10713
  153.1192  135.6715  153.9365 H   0  0  0  0  0  0  0  0  0  0  0  0  # atno 10763 bound_to 10752
  153.8885  135.3050  155.3448 H   0  0  0  0  0  0  0  0  0  0  0  0  # atno 10764 bound_to 10752
  154.7605  135.4990  153.9535 H   0  0  0  0  0  0  0  0  0  0  0  0  # atno 10765 bound_to 10752
  139.9235  134.9639  156.7991 H   0  0  0  0  0  0  0  0  0  0  0  0  # atno 11005 bound_to 11000
  144.7367  139.7565  143.7326 LP  0  0  0  0  0  0  0  0  0  0  0  0  # atno 17320 bound_to 7965
  146.1673  139.4809  142.9950 LP  0  0  0  0  0  0  0  0  0  0  0  0  # atno 17321 bound_to 7965
  140.1752  144.4898  150.6558 LP  0  0  0  0  0  0  0  0  0  0  0  0  # atno 17342 bound_to 10162
  140.6691  143.2279  151.5670 LP  0  0  0  0  0  0  0  0  0  0  0  0  # atno 17343 bound_to 10162
  157.5650  130.8271  149.8315 LP  0  0  0  0  0  0  0  0  0  0  0  0  # atno 17370 bound_to 10713
  156.0317  130.3762  150.1669 LP  0  0  0  0  0  0  0  0  0  0  0  0  # atno 17371 bound_to 10713
  140.6404  133.9823  155.7705 LP  0  0  0  0  0  0  0  0  0  0  0  0  # atno 17394 bound_to 11000
  141.0775  134.0113  157.3436 LP  0  0  0  0  0  0  0  0  0  0  0  0  # atno 17395 bound_to 11000

$$$$
