AV-unprocessed.smi:813|AV-procd|sdf|3818|dock4
  -GOLD-   22720 1253D 1   1.00000     0.00000
 Structure written by MMmdl.
 36 37  0  0  0  0  0  0  0  0  1 V2000
  146.7803  139.1314  152.1610 C   0  0  0  0  0  0  0  0  0  0  0  0
  146.4608  138.0079  153.1614 C   0  0  1  0  0  0  0  0  0  0  0  0
  146.6236  136.7276  152.4744 N   0  0  0  0  0  0  0  0  0  0  0  0
  145.6250  135.8883  152.1600 C   0  0  0  0  0  0  0  0  0  0  0  0
  144.4414  136.1199  152.4090 O   0  0  0  0  0  0  0  0  0  0  0  0
  146.0905  134.7833  151.5517 N   0  0  0  0  0  0  0  0  0  0  0  0
  145.3529  133.6768  151.0530 C   0  0  0  0  0  0  0  0  0  0  0  0
  145.8201  132.8276  150.1245 N   0  0  0  0  0  0  0  0  0  0  0  0
  144.8995  131.8335  149.8188 N   0  0  0  0  0  0  0  0  0  0  0  0
  143.7755  131.9718  150.5275 C   0  0  0  0  0  0  0  0  0  0  0  0
  143.7320  133.3297  151.6388 S   0  0  0  0  0  0  0  0  0  0  0  0
  147.4468  138.1124  154.3353 C   0  0  0  0  0  0  0  0  0  0  0  0
  147.0521  138.4294  155.4587 O   0  0  0  0  0  0  0  0  0  0  0  0
  148.7295  137.8359  154.0569 N   0  0  0  0  0  0  0  0  0  0  0  0
  149.8304  137.8925  155.0147 C   0  0  0  0  0  0  0  0  0  0  0  0
  149.8495  139.2356  155.7711 C   0  0  0  0  0  0  0  0  0  0  0  0
  151.0053  140.0345  155.1709 C   0  0  0  0  0  0  0  0  0  0  0  0
  152.0286  138.9708  154.7867 C   0  0  0  0  0  0  0  0  0  0  0  0
  151.1887  137.7907  154.2921 C   0  0  0  0  0  0  0  0  0  0  0  0
  146.6660  140.1142  152.6203 H   0  0  0  0  0  0  0  0  0  0  0  0
  146.1044  139.0941  151.3060 H   0  0  0  0  0  0  0  0  0  0  0  0
  147.7995  139.0593  151.7778 H   0  0  0  0  0  0  0  0  0  0  0  0
  145.4332  138.1147  153.5148 H   0  0  0  0  0  0  0  0  0  0  0  0
  147.5673  136.4562  152.2402 H   0  0  0  0  0  0  0  0  0  0  0  0
  147.0904  134.7285  151.4262 H   0  0  0  0  0  0  0  0  0  0  0  0
  142.9664  131.2689  150.3957 H   0  0  0  0  0  0  0  0  0  0  0  0
  148.9640  137.5856  153.1072 H   0  0  0  0  0  0  0  0  0  0  0  0
  149.7320  137.0716  155.7277 H   0  0  0  0  0  0  0  0  0  0  0  0
  148.9055  139.7805  155.7218 H   0  0  0  0  0  0  0  0  0  0  0  0
  150.0546  139.0485  156.8258 H   0  0  0  0  0  0  0  0  0  0  0  0
  150.6647  140.5589  154.2770 H   0  0  0  0  0  0  0  0  0  0  0  0
  151.4068  140.7760  155.8620 H   0  0  0  0  0  0  0  0  0  0  0  0
  152.7395  139.3222  154.0384 H   0  0  0  0  0  0  0  0  0  0  0  0
  152.5952  138.6736  155.6702 H   0  0  0  0  0  0  0  0  0  0  0  0
  151.6831  136.8377  154.4827 H   0  0  0  0  0  0  0  0  0  0  0  0
  151.0598  137.8733  153.2117 H   0  0  0  0  0  0  0  0  0  0  0  0
  1  2  1  0  0  0  0
  1 20  1  0  0  0  0
  1 21  1  0  0  0  0
  1 22  1  0  0  0  0
  2  3  1  0  0  0  0
  2 12  1  0  0  0  0
  2 23  1  0  0  0  0
  3  4  1  0  0  0  0
  3 24  1  0  0  0  0
  4  5  2  0  0  0  0
  4  6  1  0  0  0  0
  6  7  1  0  0  0  0
  6 25  1  0  0  0  0
  7 11  1  0  0  0  0
  7  8  2  0  0  0  0
  8  9  1  0  0  0  0
  9 10  2  0  0  0  0
 10 11  1  0  0  0  0
 10 26  1  0  0  0  0
 12 13  2  0  0  0  0
 12 14  1  0  0  0  0
 14 15  1  0  0  0  0
 14 27  1  0  0  0  0
 15 19  1  0  0  0  0
 15 16  1  0  0  0  0
 15 28  1  0  0  0  0
 16 17  1  0  0  0  0
 16 29  1  0  0  0  0
 16 30  1  0  0  0  0
 17 18  1  0  0  0  0
 17 31  1  0  0  0  0
 17 32  1  0  0  0  0
 18 19  1  0  0  0  0
 18 33  1  0  0  0  0
 18 34  1  0  0  0  0
 19 35  1  0  0  0  0
 19 36  1  0  0  0  0
M  END
> <s_m_source_file>
AV-unprocessed.smi

> <i_m_source_file_index>
813

> <i_lp_mmshare_version>
43012

> <i_f3d_flags>
0

> <s_epik_input>
W0NIMl0xW0NIMl1bQ0gyXVtDSDJdW0NIXTFbTkhdQyg9TylbQ0BIXShbQ0gzXSlbTkhdQyg9TylbTkhdYzJubltjSF1zMg==

> <s_epik_cmdline>
J2VwaWtfcHl0aG9uJywgJy1waCcsICc3LjAnLCAnLXRuJywgJzgnLCAnLW1hJywgJzIwMCcsICctbWV0YWxfYmluZGluZycsICctaW1hZScsICc8aW5maWxlLm1hZT4nLCAnLW9tYWUnLCAnPG91dGZpbGUubWFlPic=

> <r_lp_tautomer_probability>
1

> <r_epik_Ionization_Penalty>
0.00321247

> <r_epik_Ionization_Penalty_Charging>
0

> <r_epik_Ionization_Penalty_Neutral>
0.00321247

> <r_epik_State_Penalty>
-0

> <r_epik_Charging_Adjusted_Penalty>
0

> <i_epik_Tot_Q>
0

> <i_epik_Tot_abs_Q>
0

> <r_epik_Metal_State_Penalty>
0.363968

> <b_epik_Metal_Only>
0

> <s_lp_Force_Field>
OPLS_2005

> <r_lp_Energy>
15.9742

> <b_lp_Chiralities_Consistent>
1

> <s_lp_Variant>
AV-unprocessed.smi:813-2

> <Gold.Version>
5.8.1

> <Gold.Id.Protein>
6NUR|6NUR_protein|mol2

> <Gold.PLP.Fitness>
37.8272

> <Gold.PLP.PLP>
-29.8001

> <Gold.PLP.part.hbond>
-2.5692

> <Gold.PLP.part.metal>
0.0000

> <Gold.PLP.part.buried>
-4.1376

> <Gold.PLP.part.nonpolar>
-24.4001

> <Gold.PLP.part.repulsive>
0.5664

> <Gold.PLP.ligand.clash>
0.0000

> <Gold.PLP.ligand.torsion>
0.4285

> <Gold.PLP.Chemscore.Hbond>
1.9569

> <Gold.PLP.Chemscore.CHOScore>
1.0000

> <Gold.PLP.Chemscore.Metal>
0.0000

> <Gold.Chemscore.Hbonds>
donor molecule, donor type, donor heavy atom, donor atom, acceptor molecule, acceptor atom, score
      L1  H     3    24       P1  7948  0.78
      L1  H     6    25       P1  7948  0.09
      L1  H    14    27       P1  7948  0.93
      L1  C    10    26       P1 10952  1.00

> <Gold.PLP.Chemscore.Internal.Correction>
0.0136

> <Gold.Rescore>
     Score         DG    S(hbond)    S(metal)    S(lipo)     H(rot)  DE(clash)    DE(int)     intcor
     12.45     -14.80       1.98        0.00      61.39       1.74       0.01       2.34       ----

> <Gold.Chemscore.Fitness>
12.4514

> <Gold.Chemscore.DG>
-14.8008

> <Gold.Chemscore.ZeroCoef>
-5.4800

> <Gold.Chemscore.Hbond>
1.9763

> <Gold.Chemscore.Metal>
0.0000

> <Gold.Chemscore.Lipo>
61.3908

> <Gold.Chemscore.Internal_Hbond>
0.0000

> <Gold.Chemscore.DEClash>
0.0136

> <Gold.Chemscore.DEInternal>
2.3358

> <Gold.Chemscore.Rot>
1.7433

> <Gold.Chemscore.Internal.Correction>
   9.000000E+99

> <Gold.Chemscore.Hbonds>
donor molecule, donor type, donor heavy atom, donor atom, acceptor molecule, acceptor atom, score
      L1  H     3    24       P1  7948  0.77
      L1  H     6    25       P1  7948  0.07
      L1  H    14    27       P1  7948  0.90

> <Gold.Chemscore.Hbond.Weighted>
-6.6009

> <Gold.Chemscore.Metal.Weighted>
-0.0000

> <Gold.Chemscore.Lipo.Weighted>
-7.1827

> <Gold.Chemscore.Internal_Hbond.Weighted>
0.0000

> <Gold.Chemscore.DEClash.Weighted>
0.0136

> <Gold.Chemscore.DEInternal.Weighted>
2.3358

> <Gold.Chemscore.Rot.Weighted>
4.4628

> <Gold.Chemscore.Internal.Correction.Weighted>
   9.000000E+99

> <Gold.Protein.RotatedTorsions>
[ 6907 6896 6895 6894 ] final   81.04 input  -60.11 | X-H torsion
[ 7974 7965 7964 7962 ] final   28.56 input  175.53 | X-H torsion
[ 8008 7997 7996 7995 ] final  -13.33 input   59.86 | X-H torsion
[ 10167 10162 10161 10158 ] final  -55.49 input  -65.29 | X-H torsion
[ 10718 10713 10712 10709 ] final   69.17 input   66.30 | X-H torsion
[ 10763 10752 10751 10750 ] final  143.44 input  -60.55 | X-H torsion
[ 11005 11000 10999 10996 ] final  141.15 input  -57.11 | X-H torsion

> <Gold.Protein.ActiveResidues>
 VAL166  LYS551  ARG553  GLY616  TRP617  ASP618  TYR619  PRO620  LYS621  CYS622 
 ASP623  PHE694  ASN695  SER759  ASP760  ASP761  ALA762  ILE779  LEU786  VAL792 
 PHE793  MET794  SER795  GLU796  ALA797  LYS798  CYS799  TRP800  GLU811  SER814 

> <Gold.Protein.RotatedAtoms>
  152.5255  134.3265  159.9167 H   0  0  0  0  0  0  0  0  0  0  0  0  # atno 6907 bound_to 6896
  151.3214  133.4032  159.2662 H   0  0  0  0  0  0  0  0  0  0  0  0  # atno 6908 bound_to 6896
  150.9955  134.9297  159.7982 H   0  0  0  0  0  0  0  0  0  0  0  0  # atno 6909 bound_to 6896
  146.1722  139.7039  142.8960 H   0  0  0  0  0  0  0  0  0  0  0  0  # atno 7974 bound_to 7965
  154.5302  140.2252  155.8818 H   0  0  0  0  0  0  0  0  0  0  0  0  # atno 8008 bound_to 7997
  156.1755  140.3112  155.9015 H   0  0  0  0  0  0  0  0  0  0  0  0  # atno 8009 bound_to 7997
  155.3468  140.0453  157.3036 H   0  0  0  0  0  0  0  0  0  0  0  0  # atno 8010 bound_to 7997
  140.6372  143.2488  151.5087 H   0  0  0  0  0  0  0  0  0  0  0  0  # atno 10167 bound_to 10162
  157.6331  130.9412  150.0477 H   0  0  0  0  0  0  0  0  0  0  0  0  # atno 10718 bound_to 10713
  153.9723  135.2949  155.3426 H   0  0  0  0  0  0  0  0  0  0  0  0  # atno 10763 bound_to 10752
  154.7315  135.5065  153.8975 H   0  0  0  0  0  0  0  0  0  0  0  0  # atno 10764 bound_to 10752
  153.0894  135.6703  153.9997 H   0  0  0  0  0  0  0  0  0  0  0  0  # atno 10765 bound_to 10752
  140.0380  134.9319  157.0789 H   0  0  0  0  0  0  0  0  0  0  0  0  # atno 11005 bound_to 11000
  145.4310  141.0415  143.2911 LP  0  0  0  0  0  0  0  0  0  0  0  0  # atno 17320 bound_to 7965
  144.8180  139.5842  143.6999 LP  0  0  0  0  0  0  0  0  0  0  0  0  # atno 17321 bound_to 7965
  139.5582  144.2223  152.1647 LP  0  0  0  0  0  0  0  0  0  0  0  0  # atno 17342 bound_to 10162
  140.1483  144.5138  150.6702 LP  0  0  0  0  0  0  0  0  0  0  0  0  # atno 17343 bound_to 10162
  156.1549  130.3643  149.9384 LP  0  0  0  0  0  0  0  0  0  0  0  0  # atno 17370 bound_to 10713
  156.7396  130.9074  151.3631 LP  0  0  0  0  0  0  0  0  0  0  0  0  # atno 17371 bound_to 10713
  140.4116  134.1975  155.7163 LP  0  0  0  0  0  0  0  0  0  0  0  0  # atno 17394 bound_to 11000
  141.1868  133.8295  157.1057 LP  0  0  0  0  0  0  0  0  0  0  0  0  # atno 17395 bound_to 11000

$$$$
