AV-unprocessed.smi:1761|AV-procd|sdf|7095|dock3
  -GOLD-   22720 8313D 1   1.00000     0.00000
 Structure written by MMmdl.
 34 35  0  0  0  0  0  0  0  0  1 V2000
  149.7127  140.6125  157.0871 O   0  0  0  0  0  0  0  0  0  0  0  0
  149.5078  141.7935  156.8047 C   0  0  0  0  0  0  0  0  0  0  0  0
  150.0765  142.8482  157.4144 N   0  0  0  0  0  0  0  0  0  0  0  0
  151.0280  142.8455  158.4692 C   0  0  0  0  0  0  0  0  0  0  0  0
  151.7661  141.6479  158.6048 C   0  0  0  0  0  0  0  0  0  0  0  0
  152.7335  141.5417  159.6226 C   0  0  0  0  0  0  0  0  0  0  0  0
  152.9375  142.6370  160.4806 C   0  0  0  0  0  0  0  0  0  0  0  0
  152.1604  143.7924  160.2776 C   0  0  0  0  0  0  0  0  0  0  0  0
  151.2330  143.8964  159.3025 N   0  0  0  0  0  0  0  0  0  0  0  0
  148.6704  142.1903  155.8354 N   0  0  0  0  0  0  0  0  0  0  0  0
  147.8786  141.3062  154.9822 C   0  0  2  0  0  0  0  0  0  0  0  0
  146.7367  140.7194  155.8378 C   0  0  0  0  0  0  0  0  0  0  0  0
  145.9275  139.6592  155.0774 C   0  0  0  0  0  0  0  0  0  0  0  0
  146.8403  138.5385  154.5626 C   0  0  0  0  0  0  0  0  0  0  0  0
  147.9495  139.1104  153.6697 C   0  0  0  0  0  0  0  0  0  0  0  0
  148.7755  140.1856  154.4020 C   0  0  1  0  0  0  0  0  0  0  0  0
  149.6834  140.7314  153.4659 O   0  0  0  0  0  0  0  0  0  0  0  0
  149.7994  143.7602  157.0828 H   0  0  0  0  0  0  0  0  0  0  0  0
  151.5961  140.8157  157.9369 H   0  0  0  0  0  0  0  0  0  0  0  0
  153.3082  140.6351  159.7416 H   0  0  0  0  0  0  0  0  0  0  0  0
  153.6697  142.5932  161.2731 H   0  0  0  0  0  0  0  0  0  0  0  0
  152.2859  144.6555  160.9142 H   0  0  0  0  0  0  0  0  0  0  0  0
  148.5632  143.1817  155.6790 H   0  0  0  0  0  0  0  0  0  0  0  0
  147.4251  141.8626  154.1592 H   0  0  0  0  0  0  0  0  0  0  0  0
  147.1478  140.2679  156.7423 H   0  0  0  0  0  0  0  0  0  0  0  0
  146.0725  141.5183  156.1697 H   0  0  0  0  0  0  0  0  0  0  0  0
  145.1575  139.2426  155.7272 H   0  0  0  0  0  0  0  0  0  0  0  0
  145.4070  140.1256  154.2399 H   0  0  0  0  0  0  0  0  0  0  0  0
  147.2834  138.0065  155.4053 H   0  0  0  0  0  0  0  0  0  0  0  0
  146.2544  137.8066  154.0057 H   0  0  0  0  0  0  0  0  0  0  0  0
  148.6016  138.3042  153.3316 H   0  0  0  0  0  0  0  0  0  0  0  0
  147.4977  139.5378  152.7730 H   0  0  0  0  0  0  0  0  0  0  0  0
  149.3453  139.7135  155.2040 H   0  0  0  0  0  0  0  0  0  0  0  0
  149.6767  140.1915  152.6902 H   0  0  0  0  0  0  0  0  0  0  0  0
  1  2  2  0  0  0  0
  2  3  1  0  0  0  0
  2 10  1  0  0  0  0
  3  4  1  0  0  0  0
  3 18  1  0  0  0  0
  4  9  1  0  0  0  0
  4  5  2  0  0  0  0
  5  6  1  0  0  0  0
  5 19  1  0  0  0  0
  6  7  2  0  0  0  0
  6 20  1  0  0  0  0
  7  8  1  0  0  0  0
  7 21  1  0  0  0  0
  8  9  2  0  0  0  0
  8 22  1  0  0  0  0
 10 11  1  0  0  0  0
 10 23  1  0  0  0  0
 11 16  1  0  0  0  0
 11 12  1  0  0  0  0
 11 24  1  0  0  0  0
 12 13  1  0  0  0  0
 12 25  1  0  0  0  0
 12 26  1  0  0  0  0
 13 14  1  0  0  0  0
 13 27  1  0  0  0  0
 13 28  1  0  0  0  0
 14 15  1  0  0  0  0
 14 29  1  0  0  0  0
 14 30  1  0  0  0  0
 15 16  1  0  0  0  0
 15 31  1  0  0  0  0
 15 32  1  0  0  0  0
 16 17  1  0  0  0  0
 16 33  1  0  0  0  0
 17 34  1  0  0  0  0
M  END
> <s_m_source_file>
AV-unprocessed.smi

> <i_m_source_file_index>
1761

> <i_lp_mmshare_version>
43012

> <i_f3d_flags>
0

> <s_epik_input>
bjFbY0hdW2NIXVtjSF1bY0hdYzFbTkhdQyg9TylbTkhdW0NAQEhdMltDSDJdW0NIMl1bQ0gyXVtDSDJdW0NASF0yW09IXQ==

> <s_epik_cmdline>
J2VwaWtfcHl0aG9uJywgJy1waCcsICc3LjAnLCAnLXRuJywgJzgnLCAnLW1hJywgJzIwMCcsICctbWV0YWxfYmluZGluZycsICctaW1hZScsICc8aW5maWxlLm1hZT4nLCAnLW9tYWUnLCAnPG91dGZpbGUubWFlPic=

> <r_lp_tautomer_probability>
1

> <r_epik_Ionization_Penalty>
4.92589e-05

> <r_epik_Ionization_Penalty_Charging>
0

> <r_epik_Ionization_Penalty_Neutral>
4.92589e-05

> <r_epik_State_Penalty>
-0

> <r_epik_Charging_Adjusted_Penalty>
0

> <i_epik_Tot_Q>
0

> <i_epik_Tot_abs_Q>
0

> <r_epik_Metal_State_Penalty>
-0

> <b_epik_Metal_Only>
0

> <s_lp_Force_Field>
OPLS_2005

> <r_lp_Energy>
12.6575

> <b_lp_Chiralities_Consistent>
1

> <s_lp_Variant>
AV-unprocessed.smi:1761-1

> <Gold.Version>
5.8.1

> <Gold.Id.Protein>
6NUR|6NUR_protein|mol2

> <Gold.PLP.Fitness>
39.6098

> <Gold.PLP.PLP>
-28.8311

> <Gold.PLP.part.hbond>
-4.4610

> <Gold.PLP.part.metal>
0.0000

> <Gold.PLP.part.buried>
-4.2217

> <Gold.PLP.part.nonpolar>
-20.9900

> <Gold.PLP.part.repulsive>
0.2106

> <Gold.PLP.ligand.clash>
0.0000

> <Gold.PLP.ligand.torsion>
0.2326

> <Gold.PLP.Chemscore.Hbond>
3.7476

> <Gold.PLP.Chemscore.CHOScore>
0.0000

> <Gold.PLP.Chemscore.Metal>
0.0000

> <Gold.Chemscore.Hbonds>
donor molecule, donor type, donor heavy atom, donor atom, acceptor molecule, acceptor atom, score
      L1  H     3    18       P1  8028  0.91
      L1  H    10    23       P1  8028  1.00
      L1  H    17    34       P1  7957  1.00
      P1  H  7989  7998       L1    17  0.24
      P1  H  8011  8017       L1    17  0.55

> <Gold.PLP.Chemscore.Internal.Correction>
0.0011

> <Gold.Rescore>
     Score         DG    S(hbond)    S(metal)    S(lipo)     H(rot)  DE(clash)    DE(int)     intcor
     16.65     -19.40       3.11        0.00      62.32       1.47       0.02       2.73       ----

> <Gold.Chemscore.Fitness>
16.6503

> <Gold.Chemscore.DG>
-19.4017

> <Gold.Chemscore.ZeroCoef>
-5.4800

> <Gold.Chemscore.Hbond>
3.1081

> <Gold.Chemscore.Metal>
0.0000

> <Gold.Chemscore.Lipo>
62.3226

> <Gold.Chemscore.Internal_Hbond>
0.0000

> <Gold.Chemscore.DEClash>
0.0174

> <Gold.Chemscore.DEInternal>
2.7340

> <Gold.Chemscore.Rot>
1.4653

> <Gold.Chemscore.Internal.Correction>
   9.000000E+99

> <Gold.Chemscore.Hbonds>
donor molecule, donor type, donor heavy atom, donor atom, acceptor molecule, acceptor atom, score
      L1  H     3    18       P1  8028  0.82
      L1  H    10    23       P1  8028  0.95
      L1  H    17    34       P1  7957  0.89
      P1  H  7989  7998       L1    17  0.02
      P1  H  8011  8017       L1    17  0.03

> <Gold.Chemscore.Hbond.Weighted>
-10.3810

> <Gold.Chemscore.Metal.Weighted>
-0.0000

> <Gold.Chemscore.Lipo.Weighted>
-7.2917

> <Gold.Chemscore.Internal_Hbond.Weighted>
0.0000

> <Gold.Chemscore.DEClash.Weighted>
0.0174

> <Gold.Chemscore.DEInternal.Weighted>
2.7340

> <Gold.Chemscore.Rot.Weighted>
3.7511

> <Gold.Chemscore.Internal.Correction.Weighted>
   9.000000E+99

> <Gold.Protein.RotatedTorsions>
[ 6907 6896 6895 6894 ] final  137.76 input  -60.11 | X-H torsion
[ 7974 7965 7964 7962 ] final -163.41 input  175.53 | X-H torsion
[ 8008 7997 7996 7995 ] final   55.39 input   59.86 | X-H torsion
[ 10167 10162 10161 10158 ] final  -60.39 input  -65.29 | X-H torsion
[ 10718 10713 10712 10709 ] final   33.17 input   66.30 | X-H torsion
[ 10763 10752 10751 10750 ] final -176.60 input  -60.55 | X-H torsion
[ 11005 11000 10999 10996 ] final   -7.16 input  -57.11 | X-H torsion

> <Gold.Protein.ActiveResidues>
 VAL166  LYS551  ARG553  GLY616  TRP617  ASP618  TYR619  PRO620  LYS621  CYS622 
 ASP623  PHE694  ASN695  SER759  ASP760  ASP761  ALA762  ILE779  LEU786  VAL792 
 PHE793  MET794  SER795  GLU796  ALA797  LYS798  CYS799  TRP800  GLU811  SER814 

> <Gold.Protein.RotatedAtoms>
  152.2743  133.5411  159.5458 H   0  0  0  0  0  0  0  0  0  0  0  0  # atno 6907 bound_to 6896
  150.7171  134.0653  159.3854 H   0  0  0  0  0  0  0  0  0  0  0  0  # atno 6908 bound_to 6896
  151.8566  135.0539  160.0515 H   0  0  0  0  0  0  0  0  0  0  0  0  # atno 6909 bound_to 6896
  144.7327  140.3112  143.6187 H   0  0  0  0  0  0  0  0  0  0  0  0  # atno 7974 bound_to 7965
  155.5002  140.3474  155.4370 H   0  0  0  0  0  0  0  0  0  0  0  0  # atno 8008 bound_to 7997
  156.0918  140.1412  156.9609 H   0  0  0  0  0  0  0  0  0  0  0  0  # atno 8009 bound_to 7997
  154.4640  140.0924  156.6946 H   0  0  0  0  0  0  0  0  0  0  0  0  # atno 8010 bound_to 7997
  140.6074  143.2377  151.5788 H   0  0  0  0  0  0  0  0  0  0  0  0  # atno 10167 bound_to 10162
  157.2944  130.7319  149.6630 H   0  0  0  0  0  0  0  0  0  0  0  0  # atno 10718 bound_to 10713
  154.5704  135.2827  155.0832 H   0  0  0  0  0  0  0  0  0  0  0  0  # atno 10763 bound_to 10752
  154.2207  135.6391  153.5147 H   0  0  0  0  0  0  0  0  0  0  0  0  # atno 10764 bound_to 10752
  153.0056  135.5514  154.6326 H   0  0  0  0  0  0  0  0  0  0  0  0  # atno 10765 bound_to 10752
  140.7098  133.8918  155.8743 H   0  0  0  0  0  0  0  0  0  0  0  0  # atno 11005 bound_to 11000
  145.7663  139.1842  143.2238 LP  0  0  0  0  0  0  0  0  0  0  0  0  # atno 17320 bound_to 7965
  146.0946  140.7615  142.9578 LP  0  0  0  0  0  0  0  0  0  0  0  0  # atno 17321 bound_to 7965
  139.5335  144.2847  152.1201 LP  0  0  0  0  0  0  0  0  0  0  0  0  # atno 17342 bound_to 10162
  140.2039  144.4630  150.6418 LP  0  0  0  0  0  0  0  0  0  0  0  0  # atno 17343 bound_to 10162
  155.9668  130.4299  150.4852 LP  0  0  0  0  0  0  0  0  0  0  0  0  # atno 17370 bound_to 10713
  157.2821  131.0609  151.2191 LP  0  0  0  0  0  0  0  0  0  0  0  0  # atno 17371 bound_to 10713
  141.0094  134.1042  157.4237 LP  0  0  0  0  0  0  0  0  0  0  0  0  # atno 17394 bound_to 11000
  139.8874  135.0090  156.6561 LP  0  0  0  0  0  0  0  0  0  0  0  0  # atno 17395 bound_to 11000

$$$$
