AV-unprocessed.smi:2627|AV-procd|sdf|10241|dock7
  -GOLD-   2272014253D 1   1.00000     0.00000
 Structure written by MMmdl.
 40 42  0  0  0  0  0  0  0  0  2 V2000
  152.9801  138.4745  154.5689 C   0  0  0  0  0  0  0  0  0  0  0  0
  151.6441  137.7999  154.9049 C   0  0  2  0  0  0  0  0  0  0  0  0
  151.5851  136.5552  154.2395 O   0  0  0  0  0  0  0  0  0  0  0  0
  150.4928  138.6879  154.5467 C   0  0  0  0  0  0  0  0  0  0  0  0
  149.5044  138.3985  153.6526 N   0  3  0  0  0  0  0  0  0  0  0  0
  148.6072  139.4643  153.5761 C   0  0  0  0  0  0  0  0  0  0  0  0
  147.4520  139.6307  152.8187 C   0  0  0  0  0  0  0  0  0  0  0  0
  146.7591  140.8484  152.9807 C   0  0  0  0  0  0  0  0  0  0  0  0
  147.2192  141.8423  153.8691 C   0  0  0  0  0  0  0  0  0  0  0  0
  148.3926  141.6625  154.6311 C   0  0  0  0  0  0  0  0  0  0  0  0
  149.0735  140.4572  154.4618 C   0  0  0  0  0  0  0  0  0  0  0  0
  150.2445  139.9405  155.0273 N   0  0  0  0  0  0  0  0  0  0  0  0
  150.9923  140.7488  155.9988 C   0  0  0  0  0  0  0  0  0  0  0  0
  150.3870  140.6535  157.4040 C   0  0  0  0  0  0  0  0  0  0  0  0
  151.4249  140.8498  158.3529 O   0  0  0  0  0  0  0  0  0  0  0  0
  151.7099  142.1384  158.7502 C   0  0  0  0  0  0  0  0  0  0  0  0
  151.4513  143.1658  157.8194 C   0  0  0  0  0  0  0  0  0  0  0  0
  151.7144  144.5117  158.1390 C   0  0  0  0  0  0  0  0  0  0  0  0
  152.2400  144.8450  159.4008 C   0  0  0  0  0  0  0  0  0  0  0  0
  152.5015  143.8302  160.3402 C   0  0  0  0  0  0  0  0  0  0  0  0
  152.2392  142.4839  160.0199 C   0  0  0  0  0  0  0  0  0  0  0  0
  153.0874  139.4190  155.1033 H   0  0  0  0  0  0  0  0  0  0  0  0
  153.0631  138.6845  153.5019 H   0  0  0  0  0  0  0  0  0  0  0  0
  153.8219  137.8409  154.8504 H   0  0  0  0  0  0  0  0  0  0  0  0
  151.6078  137.5939  155.9750 H   0  0  0  0  0  0  0  0  0  0  0  0
  151.5061  136.7140  153.3110 H   0  0  0  0  0  0  0  0  0  0  0  0
  147.0967  138.8702  152.1385 H   0  0  0  0  0  0  0  0  0  0  0  0
  145.8564  141.0235  152.4131 H   0  0  0  0  0  0  0  0  0  0  0  0
  146.6609  142.7622  153.9680 H   0  0  0  0  0  0  0  0  0  0  0  0
  148.7346  142.4300  155.3097 H   0  0  0  0  0  0  0  0  0  0  0  0
  152.0214  140.3886  156.0075 H   0  0  0  0  0  0  0  0  0  0  0  0
  151.0324  141.7822  155.6536 H   0  0  0  0  0  0  0  0  0  0  0  0
  149.6105  141.4099  157.5290 H   0  0  0  0  0  0  0  0  0  0  0  0
  149.9330  139.6707  157.5410 H   0  0  0  0  0  0  0  0  0  0  0  0
  151.0484  142.9184  156.8482 H   0  0  0  0  0  0  0  0  0  0  0  0
  151.5129  145.2877  157.4154 H   0  0  0  0  0  0  0  0  0  0  0  0
  152.4418  145.8767  159.6481 H   0  0  0  0  0  0  0  0  0  0  0  0
  152.9043  144.0846  161.3094 H   0  0  0  0  0  0  0  0  0  0  0  0
  152.4518  141.7346  160.7671 H   0  0  0  0  0  0  0  0  0  0  0  0
  149.4516  137.5292  153.1372 H   0  0  0  0  0  0  0  0  0  0  0  0
  1  2  1  0  0  0  0
  1 22  1  0  0  0  0
  1 23  1  0  0  0  0
  1 24  1  0  0  0  0
  2  3  1  0  0  0  0
  2  4  1  0  0  0  0
  2 25  1  0  0  0  0
  3 26  1  0  0  0  0
  4 12  1  0  0  0  0
  4  5  2  0  0  0  0
  5  6  1  0  0  0  0
  5 40  1  0  0  0  0
  6 11  2  0  0  0  0
  6  7  1  0  0  0  0
  7  8  2  0  0  0  0
  7 27  1  0  0  0  0
  8  9  1  0  0  0  0
  8 28  1  0  0  0  0
  9 10  2  0  0  0  0
  9 29  1  0  0  0  0
 10 11  1  0  0  0  0
 10 30  1  0  0  0  0
 11 12  1  0  0  0  0
 12 13  1  0  0  0  0
 13 14  1  0  0  0  0
 13 31  1  0  0  0  0
 13 32  1  0  0  0  0
 14 15  1  0  0  0  0
 14 33  1  0  0  0  0
 14 34  1  0  0  0  0
 15 16  1  0  0  0  0
 16 21  1  0  0  0  0
 16 17  2  0  0  0  0
 17 18  1  0  0  0  0
 17 35  1  0  0  0  0
 18 19  2  0  0  0  0
 18 36  1  0  0  0  0
 19 20  1  0  0  0  0
 19 37  1  0  0  0  0
 20 21  2  0  0  0  0
 20 38  1  0  0  0  0
 21 39  1  0  0  0  0
M  CHG  1   5   1
M  END
> <s_m_source_file>
AV-unprocessed.smi

> <i_m_source_file_index>
2627

> <i_lp_mmshare_version>
43012

> <i_f3d_flags>
0

> <s_epik_input>
W2NIXTFbY0hdW2NIXVtjSF1jKGMxMiluKGMobjIpW0NASF0oW0NIM10pW09IXSlbQ0gyXVtDSDJdT2MzW2NIXVtjSF1bY0hdW2NIXVtjSF0z

> <s_epik_cmdline>
J2VwaWtfcHl0aG9uJywgJy1waCcsICc3LjAnLCAnLXRuJywgJzgnLCAnLW1hJywgJzIwMCcsICctbWV0YWxfYmluZGluZycsICctaW1hZScsICc8aW5maWxlLm1hZT4nLCAnLW9tYWUnLCAnPG91dGZpbGUubWFlPic=

> <r_lp_tautomer_probability>
1

> <r_epik_Ionization_Penalty>
1.52183

> <r_epik_Ionization_Penalty_Charging>
1.5218

> <r_epik_Ionization_Penalty_Neutral>
2.92192e-05

> <r_epik_State_Penalty>
1.61369

> <r_epik_Charging_Adjusted_Penalty>
3.13549

> <i_epik_Tot_Q>
1

> <i_epik_Tot_abs_Q>
1

> <r_epik_Metal_State_Penalty>
5.66625

> <b_epik_Metal_Only>
0

> <s_lp_Force_Field>
OPLS_2005

> <r_lp_Energy>
19.9406

> <b_lp_Chiralities_Consistent>
1

> <s_lp_Variant>
AV-unprocessed.smi:2627-3

> <Gold.Version>
5.8.1

> <Gold.Id.Protein>
6NUR|6NUR_protein|mol2

> <Gold.PLP.Fitness>
62.6991

> <Gold.PLP.PLP>
-52.7974

> <Gold.PLP.part.hbond>
-4.0000

> <Gold.PLP.part.metal>
0.0000

> <Gold.PLP.part.buried>
0.6849

> <Gold.PLP.part.nonpolar>
-49.5240

> <Gold.PLP.part.repulsive>
0.0639

> <Gold.PLP.ligand.clash>
0.0000

> <Gold.PLP.ligand.torsion>
1.0307

> <Gold.PLP.Chemscore.Hbond>
3.9760

> <Gold.PLP.Chemscore.CHOScore>
0.0000

> <Gold.PLP.Chemscore.Metal>
0.0000

> <Gold.Chemscore.Hbonds>
donor molecule, donor type, donor heavy atom, donor atom, acceptor molecule, acceptor atom, score
      L1  H     3    26       P1  7949  0.96
      L1  H     5    40       P1  7948  2.00
      P1  H 10752 10763       L1     3  1.00

> <Gold.PLP.Chemscore.Internal.Correction>
0.0352

> <Gold.Rescore>
     Score         DG    S(hbond)    S(metal)    S(lipo)     H(rot)  DE(clash)    DE(int)     intcor
     21.62     -25.00       2.50        0.00     142.13       2.13       2.38       0.99       ----

> <Gold.Chemscore.Fitness>
21.6245

> <Gold.Chemscore.DG>
-25.0011

> <Gold.Chemscore.ZeroCoef>
-5.4800

> <Gold.Chemscore.Hbond>
2.4984

> <Gold.Chemscore.Metal>
0.0000

> <Gold.Chemscore.Lipo>
142.1297

> <Gold.Chemscore.Internal_Hbond>
0.0000

> <Gold.Chemscore.DEClash>
2.3837

> <Gold.Chemscore.DEInternal>
0.9929

> <Gold.Chemscore.Rot>
2.1299

> <Gold.Chemscore.Internal.Correction>
   9.000000E+99

> <Gold.Chemscore.Hbonds>
donor molecule, donor type, donor heavy atom, donor atom, acceptor molecule, acceptor atom, score
      L1  H     3    26       P1  7949  0.79
      L1  H     5    40       P1  7948  0.90
      P1  H 10752 10763       L1     3  0.48

> <Gold.Chemscore.Hbond.Weighted>
-8.3445

> <Gold.Chemscore.Metal.Weighted>
-0.0000

> <Gold.Chemscore.Lipo.Weighted>
-16.6292

> <Gold.Chemscore.Internal_Hbond.Weighted>
0.0000

> <Gold.Chemscore.DEClash.Weighted>
2.3837

> <Gold.Chemscore.DEInternal.Weighted>
0.9929

> <Gold.Chemscore.Rot.Weighted>
5.4526

> <Gold.Chemscore.Internal.Correction.Weighted>
   9.000000E+99

> <Gold.Protein.RotatedTorsions>
[ 6907 6896 6895 6894 ] final -140.05 input  -60.11 | X-H torsion
[ 7974 7965 7964 7962 ] final -120.64 input  175.53 | X-H torsion
[ 8008 7997 7996 7995 ] final -114.39 input   59.86 | X-H torsion
[ 10167 10162 10161 10158 ] final   53.43 input  -65.29 | X-H torsion
[ 10718 10713 10712 10709 ] final  -99.45 input   66.30 | X-H torsion
[ 10763 10752 10751 10750 ] final   51.15 input  -60.55 | X-H torsion
[ 11005 11000 10999 10996 ] final   55.91 input  -57.11 | X-H torsion

> <Gold.Protein.ActiveResidues>
 VAL166  LYS551  ARG553  GLY616  TRP617  ASP618  TYR619  PRO620  LYS621  CYS622 
 ASP623  PHE694  ASN695  SER759  ASP760  ASP761  ALA762  ILE779  LEU786  VAL792 
 PHE793  MET794  SER795  GLU796  ALA797  LYS798  CYS799  TRP800  GLU811  SER814 

> <Gold.Protein.RotatedAtoms>
  151.0557  133.5586  159.2638 H   0  0  0  0  0  0  0  0  0  0  0  0  # atno 6907 bound_to 6896
  151.2580  135.0644  159.9097 H   0  0  0  0  0  0  0  0  0  0  0  0  # atno 6908 bound_to 6896
  152.5389  134.0307  159.8077 H   0  0  0  0  0  0  0  0  0  0  0  0  # atno 6909 bound_to 6896
  145.0492  140.8205  143.4220 H   0  0  0  0  0  0  0  0  0  0  0  0  # atno 7974 bound_to 7965
  155.0356  140.0392  157.2490 H   0  0  0  0  0  0  0  0  0  0  0  0  # atno 8008 bound_to 7997
  154.7260  140.2721  155.6475 H   0  0  0  0  0  0  0  0  0  0  0  0  # atno 8009 bound_to 7997
  156.2829  140.2693  156.1945 H   0  0  0  0  0  0  0  0  0  0  0  0  # atno 8010 bound_to 7997
  140.2408  144.3586  150.6381 H   0  0  0  0  0  0  0  0  0  0  0  0  # atno 10167 bound_to 10162
  156.0134  130.5283  150.6672 H   0  0  0  0  0  0  0  0  0  0  0  0  # atno 10718 bound_to 10713
  152.9785  135.5855  154.4369 H   0  0  0  0  0  0  0  0  0  0  0  0  # atno 10763 bound_to 10752
  154.3975  135.2768  155.2119 H   0  0  0  0  0  0  0  0  0  0  0  0  # atno 10764 bound_to 10752
  154.3964  135.6113  153.5926 H   0  0  0  0  0  0  0  0  0  0  0  0  # atno 10765 bound_to 10752
  140.0570  134.5655  155.9196 H   0  0  0  0  0  0  0  0  0  0  0  0  # atno 11005 bound_to 11000
  145.1549  139.2492  143.5421 LP  0  0  0  0  0  0  0  0  0  0  0  0  # atno 17320 bound_to 7965
  146.3516  140.1261  142.8598 LP  0  0  0  0  0  0  0  0  0  0  0  0  # atno 17321 bound_to 7965
  140.6115  143.2170  151.6877 LP  0  0  0  0  0  0  0  0  0  0  0  0  # atno 17342 bound_to 10162
  139.5078  144.3634  152.0540 LP  0  0  0  0  0  0  0  0  0  0  0  0  # atno 17343 bound_to 10162
  157.4402  131.0860  151.0951 LP  0  0  0  0  0  0  0  0  0  0  0  0  # atno 17370 bound_to 10713
  157.1498  130.6179  149.5579 LP  0  0  0  0  0  0  0  0  0  0  0  0  # atno 17371 bound_to 10713
  141.1956  133.6588  156.5653 LP  0  0  0  0  0  0  0  0  0  0  0  0  # atno 17394 bound_to 11000
  140.3828  134.7508  157.4672 LP  0  0  0  0  0  0  0  0  0  0  0  0  # atno 17395 bound_to 11000

$$$$
