AV-unprocessed.smi:1043|AV-procd|sdf|4541|dock9
  -GOLD-   22720 2563D 1   1.00000     0.00000
 Structure written by MMmdl.
 34 35  0  0  0  0  0  0  0  0  2 V2000
  152.1165  139.8215  159.1589 C   0  0  0  0  0  0  0  0  0  0  0  0
  151.5363  139.3776  157.7956 C   0  0  0  0  0  0  0  0  0  0  0  0
  150.2659  138.6696  158.0163 N   0  0  0  0  0  0  0  0  0  0  0  0
  150.0038  137.6280  158.8237 C   0  0  0  0  0  0  0  0  0  0  0  0
  150.8990  137.1247  159.5058 O   0  0  0  0  0  0  0  0  0  0  0  0
  148.7079  137.2419  158.7986 N   0  5  0  0  0  0  0  0  0  0  0  0
  148.1368  136.7366  159.9041 C   0  0  0  0  0  0  0  0  0  0  0  0
  147.8582  137.4911  160.9792 N   0  0  0  0  0  0  0  0  0  0  0  0
  147.2747  136.7721  162.0138 N   0  0  0  0  0  0  0  0  0  0  0  0
  147.1367  135.4857  161.6941 C   0  0  0  0  0  0  0  0  0  0  0  0
  147.7063  135.0354  160.1012 S   0  0  0  0  0  0  0  0  0  0  0  0
  151.3827  140.6273  156.8802 C   0  0  0  0  0  0  0  0  0  0  0  0
  150.4278  140.5464  155.6679 C   0  0  0  0  0  0  0  0  0  0  0  0
  150.4311  139.2486  154.8417 C   0  0  0  0  0  0  0  0  0  0  0  0
  151.7965  138.5633  154.6971 C   0  0  0  0  0  0  0  0  0  0  0  0
  152.1310  137.6532  155.8896 C   0  0  0  0  0  0  0  0  0  0  0  0
  152.5581  138.3900  157.1720 C   0  0  0  0  0  0  0  0  0  0  0  0
  153.1003  140.2766  159.0391 H   0  0  0  0  0  0  0  0  0  0  0  0
  152.2277  138.9762  159.8393 H   0  0  0  0  0  0  0  0  0  0  0  0
  151.4859  140.5571  159.6580 H   0  0  0  0  0  0  0  0  0  0  0  0
  149.4786  139.0250  157.4945 H   0  0  0  0  0  0  0  0  0  0  0  0
  146.6988  134.7971  162.4010 H   0  0  0  0  0  0  0  0  0  0  0  0
  151.0521  141.4751  157.4819 H   0  0  0  0  0  0  0  0  0  0  0  0
  152.3707  140.9214  156.5243 H   0  0  0  0  0  0  0  0  0  0  0  0
  149.4060  140.7336  155.9995 H   0  0  0  0  0  0  0  0  0  0  0  0
  150.6664  141.3797  155.0061 H   0  0  0  0  0  0  0  0  0  0  0  0
  149.7144  138.5428  155.2633 H   0  0  0  0  0  0  0  0  0  0  0  0
  150.0454  139.4830  153.8490 H   0  0  0  0  0  0  0  0  0  0  0  0
  151.7636  137.9380  153.8041 H   0  0  0  0  0  0  0  0  0  0  0  0
  152.5870  139.2936  154.5217 H   0  0  0  0  0  0  0  0  0  0  0  0
  151.2929  136.9871  156.0976 H   0  0  0  0  0  0  0  0  0  0  0  0
  152.9515  136.9984  155.5957 H   0  0  0  0  0  0  0  0  0  0  0  0
  153.4964  138.9117  156.9786 H   0  0  0  0  0  0  0  0  0  0  0  0
  152.8046  137.6273  157.9121 H   0  0  0  0  0  0  0  0  0  0  0  0
  1  2  1  0  0  0  0
  1 18  1  0  0  0  0
  1 19  1  0  0  0  0
  1 20  1  0  0  0  0
  2 17  1  0  0  0  0
  2  3  1  0  0  0  0
  2 12  1  0  0  0  0
  3  4  1  0  0  0  0
  3 21  1  0  0  0  0
  4  5  2  0  0  0  0
  4  6  1  0  0  0  0
  6  7  1  0  0  0  0
  7 11  1  0  0  0  0
  7  8  2  0  0  0  0
  8  9  1  0  0  0  0
  9 10  2  0  0  0  0
 10 11  1  0  0  0  0
 10 22  1  0  0  0  0
 12 13  1  0  0  0  0
 12 23  1  0  0  0  0
 12 24  1  0  0  0  0
 13 14  1  0  0  0  0
 13 25  1  0  0  0  0
 13 26  1  0  0  0  0
 14 15  1  0  0  0  0
 14 27  1  0  0  0  0
 14 28  1  0  0  0  0
 15 16  1  0  0  0  0
 15 29  1  0  0  0  0
 15 30  1  0  0  0  0
 16 17  1  0  0  0  0
 16 31  1  0  0  0  0
 16 32  1  0  0  0  0
 17 33  1  0  0  0  0
 17 34  1  0  0  0  0
M  CHG  1   6  -1
M  END
> <s_m_source_file>
AV-unprocessed.smi

> <i_m_source_file_index>
1043

> <i_lp_mmshare_version>
43012

> <i_f3d_flags>
0

> <s_epik_input>
W0NIMl0xW0NIMl1bQ0gyXVtDSDJdW0NIMl1bQ0gyXUMxKFtDSDNdKVtOSF1DKD1PKVtOSF1jMm5uW2NIXXMy

> <s_epik_cmdline>
J2VwaWtfcHl0aG9uJywgJy1waCcsICc3LjAnLCAnLXRuJywgJzgnLCAnLW1hJywgJzIwMCcsICctbWV0YWxfYmluZGluZycsICctaW1hZScsICc8aW5maWxlLm1hZT4nLCAnLW9tYWUnLCAnPG91dGZpbGUubWFlPic=

> <r_lp_tautomer_probability>
1

> <r_epik_Ionization_Penalty>
4.55555

> <r_epik_Ionization_Penalty_Charging>
4.50588

> <r_epik_Ionization_Penalty_Neutral>
0.0496753

> <r_epik_State_Penalty>
4.50558

> <r_epik_Charging_Adjusted_Penalty>
9.01146

> <i_epik_Tot_Q>
-1

> <i_epik_Tot_abs_Q>
1

> <r_epik_Metal_State_Penalty>
0.822218

> <b_epik_Metal_Only>
1

> <s_lp_Force_Field>
OPLS_2005

> <r_lp_Energy>
17.5754

> <b_lp_Chiralities_Consistent>
1

> <s_lp_Variant>
AV-unprocessed.smi:1043-2

> <Gold.Version>
5.8.1

> <Gold.Id.Protein>
6NUR|6NUR_protein|mol2

> <Gold.PLP.Fitness>
34.0531

> <Gold.PLP.PLP>
-27.9087

> <Gold.PLP.part.hbond>
-3.0000

> <Gold.PLP.part.metal>
0.0000

> <Gold.PLP.part.buried>
-4.7659

> <Gold.PLP.part.nonpolar>
-20.9730

> <Gold.PLP.part.repulsive>
0.0839

> <Gold.PLP.ligand.clash>
0.0000

> <Gold.PLP.ligand.torsion>
0.9291

> <Gold.PLP.Chemscore.Hbond>
2.6640

> <Gold.PLP.Chemscore.CHOScore>
0.0000

> <Gold.PLP.Chemscore.Metal>
0.0000

> <Gold.Chemscore.Hbonds>
donor molecule, donor type, donor heavy atom, donor atom, acceptor molecule, acceptor atom, score
      P1  H  6896  6907       L1     5  0.93
      P1  H  6931  6943       L1     8  0.64
      P1  H  6934  6947       L1     8  0.74

> <Gold.PLP.Chemscore.Internal.Correction>
0.0106

> <Gold.Rescore>
     Score         DG    S(hbond)    S(metal)    S(lipo)     H(rot)  DE(clash)    DE(int)     intcor
     15.46     -17.64       2.34        0.00      59.03       1.00       0.01       2.17       ----

> <Gold.Chemscore.Fitness>
15.4617

> <Gold.Chemscore.DG>
-17.6360

> <Gold.Chemscore.ZeroCoef>
-5.4800

> <Gold.Chemscore.Hbond>
2.3382

> <Gold.Chemscore.Metal>
0.0000

> <Gold.Chemscore.Lipo>
59.0301

> <Gold.Chemscore.Internal_Hbond>
0.0000

> <Gold.Chemscore.DEClash>
0.0073

> <Gold.Chemscore.DEInternal>
2.1670

> <Gold.Chemscore.Rot>
1.0000

> <Gold.Chemscore.Internal.Correction>
   9.000000E+99

> <Gold.Chemscore.Hbonds>
donor molecule, donor type, donor heavy atom, donor atom, acceptor molecule, acceptor atom, score
      P1  H  6896  6907       L1     5  0.89
      P1  H  6931  6943       L1     8  0.11
      P1  H  6934  6947       L1     8  0.51

> <Gold.Chemscore.Hbond.Weighted>
-7.8095

> <Gold.Chemscore.Metal.Weighted>
-0.0000

> <Gold.Chemscore.Lipo.Weighted>
-6.9065

> <Gold.Chemscore.Internal_Hbond.Weighted>
0.0000

> <Gold.Chemscore.DEClash.Weighted>
0.0073

> <Gold.Chemscore.DEInternal.Weighted>
2.1670

> <Gold.Chemscore.Rot.Weighted>
2.5600

> <Gold.Chemscore.Internal.Correction.Weighted>
   9.000000E+99

> <Gold.Protein.RotatedTorsions>
[ 6907 6896 6895 6894 ] final  -19.24 input  -60.11 | X-H torsion
[ 7974 7965 7964 7962 ] final   -6.19 input  175.53 | X-H torsion
[ 8008 7997 7996 7995 ] final   88.94 input   59.86 | X-H torsion
[ 10167 10162 10161 10158 ] final -113.05 input  -65.29 | X-H torsion
[ 10718 10713 10712 10709 ] final  159.83 input   66.30 | X-H torsion
[ 10763 10752 10751 10750 ] final  139.67 input  -60.55 | X-H torsion
[ 11005 11000 10999 10996 ] final  -14.54 input  -57.11 | X-H torsion

> <Gold.Protein.ActiveResidues>
 VAL166  LYS551  ARG553  GLY616  TRP617  ASP618  TYR619  PRO620  LYS621  CYS622 
 ASP623  PHE694  ASN695  SER759  ASP760  ASP761  ALA762  ILE779  LEU786  VAL792 
 PHE793  MET794  SER795  GLU796  ALA797  LYS798  CYS799  TRP800  GLU811  SER814 

> <Gold.Protein.RotatedAtoms>
  151.2661  135.0670  159.9116 H   0  0  0  0  0  0  0  0  0  0  0  0  # atno 6907 bound_to 6896
  152.5358  134.0179  159.7979 H   0  0  0  0  0  0  0  0  0  0  0  0  # atno 6908 bound_to 6896
  151.0410  133.5656  159.2682 H   0  0  0  0  0  0  0  0  0  0  0  0  # atno 6909 bound_to 6896
  146.2336  140.2134  142.8336 H   0  0  0  0  0  0  0  0  0  0  0  0  # atno 7974 bound_to 7965
  155.9939  140.3366  155.6780 H   0  0  0  0  0  0  0  0  0  0  0  0  # atno 8008 bound_to 7997
  155.6383  140.0692  157.2645 H   0  0  0  0  0  0  0  0  0  0  0  0  # atno 8009 bound_to 7997
  154.4228  140.1747  156.1533 H   0  0  0  0  0  0  0  0  0  0  0  0  # atno 8010 bound_to 7997
  140.1161  143.4485  152.1721 H   0  0  0  0  0  0  0  0  0  0  0  0  # atno 10167 bound_to 10162
  157.1588  131.0582  151.2243 H   0  0  0  0  0  0  0  0  0  0  0  0  # atno 10718 bound_to 10713
  153.9099  135.3012  155.3448 H   0  0  0  0  0  0  0  0  0  0  0  0  # atno 10763 bound_to 10752
  154.7628  135.4925  153.9500 H   0  0  0  0  0  0  0  0  0  0  0  0  # atno 10764 bound_to 10752
  153.1198  135.6779  153.9456 H   0  0  0  0  0  0  0  0  0  0  0  0  # atno 10765 bound_to 10752
  140.7874  133.8314  155.9348 H   0  0  0  0  0  0  0  0  0  0  0  0  # atno 11005 bound_to 11000
  144.9689  140.8349  143.5467 LP  0  0  0  0  0  0  0  0  0  0  0  0  # atno 17320 bound_to 7965
  145.2113  139.2203  143.5141 LP  0  0  0  0  0  0  0  0  0  0  0  0  # atno 17321 bound_to 7965
  139.5593  144.7395  151.4200 LP  0  0  0  0  0  0  0  0  0  0  0  0  # atno 17342 bound_to 10162
  140.6899  143.7887  150.7239 LP  0  0  0  0  0  0  0  0  0  0  0  0  # atno 17343 bound_to 10162
  157.4152  130.7407  149.6870 LP  0  0  0  0  0  0  0  0  0  0  0  0  # atno 17370 bound_to 10713
  155.9757  130.4085  150.3828 LP  0  0  0  0  0  0  0  0  0  0  0  0  # atno 17371 bound_to 10713
  140.9423  134.1885  157.4789 LP  0  0  0  0  0  0  0  0  0  0  0  0  # atno 17394 bound_to 11000
  139.8735  134.9876  156.5377 LP  0  0  0  0  0  0  0  0  0  0  0  0  # atno 17395 bound_to 11000

$$$$
