AV-unprocessed.smi:713|AV-procd|sdf|3480|dock1
  -GOLD-   22720 0473D 1   1.00000     0.00000
 Structure written by MMmdl.
 41 42  0  0  0  0  0  0  0  0  1 V2000
  151.3865  144.9435  159.0273 C   0  0  0  0  0  0  0  0  0  0  0  0
  152.0444  143.5516  158.9898 C   0  0  2  0  0  0  0  0  0  0  0  0
  151.1280  142.4748  158.3902 C   0  0  0  0  0  0  0  0  0  0  0  0
  150.0494  142.2002  158.9180 O   0  0  0  0  0  0  0  0  0  0  0  0
  151.5837  141.8626  157.2860 N   0  0  0  0  0  0  0  0  0  0  0  0
  150.9152  140.7724  156.5839 C   0  0  1  0  0  0  0  0  0  0  0  0
  149.8332  141.3171  155.6295 C   0  0  0  0  0  0  0  0  0  0  0  0
  149.1639  140.1899  154.8276 C   0  0  0  0  0  0  0  0  0  0  0  0
  150.2000  139.3304  154.0809 C   0  0  0  0  0  0  0  0  0  0  0  0
  151.3396  138.8066  154.9849 C   0  0  2  0  0  0  0  0  0  0  0  0
  150.8297  137.3968  156.0873 S   0  0  0  0  0  0  0  0  0  0  0  0
  151.2527  138.0284  157.7634 C   0  0  0  0  0  0  0  0  0  0  0  0
  149.3677  137.2610  156.0045 O   0  0  0  0  0  0  0  0  0  0  0  0
  151.6763  136.2231  155.8284 O   0  0  0  0  0  0  0  0  0  0  0  0
  151.9623  139.9559  155.8025 C   0  0  0  0  0  0  0  0  0  0  0  0
  152.4915  143.1427  160.3150 N   0  0  0  0  0  0  0  0  0  0  0  0
  152.2656  143.7543  161.5332 C   0  0  0  0  0  0  0  0  0  0  0  0
  152.8648  142.9898  162.4926 C   0  0  0  0  0  0  0  0  0  0  0  0
  153.4366  141.9141  161.7582 C   0  0  0  0  0  0  0  0  0  0  0  0
  153.2108  142.0072  160.4578 N   0  0  0  0  0  0  0  0  0  0  0  0
  151.0679  145.2557  158.0322 H   0  0  0  0  0  0  0  0  0  0  0  0
  152.0876  145.6929  159.3954 H   0  0  0  0  0  0  0  0  0  0  0  0
  150.5116  144.9640  159.6782 H   0  0  0  0  0  0  0  0  0  0  0  0
  152.9221  143.6273  158.3443 H   0  0  0  0  0  0  0  0  0  0  0  0
  152.4812  142.1526  156.9248 H   0  0  0  0  0  0  0  0  0  0  0  0
  150.4464  140.1241  157.3250 H   0  0  0  0  0  0  0  0  0  0  0  0
  149.0732  141.8628  156.1898 H   0  0  0  0  0  0  0  0  0  0  0  0
  150.2797  142.0335  154.9383 H   0  0  0  0  0  0  0  0  0  0  0  0
  148.5606  139.5736  155.4914 H   0  0  0  0  0  0  0  0  0  0  0  0
  148.4641  140.6198  154.1107 H   0  0  0  0  0  0  0  0  0  0  0  0
  149.7027  138.5088  153.5679 H   0  0  0  0  0  0  0  0  0  0  0  0
  150.6427  139.9414  153.2933 H   0  0  0  0  0  0  0  0  0  0  0  0
  152.1200  138.3971  154.3430 H   0  0  0  0  0  0  0  0  0  0  0  0
  150.8854  137.3277  158.5127 H   0  0  0  0  0  0  0  0  0  0  0  0
  150.7839  138.9995  157.9199 H   0  0  0  0  0  0  0  0  0  0  0  0
  152.3330  138.1210  157.8656 H   0  0  0  0  0  0  0  0  0  0  0  0
  152.4955  140.6201  155.1207 H   0  0  0  0  0  0  0  0  0  0  0  0
  152.7158  139.5613  156.4850 H   0  0  0  0  0  0  0  0  0  0  0  0
  151.7004  144.6714  161.6145 H   0  0  0  0  0  0  0  0  0  0  0  0
  152.8876  143.1698  163.5572 H   0  0  0  0  0  0  0  0  0  0  0  0
  154.0035  141.0731  162.1292 H   0  0  0  0  0  0  0  0  0  0  0  0
  1  2  1  0  0  0  0
  1 21  1  0  0  0  0
  1 22  1  0  0  0  0
  1 23  1  0  0  0  0
  2  3  1  0  0  0  0
  2 16  1  0  0  0  0
  2 24  1  0  0  0  0
  3  4  2  0  0  0  0
  3  5  1  0  0  0  0
  5  6  1  0  0  0  0
  5 25  1  0  0  0  0
  6 15  1  0  0  0  0
  6  7  1  0  0  0  0
  6 26  1  0  0  0  0
  7  8  1  0  0  0  0
  7 27  1  0  0  0  0
  7 28  1  0  0  0  0
  8  9  1  0  0  0  0
  8 29  1  0  0  0  0
  8 30  1  0  0  0  0
  9 10  1  0  0  0  0
  9 31  1  0  0  0  0
  9 32  1  0  0  0  0
 10 11  1  0  0  0  0
 10 15  1  0  0  0  0
 10 33  1  0  0  0  0
 11 12  1  0  0  0  0
 11 13  2  0  0  0  0
 11 14  2  0  0  0  0
 12 34  1  0  0  0  0
 12 35  1  0  0  0  0
 12 36  1  0  0  0  0
 15 37  1  0  0  0  0
 15 38  1  0  0  0  0
 16 20  1  0  0  0  0
 16 17  1  0  0  0  0
 17 18  2  0  0  0  0
 17 39  1  0  0  0  0
 18 19  1  0  0  0  0
 18 40  1  0  0  0  0
 19 20  2  0  0  0  0
 19 41  1  0  0  0  0
M  END
> <s_m_source_file>
AV-unprocessed.smi

> <i_m_source_file_index>
713

> <i_lp_mmshare_version>
43012

> <i_f3d_flags>
0

> <s_epik_input>
bjFbY0hdW2NIXVtjSF1uMVtDQEhdKFtDSDNdKUMoPU8pW05IXVtDQEBIXTJbQ0gyXVtDSDJdW0NIMl1bQ0BIXShbQ0gyXTIpUyg9TykoPU8pW0NIM10=

> <s_epik_cmdline>
J2VwaWtfcHl0aG9uJywgJy1waCcsICc3LjAnLCAnLXRuJywgJzgnLCAnLW1hJywgJzIwMCcsICctbWV0YWxfYmluZGluZycsICctaW1hZScsICc8aW5maWxlLm1hZT4nLCAnLW9tYWUnLCAnPG91dGZpbGUubWFlPic=

> <r_lp_tautomer_probability>
1

> <r_epik_Ionization_Penalty>
4.07816e-05

> <r_epik_Ionization_Penalty_Charging>
0

> <r_epik_Ionization_Penalty_Neutral>
4.07816e-05

> <r_epik_State_Penalty>
-0

> <r_epik_Charging_Adjusted_Penalty>
0

> <i_epik_Tot_Q>
0

> <i_epik_Tot_abs_Q>
0

> <r_epik_Metal_State_Penalty>
-0

> <b_epik_Metal_Only>
0

> <s_lp_Force_Field>
OPLS_2005

> <r_lp_Energy>
4.30009

> <b_lp_Chiralities_Consistent>
1

> <s_lp_Variant>
AV-unprocessed.smi:713-7

> <Gold.Version>
5.8.1

> <Gold.Id.Protein>
6NUR|6NUR_protein|mol2

> <Gold.PLP.Fitness>
46.7234

> <Gold.PLP.PLP>
-44.4613

> <Gold.PLP.part.hbond>
-1.9363

> <Gold.PLP.part.metal>
0.0000

> <Gold.PLP.part.buried>
-3.3327

> <Gold.PLP.part.nonpolar>
-39.3482

> <Gold.PLP.part.repulsive>
0.2059

> <Gold.PLP.ligand.clash>
0.0000

> <Gold.PLP.ligand.torsion>
0.4992

> <Gold.PLP.Chemscore.Hbond>
1.0000

> <Gold.PLP.Chemscore.CHOScore>
0.0000

> <Gold.PLP.Chemscore.Metal>
0.0000

> <Gold.Chemscore.Hbonds>
donor molecule, donor type, donor heavy atom, donor atom, acceptor molecule, acceptor atom, score
      P1  H 10752 10763       L1    14  1.00

> <Gold.PLP.Chemscore.Internal.Correction>
0.2605

> <Gold.Rescore>
     Score         DG    S(hbond)    S(metal)    S(lipo)     H(rot)  DE(clash)    DE(int)     intcor
     15.17     -16.64       1.00        0.00     104.69       1.72       0.12       1.34       ----

> <Gold.Chemscore.Fitness>
15.1731

> <Gold.Chemscore.DG>
-16.6381

> <Gold.Chemscore.ZeroCoef>
-5.4800

> <Gold.Chemscore.Hbond>
0.9955

> <Gold.Chemscore.Metal>
0.0000

> <Gold.Chemscore.Lipo>
104.6912

> <Gold.Chemscore.Internal_Hbond>
0.0000

> <Gold.Chemscore.DEClash>
0.1204

> <Gold.Chemscore.DEInternal>
1.3446

> <Gold.Chemscore.Rot>
1.7249

> <Gold.Chemscore.Internal.Correction>
   9.000000E+99

> <Gold.Chemscore.Hbonds>
donor molecule, donor type, donor heavy atom, donor atom, acceptor molecule, acceptor atom, score
      P1  H 10752 10763       L1    14  1.00

> <Gold.Chemscore.Hbond.Weighted>
-3.3249

> <Gold.Chemscore.Metal.Weighted>
-0.0000

> <Gold.Chemscore.Lipo.Weighted>
-12.2489

> <Gold.Chemscore.Internal_Hbond.Weighted>
0.0000

> <Gold.Chemscore.DEClash.Weighted>
0.1204

> <Gold.Chemscore.DEInternal.Weighted>
1.3446

> <Gold.Chemscore.Rot.Weighted>
4.4157

> <Gold.Chemscore.Internal.Correction.Weighted>
   9.000000E+99

> <Gold.Protein.RotatedTorsions>
[ 6907 6896 6895 6894 ] final  178.01 input  -60.11 | X-H torsion
[ 7974 7965 7964 7962 ] final  121.49 input  175.53 | X-H torsion
[ 8008 7997 7996 7995 ] final   11.21 input   59.86 | X-H torsion
[ 10167 10162 10161 10158 ] final   59.36 input  -65.29 | X-H torsion
[ 10718 10713 10712 10709 ] final  174.77 input   66.30 | X-H torsion
[ 10763 10752 10751 10750 ] final   72.80 input  -60.55 | X-H torsion
[ 11005 11000 10999 10996 ] final  116.75 input  -57.11 | X-H torsion

> <Gold.Protein.ActiveResidues>
 VAL166  LYS551  ARG553  GLY616  TRP617  ASP618  TYR619  PRO620  LYS621  CYS622 
 ASP623  PHE694  ASN695  SER759  ASP760  ASP761  ALA762  ILE779  LEU786  VAL792 
 PHE793  MET794  SER795  GLU796  ALA797  LYS798  CYS799  TRP800  GLU811  SER814 

> <Gold.Protein.RotatedAtoms>
  151.6948  133.3311  159.3251 H   0  0  0  0  0  0  0  0  0  0  0  0  # atno 6907 bound_to 6896
  150.7762  134.6667  159.6378 H   0  0  0  0  0  0  0  0  0  0  0  0  # atno 6908 bound_to 6896
  152.3805  134.6600  160.0196 H   0  0  0  0  0  0  0  0  0  0  0  0  # atno 6909 bound_to 6896
  145.1187  139.3404  143.4725 H   0  0  0  0  0  0  0  0  0  0  0  0  # atno 7974 bound_to 7965
  154.8038  140.2856  155.5902 H   0  0  0  0  0  0  0  0  0  0  0  0  # atno 8008 bound_to 7997
  156.2980  140.2581  156.2842 H   0  0  0  0  0  0  0  0  0  0  0  0  # atno 8009 bound_to 7997
  154.9527  140.0379  157.2141 H   0  0  0  0  0  0  0  0  0  0  0  0  # atno 8010 bound_to 7997
  140.1773  144.4217  150.6632 H   0  0  0  0  0  0  0  0  0  0  0  0  # atno 10167 bound_to 10162
  156.9446  131.0012  151.2961 H   0  0  0  0  0  0  0  0  0  0  0  0  # atno 10718 bound_to 10713
  153.0481  135.5086  154.7797 H   0  0  0  0  0  0  0  0  0  0  0  0  # atno 10763 bound_to 10752
  154.6681  135.2949  154.9780 H   0  0  0  0  0  0  0  0  0  0  0  0  # atno 10764 bound_to 10752
  154.0608  135.6691  153.4864 H   0  0  0  0  0  0  0  0  0  0  0  0  # atno 10765 bound_to 10752
  139.9051  134.9602  156.7246 H   0  0  0  0  0  0  0  0  0  0  0  0  # atno 11005 bound_to 11000
  146.3522  140.1137  142.8603 LP  0  0  0  0  0  0  0  0  0  0  0  0  # atno 17320 bound_to 7965
  145.0765  140.9191  143.4851 LP  0  0  0  0  0  0  0  0  0  0  0  0  # atno 17321 bound_to 7965
  140.6543  143.2233  151.6005 LP  0  0  0  0  0  0  0  0  0  0  0  0  # atno 17342 bound_to 10162
  139.5311  144.2912  152.1150 LP  0  0  0  0  0  0  0  0  0  0  0  0  # atno 17343 bound_to 10162
  157.5762  130.8344  149.8459 LP  0  0  0  0  0  0  0  0  0  0  0  0  # atno 17370 bound_to 10713
  156.0389  130.3744  150.1487 LP  0  0  0  0  0  0  0  0  0  0  0  0  # atno 17371 bound_to 10713
  140.6973  133.9337  155.8003 LP  0  0  0  0  0  0  0  0  0  0  0  0  # atno 17394 bound_to 11000
  141.0397  134.0638  157.3916 LP  0  0  0  0  0  0  0  0  0  0  0  0  # atno 17395 bound_to 11000

$$$$
