AV-unprocessed.smi:3208|AV-procd|sdf|12267|dock9
  -GOLD-   2272018103D 1   1.00000     0.00000
 Structure written by MMmdl.
 29 29  0  0  0  0  0  0  0  0  2 V2000
  151.8694  138.5496  154.6148 C   0  0  0  0  0  0  0  0  0  0  0  0
  150.9905  137.5788  154.9053 C   0  0  0  0  0  0  0  0  0  0  0  0
  149.6825  137.7952  155.6339 C   0  0  0  0  0  0  0  0  0  0  0  0
  149.5923  136.9202  156.7518 O   0  0  0  0  0  0  0  0  0  0  0  0
  148.8709  135.7109  156.5272 C   0  0  1  0  0  0  0  0  0  0  0  0
  149.5873  134.9462  155.4043 C   0  0  0  0  0  0  0  0  0  0  0  0
  148.8027  134.8756  157.8160 C   0  0  0  0  0  0  0  0  0  0  0  0
  149.3087  133.7529  157.8429 O   0  0  0  0  0  0  0  0  0  0  0  0
  148.1866  135.4649  158.8572 N   0  0  0  0  0  0  0  0  0  0  0  0
  147.9566  134.9527  160.1639 C   0  0  0  0  0  0  0  0  0  0  0  0
  147.9281  133.6246  160.4406 N   0  0  0  0  0  0  0  0  0  0  0  0
  147.6981  133.2177  161.7060 C   0  0  0  0  0  0  0  0  0  0  0  0
  147.4821  134.1058  162.7743 C   0  0  0  0  0  0  0  0  0  0  0  0
  147.5097  135.4848  162.5036 C   0  0  0  0  0  0  0  0  0  0  0  0
  147.7498  135.9185  161.1843 C   0  0  0  0  0  0  0  0  0  0  0  0
  147.7765  137.2616  160.9215 O   0  5  0  0  0  0  0  0  0  0  0  0
  151.6848  139.5763  154.8956 H   0  0  0  0  0  0  0  0  0  0  0  0
  152.7873  138.3277  154.0908 H   0  0  0  0  0  0  0  0  0  0  0  0
  151.2086  136.5630  154.6096 H   0  0  0  0  0  0  0  0  0  0  0  0
  149.6074  138.8382  155.9448 H   0  0  0  0  0  0  0  0  0  0  0  0
  148.8668  137.5997  154.9367 H   0  0  0  0  0  0  0  0  0  0  0  0
  147.8618  135.9507  156.1862 H   0  0  0  0  0  0  0  0  0  0  0  0
  149.0922  133.9976  155.1930 H   0  0  0  0  0  0  0  0  0  0  0  0
  150.6253  134.7331  155.6621 H   0  0  0  0  0  0  0  0  0  0  0  0
  149.5905  135.5280  154.4824 H   0  0  0  0  0  0  0  0  0  0  0  0
  147.8275  136.3958  158.7010 H   0  0  0  0  0  0  0  0  0  0  0  0
  147.6853  132.1505  161.8711 H   0  0  0  0  0  0  0  0  0  0  0  0
  147.3002  133.7398  163.7737 H   0  0  0  0  0  0  0  0  0  0  0  0
  147.3480  136.1983  163.2984 H   0  0  0  0  0  0  0  0  0  0  0  0
  1  2  2  0  0  0  0
  1 17  1  0  0  0  0
  1 18  1  0  0  0  0
  2  3  1  0  0  0  0
  2 19  1  0  0  0  0
  3  4  1  0  0  0  0
  3 20  1  0  0  0  0
  3 21  1  0  0  0  0
  4  5  1  0  0  0  0
  5  6  1  0  0  0  0
  5  7  1  0  0  0  0
  5 22  1  0  0  0  0
  6 23  1  0  0  0  0
  6 24  1  0  0  0  0
  6 25  1  0  0  0  0
  7  8  2  0  0  0  0
  7  9  1  0  0  0  0
  9 26  1  0  0  0  0
  9 10  1  0  0  0  0
 10 15  2  0  0  0  0
 10 11  1  0  0  0  0
 11 12  2  0  0  0  0
 12 27  1  0  0  0  0
 12 13  1  0  0  0  0
 13 28  1  0  0  0  0
 13 14  2  0  0  0  0
 14 15  1  0  0  0  0
 14 29  1  0  0  0  0
 15 16  1  0  0  0  0
M  CHG  1  16  -1
M  END
> <s_m_source_file>
AV-unprocessed.smi

> <i_m_source_file_index>
3208

> <i_lp_mmshare_version>
43012

> <i_f3d_flags>
0

> <s_epik_input>
W0NIMl09W0NIXVtDSDJdT1tDQEhdKFtDSDNdKUMoPU8pW05IXWMxbltjSF1bY0hdW2NIXWMxW09IXQ==

> <s_epik_cmdline>
J2VwaWtfcHl0aG9uJywgJy1waCcsICc3LjAnLCAnLXRuJywgJzgnLCAnLW1hJywgJzIwMCcsICctbWV0YWxfYmluZGluZycsICctaW1hZScsICc8aW5maWxlLm1hZT4nLCAnLW9tYWUnLCAnPG91dGZpbGUubWFlPic=

> <r_epik_Ionization_Penalty>
4.05889

> <r_epik_Ionization_Penalty_Charging>
2.07983

> <r_epik_Ionization_Penalty_Neutral>
1.97905

> <r_epik_State_Penalty>
2.65143

> <r_epik_Charging_Adjusted_Penalty>
4.73126

> <i_epik_Tot_Q>
-1

> <i_epik_Tot_abs_Q>
1

> <r_epik_Metal_State_Penalty>
0.650759

> <b_epik_Metal_Only>
0

> <s_lp_Force_Field>
OPLS_2005

> <r_lp_Energy>
4.10408

> <b_lp_Chiralities_Consistent>
1

> <s_lp_Variant>
AV-unprocessed.smi:3208-8

> <Gold.Version>
5.8.1

> <Gold.Id.Protein>
6NUR|6NUR_protein|mol2

> <Gold.PLP.Fitness>
40.4470

> <Gold.PLP.PLP>
-27.5515

> <Gold.PLP.part.hbond>
-3.0000

> <Gold.PLP.part.metal>
0.0000

> <Gold.PLP.part.buried>
-3.8696

> <Gold.PLP.part.nonpolar>
-21.5829

> <Gold.PLP.part.repulsive>
0.0705

> <Gold.PLP.ligand.clash>
0.0000

> <Gold.PLP.ligand.torsion>
0.3858

> <Gold.PLP.Chemscore.Hbond>
4.5520

> <Gold.PLP.Chemscore.CHOScore>
0.0000

> <Gold.PLP.Chemscore.Metal>
0.0000

> <Gold.Chemscore.Hbonds>
donor molecule, donor type, donor heavy atom, donor atom, acceptor molecule, acceptor atom, score
      P1  H  6896  6907       L1     8  0.84
      P1  H  6931  6943       L1    16  1.70
      P1  H  6934  6947       L1    16  1.70

> <Gold.PLP.Chemscore.Internal.Correction>
0.0110

> <Gold.Rescore>
     Score         DG    S(hbond)    S(metal)    S(lipo)     H(rot)  DE(clash)    DE(int)     intcor
     15.32     -16.89       2.67        0.00      57.46       1.65       0.00       1.57       ----

> <Gold.Chemscore.Fitness>
15.3205

> <Gold.Chemscore.DG>
-16.8865

> <Gold.Chemscore.ZeroCoef>
-5.4800

> <Gold.Chemscore.Hbond>
2.6694

> <Gold.Chemscore.Metal>
0.0000

> <Gold.Chemscore.Lipo>
57.4608

> <Gold.Chemscore.Internal_Hbond>
0.0000

> <Gold.Chemscore.DEClash>
0.0000

> <Gold.Chemscore.DEInternal>
1.5659

> <Gold.Chemscore.Rot>
1.6533

> <Gold.Chemscore.Internal.Correction>
   9.000000E+99

> <Gold.Chemscore.Hbonds>
donor molecule, donor type, donor heavy atom, donor atom, acceptor molecule, acceptor atom, score
      P1  H  6896  6907       L1     8  0.60
      P1  H  6931  6943       L1    16  0.77
      P1  H  6934  6947       L1    16  0.83

> <Gold.Chemscore.Hbond.Weighted>
-8.9159

> <Gold.Chemscore.Metal.Weighted>
-0.0000

> <Gold.Chemscore.Lipo.Weighted>
-6.7229

> <Gold.Chemscore.Internal_Hbond.Weighted>
0.0000

> <Gold.Chemscore.DEClash.Weighted>
0.0000

> <Gold.Chemscore.DEInternal.Weighted>
1.5659

> <Gold.Chemscore.Rot.Weighted>
4.2324

> <Gold.Chemscore.Internal.Correction.Weighted>
   9.000000E+99

> <Gold.Protein.RotatedTorsions>
[ 6907 6896 6895 6894 ] final -128.42 input  -60.11 | X-H torsion
[ 7974 7965 7964 7962 ] final  -72.44 input  175.53 | X-H torsion
[ 8008 7997 7996 7995 ] final   -1.76 input   59.86 | X-H torsion
[ 10167 10162 10161 10158 ] final  -12.20 input  -65.29 | X-H torsion
[ 10718 10713 10712 10709 ] final  140.02 input   66.30 | X-H torsion
[ 10763 10752 10751 10750 ] final   35.26 input  -60.55 | X-H torsion
[ 11005 11000 10999 10996 ] final  140.96 input  -57.11 | X-H torsion

> <Gold.Protein.ActiveResidues>
 VAL166  LYS551  ARG553  GLY616  TRP617  ASP618  TYR619  PRO620  LYS621  CYS622 
 ASP623  PHE694  ASN695  SER759  ASP760  ASP761  ALA762  ILE779  LEU786  VAL792 
 PHE793  MET794  SER795  GLU796  ALA797  LYS798  CYS799  TRP800  GLU811  SER814 

> <Gold.Protein.RotatedAtoms>
  150.9177  133.6919  159.2839 H   0  0  0  0  0  0  0  0  0  0  0  0  # atno 6907 bound_to 6896
  151.4384  135.1016  159.9672 H   0  0  0  0  0  0  0  0  0  0  0  0  # atno 6908 bound_to 6896
  152.4963  133.8591  159.7296 H   0  0  0  0  0  0  0  0  0  0  0  0  # atno 6909 bound_to 6896
  145.6650  140.9240  143.0913 H   0  0  0  0  0  0  0  0  0  0  0  0  # atno 7974 bound_to 7965
  154.6433  140.2551  155.7297 H   0  0  0  0  0  0  0  0  0  0  0  0  # atno 8008 bound_to 7997
  156.2539  140.2883  156.0756 H   0  0  0  0  0  0  0  0  0  0  0  0  # atno 8009 bound_to 7997
  155.1563  140.0383  157.2823 H   0  0  0  0  0  0  0  0  0  0  0  0  # atno 8010 bound_to 7997
  140.7156  143.5558  150.9250 H   0  0  0  0  0  0  0  0  0  0  0  0  # atno 10167 bound_to 10162
  157.4080  131.1024  151.0484 H   0  0  0  0  0  0  0  0  0  0  0  0  # atno 10718 bound_to 10713
  153.0127  135.6338  154.1799 H   0  0  0  0  0  0  0  0  0  0  0  0  # atno 10763 bound_to 10752
  154.1540  135.2827  155.3129 H   0  0  0  0  0  0  0  0  0  0  0  0  # atno 10764 bound_to 10752
  154.6032  135.5580  153.7457 H   0  0  0  0  0  0  0  0  0  0  0  0  # atno 10765 bound_to 10752
  140.0366  134.9326  157.0764 H   0  0  0  0  0  0  0  0  0  0  0  0  # atno 11005 bound_to 11000
  144.7076  139.8499  143.7425 LP  0  0  0  0  0  0  0  0  0  0  0  0  # atno 17320 bound_to 7965
  146.1093  139.4096  143.0298 LP  0  0  0  0  0  0  0  0  0  0  0  0  # atno 17321 bound_to 7965
  139.9283  143.6523  152.3082 LP  0  0  0  0  0  0  0  0  0  0  0  0  # atno 17342 bound_to 10162
  139.6965  144.7640  151.1347 LP  0  0  0  0  0  0  0  0  0  0  0  0  # atno 17343 bound_to 10162
  157.1459  130.6163  149.5568 LP  0  0  0  0  0  0  0  0  0  0  0  0  # atno 17370 bound_to 10713
  155.9842  130.4865  150.6971 LP  0  0  0  0  0  0  0  0  0  0  0  0  # atno 17371 bound_to 10713
  140.4138  134.1953  155.7163 LP  0  0  0  0  0  0  0  0  0  0  0  0  # atno 17394 bound_to 11000
  141.1860  133.8311  157.1083 LP  0  0  0  0  0  0  0  0  0  0  0  0  # atno 17395 bound_to 11000

$$$$
