AV-unprocessed.smi:3168|AV-procd|sdf|12100|dock4
  -GOLD-   2272017533D 1   1.00000     0.00000
 Structure written by MMmdl.
 33 34  0  0  0  0  0  0  0  0  1 V2000
  152.1045  144.3545  157.9735 C   0  0  0  0  0  0  0  0  0  0  0  0
  151.3606  143.3173  158.8397 C   0  0  1  0  0  0  0  0  0  0  0  0
  150.8742  142.1107  158.0242 C   0  0  0  0  0  0  0  0  0  0  0  0
  151.1966  140.9661  158.3446 O   0  0  0  0  0  0  0  0  0  0  0  0
  150.0736  142.3861  156.9824 N   0  0  0  0  0  0  0  0  0  0  0  0
  149.4137  141.3983  156.1363 C   0  0  0  0  0  0  0  0  0  0  0  0
  150.4323  140.6342  155.2742 C   0  0  2  0  0  0  0  0  0  0  0  0
  149.8390  139.5576  154.3666 C   0  0  0  0  0  0  0  0  0  0  0  0
  151.0122  138.6233  154.1257 C   0  0  0  0  0  0  0  0  0  0  0  0
  151.9892  138.9494  155.2608 C   0  0  0  0  0  0  0  0  0  0  0  0
  151.3139  139.8843  156.0929 O   0  0  0  0  0  0  0  0  0  0  0  0
  152.1542  142.8582  159.9748 N   0  0  0  0  0  0  0  0  0  0  0  0
  153.3742  142.2126  159.9479 C   0  0  0  0  0  0  0  0  0  0  0  0
  153.7690  142.0231  161.2410 C   0  0  0  0  0  0  0  0  0  0  0  0
  152.7201  142.6077  162.0030 C   0  0  0  0  0  0  0  0  0  0  0  0
  151.7629  143.1160  161.2450 N   0  0  0  0  0  0  0  0  0  0  0  0
  151.4711  144.7123  157.1610 H   0  0  0  0  0  0  0  0  0  0  0  0
  153.0118  143.9456  157.5264 H   0  0  0  0  0  0  0  0  0  0  0  0
  152.3917  145.2216  158.5686 H   0  0  0  0  0  0  0  0  0  0  0  0
  150.4804  143.8167  159.2484 H   0  0  0  0  0  0  0  0  0  0  0  0
  149.8688  143.3555  156.7894 H   0  0  0  0  0  0  0  0  0  0  0  0
  148.8903  140.6973  156.7866 H   0  0  0  0  0  0  0  0  0  0  0  0
  148.6497  141.8602  155.5086 H   0  0  0  0  0  0  0  0  0  0  0  0
  151.0223  141.3354  154.6807 H   0  0  0  0  0  0  0  0  0  0  0  0
  149.0458  139.0209  154.8890 H   0  0  0  0  0  0  0  0  0  0  0  0
  149.4201  139.9628  153.4447 H   0  0  0  0  0  0  0  0  0  0  0  0
  150.6966  137.5797  154.1434 H   0  0  0  0  0  0  0  0  0  0  0  0
  151.4763  138.8183  153.1581 H   0  0  0  0  0  0  0  0  0  0  0  0
  152.2770  138.0651  155.8299 H   0  0  0  0  0  0  0  0  0  0  0  0
  152.8962  139.4085  154.8653 H   0  0  0  0  0  0  0  0  0  0  0  0
  153.8560  141.9457  159.0189 H   0  0  0  0  0  0  0  0  0  0  0  0
  154.6725  141.5457  161.5897 H   0  0  0  0  0  0  0  0  0  0  0  0
  152.6292  142.6828  163.0766 H   0  0  0  0  0  0  0  0  0  0  0  0
  1  2  1  0  0  0  0
  1 17  1  0  0  0  0
  1 18  1  0  0  0  0
  1 19  1  0  0  0  0
  2  3  1  0  0  0  0
  2 12  1  0  0  0  0
  2 20  1  0  0  0  0
  3  4  2  0  0  0  0
  3  5  1  0  0  0  0
  5  6  1  0  0  0  0
  5 21  1  0  0  0  0
  6  7  1  0  0  0  0
  6 22  1  0  0  0  0
  6 23  1  0  0  0  0
  7 11  1  0  0  0  0
  7  8  1  0  0  0  0
  7 24  1  0  0  0  0
  8  9  1  0  0  0  0
  8 25  1  0  0  0  0
  8 26  1  0  0  0  0
  9 10  1  0  0  0  0
  9 27  1  0  0  0  0
  9 28  1  0  0  0  0
 10 11  1  0  0  0  0
 10 29  1  0  0  0  0
 10 30  1  0  0  0  0
 12 16  1  0  0  0  0
 12 13  1  0  0  0  0
 13 14  2  0  0  0  0
 13 31  1  0  0  0  0
 14 15  1  0  0  0  0
 14 32  1  0  0  0  0
 15 16  2  0  0  0  0
 15 33  1  0  0  0  0
M  END
> <s_m_source_file>
AV-unprocessed.smi

> <i_m_source_file_index>
3168

> <i_lp_mmshare_version>
43012

> <i_f3d_flags>
0

> <s_epik_input>
bjFbY0hdW2NIXVtjSF1uMVtDQEhdKFtDSDNdKUMoPU8pW05IXVtDSDJdW0NAQEhdMltDSDJdW0NIMl1bQ0gyXU8y

> <s_epik_cmdline>
J2VwaWtfcHl0aG9uJywgJy1waCcsICc3LjAnLCAnLXRuJywgJzgnLCAnLW1hJywgJzIwMCcsICctbWV0YWxfYmluZGluZycsICctaW1hZScsICc8aW5maWxlLm1hZT4nLCAnLW9tYWUnLCAnPG91dGZpbGUubWFlPic=

> <r_lp_tautomer_probability>
1

> <r_epik_Ionization_Penalty>
4.14877e-05

> <r_epik_Ionization_Penalty_Charging>
0

> <r_epik_Ionization_Penalty_Neutral>
4.14877e-05

> <r_epik_State_Penalty>
-0

> <r_epik_Charging_Adjusted_Penalty>
0

> <i_epik_Tot_Q>
0

> <i_epik_Tot_abs_Q>
0

> <r_epik_Metal_State_Penalty>
-0

> <b_epik_Metal_Only>
0

> <s_lp_Force_Field>
OPLS_2005

> <r_lp_Energy>
21.2446

> <b_lp_Chiralities_Consistent>
1

> <s_lp_Variant>
AV-unprocessed.smi:3168-2

> <Gold.Version>
5.8.1

> <Gold.Id.Protein>
6NUR|6NUR_protein|mol2

> <Gold.PLP.Fitness>
44.0657

> <Gold.PLP.PLP>
-41.0925

> <Gold.PLP.part.hbond>
-1.9652

> <Gold.PLP.part.metal>
0.0000

> <Gold.PLP.part.buried>
-4.7422

> <Gold.PLP.part.nonpolar>
-34.3690

> <Gold.PLP.part.repulsive>
0.1430

> <Gold.PLP.ligand.clash>
0.0000

> <Gold.PLP.ligand.torsion>
0.0937

> <Gold.PLP.Chemscore.Hbond>
1.0167

> <Gold.PLP.Chemscore.CHOScore>
0.0000

> <Gold.PLP.Chemscore.Metal>
0.0000

> <Gold.Chemscore.Hbonds>
donor molecule, donor type, donor heavy atom, donor atom, acceptor molecule, acceptor atom, score
      L1  H     5    21       P1  8028  0.99
      P1  H  6933  6945       L1    16  0.03

> <Gold.PLP.Chemscore.Internal.Correction>
0.1104

> <Gold.Rescore>
     Score         DG    S(hbond)    S(metal)    S(lipo)     H(rot)  DE(clash)    DE(int)     intcor
     13.84     -15.85       0.99        0.00      95.52       1.61       0.11       1.90       ----

> <Gold.Chemscore.Fitness>
13.8373

> <Gold.Chemscore.DG>
-15.8506

> <Gold.Chemscore.ZeroCoef>
-5.4800

> <Gold.Chemscore.Hbond>
0.9924

> <Gold.Chemscore.Metal>
0.0000

> <Gold.Chemscore.Lipo>
95.5230

> <Gold.Chemscore.Internal_Hbond>
0.0000

> <Gold.Chemscore.DEClash>
0.1089

> <Gold.Chemscore.DEInternal>
1.9044

> <Gold.Chemscore.Rot>
1.6094

> <Gold.Chemscore.Internal.Correction>
   9.000000E+99

> <Gold.Chemscore.Hbonds>
donor molecule, donor type, donor heavy atom, donor atom, acceptor molecule, acceptor atom, score
      L1  H     5    21       P1  8028  0.88

> <Gold.Chemscore.Hbond.Weighted>
-3.3145

> <Gold.Chemscore.Metal.Weighted>
-0.0000

> <Gold.Chemscore.Lipo.Weighted>
-11.1762

> <Gold.Chemscore.Internal_Hbond.Weighted>
0.0000

> <Gold.Chemscore.DEClash.Weighted>
0.1089

> <Gold.Chemscore.DEInternal.Weighted>
1.9044

> <Gold.Chemscore.Rot.Weighted>
4.1201

> <Gold.Chemscore.Internal.Correction.Weighted>
   9.000000E+99

> <Gold.Protein.RotatedTorsions>
[ 6907 6896 6895 6894 ] final   70.21 input  -60.11 | X-H torsion
[ 7974 7965 7964 7962 ] final    9.70 input  175.53 | X-H torsion
[ 8008 7997 7996 7995 ] final  142.44 input   59.86 | X-H torsion
[ 10167 10162 10161 10158 ] final  135.79 input  -65.29 | X-H torsion
[ 10718 10713 10712 10709 ] final  166.43 input   66.30 | X-H torsion
[ 10763 10752 10751 10750 ] final -120.69 input  -60.55 | X-H torsion
[ 11005 11000 10999 10996 ] final   96.00 input  -57.11 | X-H torsion

> <Gold.Protein.ActiveResidues>
 VAL166  LYS551  ARG553  GLY616  TRP617  ASP618  TYR619  PRO620  LYS621  CYS622 
 ASP623  PHE694  ASN695  SER759  ASP760  ASP761  ALA762  ILE779  LEU786  VAL792 
 PHE793  MET794  SER795  GLU796  ALA797  LYS798  CYS799  TRP800  GLU811  SER814 

> <Gold.Protein.RotatedAtoms>
  152.4735  134.4902  159.9692 H   0  0  0  0  0  0  0  0  0  0  0  0  # atno 6907 bound_to 6896
  151.4923  133.3516  159.2863 H   0  0  0  0  0  0  0  0  0  0  0  0  # atno 6908 bound_to 6896
  150.8759  134.8169  159.7251 H   0  0  0  0  0  0  0  0  0  0  0  0  # atno 6909 bound_to 6896
  146.2399  139.9745  142.8443 H   0  0  0  0  0  0  0  0  0  0  0  0  # atno 7974 bound_to 7965
  156.2949  140.2289  156.4727 H   0  0  0  0  0  0  0  0  0  0  0  0  # atno 8008 bound_to 7997
  154.7921  140.0453  157.1230 H   0  0  0  0  0  0  0  0  0  0  0  0  # atno 8009 bound_to 7997
  154.9633  140.3057  155.5024 H   0  0  0  0  0  0  0  0  0  0  0  0  # atno 8010 bound_to 7997
  139.5204  144.6498  151.5334 H   0  0  0  0  0  0  0  0  0  0  0  0  # atno 10167 bound_to 10162
  157.0660  131.0353  151.2629 H   0  0  0  0  0  0  0  0  0  0  0  0  # atno 10718 bound_to 10713
  154.8650  135.4194  154.2500 H   0  0  0  0  0  0  0  0  0  0  0  0  # atno 10763 bound_to 10752
  153.3448  135.6995  153.6842 H   0  0  0  0  0  0  0  0  0  0  0  0  # atno 10764 bound_to 10752
  153.5806  135.3573  155.2846 H   0  0  0  0  0  0  0  0  0  0  0  0  # atno 10765 bound_to 10752
  139.8784  134.8928  156.4094 H   0  0  0  0  0  0  0  0  0  0  0  0  # atno 11005 bound_to 11000
  145.1650  140.9692  143.4355 LP  0  0  0  0  0  0  0  0  0  0  0  0  # atno 17320 bound_to 7965
  145.0081  139.3535  143.6134 LP  0  0  0  0  0  0  0  0  0  0  0  0  # atno 17321 bound_to 7965
  140.6299  143.9097  150.6596 LP  0  0  0  0  0  0  0  0  0  0  0  0  # atno 17342 bound_to 10162
  140.2398  143.3673  152.1496 LP  0  0  0  0  0  0  0  0  0  0  0  0  # atno 17343 bound_to 10162
  157.4916  130.7825  149.7514 LP  0  0  0  0  0  0  0  0  0  0  0  0  # atno 17370 bound_to 10713
  155.9964  130.3906  150.2780 LP  0  0  0  0  0  0  0  0  0  0  0  0  # atno 17371 bound_to 10713
  140.9211  133.7644  155.9908 LP  0  0  0  0  0  0  0  0  0  0  0  0  # atno 17394 bound_to 11000
  140.8438  134.3035  157.5303 LP  0  0  0  0  0  0  0  0  0  0  0  0  # atno 17395 bound_to 11000

$$$$
