#       Name:                AV-unprocessed.smi:3341
#       Creating user name   scv26
#       Creation time:       Fri Mar 27 19:28:50 2020


#       File generated by GOLD software.
#

@<TRIPOS>MOLECULE
AV-unprocessed.smi:3341
    49    50     1
SMALL
NO_CHARGES


@<TRIPOS>ATOM
      1 ****        -6.2456   4.3908   1.1226 C.3            1 S1                 0.0000
      2 ****        -5.7273   4.2528  -0.3139 C.3            1 S1                 0.0000
      3 ****        -5.2514   2.9107  -0.5872 N.pl3          1 S1                 0.0000
      4 ****        -3.9475   2.4572  -0.6204 C.2            1 S1                 0.0000
      5 ****        -4.0271   1.1260  -0.9185 C.2            1 S1                 0.0000
      6 ****        -2.9872   0.1756  -1.0789 N.am           1 S1                 0.0000
      7 ****        -1.6660   0.3852  -0.9605 C.2            1 S1                 0.0000
      8 ****        -1.1415   1.4592  -0.6646 O.2            1 S1                 0.0000
      9 ****        -0.9694  -0.7341  -1.2028 N.am           1 S1                 0.0000
     10 ****         0.4853  -0.8342  -1.1710 C.3            1 S1                 0.0000
     11 ****         1.0124  -0.9632   0.2713 C.3            1 S1                 0.0000
     12 ****         2.4952  -1.0152   0.3322 N.4            1 S1                 1.0000
     13 ****         3.0138  -0.6096   1.6645 C.3            1 S1                 0.0000
     14 ****         4.5490  -0.5369   1.6645 C.3            1 S1                 0.0000
     15 ****         5.1615  -1.8729   1.2266 C.3            1 S1                 0.0000
     16 ****         4.5973  -2.2940  -0.1405 C.3            1 S1                 0.0000
     17 ****         5.1749  -3.6422  -0.5943 C.3            1 S1                 0.0000
     18 ****         3.0560  -2.3255  -0.0961 C.3            1 S1                 0.0000
     19 ****        -5.4110   0.8416  -1.0531 C.2            1 S1                 0.0000
     20 ****        -6.1448   1.9252  -0.8509 N.2            1 S1                 0.0000
     21 ****        -6.5930   5.4063   1.3130 H              1 S1                 0.0000
     22 ****        -5.4623   4.1652   1.8470 H              1 S1                 0.0000
     23 ****        -7.0799   3.7135   1.3091 H              1 S1                 0.0000
     24 ****        -6.5149   4.4986  -1.0275 H              1 S1                 0.0000
     25 ****        -4.9112   4.9550  -0.4886 H              1 S1                 0.0000
     26 ****        -3.1082   3.1108  -0.4334 H              1 S1                 0.0000
     27 ****        -3.2815  -0.7599  -1.3185 H              1 S1                 0.0000
     28 ****        -1.4812  -1.5719  -1.4397 H              1 S1                 0.0000
     29 ****         0.7594  -1.7042  -1.7661 H              1 S1                 0.0000
     30 ****         0.9289   0.0324  -1.6645 H              1 S1                 0.0000
     31 ****         0.6669  -0.0985   0.8396 H              1 S1                 0.0000
     32 ****         0.5900  -1.8411   0.7626 H              1 S1                 0.0000
     33 ****         2.6125   0.3675   1.9369 H              1 S1                 0.0000
     34 ****         2.6694  -1.3168   2.4210 H              1 S1                 0.0000
     35 ****         4.8792   0.2564   0.9925 H              1 S1                 0.0000
     36 ****         4.9093  -0.2700   2.6585 H              1 S1                 0.0000
     37 ****         6.2475  -1.7851   1.1787 H              1 S1                 0.0000
     38 ****         4.9429  -2.6386   1.9724 H              1 S1                 0.0000
     39 ****         4.8977  -1.5450  -0.8750 H              1 S1                 0.0000
     40 ****         4.9103  -4.4418   0.0984 H              1 S1                 0.0000
     41 ****         6.2628  -3.6021  -0.6559 H              1 S1                 0.0000
     42 ****         4.8005  -3.9188  -1.5803 H              1 S1                 0.0000
     43 ****         2.7136  -3.1066   0.5849 H              1 S1                 0.0000
     44 ****         2.6825  -2.5865  -1.0857 H              1 S1                 0.0000
     45 ****        -5.8977  -0.0939  -1.2861 H              1 S1                 0.0000
     46 ****         2.8316  -0.3222  -0.3212 H              1 S1                 0.0000
     47 ****        -1.7110   2.2627  -0.4911 LP             1 S1                 0.0000
     48 ****        -0.1461   1.5279  -0.5978 LP             1 S1                 0.0000
     49 ****        -7.1414   2.0004  -0.8852 LP             1 S1                 0.0000
@<TRIPOS>BOND
    1    1    2 1     
    2    1   21 1     
    3    1   22 1     
    4    1   23 1     
    5    2    3 1     
    6    2   24 1     
    7    2   25 1     
    8    3   20 1     
    9    3    4 1     
   10    4    5 2     
   11    4   26 1     
   12    5    6 1     
   13    5   19 1     
   14    6    7 am    
   15    6   27 1     
   16    7    8 2     
   17    7    9 am    
   18    9   10 1     
   19    9   28 1     
   20   10   11 1     
   21   10   29 1     
   22   10   30 1     
   23   11   12 1     
   24   11   31 1     
   25   11   32 1     
   26   12   18 1     
   27   12   13 1     
   28   12   46 1     
   29   13   14 1     
   30   13   33 1     
   31   13   34 1     
   32   14   15 1     
   33   14   35 1     
   34   14   36 1     
   35   15   16 1     
   36   15   37 1     
   37   15   38 1     
   38   16   17 1     
   39   16   18 1     
   40   16   39 1     
   41   17   40 1     
   42   17   41 1     
   43   17   42 1     
   44   18   43 1     
   45   18   44 1     
   46   19   20 2     
   47   19   45 1     
   48    8   47 1     
   49    8   48 1     
   50   20   49 1     
@<TRIPOS>SUBSTRUCTURE
      1 S1             1
@<TRIPOS>SET
LONE_PAIRS      STATIC     ATOMS    <user>   **** ""
3 47 48 49
DONOR_HYDROGENS      STATIC     ATOMS    <user>   **** ""
3 27 28 46
ATOM$BLUE        STATIC     ATOMS    COLORGROUP SYSTEM
3 47 48 49
ATOM$RED        STATIC     ATOMS    COLORGROUP SYSTEM
3 27 28 46
