AV-unprocessed.smi:3161|AV-procd|sdf|12059|dock1
  -GOLD-   2272017483D 1   1.00000     0.00000
 Structure written by MMmdl.
 40 41  0  0  0  0  0  0  0  0  1 V2000
  148.8547  136.4422  155.2262 C   0  0  0  0  0  0  0  0  0  0  0  0
  149.7737  137.6291  155.1919 C   0  0  0  0  0  0  0  0  0  0  0  0
  150.1006  138.4514  154.0763 C   0  0  0  0  0  0  0  0  0  0  0  0
  150.9437  139.4236  154.3830 N   0  0  0  0  0  0  0  0  0  0  0  0
  151.1897  139.2536  155.6997 N   0  0  0  0  0  0  0  0  0  0  0  0
  152.0946  140.1556  156.3912 C   0  0  0  0  0  0  0  0  0  0  0  0
  151.9579  140.0666  157.9245 C   0  0  2  0  0  0  0  0  0  0  0  0
  150.7367  140.8751  158.3991 C   0  0  0  0  0  0  0  0  0  0  0  0
  153.1940  140.5230  158.5700 N   0  0  0  0  0  0  0  0  0  0  0  0
  153.0584  140.9749  159.9532 C   0  0  0  0  0  0  0  0  0  0  0  0
  153.0484  142.5084  160.0266 C   0  0  2  0  0  0  0  0  0  0  0  0
  152.2289  143.0168  161.2282 C   0  0  0  0  0  0  0  0  0  0  0  0
  152.1636  144.5486  161.2259 C   0  0  0  0  0  0  0  0  0  0  0  0
  151.6539  145.0424  159.8680 C   0  0  0  0  0  0  0  0  0  0  0  0
  152.4833  144.4265  158.7304 C   0  0  0  0  0  0  0  0  0  0  0  0
  152.4584  143.0056  158.8265 O   0  0  0  0  0  0  0  0  0  0  0  0
  150.4945  138.1798  156.2136 C   0  0  0  0  0  0  0  0  0  0  0  0
  148.5315  136.1505  154.2266 H   0  0  0  0  0  0  0  0  0  0  0  0
  147.9558  136.6479  155.8074 H   0  0  0  0  0  0  0  0  0  0  0  0
  149.3363  135.5728  155.6740 H   0  0  0  0  0  0  0  0  0  0  0  0
  149.7501  138.3716  153.0578 H   0  0  0  0  0  0  0  0  0  0  0  0
  153.1203  139.9471  156.0810 H   0  0  0  0  0  0  0  0  0  0  0  0
  151.8691  141.1680  156.0536 H   0  0  0  0  0  0  0  0  0  0  0  0
  151.7865  139.0213  158.1849 H   0  0  0  0  0  0  0  0  0  0  0  0
  149.8381  140.5750  157.8594 H   0  0  0  0  0  0  0  0  0  0  0  0
  150.8787  141.9437  158.2334 H   0  0  0  0  0  0  0  0  0  0  0  0
  150.5316  140.7225  159.4583 H   0  0  0  0  0  0  0  0  0  0  0  0
  153.6242  141.2557  158.0141 H   0  0  0  0  0  0  0  0  0  0  0  0
  152.1476  140.5871  160.4088 H   0  0  0  0  0  0  0  0  0  0  0  0
  153.8937  140.5897  160.5390 H   0  0  0  0  0  0  0  0  0  0  0  0
  154.0741  142.8730  160.1128 H   0  0  0  0  0  0  0  0  0  0  0  0
  151.2184  142.6083  161.1842 H   0  0  0  0  0  0  0  0  0  0  0  0
  152.6682  142.6654  162.1622 H   0  0  0  0  0  0  0  0  0  0  0  0
  151.5169  144.9042  162.0286 H   0  0  0  0  0  0  0  0  0  0  0  0
  153.1561  144.9585  161.4170 H   0  0  0  0  0  0  0  0  0  0  0  0
  150.6065  144.7635  159.7460 H   0  0  0  0  0  0  0  0  0  0  0  0
  151.6963  146.1309  159.8207 H   0  0  0  0  0  0  0  0  0  0  0  0
  152.0719  144.7217  157.7651 H   0  0  0  0  0  0  0  0  0  0  0  0
  153.5131  144.7858  158.7602 H   0  0  0  0  0  0  0  0  0  0  0  0
  150.5715  137.8984  157.2535 H   0  0  0  0  0  0  0  0  0  0  0  0
  1  2  1  0  0  0  0
  1 18  1  0  0  0  0
  1 19  1  0  0  0  0
  1 20  1  0  0  0  0
  2 17  2  0  0  0  0
  2  3  1  0  0  0  0
  3  4  2  0  0  0  0
  3 21  1  0  0  0  0
  4  5  1  0  0  0  0
  5  6  1  0  0  0  0
  5 17  1  0  0  0  0
  6  7  1  0  0  0  0
  6 22  1  0  0  0  0
  6 23  1  0  0  0  0
  7  8  1  0  0  0  0
  7  9  1  0  0  0  0
  7 24  1  0  0  0  0
  8 25  1  0  0  0  0
  8 26  1  0  0  0  0
  8 27  1  0  0  0  0
  9 10  1  0  0  0  0
  9 28  1  0  0  0  0
 10 11  1  0  0  0  0
 10 29  1  0  0  0  0
 10 30  1  0  0  0  0
 11 16  1  0  0  0  0
 11 12  1  0  0  0  0
 11 31  1  0  0  0  0
 12 13  1  0  0  0  0
 12 32  1  0  0  0  0
 12 33  1  0  0  0  0
 13 14  1  0  0  0  0
 13 34  1  0  0  0  0
 13 35  1  0  0  0  0
 14 15  1  0  0  0  0
 14 36  1  0  0  0  0
 14 37  1  0  0  0  0
 15 16  1  0  0  0  0
 15 38  1  0  0  0  0
 15 39  1  0  0  0  0
 17 40  1  0  0  0  0
M  END
> <s_m_source_file>
AV-unprocessed.smi

> <i_m_source_file_index>
3161

> <i_lp_mmshare_version>
43012

> <i_f3d_flags>
0

> <s_epik_input>
W0NIM11jMVtjSF1ubihbY0hdMSlbQ0gyXVtDQEhdKFtDSDNdKVtOSF1bQ0gyXVtDQEBIXTJbQ0gyXVtDSDJdW0NIMl1bQ0gyXU8y

> <s_epik_cmdline>
J2VwaWtfcHl0aG9uJywgJy1waCcsICc3LjAnLCAnLXRuJywgJzgnLCAnLW1hJywgJzIwMCcsICctbWV0YWxfYmluZGluZycsICctaW1hZScsICc8aW5maWxlLm1hZT4nLCAnLW9tYWUnLCAnPG91dGZpbGUubWFlPic=

> <r_lp_tautomer_probability>
1

> <r_epik_Ionization_Penalty>
2.51986

> <r_epik_Ionization_Penalty_Charging>
0

> <r_epik_Ionization_Penalty_Neutral>
2.51986

> <r_epik_State_Penalty>
2.68614

> <r_epik_Charging_Adjusted_Penalty>
2.68614

> <i_epik_Tot_Q>
0

> <i_epik_Tot_abs_Q>
0

> <r_epik_Metal_State_Penalty>
2.68606

> <b_epik_Metal_Only>
0

> <s_lp_Force_Field>
OPLS_2005

> <r_lp_Energy>
14.7371

> <b_lp_Chiralities_Consistent>
1

> <s_lp_Variant>
AV-unprocessed.smi:3161-5

> <Gold.Version>
5.8.1

> <Gold.Id.Protein>
6NUR|6NUR_protein|mol2

> <Gold.PLP.Fitness>
42.3307

> <Gold.PLP.PLP>
-36.1430

> <Gold.PLP.part.hbond>
-2.0000

> <Gold.PLP.part.metal>
0.0000

> <Gold.PLP.part.buried>
-2.5868

> <Gold.PLP.part.nonpolar>
-30.8349

> <Gold.PLP.part.repulsive>
0.1355

> <Gold.PLP.ligand.clash>
0.0000

> <Gold.PLP.ligand.torsion>
1.3273

> <Gold.PLP.Chemscore.Hbond>
1.0000

> <Gold.PLP.Chemscore.CHOScore>
1.9021

> <Gold.PLP.Chemscore.Metal>
0.0000

> <Gold.Chemscore.Hbonds>
donor molecule, donor type, donor heavy atom, donor atom, acceptor molecule, acceptor atom, score
      P1  H  7989  7998       L1     4  1.00
      L1  C     3    21       P1  7948  0.94
      L1  C     3    21       P1  7957  1.00

> <Gold.PLP.Chemscore.Internal.Correction>
0.1358

> <Gold.Rescore>
     Score         DG    S(hbond)    S(metal)    S(lipo)     H(rot)  DE(clash)    DE(int)     intcor
     14.27     -17.53       1.00        0.00     107.33       1.50       0.52       2.73       ----

> <Gold.Chemscore.Fitness>
14.2746

> <Gold.Chemscore.DG>
-17.5250

> <Gold.Chemscore.ZeroCoef>
-5.4800

> <Gold.Chemscore.Hbond>
0.9987

> <Gold.Chemscore.Metal>
0.0000

> <Gold.Chemscore.Lipo>
107.3268

> <Gold.Chemscore.Internal_Hbond>
0.0000

> <Gold.Chemscore.DEClash>
0.5223

> <Gold.Chemscore.DEInternal>
2.7281

> <Gold.Chemscore.Rot>
1.5030

> <Gold.Chemscore.Internal.Correction>
   9.000000E+99

> <Gold.Chemscore.Hbonds>
donor molecule, donor type, donor heavy atom, donor atom, acceptor molecule, acceptor atom, score
      P1  H  7989  7998       L1     4  0.98

> <Gold.Chemscore.Hbond.Weighted>
-3.3355

> <Gold.Chemscore.Metal.Weighted>
-0.0000

> <Gold.Chemscore.Lipo.Weighted>
-12.5572

> <Gold.Chemscore.Internal_Hbond.Weighted>
0.0000

> <Gold.Chemscore.DEClash.Weighted>
0.5223

> <Gold.Chemscore.DEInternal.Weighted>
2.7281

> <Gold.Chemscore.Rot.Weighted>
3.8477

> <Gold.Chemscore.Internal.Correction.Weighted>
   9.000000E+99

> <Gold.Protein.RotatedTorsions>
[ 6907 6896 6895 6894 ] final -116.86 input  -60.11 | X-H torsion
[ 7974 7965 7964 7962 ] final   28.98 input  175.53 | X-H torsion
[ 8008 7997 7996 7995 ] final  153.87 input   59.86 | X-H torsion
[ 10167 10162 10161 10158 ] final -101.34 input  -65.29 | X-H torsion
[ 10718 10713 10712 10709 ] final -152.12 input   66.30 | X-H torsion
[ 10763 10752 10751 10750 ] final  120.40 input  -60.55 | X-H torsion
[ 11005 11000 10999 10996 ] final  -93.21 input  -57.11 | X-H torsion

> <Gold.Protein.ActiveResidues>
 VAL166  LYS551  ARG553  GLY616  TRP617  ASP618  TYR619  PRO620  LYS621  CYS622 
 ASP623  PHE694  ASN695  SER759  ASP760  ASP761  ALA762  ILE779  LEU786  VAL792 
 PHE793  MET794  SER795  GLU796  ALA797  LYS798  CYS799  TRP800  GLU811  SER814 

> <Gold.Protein.RotatedAtoms>
  150.8090  133.8458  159.3191 H   0  0  0  0  0  0  0  0  0  0  0  0  # atno 6907 bound_to 6896
  151.6249  135.1027  160.0119 H   0  0  0  0  0  0  0  0  0  0  0  0  # atno 6908 bound_to 6896
  152.4181  133.7031  159.6492 H   0  0  0  0  0  0  0  0  0  0  0  0  # atno 6909 bound_to 6896
  146.1697  139.6982  142.8976 H   0  0  0  0  0  0  0  0  0  0  0  0  # atno 7974 bound_to 7965
  156.2560  140.1982  156.6558 H   0  0  0  0  0  0  0  0  0  0  0  0  # atno 8008 bound_to 7997
  154.6502  140.0573  156.9972 H   0  0  0  0  0  0  0  0  0  0  0  0  # atno 8009 bound_to 7997
  155.1429  140.3244  155.4451 H   0  0  0  0  0  0  0  0  0  0  0  0  # atno 8010 bound_to 7997
  140.2424  143.3530  152.0790 H   0  0  0  0  0  0  0  0  0  0  0  0  # atno 10167 bound_to 10162
  156.4683  130.8246  151.2476 H   0  0  0  0  0  0  0  0  0  0  0  0  # atno 10718 bound_to 10713
  153.5979  135.3453  155.2934 H   0  0  0  0  0  0  0  0  0  0  0  0  # atno 10763 bound_to 10752
  154.8641  135.4220  154.2445 H   0  0  0  0  0  0  0  0  0  0  0  0  # atno 10764 bound_to 10752
  153.3267  135.7041  153.7055 H   0  0  0  0  0  0  0  0  0  0  0  0  # atno 10765 bound_to 10752
  141.1503  133.7872  157.0128 H   0  0  0  0  0  0  0  0  0  0  0  0  # atno 11005 bound_to 11000
  145.4372  141.0420  143.2878 LP  0  0  0  0  0  0  0  0  0  0  0  0  # atno 17320 bound_to 7965
  144.8145  139.5901  143.7014 LP  0  0  0  0  0  0  0  0  0  0  0  0  # atno 17321 bound_to 7965
  139.5073  144.6829  151.5962 LP  0  0  0  0  0  0  0  0  0  0  0  0  # atno 17342 bound_to 10162
  140.6103  143.9447  150.6449 LP  0  0  0  0  0  0  0  0  0  0  0  0  # atno 17343 bound_to 10162
  157.7493  131.0084  150.3229 LP  0  0  0  0  0  0  0  0  0  0  0  0  # atno 17370 bound_to 10713
  156.3645  130.3852  149.7225 LP  0  0  0  0  0  0  0  0  0  0  0  0  # atno 17371 bound_to 10713
  140.0867  134.9617  157.1710 LP  0  0  0  0  0  0  0  0  0  0  0  0  # atno 17394 bound_to 11000
  140.3502  134.2607  155.7199 LP  0  0  0  0  0  0  0  0  0  0  0  0  # atno 17395 bound_to 11000

$$$$
