#       Name:                AV-unprocessed.smi:314
#       Creating user name   scv26
#       Creation time:       Thu Mar 26 22:21:59 2020


#       File generated by GOLD software.
#

@<TRIPOS>MOLECULE
AV-unprocessed.smi:314
    57    58     1
SMALL
NO_CHARGES


@<TRIPOS>ATOM
      1 ****        -7.0105   3.4800   1.1054 C.3            1 S1                 0.0000
      2 ****        -7.2226   2.1271   1.4936 O.3            1 S1                 0.0000
      3 ****        -6.1527   1.2569   1.4474 C.ar           1 S1                 0.0000
      4 ****        -6.3549  -0.0817   1.8382 C.ar           1 S1                 0.0000
      5 ****        -5.2659  -0.9726   1.7957 C.ar           1 S1                 0.0000
      6 ****        -4.0068  -0.4988   1.3764 C.ar           1 S1                 0.0000
      7 ****        -2.9262  -1.4195   1.3241 N.am           1 S1                 0.0000
      8 ****        -1.6094  -1.1539   1.3612 C.2            1 S1                 0.0000
      9 ****        -1.1147  -0.0382   1.5231 O.2            1 S1                 0.0000
     10 ****        -0.8826  -2.2713   1.2179 N.am           1 S1                 0.0000
     11 ****         0.5753  -2.3252   1.2259 C.3            1 S1                 0.0000
     12 ****         1.1715  -1.8177  -0.1037 C.3            1 S1                 0.0000
     13 ****         2.7089  -1.7799  -0.1194 C.2            1 S1                 0.0000
     14 ****         3.3287  -2.2741   0.8237 O.2            1 S1                 0.0000
     15 ****         3.3375  -1.1916  -1.1653 N.am           1 S1                 0.0000
     16 ****         4.7855  -0.9855  -1.2211 C.3            1 S1                 0.0000
     17 ****         5.0572   0.5294  -1.1380 C.3            1 S1                 0.0000
     18 ****         6.5496   0.8552  -1.2566 C.3            1 S1                 0.0000
     19 ****         4.3722   1.1979  -2.2010 O.3            1 S1                 0.0000
     20 ****         2.9627   0.9599  -2.2792 C.3            1 S1                 0.0000
     21 ****         2.2040   1.7011  -1.1631 C.3            1 S1                 0.0000
     22 ****         2.6935  -0.5592  -2.3201 C.3            1 S1                 0.0000
     23 ****        -3.9083   0.8601   0.9903 C.ar           1 S1                 0.0000
     24 ****        -4.9495   1.7183   1.0253 N.ar           1 S1                 0.0000
     25 ****        -7.9423   4.0354   1.2093 H              1 S1                 0.0000
     26 ****        -6.6974   3.5513   0.0627 H              1 S1                 0.0000
     27 ****        -6.2646   3.9644   1.7373 H              1 S1                 0.0000
     28 ****        -7.3276  -0.4184   2.1646 H              1 S1                 0.0000
     29 ****        -5.3976  -2.0042   2.0880 H              1 S1                 0.0000
     30 ****        -3.1854  -2.3947   1.2955 H              1 S1                 0.0000
     31 ****        -1.3707  -3.1468   1.0977 H              1 S1                 0.0000
     32 ****         0.9549  -1.7444   2.0688 H              1 S1                 0.0000
     33 ****         0.8716  -3.3601   1.4006 H              1 S1                 0.0000
     34 ****         0.8254  -2.4456  -0.9256 H              1 S1                 0.0000
     35 ****         0.8032  -0.8089  -0.2909 H              1 S1                 0.0000
     36 ****         5.3171  -1.5046  -0.4223 H              1 S1                 0.0000
     37 ****         5.1758  -1.3928  -2.1550 H              1 S1                 0.0000
     38 ****         4.7024   0.9114  -0.1802 H              1 S1                 0.0000
     39 ****         7.1186   0.3831  -0.4554 H              1 S1                 0.0000
     40 ****         6.7193   1.9305  -1.1953 H              1 S1                 0.0000
     41 ****         6.9553   0.5070  -2.2067 H              1 S1                 0.0000
     42 ****         2.6325   1.3843  -3.2279 H              1 S1                 0.0000
     43 ****         1.1266   1.5918  -1.2894 H              1 S1                 0.0000
     44 ****         2.4306   2.7672  -1.1824 H              1 S1                 0.0000
     45 ****         2.4532   1.3265  -0.1708 H              1 S1                 0.0000
     46 ****         3.1216  -0.9803  -3.2310 H              1 S1                 0.0000
     47 ****         1.6243  -0.7523  -2.3928 H              1 S1                 0.0000
     48 ****        -2.9871   1.2829   0.6205 H              1 S1                 0.0000
     49 ****        -7.9324   1.7554   0.8952 LP             1 S1                 0.0000
     50 ****        -7.5543   2.1385   2.4369 LP             1 S1                 0.0000
     51 ****        -1.7069   0.7591   1.6399 LP             1 S1                 0.0000
     52 ****        -0.1208   0.0707   1.5378 LP             1 S1                 0.0000
     53 ****         2.8319  -2.6918   1.5845 LP             1 S1                 0.0000
     54 ****         4.3285  -2.2575   0.8284 LP             1 S1                 0.0000
     55 ****         4.7818   0.9023  -3.0640 LP             1 S1                 0.0000
     56 ****         4.5115   2.1814  -2.0855 LP             1 S1                 0.0000
     57 ****        -4.8363   2.6720   0.7465 LP             1 S1                 0.0000
@<TRIPOS>BOND
    1    1    2 1     
    2    1   25 1     
    3    1   26 1     
    4    1   27 1     
    5    2    3 1     
    6    3   24 ar    
    7    3    4 ar    
    8    4    5 ar    
    9    4   28 1     
   10    5    6 ar    
   11    5   29 1     
   12    6    7 1     
   13    6   23 ar    
   14    7    8 am    
   15    7   30 1     
   16    8    9 2     
   17    8   10 am    
   18   10   11 1     
   19   10   31 1     
   20   11   12 1     
   21   11   32 1     
   22   11   33 1     
   23   12   13 1     
   24   12   34 1     
   25   12   35 1     
   26   13   14 2     
   27   13   15 am    
   28   15   22 1     
   29   15   16 1     
   30   16   17 1     
   31   16   36 1     
   32   16   37 1     
   33   17   18 1     
   34   17   19 1     
   35   17   38 1     
   36   18   39 1     
   37   18   40 1     
   38   18   41 1     
   39   19   20 1     
   40   20   21 1     
   41   20   22 1     
   42   20   42 1     
   43   21   43 1     
   44   21   44 1     
   45   21   45 1     
   46   22   46 1     
   47   22   47 1     
   48   23   24 ar    
   49   23   48 1     
   50    2   49 1     
   51    2   50 1     
   52    9   51 1     
   53    9   52 1     
   54   14   53 1     
   55   14   54 1     
   56   19   55 1     
   57   19   56 1     
   58   24   57 1     
@<TRIPOS>SUBSTRUCTURE
      1 S1             1
@<TRIPOS>SET
LONE_PAIRS      STATIC     ATOMS    <user>   **** ""
9 49 50 51 52 53 54 55 56 57
DONOR_HYDROGENS      STATIC     ATOMS    <user>   **** ""
2 30 31
ATOM$BLUE        STATIC     ATOMS    COLORGROUP SYSTEM
9 49 50 51 52 53 54 55 56 57
ATOM$RED        STATIC     ATOMS    COLORGROUP SYSTEM
2 30 31
