#       Name:                AV-unprocessed.smi:113
#       Creating user name   scv26
#       Creation time:       Thu Mar 26 18:20:44 2020


#       File generated by GOLD software.
#

@<TRIPOS>MOLECULE
AV-unprocessed.smi:113
    63    66     1
SMALL
NO_CHARGES


@<TRIPOS>ATOM
      1 ****        -1.5300  -0.6309  -4.0463 C.3            1 S1                 0.0000
      2 ****        -1.9654  -1.4779  -2.8687 C.ar           1 S1                 0.0000
      3 ****        -1.6353  -1.1041  -1.5539 C.ar           1 S1                 0.0000
      4 ****        -2.0602  -1.9216  -0.4817 C.ar           1 S1                 0.0000
      5 ****        -1.7341  -1.5564   0.9707 C.3            1 S1                 0.0000
      6 ****        -1.0102  -0.3123   1.1914 N.am           1 S1                 0.0000
      7 ****        -1.7677   0.8769   1.3217 C.2            1 S1                 0.0000
      8 ****        -2.9985   0.8683   1.2501 O.2            1 S1                 0.0000
      9 ****        -0.9820   2.0962   1.5254 C.2            1 S1                 0.0000
     10 ****        -1.7284   3.4127   1.6741 C.3            1 S1                 0.0000
     11 ****         0.3701   2.0263   1.5717 C.2            1 S1                 0.0000
     12 ****         1.0880   0.8488   1.4325 N.am           1 S1                 0.0000
     13 ****         2.6037   0.8213   1.4768 C.3            1 S1                 0.0000
     14 ****         3.1846   0.9069   0.0652 C.3            1 S1                 0.0000
     15 ****         3.3449   2.4029  -0.1072 C.3            1 S1                 0.0000
     16 ****         4.3041   2.7111  -1.0988 O.3            1 S1                 0.0000
     17 ****         3.7032   2.8745   1.3141 C.3            1 S1                 0.0000
     18 ****         5.2058   2.8806   1.6615 C.3            1 S1                 0.0000
     19 ****         5.8304   4.0451   1.1627 O.3            1 S1                 0.0000
     20 ****         3.0778   1.9289   2.1866 O.3            1 S1                 0.0000
     21 ****         0.4014  -0.3647   1.2190 C.2            1 S1                 0.0000
     22 ****         1.0182  -1.4192   1.0476 O.2            1 S1                 0.0000
     23 ****        -2.8008  -3.0944  -0.7918 C.ar           1 S1                 0.0000
     24 ****        -3.2598  -3.9691   0.2229 C.2            1 S1                 0.0000
     25 ****        -3.9924  -5.1240  -0.1047 C.2            1 S1                 0.0000
     26 ****        -4.2734  -5.4173  -1.4492 C.2            1 S1                 0.0000
     27 ****        -3.8202  -4.5544  -2.4632 C.2            1 S1                 0.0000
     28 ****        -3.0838  -3.3896  -2.1582 C.ar           1 S1                 0.0000
     29 ****        -2.6682  -2.5890  -3.1642 N.ar           1 S1                 0.0000
     30 ****        -1.3327   0.3957  -3.7367 H              1 S1                 0.0000
     31 ****        -2.3024  -0.6077  -4.8160 H              1 S1                 0.0000
     32 ****        -0.6187  -1.0377  -4.4850 H              1 S1                 0.0000
     33 ****        -1.0667  -0.2015  -1.3868 H              1 S1                 0.0000
     34 ****        -2.6506  -1.5016   1.5601 H              1 S1                 0.0000
     35 ****        -1.1608  -2.3580   1.4388 H              1 S1                 0.0000
     36 ****        -1.0487   4.2513   1.8286 H              1 S1                 0.0000
     37 ****        -2.4065   3.3724   2.5274 H              1 S1                 0.0000
     38 ****        -2.3154   3.6206   0.7786 H              1 S1                 0.0000
     39 ****         0.9068   2.9511   1.7180 H              1 S1                 0.0000
     40 ****         2.8719  -0.0910   2.0118 H              1 S1                 0.0000
     41 ****         4.1533   0.4049   0.0624 H              1 S1                 0.0000
     42 ****         2.5419   0.4374  -0.6806 H              1 S1                 0.0000
     43 ****         2.3879   2.8356  -0.4016 H              1 S1                 0.0000
     44 ****         4.4265   3.6484  -1.1171 H              1 S1                 0.0000
     45 ****         3.2817   3.8614   1.5109 H              1 S1                 0.0000
     46 ****         5.3346   2.8835   2.7442 H              1 S1                 0.0000
     47 ****         5.7093   1.9905   1.2831 H              1 S1                 0.0000
     48 ****         6.7430   4.0243   1.4077 H              1 S1                 0.0000
     49 ****        -3.0605  -3.7738   1.2653 H              1 S1                 0.0000
     50 ****        -4.3384  -5.7848   0.6765 H              1 S1                 0.0000
     51 ****        -4.8361  -6.3034  -1.7039 H              1 S1                 0.0000
     52 ****        -4.0423  -4.7914  -3.4936 H              1 S1                 0.0000
     53 ****        -3.4844   0.0078   1.0968 LP             1 S1                 0.0000
     54 ****        -3.5108   1.7217   1.3454 LP             1 S1                 0.0000
     55 ****         3.9803   2.3958  -1.9908 LP             1 S1                 0.0000
     56 ****         5.1706   2.2620  -0.8809 LP             1 S1                 0.0000
     57 ****         5.3945   4.8556   1.5539 LP             1 S1                 0.0000
     58 ****         5.7491   4.0710   0.1664 LP             1 S1                 0.0000
     59 ****         3.7447   1.6204   2.8649 LP             1 S1                 0.0000
     60 ****         2.3106   2.3714   2.6509 LP             1 S1                 0.0000
     61 ****         0.5185  -2.2697   0.8833 LP             1 S1                 0.0000
     62 ****         2.0179  -1.4236   1.0730 LP             1 S1                 0.0000
     63 ****        -2.8792  -2.8178  -4.1145 LP             1 S1                 0.0000
@<TRIPOS>BOND
    1    1    2 1     
    2    1   30 1     
    3    1   31 1     
    4    1   32 1     
    5    2   29 ar    
    6    2    3 ar    
    7    3    4 ar    
    8    3   33 1     
    9    4    5 1     
   10    4   23 ar    
   11    5    6 1     
   12    5   34 1     
   13    5   35 1     
   14    6   21 am    
   15    6    7 am    
   16    7    8 2     
   17    7    9 1     
   18    9   10 1     
   19    9   11 2     
   20   10   36 1     
   21   10   37 1     
   22   10   38 1     
   23   11   12 1     
   24   11   39 1     
   25   12   13 1     
   26   12   21 am    
   27   13   20 1     
   28   13   14 1     
   29   13   40 1     
   30   14   15 1     
   31   14   41 1     
   32   14   42 1     
   33   15   16 1     
   34   15   17 1     
   35   15   43 1     
   36   16   44 1     
   37   17   18 1     
   38   17   20 1     
   39   17   45 1     
   40   18   19 1     
   41   18   46 1     
   42   18   47 1     
   43   19   48 1     
   44   21   22 2     
   45   23   28 ar    
   46   23   24 1     
   47   24   25 2     
   48   24   49 1     
   49   25   26 1     
   50   25   50 1     
   51   26   27 2     
   52   26   51 1     
   53   27   28 1     
   54   27   52 1     
   55   28   29 ar    
   56    8   53 1     
   57    8   54 1     
   58   16   55 1     
   59   16   56 1     
   60   19   57 1     
   61   19   58 1     
   62   20   59 1     
   63   20   60 1     
   64   22   61 1     
   65   22   62 1     
   66   29   63 1     
@<TRIPOS>SUBSTRUCTURE
      1 S1             1
@<TRIPOS>SET
LONE_PAIRS      STATIC     ATOMS    <user>   **** ""
11 53 54 55 56 57 58 59 60 61 62 63
DONOR_HYDROGENS      STATIC     ATOMS    <user>   **** ""
2 44 48
ATOM$BLUE        STATIC     ATOMS    COLORGROUP SYSTEM
11 53 54 55 56 57 58 59 60 61 62 63
ATOM$RED        STATIC     ATOMS    COLORGROUP SYSTEM
2 44 48
