AV-unprocessed.smi:2171|AV-procd|sdf|8827|dock1
  -GOLD-   2272012 23D 1   1.00000     0.00000
 Structure written by MMmdl.
 39 41  0  0  0  0  0  0  0  0  2 V2000
  150.6416  140.1863  154.5510 O   0  0  0  0  0  0  0  0  0  0  0  0
  151.1067  139.7672  155.6105 C   0  0  0  0  0  0  0  0  0  0  0  0
  151.9256  138.4775  155.6348 C   0  0  0  0  0  0  0  0  0  0  0  0
  152.5016  138.2654  156.9510 N   0  0  0  0  0  0  0  0  0  0  0  0
  152.3047  137.2043  157.8099 C   0  0  0  0  0  0  0  0  0  0  0  0
  153.0701  137.4309  158.9177 C   0  0  0  0  0  0  0  0  0  0  0  0
  153.7092  138.6716  158.6398 C   0  0  0  0  0  0  0  0  0  0  0  0
  153.3692  139.1679  157.4612 N   0  0  0  0  0  0  0  0  0  0  0  0
  150.9674  140.4044  156.7828 N   0  0  0  0  0  0  0  0  0  0  0  0
  150.3433  141.7121  156.9519 C   0  0  1  0  0  0  0  0  0  0  0  0
  149.1770  141.7034  157.9497 C   0  0  0  0  0  0  0  0  0  0  0  0
  149.2070  143.0913  158.6150 C   0  0  0  0  0  0  0  0  0  0  0  0
  150.3559  143.8093  158.0192 N   0  3  1  0  0  0  0  0  0  0  0  0
  150.9572  144.8928  158.8382 C   0  0  0  0  0  0  0  0  0  0  0  0
  151.8814  144.3579  159.9450 C   0  0  0  0  0  0  0  0  0  0  0  0
  152.9413  143.4200  159.3586 C   0  0  0  0  0  0  0  0  0  0  0  0
  152.2559  142.2691  158.6148 C   0  0  0  0  0  0  0  0  0  0  0  0
  151.2946  142.7845  157.5113 C   0  0  1  0  0  0  0  0  0  0  0  0
  151.2997  137.6245  155.3675 H   0  0  0  0  0  0  0  0  0  0  0  0
  152.7309  138.5301  154.9009 H   0  0  0  0  0  0  0  0  0  0  0  0
  151.6463  136.3847  157.5616 H   0  0  0  0  0  0  0  0  0  0  0  0
  153.1600  136.8054  159.7933 H   0  0  0  0  0  0  0  0  0  0  0  0
  154.4062  139.2216  159.2548 H   0  0  0  0  0  0  0  0  0  0  0  0
  151.3840  139.9832  157.6013 H   0  0  0  0  0  0  0  0  0  0  0  0
  149.9578  142.0544  155.9891 H   0  0  0  0  0  0  0  0  0  0  0  0
  148.2263  141.5061  157.4532 H   0  0  0  0  0  0  0  0  0  0  0  0
  149.3168  140.9309  158.7074 H   0  0  0  0  0  0  0  0  0  0  0  0
  148.2868  143.6489  158.4390 H   0  0  0  0  0  0  0  0  0  0  0  0
  149.3300  142.9834  159.6931 H   0  0  0  0  0  0  0  0  0  0  0  0
  151.5346  145.5334  158.1706 H   0  0  0  0  0  0  0  0  0  0  0  0
  150.1693  145.5174  159.2606 H   0  0  0  0  0  0  0  0  0  0  0  0
  152.3650  145.1906  160.4566 H   0  0  0  0  0  0  0  0  0  0  0  0
  151.2990  143.8310  160.7016 H   0  0  0  0  0  0  0  0  0  0  0  0
  153.5928  143.9697  158.6781 H   0  0  0  0  0  0  0  0  0  0  0  0
  153.5768  143.0272  160.1529 H   0  0  0  0  0  0  0  0  0  0  0  0
  153.0160  141.6197  158.1789 H   0  0  0  0  0  0  0  0  0  0  0  0
  151.7108  141.6578  159.3352 H   0  0  0  0  0  0  0  0  0  0  0  0
  151.8887  143.2205  156.7068 H   0  0  0  0  0  0  0  0  0  0  0  0
  149.9786  144.2566  157.1957 H   0  0  0  0  0  0  0  0  0  0  0  0
  1  2  2  0  0  0  0
  2  3  1  0  0  0  0
  2  9  1  0  0  0  0
  3  4  1  0  0  0  0
  3 19  1  0  0  0  0
  3 20  1  0  0  0  0
  4  8  1  0  0  0  0
  4  5  1  0  0  0  0
  5  6  2  0  0  0  0
  5 21  1  0  0  0  0
  6  7  1  0  0  0  0
  6 22  1  0  0  0  0
  7  8  2  0  0  0  0
  7 23  1  0  0  0  0
  9 10  1  0  0  0  0
  9 24  1  0  0  0  0
 10 18  1  0  0  0  0
 10 11  1  0  0  0  0
 10 25  1  0  0  0  0
 11 12  1  0  0  0  0
 11 26  1  0  0  0  0
 11 27  1  0  0  0  0
 12 13  1  0  0  0  0
 12 28  1  0  0  0  0
 12 29  1  0  0  0  0
 13 18  1  0  0  0  0
 13 14  1  0  0  0  0
 13 39  1  0  0  0  0
 14 15  1  0  0  0  0
 14 30  1  0  0  0  0
 14 31  1  0  0  0  0
 15 16  1  0  0  0  0
 15 32  1  0  0  0  0
 15 33  1  0  0  0  0
 16 17  1  0  0  0  0
 16 34  1  0  0  0  0
 16 35  1  0  0  0  0
 17 18  1  0  0  0  0
 17 36  1  0  0  0  0
 17 37  1  0  0  0  0
 18 38  1  0  0  0  0
M  CHG  1  13   1
M  END
> <s_m_source_file>
AV-unprocessed.smi

> <i_m_source_file_index>
2171

> <i_lp_mmshare_version>
43012

> <i_f3d_flags>
0

> <s_epik_input>
bjFbY0hdW2NIXVtjSF1uMVtDSDJdQyg9TylbTkhdW0NASF0oW0NIMl1bQ0gyXTIpW0NAQEhdKE4yMylbQ0gyXVtDSDJdW0NIMl1bQ0gyXTM=

> <s_epik_cmdline>
J2VwaWtfcHl0aG9uJywgJy1waCcsICc3LjAnLCAnLXRuJywgJzgnLCAnLW1hJywgJzIwMCcsICctbWV0YWxfYmluZGluZycsICctaW1hZScsICc8aW5maWxlLm1hZT4nLCAnLW9tYWUnLCAnPG91dGZpbGUubWFlPic=

> <r_lp_tautomer_probability>
1

> <r_epik_Ionization_Penalty>
0.00204179

> <r_epik_Ionization_Penalty_Charging>
0.00203239

> <r_epik_Ionization_Penalty_Neutral>
9.40205e-06

> <r_epik_State_Penalty>
0.00138983

> <r_epik_Charging_Adjusted_Penalty>
0.00342221

> <i_epik_Tot_Q>
1

> <i_epik_Tot_abs_Q>
1

> <r_epik_Metal_State_Penalty>
-0

> <b_epik_Metal_Only>
0

> <s_lp_Force_Field>
OPLS_2005

> <r_lp_Energy>
35.3096

> <b_lp_Chiralities_Consistent>
1

> <s_lp_Variant>
AV-unprocessed.smi:2171-2

> <Gold.Version>
5.8.1

> <Gold.Id.Protein>
6NUR|6NUR_protein|mol2

> <Gold.PLP.Fitness>
45.2271

> <Gold.PLP.PLP>
-33.3138

> <Gold.PLP.part.hbond>
-2.9958

> <Gold.PLP.part.metal>
0.0000

> <Gold.PLP.part.buried>
-5.8927

> <Gold.PLP.part.nonpolar>
-25.3626

> <Gold.PLP.part.repulsive>
0.2016

> <Gold.PLP.ligand.clash>
0.0000

> <Gold.PLP.ligand.torsion>
0.0470

> <Gold.PLP.Chemscore.Hbond>
4.0000

> <Gold.PLP.Chemscore.CHOScore>
0.0000

> <Gold.PLP.Chemscore.Metal>
0.0000

> <Gold.Chemscore.Hbonds>
donor molecule, donor type, donor heavy atom, donor atom, acceptor molecule, acceptor atom, score
      L1  H    13    39       P1  8028  2.00
      P1  H  7989  7998       L1     1  1.00
      P1  H  7997  8009       L1     8  1.00

> <Gold.PLP.Chemscore.Internal.Correction>
0.0073

> <Gold.Rescore>
     Score         DG    S(hbond)    S(metal)    S(lipo)     H(rot)  DE(clash)    DE(int)     intcor
     21.96     -22.05       2.90        0.00      90.44       1.44       0.05       0.03       ----

> <Gold.Chemscore.Fitness>
21.9643

> <Gold.Chemscore.DG>
-22.0466

> <Gold.Chemscore.ZeroCoef>
-5.4800

> <Gold.Chemscore.Hbond>
2.8963

> <Gold.Chemscore.Metal>
0.0000

> <Gold.Chemscore.Lipo>
90.4424

> <Gold.Chemscore.Internal_Hbond>
0.0000

> <Gold.Chemscore.DEClash>
0.0502

> <Gold.Chemscore.DEInternal>
0.0321

> <Gold.Chemscore.Rot>
1.4410

> <Gold.Chemscore.Internal.Correction>
   9.000000E+99

> <Gold.Chemscore.Hbonds>
donor molecule, donor type, donor heavy atom, donor atom, acceptor molecule, acceptor atom, score
      L1  H    13    39       P1  8028  0.65
      P1  H  7989  7998       L1     1  0.95
      P1  H  7997  8009       L1     8  0.90

> <Gold.Chemscore.Hbond.Weighted>
-9.6738

> <Gold.Chemscore.Metal.Weighted>
-0.0000

> <Gold.Chemscore.Lipo.Weighted>
-10.5818

> <Gold.Chemscore.Internal_Hbond.Weighted>
0.0000

> <Gold.Chemscore.DEClash.Weighted>
0.0502

> <Gold.Chemscore.DEInternal.Weighted>
0.0321

> <Gold.Chemscore.Rot.Weighted>
3.6889

> <Gold.Chemscore.Internal.Correction.Weighted>
   9.000000E+99

> <Gold.Protein.RotatedTorsions>
[ 6907 6896 6895 6894 ] final   65.72 input  -60.11 | X-H torsion
[ 7974 7965 7964 7962 ] final  179.23 input  175.53 | X-H torsion
[ 8008 7997 7996 7995 ] final  174.60 input   59.86 | X-H torsion
[ 10167 10162 10161 10158 ] final   74.55 input  -65.29 | X-H torsion
[ 10718 10713 10712 10709 ] final  177.12 input   66.30 | X-H torsion
[ 10763 10752 10751 10750 ] final   98.04 input  -60.55 | X-H torsion
[ 11005 11000 10999 10996 ] final   20.19 input  -57.11 | X-H torsion

> <Gold.Protein.ActiveResidues>
 VAL166  LYS551  ARG553  GLY616  TRP617  ASP618  TYR619  PRO620  LYS621  CYS622 
 ASP623  PHE694  ASN695  SER759  ASP760  ASP761  ALA762  ILE779  LEU786  VAL792 
 PHE793  MET794  SER795  GLU796  ALA797  LYS798  CYS799  TRP800  GLU811  SER814 

> <Gold.Protein.RotatedAtoms>
  152.4428  134.5555  159.9878 H   0  0  0  0  0  0  0  0  0  0  0  0  # atno 6907 bound_to 6896
  151.5648  133.3392  159.2986 H   0  0  0  0  0  0  0  0  0  0  0  0  # atno 6908 bound_to 6896
  150.8338  134.7636  159.6940 H   0  0  0  0  0  0  0  0  0  0  0  0  # atno 6909 bound_to 6896
  144.7148  140.0516  143.6435 H   0  0  0  0  0  0  0  0  0  0  0  0  # atno 7974 bound_to 7965
  156.0957  140.1430  156.9534 H   0  0  0  0  0  0  0  0  0  0  0  0  # atno 8008 bound_to 7997
  154.4670  140.0923  156.7091 H   0  0  0  0  0  0  0  0  0  0  0  0  # atno 8009 bound_to 7997
  155.4845  140.3446  155.4347 H   0  0  0  0  0  0  0  0  0  0  0  0  # atno 8010 bound_to 7997
  140.0125  144.5603  150.7647 H   0  0  0  0  0  0  0  0  0  0  0  0  # atno 10167 bound_to 10162
  156.9100  130.9907  151.3022 H   0  0  0  0  0  0  0  0  0  0  0  0  # atno 10718 bound_to 10713
  153.2842  135.4162  155.1107 H   0  0  0  0  0  0  0  0  0  0  0  0  # atno 10763 bound_to 10752
  154.8499  135.3502  154.6070 H   0  0  0  0  0  0  0  0  0  0  0  0  # atno 10764 bound_to 10752
  153.6492  135.7053  153.5272 H   0  0  0  0  0  0  0  0  0  0  0  0  # atno 10765 bound_to 10752
  140.4053  134.1675  155.7665 H   0  0  0  0  0  0  0  0  0  0  0  0  # atno 11005 bound_to 11000
  145.9939  139.3037  143.0968 LP  0  0  0  0  0  0  0  0  0  0  0  0  # atno 17320 bound_to 7965
  145.8871  140.9327  143.0571 LP  0  0  0  0  0  0  0  0  0  0  0  0  # atno 17321 bound_to 7965
  140.7376  143.2767  151.3720 LP  0  0  0  0  0  0  0  0  0  0  0  0  # atno 17342 bound_to 10162
  139.6195  144.0935  152.2378 LP  0  0  0  0  0  0  0  0  0  0  0  0  # atno 17343 bound_to 10162
  157.5973  130.8487  149.8749 LP  0  0  0  0  0  0  0  0  0  0  0  0  # atno 17370 bound_to 10713
  156.0540  130.3712  150.1133 LP  0  0  0  0  0  0  0  0  0  0  0  0  # atno 17371 bound_to 10713
  141.1841  133.8350  157.1150 LP  0  0  0  0  0  0  0  0  0  0  0  0  # atno 17394 bound_to 11000
  140.0306  134.9903  157.0773 LP  0  0  0  0  0  0  0  0  0  0  0  0  # atno 17395 bound_to 11000

$$$$
