AV-unprocessed.smi:1913|AV-procd|sdf|7752|dock1
  -GOLD-   22720 9493D 1   1.00000     0.00000
 Structure written by MMmdl.
 40 42  0  0  0  0  0  0  0  0  1 V2000
  154.2110  138.6684  155.3444 C   0  0  0  0  0  0  0  0  0  0  0  0
  153.4351  138.7472  154.1575 O   0  0  0  0  0  0  0  0  0  0  0  0
  152.1851  139.3222  154.2369 C   0  0  0  0  0  0  0  0  0  0  0  0
  151.0928  138.9698  153.4103 C   0  0  0  0  0  0  0  0  0  0  0  0
  149.8458  139.6013  153.5690 C   0  0  0  0  0  0  0  0  0  0  0  0
  149.6574  140.5998  154.5561 C   0  0  0  0  0  0  0  0  0  0  0  0
  148.4480  141.2284  154.7723 O   0  0  0  0  0  0  0  0  0  0  0  0
  147.3754  140.9498  153.8851 C   0  0  0  0  0  0  0  0  0  0  0  0
  150.7524  140.9638  155.3782 C   0  0  0  0  0  0  0  0  0  0  0  0
  150.5827  142.0076  156.4822 C   0  0  2  0  0  0  0  0  0  0  0  0
  150.1214  143.2496  155.9885 O   0  0  0  0  0  0  0  0  0  0  0  0
  151.8938  142.2579  157.2559 C   0  0  0  0  0  0  0  0  0  0  0  0
  151.6574  142.8423  158.5641 N   0  0  0  0  0  0  0  0  0  0  0  0
  150.6555  143.6726  158.9111 C   0  0  0  0  0  0  0  0  0  0  0  0
  150.6056  144.0717  160.1788 N   0  0  0  0  0  0  0  0  0  0  0  0
  151.7052  143.4265  160.7181 C   0  0  0  0  0  0  0  0  0  0  0  0
  152.2106  143.4235  162.0379 C   0  0  0  0  0  0  0  0  0  0  0  0
  153.3602  142.6727  162.3610 C   0  0  0  0  0  0  0  0  0  0  0  0
  154.0217  141.9163  161.3721 C   0  0  0  0  0  0  0  0  0  0  0  0
  153.5380  141.9053  160.0499 C   0  0  0  0  0  0  0  0  0  0  0  0
  152.3892  142.6537  159.7320 C   0  0  0  0  0  0  0  0  0  0  0  0
  151.9992  140.3205  155.2117 C   0  0  0  0  0  0  0  0  0  0  0  0
  155.1728  138.2100  155.1147 H   0  0  0  0  0  0  0  0  0  0  0  0
  153.7240  138.0510  156.1006 H   0  0  0  0  0  0  0  0  0  0  0  0
  154.4081  139.6587  155.7578 H   0  0  0  0  0  0  0  0  0  0  0  0
  151.1834  138.2127  152.6467 H   0  0  0  0  0  0  0  0  0  0  0  0
  149.0423  139.2946  152.9175 H   0  0  0  0  0  0  0  0  0  0  0  0
  146.4729  141.4389  154.2512 H   0  0  0  0  0  0  0  0  0  0  0  0
  147.1700  139.8795  153.8314 H   0  0  0  0  0  0  0  0  0  0  0  0
  147.5765  141.3330  152.8839 H   0  0  0  0  0  0  0  0  0  0  0  0
  149.8170  141.6737  157.1826 H   0  0  0  0  0  0  0  0  0  0  0  0
  149.3519  143.4982  156.4778 H   0  0  0  0  0  0  0  0  0  0  0  0
  152.4569  141.3316  157.3777 H   0  0  0  0  0  0  0  0  0  0  0  0
  152.5357  142.9408  156.6972 H   0  0  0  0  0  0  0  0  0  0  0  0
  149.9143  143.9938  158.1938 H   0  0  0  0  0  0  0  0  0  0  0  0
  151.7115  143.9981  162.8040 H   0  0  0  0  0  0  0  0  0  0  0  0
  153.7360  142.6765  163.3736 H   0  0  0  0  0  0  0  0  0  0  0  0
  154.9002  141.3429  161.6297 H   0  0  0  0  0  0  0  0  0  0  0  0
  154.0376  141.3218  159.2909 H   0  0  0  0  0  0  0  0  0  0  0  0
  152.8291  140.5824  155.8516 H   0  0  0  0  0  0  0  0  0  0  0  0
  1  2  1  0  0  0  0
  1 23  1  0  0  0  0
  1 24  1  0  0  0  0
  1 25  1  0  0  0  0
  2  3  1  0  0  0  0
  3 22  1  0  0  0  0
  3  4  2  0  0  0  0
  4  5  1  0  0  0  0
  4 26  1  0  0  0  0
  5  6  2  0  0  0  0
  5 27  1  0  0  0  0
  6  7  1  0  0  0  0
  6  9  1  0  0  0  0
  7  8  1  0  0  0  0
  8 28  1  0  0  0  0
  8 29  1  0  0  0  0
  8 30  1  0  0  0  0
  9 10  1  0  0  0  0
  9 22  2  0  0  0  0
 10 11  1  0  0  0  0
 10 12  1  0  0  0  0
 10 31  1  0  0  0  0
 11 32  1  0  0  0  0
 12 13  1  0  0  0  0
 12 33  1  0  0  0  0
 12 34  1  0  0  0  0
 13 21  1  0  0  0  0
 13 14  1  0  0  0  0
 14 15  2  0  0  0  0
 14 35  1  0  0  0  0
 15 16  1  0  0  0  0
 16 21  2  0  0  0  0
 16 17  1  0  0  0  0
 17 18  2  0  0  0  0
 17 36  1  0  0  0  0
 18 19  1  0  0  0  0
 18 37  1  0  0  0  0
 19 20  2  0  0  0  0
 19 38  1  0  0  0  0
 20 21  1  0  0  0  0
 20 39  1  0  0  0  0
 22 40  1  0  0  0  0
M  END
> <s_m_source_file>
AV-unprocessed.smi

> <i_m_source_file_index>
1913

> <i_lp_mmshare_version>
43012

> <i_f3d_flags>
0

> <s_epik_input>
W0NIM11PYzFbY0hdW2NIXWMoT1tDSDNdKWMoW2NIXTEpW0NASF0oW09IXSlbQ0gyXW4oW2NIXW4yKWMoYzIzKVtjSF1bY0hdW2NIXVtjSF0z

> <s_epik_cmdline>
J2VwaWtfcHl0aG9uJywgJy1waCcsICc3LjAnLCAnLXRuJywgJzgnLCAnLW1hJywgJzIwMCcsICctbWV0YWxfYmluZGluZycsICctaW1hZScsICc8aW5maWxlLm1hZT4nLCAnLW9tYWUnLCAnPG91dGZpbGUubWFlPic=

> <r_lp_tautomer_probability>
1

> <r_epik_Ionization_Penalty>
0.0696512

> <r_epik_Ionization_Penalty_Charging>
0

> <r_epik_Ionization_Penalty_Neutral>
0.0696512

> <r_epik_State_Penalty>
0.0610247

> <r_epik_Charging_Adjusted_Penalty>
0.0610247

> <i_epik_Tot_Q>
0

> <i_epik_Tot_abs_Q>
0

> <r_epik_Metal_State_Penalty>
6.42746e-05

> <b_epik_Metal_Only>
0

> <s_lp_Force_Field>
OPLS_2005

> <r_lp_Energy>
18.1997

> <b_lp_Chiralities_Consistent>
1

> <s_lp_Variant>
AV-unprocessed.smi:1913-1

> <Gold.Version>
5.8.1

> <Gold.Id.Protein>
6NUR|6NUR_protein|mol2

> <Gold.PLP.Fitness>
54.3790

> <Gold.PLP.PLP>
-48.7266

> <Gold.PLP.part.hbond>
-1.5712

> <Gold.PLP.part.metal>
0.0000

> <Gold.PLP.part.buried>
-1.6243

> <Gold.PLP.part.nonpolar>
-45.7488

> <Gold.PLP.part.repulsive>
0.2942

> <Gold.PLP.ligand.clash>
0.0000

> <Gold.PLP.ligand.torsion>
0.9580

> <Gold.PLP.Chemscore.Hbond>
1.5054

> <Gold.PLP.Chemscore.CHOScore>
1.0000

> <Gold.PLP.Chemscore.Metal>
0.0000

> <Gold.Chemscore.Hbonds>
donor molecule, donor type, donor heavy atom, donor atom, acceptor molecule, acceptor atom, score
      L1  H    11    32       P1  8028  0.02
      L1  C    14    35       P1  8028  0.31

> <Gold.PLP.Chemscore.Internal.Correction>
0.0521

> <Gold.Rescore>
     Score         DG    S(hbond)    S(metal)    S(lipo)     H(rot)  DE(clash)    DE(int)     intcor
     17.49     -18.95       1.42        0.00     125.72       2.33       0.34       1.12       ----

> <Gold.Chemscore.Fitness>
17.4885

> <Gold.Chemscore.DG>
-18.9489

> <Gold.Chemscore.ZeroCoef>
-5.4800

> <Gold.Chemscore.Hbond>
1.4165

> <Gold.Chemscore.Metal>
0.0000

> <Gold.Chemscore.Lipo>
125.7153

> <Gold.Chemscore.Internal_Hbond>
0.0000

> <Gold.Chemscore.DEClash>
0.3406

> <Gold.Chemscore.DEInternal>
1.1199

> <Gold.Chemscore.Rot>
2.3323

> <Gold.Chemscore.Internal.Correction>
   9.000000E+99

> <Gold.Chemscore.Hbonds>
donor molecule, donor type, donor heavy atom, donor atom, acceptor molecule, acceptor atom, score
      L1  H    11    32       P1  8028  0.06

> <Gold.Chemscore.Hbond.Weighted>
-4.7310

> <Gold.Chemscore.Metal.Weighted>
-0.0000

> <Gold.Chemscore.Lipo.Weighted>
-14.7087

> <Gold.Chemscore.Internal_Hbond.Weighted>
0.0000

> <Gold.Chemscore.DEClash.Weighted>
0.3406

> <Gold.Chemscore.DEInternal.Weighted>
1.1199

> <Gold.Chemscore.Rot.Weighted>
5.9708

> <Gold.Chemscore.Internal.Correction.Weighted>
   9.000000E+99

> <Gold.Protein.RotatedTorsions>
[ 6907 6896 6895 6894 ] final   52.58 input  -60.11 | X-H torsion
[ 7974 7965 7964 7962 ] final   31.68 input  175.53 | X-H torsion
[ 8008 7997 7996 7995 ] final  -71.55 input   59.86 | X-H torsion
[ 10167 10162 10161 10158 ] final  -43.22 input  -65.29 | X-H torsion
[ 10718 10713 10712 10709 ] final   71.71 input   66.30 | X-H torsion
[ 10763 10752 10751 10750 ] final  -65.13 input  -60.55 | X-H torsion
[ 11005 11000 10999 10996 ] final  173.00 input  -57.11 | X-H torsion

> <Gold.Protein.ActiveResidues>
 VAL166  LYS551  ARG553  GLY616  TRP617  ASP618  TYR619  PRO620  LYS621  CYS622 
 ASP623  PHE694  ASN695  SER759  ASP760  ASP761  ALA762  ILE779  LEU786  VAL792 
 PHE793  MET794  SER795  GLU796  ALA797  LYS798  CYS799  TRP800  GLU811  SER814 

> <Gold.Protein.RotatedAtoms>
  152.3248  134.7335  160.0304 H   0  0  0  0  0  0  0  0  0  0  0  0  # atno 6907 bound_to 6896
  151.7771  133.3341  159.3469 H   0  0  0  0  0  0  0  0  0  0  0  0  # atno 6908 bound_to 6896
  150.7389  134.5896  159.6025 H   0  0  0  0  0  0  0  0  0  0  0  0  # atno 6909 bound_to 6896
  146.1535  139.6625  142.9083 H   0  0  0  0  0  0  0  0  0  0  0  0  # atno 7974 bound_to 7965
  154.5097  140.0813  156.7965 H   0  0  0  0  0  0  0  0  0  0  0  0  # atno 8008 bound_to 7997
  155.3813  140.3428  155.4229 H   0  0  0  0  0  0  0  0  0  0  0  0  # atno 8009 bound_to 7997
  156.1558  140.1573  156.8682 H   0  0  0  0  0  0  0  0  0  0  0  0  # atno 8010 bound_to 7997
  140.6942  143.2995  151.3320 H   0  0  0  0  0  0  0  0  0  0  0  0  # atno 10167 bound_to 10162
  157.6465  130.9542  150.0827 H   0  0  0  0  0  0  0  0  0  0  0  0  # atno 10718 bound_to 10713
  154.3405  135.6158  153.5594 H   0  0  0  0  0  0  0  0  0  0  0  0  # atno 10763 bound_to 10752
  152.9804  135.5768  154.4859 H   0  0  0  0  0  0  0  0  0  0  0  0  # atno 10764 bound_to 10752
  154.4562  135.2854  155.1723 H   0  0  0  0  0  0  0  0  0  0  0  0  # atno 10765 bound_to 10752
  140.3358  134.7318  157.4167 H   0  0  0  0  0  0  0  0  0  0  0  0  # atno 11005 bound_to 11000
  145.4766  141.0437  143.2669 LP  0  0  0  0  0  0  0  0  0  0  0  0  # atno 17320 bound_to 7965
  144.7933  139.6284  143.7104 LP  0  0  0  0  0  0  0  0  0  0  0  0  # atno 17321 bound_to 7965
  139.6377  144.0598  152.2529 LP  0  0  0  0  0  0  0  0  0  0  0  0  # atno 17342 bound_to 10162
  140.0094  144.6235  150.7661 LP  0  0  0  0  0  0  0  0  0  0  0  0  # atno 17343 bound_to 10162
  156.1798  130.3649  149.9050 LP  0  0  0  0  0  0  0  0  0  0  0  0  # atno 17370 bound_to 10713
  156.7005  130.8931  151.3599 LP  0  0  0  0  0  0  0  0  0  0  0  0  # atno 17371 bound_to 10713
  140.0822  134.5715  155.8529 LP  0  0  0  0  0  0  0  0  0  0  0  0  # atno 17394 bound_to 11000
  141.2051  133.6645  156.6163 LP  0  0  0  0  0  0  0  0  0  0  0  0  # atno 17395 bound_to 11000

$$$$
