AV-unprocessed.smi:2090|AV-procd|sdf|8532|dock3
  -GOLD-   2272011253D 1   1.00000     0.00000
 Structure written by MMmdl.
 42 43  0  0  0  0  0  0  0  0  2 V2000
  143.6569  133.2991  151.5293 C   0  0  0  0  0  0  0  0  0  0  0  0
  143.7180  134.7003  152.0329 C   0  0  0  0  0  0  0  0  0  0  0  0
  144.6678  135.6790  151.9473 C   0  0  0  0  0  0  0  0  0  0  0  0
  144.0701  136.7652  152.6400 C   0  0  0  0  0  0  0  0  0  0  0  0
  144.7453  138.0054  152.7707 N   0  0  0  0  0  0  0  0  0  0  0  0
  145.9959  138.2114  153.2170 C   0  0  0  0  0  0  0  0  0  0  0  0
  146.7831  137.3283  153.5589 O   0  0  0  0  0  0  0  0  0  0  0  0
  146.2943  139.5183  153.2552 N   0  0  0  0  0  0  0  0  0  0  0  0
  147.5669  140.0661  153.7109 C   0  0  0  0  0  0  0  0  0  0  0  0
  147.4294  141.5463  154.1181 C   0  0  0  0  0  0  0  0  0  0  0  0
  148.3340  141.9147  155.2360 N   0  3  2  0  0  0  0  0  0  0  0  0
  149.7097  141.3890  155.0378 C   0  0  0  0  0  0  0  0  0  0  0  0
  150.6633  141.8969  156.1321 C   0  0  0  0  0  0  0  0  0  0  0  0
  150.1498  141.5278  157.5335 C   0  0  1  0  0  0  0  0  0  0  0  0
  151.0801  142.0506  158.6368 C   0  0  0  0  0  0  0  0  0  0  0  0
  148.7147  142.0545  157.6994 C   0  0  0  0  0  0  0  0  0  0  0  0
  147.7986  141.5457  156.5737 C   0  0  0  0  0  0  0  0  0  0  0  0
  142.8666  136.4746  153.1100 N   0  0  0  0  0  0  0  0  0  0  0  0
  142.6350  135.1492  152.7239 O   0  0  0  0  0  0  0  0  0  0  0  0
  144.4718  133.0997  150.8333 H   0  0  0  0  0  0  0  0  0  0  0  0
  142.7164  133.1151  151.0096 H   0  0  0  0  0  0  0  0  0  0  0  0
  143.7338  132.5895  152.3530 H   0  0  0  0  0  0  0  0  0  0  0  0
  145.6314  135.6242  151.4627 H   0  0  0  0  0  0  0  0  0  0  0  0
  144.2115  138.8230  152.5156 H   0  0  0  0  0  0  0  0  0  0  0  0
  145.5931  140.1787  152.9521 H   0  0  0  0  0  0  0  0  0  0  0  0
  147.9491  139.4737  154.5441 H   0  0  0  0  0  0  0  0  0  0  0  0
  148.2786  139.9505  152.8946 H   0  0  0  0  0  0  0  0  0  0  0  0
  147.6075  142.2022  153.2643 H   0  0  0  0  0  0  0  0  0  0  0  0
  146.3987  141.7224  154.4294 H   0  0  0  0  0  0  0  0  0  0  0  0
  149.6869  140.2980  155.0331 H   0  0  0  0  0  0  0  0  0  0  0  0
  150.0889  141.7022  154.0643 H   0  0  0  0  0  0  0  0  0  0  0  0
  151.6574  141.4769  155.9752 H   0  0  0  0  0  0  0  0  0  0  0  0
  150.7696  142.9796  156.0485 H   0  0  0  0  0  0  0  0  0  0  0  0
  150.1238  140.4398  157.6104 H   0  0  0  0  0  0  0  0  0  0  0  0
  151.1478  143.1389  158.6187 H   0  0  0  0  0  0  0  0  0  0  0  0
  152.0887  141.6527  158.5209 H   0  0  0  0  0  0  0  0  0  0  0  0
  150.7216  141.7557  159.6236 H   0  0  0  0  0  0  0  0  0  0  0  0
  148.3134  141.7466  158.6656 H   0  0  0  0  0  0  0  0  0  0  0  0
  148.7177  143.1456  157.7004 H   0  0  0  0  0  0  0  0  0  0  0  0
  146.8041  141.9668  156.7154 H   0  0  0  0  0  0  0  0  0  0  0  0
  147.6934  140.4615  156.6380 H   0  0  0  0  0  0  0  0  0  0  0  0
  148.4147  142.9215  155.2164 H   0  0  0  0  0  0  0  0  0  0  0  0
  1  2  1  0  0  0  0
  1 20  1  0  0  0  0
  1 21  1  0  0  0  0
  1 22  1  0  0  0  0
  2 19  1  0  0  0  0
  2  3  2  0  0  0  0
  3  4  1  0  0  0  0
  3 23  1  0  0  0  0
  4  5  1  0  0  0  0
  4 18  2  0  0  0  0
  5  6  1  0  0  0  0
  5 24  1  0  0  0  0
  6  7  2  0  0  0  0
  6  8  1  0  0  0  0
  8  9  1  0  0  0  0
  8 25  1  0  0  0  0
  9 10  1  0  0  0  0
  9 26  1  0  0  0  0
  9 27  1  0  0  0  0
 10 11  1  0  0  0  0
 10 28  1  0  0  0  0
 10 29  1  0  0  0  0
 11 17  1  0  0  0  0
 11 12  1  0  0  0  0
 11 42  1  0  0  0  0
 12 13  1  0  0  0  0
 12 30  1  0  0  0  0
 12 31  1  0  0  0  0
 13 14  1  0  0  0  0
 13 32  1  0  0  0  0
 13 33  1  0  0  0  0
 14 15  1  0  0  0  0
 14 16  1  0  0  0  0
 14 34  1  0  0  0  0
 15 35  1  0  0  0  0
 15 36  1  0  0  0  0
 15 37  1  0  0  0  0
 16 17  1  0  0  0  0
 16 38  1  0  0  0  0
 16 39  1  0  0  0  0
 17 40  1  0  0  0  0
 17 41  1  0  0  0  0
 18 19  1  0  0  0  0
M  CHG  1  11   1
M  END
> <s_m_source_file>
AV-unprocessed.smi

> <i_m_source_file_index>
2090

> <i_lp_mmshare_version>
43012

> <i_f3d_flags>
0

> <s_epik_input>
W0NIM11jMVtjSF1jKG5vMSlbTkhdQyg9TylbTkhdW0NIMl1bQ0gyXU4yW0NIMl1bQ0gyXVtDSF0oW0NIM10pW0NIMl1bQ0gyXTI=

> <s_epik_cmdline>
J2VwaWtfcHl0aG9uJywgJy1waCcsICc3LjAnLCAnLXRuJywgJzgnLCAnLW1hJywgJzIwMCcsICctbWV0YWxfYmluZGluZycsICctaW1hZScsICc8aW5maWxlLm1hZT4nLCAnLW9tYWUnLCAnPG91dGZpbGUubWFlPic=

> <r_epik_Ionization_Penalty>
0.00176265

> <r_epik_Ionization_Penalty_Charging>
0.00172695

> <r_epik_Ionization_Penalty_Neutral>
3.56992e-05

> <r_epik_State_Penalty>
0.00116803

> <r_epik_Charging_Adjusted_Penalty>
0.00289498

> <i_epik_Tot_Q>
1

> <i_epik_Tot_abs_Q>
1

> <r_epik_Metal_State_Penalty>
0.0215312

> <b_epik_Metal_Only>
0

> <s_lp_Force_Field>
OPLS_2005

> <r_lp_Energy>
12.7246

> <b_lp_Chiralities_Consistent>
1

> <s_lp_Variant>
AV-unprocessed.smi:2090-1

> <Gold.Version>
5.8.1

> <Gold.Id.Protein>
6NUR|6NUR_protein|mol2

> <Gold.PLP.Fitness>
39.9839

> <Gold.PLP.PLP>
-30.1285

> <Gold.PLP.part.hbond>
-3.8182

> <Gold.PLP.part.metal>
0.0000

> <Gold.PLP.part.buried>
-5.6968

> <Gold.PLP.part.nonpolar>
-22.5902

> <Gold.PLP.part.repulsive>
1.7095

> <Gold.PLP.ligand.clash>
0.0000

> <Gold.PLP.ligand.torsion>
0.9855

> <Gold.PLP.Chemscore.Hbond>
3.9280

> <Gold.PLP.Chemscore.CHOScore>
0.0000

> <Gold.PLP.Chemscore.Metal>
0.0000

> <Gold.Chemscore.Hbonds>
donor molecule, donor type, donor heavy atom, donor atom, acceptor molecule, acceptor atom, score
      L1  H     5    24       P1 10175  1.00
      L1  H     8    25       P1 10175  0.94
      L1  H    11    42       P1  8028  2.00

> <Gold.PLP.Chemscore.Internal.Correction>
0.0424

> <Gold.Rescore>
     Score         DG    S(hbond)    S(metal)    S(lipo)     H(rot)  DE(clash)    DE(int)     intcor
     16.97     -18.62       2.91        0.00      63.42       1.57       0.69       0.96       ----

> <Gold.Chemscore.Fitness>
16.9679

> <Gold.Chemscore.DG>
-18.6161

> <Gold.Chemscore.ZeroCoef>
-5.4800

> <Gold.Chemscore.Hbond>
2.9145

> <Gold.Chemscore.Metal>
0.0000

> <Gold.Chemscore.Lipo>
63.4194

> <Gold.Chemscore.Internal_Hbond>
0.0000

> <Gold.Chemscore.DEClash>
0.6861

> <Gold.Chemscore.DEInternal>
0.9621

> <Gold.Chemscore.Rot>
1.5697

> <Gold.Chemscore.Internal.Correction>
   9.000000E+99

> <Gold.Chemscore.Hbonds>
donor molecule, donor type, donor heavy atom, donor atom, acceptor molecule, acceptor atom, score
      L1  H     5    24       P1 10175  1.00
      L1  H     8    25       P1 10175  0.86
      L1  H    11    42       P1  8028  1.00

> <Gold.Chemscore.Hbond.Weighted>
-9.7345

> <Gold.Chemscore.Metal.Weighted>
-0.0000

> <Gold.Chemscore.Lipo.Weighted>
-7.4201

> <Gold.Chemscore.Internal_Hbond.Weighted>
0.0000

> <Gold.Chemscore.DEClash.Weighted>
0.6861

> <Gold.Chemscore.DEInternal.Weighted>
0.9621

> <Gold.Chemscore.Rot.Weighted>
4.0185

> <Gold.Chemscore.Internal.Correction.Weighted>
   9.000000E+99

> <Gold.Protein.RotatedTorsions>
[ 6907 6896 6895 6894 ] final   25.04 input  -60.11 | X-H torsion
[ 7974 7965 7964 7962 ] final  164.95 input  175.53 | X-H torsion
[ 8008 7997 7996 7995 ] final   41.42 input   59.86 | X-H torsion
[ 10167 10162 10161 10158 ] final   84.74 input  -65.29 | X-H torsion
[ 10718 10713 10712 10709 ] final  -72.80 input   66.30 | X-H torsion
[ 10763 10752 10751 10750 ] final -158.40 input  -60.55 | X-H torsion
[ 11005 11000 10999 10996 ] final   25.12 input  -57.11 | X-H torsion

> <Gold.Protein.ActiveResidues>
 VAL166  LYS551  ARG553  GLY616  TRP617  ASP618  TYR619  PRO620  LYS621  CYS622 
 ASP623  PHE694  ASN695  SER759  ASP760  ASP761  ALA762  ILE779  LEU786  VAL792 
 PHE793  MET794  SER795  GLU796  ALA797  LYS798  CYS799  TRP800  GLU811  SER814 

> <Gold.Protein.RotatedAtoms>
  151.9665  135.0098  160.0550 H   0  0  0  0  0  0  0  0  0  0  0  0  # atno 6907 bound_to 6896
  152.1821  133.4710  159.4972 H   0  0  0  0  0  0  0  0  0  0  0  0  # atno 6908 bound_to 6896
  150.6919  134.1737  159.4265 H   0  0  0  0  0  0  0  0  0  0  0  0  # atno 6909 bound_to 6896
  144.7523  139.8399  143.6362 H   0  0  0  0  0  0  0  0  0  0  0  0  # atno 7974 bound_to 7965
  155.2694  140.3365  155.4266 H   0  0  0  0  0  0  0  0  0  0  0  0  # atno 8008 bound_to 7997
  156.2139  140.1781  156.7674 H   0  0  0  0  0  0  0  0  0  0  0  0  # atno 8009 bound_to 7997
  154.5726  140.0667  156.8971 H   0  0  0  0  0  0  0  0  0  0  0  0  # atno 8010 bound_to 7997
  139.9049  144.6307  150.8598 H   0  0  0  0  0  0  0  0  0  0  0  0  # atno 10167 bound_to 10162
  156.0305  130.4380  150.2647 H   0  0  0  0  0  0  0  0  0  0  0  0  # atno 10718 bound_to 10713
  154.7559  135.3104  154.8470 H   0  0  0  0  0  0  0  0  0  0  0  0  # atno 10763 bound_to 10752
  153.9245  135.6792  153.4751 H   0  0  0  0  0  0  0  0  0  0  0  0  # atno 10764 bound_to 10752
  153.1156  135.4846  154.9040 H   0  0  0  0  0  0  0  0  0  0  0  0  # atno 10765 bound_to 10752
  140.3512  134.2226  155.7680 H   0  0  0  0  0  0  0  0  0  0  0  0  # atno 11005 bound_to 11000
  146.1490  139.4567  143.0061 LP  0  0  0  0  0  0  0  0  0  0  0  0  # atno 17320 bound_to 7965
  145.6900  141.0167  143.1560 LP  0  0  0  0  0  0  0  0  0  0  0  0  # atno 17321 bound_to 7965
  140.7698  143.3409  151.2211 LP  0  0  0  0  0  0  0  0  0  0  0  0  # atno 17342 bound_to 10162
  139.6993  143.9560  152.2897 LP  0  0  0  0  0  0  0  0  0  0  0  0  # atno 17343 bound_to 10162
  157.0749  131.0127  151.3177 LP  0  0  0  0  0  0  0  0  0  0  0  0  # atno 17370 bound_to 10713
  157.4971  130.7857  149.7566 LP  0  0  0  0  0  0  0  0  0  0  0  0  # atno 17371 bound_to 10713
  141.2011  133.7970  157.0455 LP  0  0  0  0  0  0  0  0  0  0  0  0  # atno 17394 bound_to 11000
  140.0701  134.9707  157.1453 LP  0  0  0  0  0  0  0  0  0  0  0  0  # atno 17395 bound_to 11000

$$$$
