AV-unprocessed.smi:370|AV-procd|sdf|2440|dock10
  -GOLD-   2262022383D 1   1.00000     0.00000
 Structure written by MMmdl.
 42 43  0  0  0  0  0  0  0  0  3 V2000
  152.5845  142.8540  160.6613 C   0  0  0  0  0  0  0  0  0  0  0  0
  152.5072  141.8934  159.5250 C   0  0  0  0  0  0  0  0  0  0  0  0
  151.7864  141.8818  158.3643 C   0  0  0  0  0  0  0  0  0  0  0  0
  152.1962  140.6718  157.7437 C   0  0  0  0  0  0  0  0  0  0  0  0
  151.6619  140.2884  156.4853 N   0  0  0  0  0  0  0  0  0  0  0  0
  150.6178  140.8118  155.8172 C   0  0  0  0  0  0  0  0  0  0  0  0
  149.9920  141.7697  156.2860 O   0  0  0  0  0  0  0  0  0  0  0  0
  150.3899  140.1696  154.6396 N   0  5  0  0  0  0  0  0  0  0  0  0
  150.3662  138.7120  154.4787 C   0  0  0  0  0  0  0  0  0  0  0  0
  149.0290  138.1078  155.0359 C   0  0  0  0  0  0  0  0  0  0  0  0
  148.9384  138.4357  156.5595 C   0  0  0  0  0  0  0  0  0  0  0  0
  147.8064  138.8089  154.3802 C   0  0  0  0  0  0  0  0  0  0  0  0
  149.0073  136.6159  154.7652 N   0  3  0  0  0  0  0  0  0  0  0  0
  150.1605  135.8204  155.2747 C   0  0  0  0  0  0  0  0  0  0  0  0
  150.1014  134.3761  154.7460 C   0  0  0  0  0  0  0  0  0  0  0  0
  148.8644  133.7716  155.0950 O   0  0  0  0  0  0  0  0  0  0  0  0
  147.7645  134.4703  154.5302 C   0  0  0  0  0  0  0  0  0  0  0  0
  147.7363  135.8989  155.0919 C   0  0  0  0  0  0  0  0  0  0  0  0
  153.0883  140.0058  158.4617 N   0  0  0  0  0  0  0  0  0  0  0  0
  153.2924  140.7853  159.6063 O   0  0  0  0  0  0  0  0  0  0  0  0
  151.8618  143.6609  160.5391 H   0  0  0  0  0  0  0  0  0  0  0  0
  153.5783  143.2969  160.7253 H   0  0  0  0  0  0  0  0  0  0  0  0
  152.3748  142.3523  161.6060 H   0  0  0  0  0  0  0  0  0  0  0  0
  151.0795  142.6208  158.0173 H   0  0  0  0  0  0  0  0  0  0  0  0
  152.1271  139.5155  156.0335 H   0  0  0  0  0  0  0  0  0  0  0  0
  150.4851  138.4174  153.4353 H   0  0  0  0  0  0  0  0  0  0  0  0
  151.2046  138.2523  155.0029 H   0  0  0  0  0  0  0  0  0  0  0  0
  149.0091  139.5069  156.7630 H   0  0  0  0  0  0  0  0  0  0  0  0
  149.7181  137.9478  157.1485 H   0  0  0  0  0  0  0  0  0  0  0  0
  147.9796  138.1283  156.9781 H   0  0  0  0  0  0  0  0  0  0  0  0
  147.7555  139.8686  154.6386 H   0  0  0  0  0  0  0  0  0  0  0  0
  146.8733  138.3617  154.7251 H   0  0  0  0  0  0  0  0  0  0  0  0
  147.8021  138.7529  153.2898 H   0  0  0  0  0  0  0  0  0  0  0  0
  151.1122  136.2332  154.9447 H   0  0  0  0  0  0  0  0  0  0  0  0
  150.1596  135.8273  156.3655 H   0  0  0  0  0  0  0  0  0  0  0  0
  150.2339  134.3563  153.6629 H   0  0  0  0  0  0  0  0  0  0  0  0
  150.9130  133.7880  155.1745 H   0  0  0  0  0  0  0  0  0  0  0  0
  147.8325  134.4770  153.4410 H   0  0  0  0  0  0  0  0  0  0  0  0
  146.8445  133.9462  154.7900 H   0  0  0  0  0  0  0  0  0  0  0  0
  147.5983  135.8535  156.1729 H   0  0  0  0  0  0  0  0  0  0  0  0
  146.8686  136.4151  154.6819 H   0  0  0  0  0  0  0  0  0  0  0  0
  149.0922  136.5709  153.7582 H   0  0  0  0  0  0  0  0  0  0  0  0
  1  2  1  0  0  0  0
  1 21  1  0  0  0  0
  1 22  1  0  0  0  0
  1 23  1  0  0  0  0
  2 20  1  0  0  0  0
  2  3  2  0  0  0  0
  3  4  1  0  0  0  0
  3 24  1  0  0  0  0
  4  5  1  0  0  0  0
  4 19  2  0  0  0  0
  5  6  1  0  0  0  0
  5 25  1  0  0  0  0
  6  7  2  0  0  0  0
  6  8  1  0  0  0  0
  8  9  1  0  0  0  0
  9 10  1  0  0  0  0
  9 26  1  0  0  0  0
  9 27  1  0  0  0  0
 10 11  1  0  0  0  0
 10 12  1  0  0  0  0
 10 13  1  0  0  0  0
 11 28  1  0  0  0  0
 11 29  1  0  0  0  0
 11 30  1  0  0  0  0
 12 31  1  0  0  0  0
 12 32  1  0  0  0  0
 12 33  1  0  0  0  0
 13 18  1  0  0  0  0
 13 14  1  0  0  0  0
 13 42  1  0  0  0  0
 14 15  1  0  0  0  0
 14 34  1  0  0  0  0
 14 35  1  0  0  0  0
 15 16  1  0  0  0  0
 15 36  1  0  0  0  0
 15 37  1  0  0  0  0
 16 17  1  0  0  0  0
 17 18  1  0  0  0  0
 17 38  1  0  0  0  0
 17 39  1  0  0  0  0
 18 40  1  0  0  0  0
 18 41  1  0  0  0  0
 19 20  1  0  0  0  0
M  CHG  1   8  -1
M  CHG  1  13   1
M  END
> <s_m_source_file>
AV-unprocessed.smi

> <i_m_source_file_index>
370

> <i_lp_mmshare_version>
43012

> <i_f3d_flags>
0

> <s_epik_input>
W0NIM11jMVtjSF1jKG5vMSlbTkhdQyg9TylbTkhdW0NIMl1DKFtDSDNdKShbQ0gzXSlOMltDSDJdW0NIMl1PW0NIMl1bQ0gyXTI=

> <s_epik_cmdline>
J2VwaWtfcHl0aG9uJywgJy1waCcsICc3LjAnLCAnLXRuJywgJzgnLCAnLW1hJywgJzIwMCcsICctbWV0YWxfYmluZGluZycsICctaW1hZScsICc8aW5maWxlLm1hZT4nLCAnLW9tYWUnLCAnPG91dGZpbGUubWFlPic=

> <r_epik_Ionization_Penalty>
6.79272

> <r_epik_Ionization_Penalty_Charging>
6.79272

> <r_epik_Ionization_Penalty_Neutral>
5.6208e-06

> <r_epik_State_Penalty>
7.45901

> <r_epik_Charging_Adjusted_Penalty>
14.2517

> <i_epik_Tot_Q>
0

> <i_epik_Tot_abs_Q>
2

> <r_epik_Metal_State_Penalty>
3.38639

> <b_epik_Metal_Only>
1

> <s_lp_Force_Field>
OPLS_2005

> <r_lp_Energy>
23.8333

> <b_lp_Chiralities_Consistent>
1

> <s_lp_Variant>
AV-unprocessed.smi:370-5

> <Gold.Version>
5.8.1

> <Gold.Id.Protein>
6NUR|6NUR_protein|mol2

> <Gold.PLP.Fitness>
39.0201

> <Gold.PLP.PLP>
-28.1496

> <Gold.PLP.part.hbond>
-3.0000

> <Gold.PLP.part.metal>
0.0000

> <Gold.PLP.part.buried>
-5.2799

> <Gold.PLP.part.nonpolar>
-19.1305

> <Gold.PLP.part.repulsive>
0.4118

> <Gold.PLP.ligand.clash>
0.0720

> <Gold.PLP.ligand.torsion>
0.5837

> <Gold.PLP.Chemscore.Hbond>
4.0000

> <Gold.PLP.Chemscore.CHOScore>
0.0000

> <Gold.PLP.Chemscore.Metal>
0.0000

> <Gold.Chemscore.Hbonds>
donor molecule, donor type, donor heavy atom, donor atom, acceptor molecule, acceptor atom, score
      L1  H    13    42       P1  7948  2.00
      P1  H  7989  7998       L1     8  1.00
      P1  H  7997  8010       L1    19  0.76

> <Gold.PLP.Chemscore.Internal.Correction>
0.1099

> <Gold.Rescore>
     Score         DG    S(hbond)    S(metal)    S(lipo)     H(rot)  DE(clash)    DE(int)     intcor
     11.30     -14.46       1.69        0.00      62.89       1.57       0.08       3.08       ----

> <Gold.Chemscore.Fitness>
11.2959

> <Gold.Chemscore.DG>
-14.4550

> <Gold.Chemscore.ZeroCoef>
-5.4800

> <Gold.Chemscore.Hbond>
1.6876

> <Gold.Chemscore.Metal>
0.0000

> <Gold.Chemscore.Lipo>
62.8872

> <Gold.Chemscore.Internal_Hbond>
0.0000

> <Gold.Chemscore.DEClash>
0.0841

> <Gold.Chemscore.DEInternal>
3.0750

> <Gold.Chemscore.Rot>
1.5701

> <Gold.Chemscore.Internal.Correction>
   9.000000E+99

> <Gold.Chemscore.Hbonds>
donor molecule, donor type, donor heavy atom, donor atom, acceptor molecule, acceptor atom, score
      L1  H    13    42       P1  7948  0.99
      P1  H  7989  7998       L1     8  0.31
      P1  H  7997  8010       L1    19  0.11

> <Gold.Chemscore.Hbond.Weighted>
-5.6366

> <Gold.Chemscore.Metal.Weighted>
-0.0000

> <Gold.Chemscore.Lipo.Weighted>
-7.3578

> <Gold.Chemscore.Internal_Hbond.Weighted>
0.0000

> <Gold.Chemscore.DEClash.Weighted>
0.0841

> <Gold.Chemscore.DEInternal.Weighted>
3.0750

> <Gold.Chemscore.Rot.Weighted>
4.0194

> <Gold.Chemscore.Internal.Correction.Weighted>
   9.000000E+99

> <Gold.Protein.RotatedTorsions>
[ 6907 6896 6895 6894 ] final   76.71 input  -60.11 | X-H torsion
[ 7974 7965 7964 7962 ] final  -67.76 input  175.53 | X-H torsion
[ 8008 7997 7996 7995 ] final   32.94 input   59.86 | X-H torsion
[ 10167 10162 10161 10158 ] final   70.92 input  -65.29 | X-H torsion
[ 10718 10713 10712 10709 ] final  -48.11 input   66.30 | X-H torsion
[ 10763 10752 10751 10750 ] final -102.47 input  -60.55 | X-H torsion
[ 11005 11000 10999 10996 ] final  -59.83 input  -57.11 | X-H torsion

> <Gold.Protein.ActiveResidues>
 VAL166  LYS551  ARG553  GLY616  TRP617  ASP618  TYR619  PRO620  LYS621  CYS622 
 ASP623  PHE694  ASN695  SER759  ASP760  ASP761  ALA762  ILE779  LEU786  VAL792 
 PHE793  MET794  SER795  GLU796  ALA797  LYS798  CYS799  TRP800  GLU811  SER814 

> <Gold.Protein.RotatedAtoms>
  152.5085  134.3927  159.9389 H   0  0  0  0  0  0  0  0  0  0  0  0  # atno 6907 bound_to 6896
  151.3887  133.3790  159.2726 H   0  0  0  0  0  0  0  0  0  0  0  0  # atno 6908 bound_to 6896
  150.9449  134.8875  159.7694 H   0  0  0  0  0  0  0  0  0  0  0  0  # atno 6909 bound_to 6896
  145.7251  140.9022  143.0610 H   0  0  0  0  0  0  0  0  0  0  0  0  # atno 7974 bound_to 7965
  155.1305  140.3257  155.4475 H   0  0  0  0  0  0  0  0  0  0  0  0  # atno 8008 bound_to 7997
  156.2636  140.2011  156.6373 H   0  0  0  0  0  0  0  0  0  0  0  0  # atno 8009 bound_to 7997
  154.6616  140.0546  157.0055 H   0  0  0  0  0  0  0  0  0  0  0  0  # atno 8010 bound_to 7997
  140.0518  144.5306  150.7358 H   0  0  0  0  0  0  0  0  0  0  0  0  # atno 10167 bound_to 10162
  156.2019  130.4156  149.9229 H   0  0  0  0  0  0  0  0  0  0  0  0  # atno 10718 bound_to 10713
  154.7736  135.4859  153.9699 H   0  0  0  0  0  0  0  0  0  0  0  0  # atno 10763 bound_to 10752
  153.1400  135.6770  153.9050 H   0  0  0  0  0  0  0  0  0  0  0  0  # atno 10764 bound_to 10752
  153.8727  135.3141  155.3421 H   0  0  0  0  0  0  0  0  0  0  0  0  # atno 10765 bound_to 10752
  141.1264  133.6618  156.5132 H   0  0  0  0  0  0  0  0  0  0  0  0  # atno 11005 bound_to 11000
  144.6907  139.9254  143.7469 LP  0  0  0  0  0  0  0  0  0  0  0  0  # atno 17320 bound_to 7965
  146.0590  139.3585  143.0593 LP  0  0  0  0  0  0  0  0  0  0  0  0  # atno 17321 bound_to 7965
  140.7213  143.2592  151.4268 LP  0  0  0  0  0  0  0  0  0  0  0  0  # atno 17342 bound_to 10162
  139.5948  144.1420  152.2131 LP  0  0  0  0  0  0  0  0  0  0  0  0  # atno 17343 bound_to 10162
  156.6935  130.8905  151.3591 LP  0  0  0  0  0  0  0  0  0  0  0  0  # atno 17370 bound_to 10713
  157.6991  130.9313  150.0731 LP  0  0  0  0  0  0  0  0  0  0  0  0  # atno 17371 bound_to 10713
  140.4352  134.7065  157.4963 LP  0  0  0  0  0  0  0  0  0  0  0  0  # atno 17394 bound_to 11000
  140.0266  134.6467  155.9164 LP  0  0  0  0  0  0  0  0  0  0  0  0  # atno 17395 bound_to 11000

$$$$
