AV-unprocessed.smi:3348|AV-procd|sdf|12917|dock5
  -GOLD-   2272019333D 1   1.00000     0.00000
 Structure written by MMmdl.
 47 48  0  0  0  0  0  0  0  0  2 V2000
  146.7376  140.2572  153.3027 C   0  0  0  0  0  0  0  0  0  0  0  0
  146.9385  138.8278  152.7808 C   0  0  2  0  0  0  0  0  0  0  0  0
  145.9747  137.8558  153.4991 C   0  0  0  0  0  0  0  0  0  0  0  0
  145.4777  136.7885  152.6497 N   0  0  0  0  0  0  0  0  0  0  0  0
  144.4889  135.8667  152.9235 C   0  0  0  0  0  0  0  0  0  0  0  0
  144.3564  135.0734  151.8201 C   0  0  0  0  0  0  0  0  0  0  0  0
  145.3115  135.6013  150.9069 C   0  0  0  0  0  0  0  0  0  0  0  0
  145.9773  136.6312  151.4046 N   0  0  0  0  0  0  0  0  0  0  0  0
  148.3560  138.4404  152.9710 N   0  3  0  0  0  0  0  0  0  0  0  0
  148.8387  138.4465  154.3688 C   0  0  0  0  0  0  0  0  0  0  0  0
  149.9193  139.5120  154.5707 C   0  0  0  0  0  0  0  0  0  0  0  0
  150.7863  139.0797  155.6076 O   0  0  0  0  0  0  0  0  0  0  0  0
  151.8539  139.9747  155.9017 C   0  0  1  0  0  0  0  0  0  0  0  0
  151.3007  141.3040  156.4589 C   0  0  0  0  0  0  0  0  0  0  0  0
  150.5901  141.1021  157.8073 C   0  0  0  0  0  0  0  0  0  0  0  0
  151.5163  140.4235  158.8277 C   0  0  0  0  0  0  0  0  0  0  0  0
  152.0753  139.0992  158.2829 C   0  0  0  0  0  0  0  0  0  0  0  0
  152.7883  139.2986  156.9300 C   0  0  1  0  0  0  0  0  0  0  0  0
  153.3801  137.9850  156.3952 C   0  0  0  0  0  0  0  0  0  0  0  0
  145.7149  140.5963  153.1346 H   0  0  0  0  0  0  0  0  0  0  0  0
  147.4015  140.9586  152.7959 H   0  0  0  0  0  0  0  0  0  0  0  0
  146.9375  140.3226  154.3728 H   0  0  0  0  0  0  0  0  0  0  0  0
  146.7136  138.8464  151.7132 H   0  0  0  0  0  0  0  0  0  0  0  0
  146.4603  137.4130  154.3698 H   0  0  0  0  0  0  0  0  0  0  0  0
  145.1083  138.4015  153.8757 H   0  0  0  0  0  0  0  0  0  0  0  0
  143.9690  135.8497  153.8702 H   0  0  0  0  0  0  0  0  0  0  0  0
  143.6766  134.2453  151.6840 H   0  0  0  0  0  0  0  0  0  0  0  0
  145.5377  135.2704  149.9039 H   0  0  0  0  0  0  0  0  0  0  0  0
  148.4537  137.4908  152.6402 H   0  0  0  0  0  0  0  0  0  0  0  0
  148.0098  138.6479  155.0450 H   0  0  0  0  0  0  0  0  0  0  0  0
  149.2346  137.4644  154.6302 H   0  0  0  0  0  0  0  0  0  0  0  0
  150.4760  139.6733  153.6463 H   0  0  0  0  0  0  0  0  0  0  0  0
  149.4473  140.4575  154.8381 H   0  0  0  0  0  0  0  0  0  0  0  0
  152.4294  140.1732  154.9956 H   0  0  0  0  0  0  0  0  0  0  0  0
  152.1247  142.0061  156.5922 H   0  0  0  0  0  0  0  0  0  0  0  0
  150.6219  141.7742  155.7481 H   0  0  0  0  0  0  0  0  0  0  0  0
  150.2506  142.0625  158.1962 H   0  0  0  0  0  0  0  0  0  0  0  0
  149.6955  140.4947  157.6640 H   0  0  0  0  0  0  0  0  0  0  0  0
  152.3406  141.0940  159.0744 H   0  0  0  0  0  0  0  0  0  0  0  0
  150.9756  140.2447  159.7575 H   0  0  0  0  0  0  0  0  0  0  0  0
  152.7671  138.6719  159.0097 H   0  0  0  0  0  0  0  0  0  0  0  0
  151.2634  138.3791  158.1726 H   0  0  0  0  0  0  0  0  0  0  0  0
  153.6270  139.9755  157.1009 H   0  0  0  0  0  0  0  0  0  0  0  0
  152.6053  137.2374  156.2225 H   0  0  0  0  0  0  0  0  0  0  0  0
  154.0955  137.5625  157.1014 H   0  0  0  0  0  0  0  0  0  0  0  0
  153.9044  138.1455  155.4528 H   0  0  0  0  0  0  0  0  0  0  0  0
  148.9427  139.0350  152.4035 H   0  0  0  0  0  0  0  0  0  0  0  0
  1  2  1  0  0  0  0
  1 20  1  0  0  0  0
  1 21  1  0  0  0  0
  1 22  1  0  0  0  0
  2  3  1  0  0  0  0
  2  9  1  0  0  0  0
  2 23  1  0  0  0  0
  3  4  1  0  0  0  0
  3 24  1  0  0  0  0
  3 25  1  0  0  0  0
  4  8  1  0  0  0  0
  4  5  1  0  0  0  0
  5  6  2  0  0  0  0
  5 26  1  0  0  0  0
  6  7  1  0  0  0  0
  6 27  1  0  0  0  0
  7  8  2  0  0  0  0
  7 28  1  0  0  0  0
  9 10  1  0  0  0  0
  9 29  1  0  0  0  0
  9 47  1  0  0  0  0
 10 11  1  0  0  0  0
 10 30  1  0  0  0  0
 10 31  1  0  0  0  0
 11 12  1  0  0  0  0
 11 32  1  0  0  0  0
 11 33  1  0  0  0  0
 12 13  1  0  0  0  0
 13 18  1  0  0  0  0
 13 14  1  0  0  0  0
 13 34  1  0  0  0  0
 14 15  1  0  0  0  0
 14 35  1  0  0  0  0
 14 36  1  0  0  0  0
 15 16  1  0  0  0  0
 15 37  1  0  0  0  0
 15 38  1  0  0  0  0
 16 17  1  0  0  0  0
 16 39  1  0  0  0  0
 16 40  1  0  0  0  0
 17 18  1  0  0  0  0
 17 41  1  0  0  0  0
 17 42  1  0  0  0  0
 18 19  1  0  0  0  0
 18 43  1  0  0  0  0
 19 44  1  0  0  0  0
 19 45  1  0  0  0  0
 19 46  1  0  0  0  0
M  CHG  1   9   1
M  END
> <s_m_source_file>
AV-unprocessed.smi

> <i_m_source_file_index>
3348

> <i_lp_mmshare_version>
43012

> <i_f3d_flags>
0

> <s_epik_input>
bjFbY0hdW2NIXVtjSF1uMVtDSDJdW0NAQEhdKFtDSDNdKVtOSF1bQ0gyXVtDSDJdT1tDQEBIXTJbQ0gyXVtDSDJdW0NIMl1bQ0gyXVtDQEhdMltDSDNd

> <s_epik_cmdline>
J2VwaWtfcHl0aG9uJywgJy1waCcsICc3LjAnLCAnLXRuJywgJzgnLCAnLW1hJywgJzIwMCcsICctbWV0YWxfYmluZGluZycsICctaW1hZScsICc8aW5maWxlLm1hZT4nLCAnLW9tYWUnLCAnPG91dGZpbGUubWFlPic=

> <r_lp_tautomer_probability>
1

> <r_epik_Ionization_Penalty>
0.00925088

> <r_epik_Ionization_Penalty_Charging>
0.00924645

> <r_epik_Ionization_Penalty_Neutral>
4.42413e-06

> <r_epik_State_Penalty>
0.0070118

> <r_epik_Charging_Adjusted_Penalty>
0.0162583

> <i_epik_Tot_Q>
1

> <i_epik_Tot_abs_Q>
1

> <r_epik_Metal_State_Penalty>
0.00701222

> <b_epik_Metal_Only>
0

> <s_lp_Force_Field>
OPLS_2005

> <r_lp_Energy>
17.627

> <b_lp_Chiralities_Consistent>
1

> <s_lp_Variant>
AV-unprocessed.smi:3348-3

> <Gold.Version>
5.8.1

> <Gold.Id.Protein>
6NUR|6NUR_protein|mol2

> <Gold.PLP.Fitness>
42.8248

> <Gold.PLP.PLP>
-32.8505

> <Gold.PLP.part.hbond>
-1.9500

> <Gold.PLP.part.metal>
0.0000

> <Gold.PLP.part.buried>
-0.8232

> <Gold.PLP.part.nonpolar>
-30.4509

> <Gold.PLP.part.repulsive>
0.5359

> <Gold.PLP.ligand.clash>
0.0000

> <Gold.PLP.ligand.torsion>
1.0925

> <Gold.PLP.Chemscore.Hbond>
3.0000

> <Gold.PLP.Chemscore.CHOScore>
1.0000

> <Gold.PLP.Chemscore.Metal>
0.0000

> <Gold.Chemscore.Hbonds>
donor molecule, donor type, donor heavy atom, donor atom, acceptor molecule, acceptor atom, score
      L1  H     9    29       P1  7948  2.00
      L1  H     9    47       P1  7957  1.00
      L1  C     7    28       P1  7921  1.00

> <Gold.PLP.Chemscore.Internal.Correction>
0.1593

> <Gold.Rescore>
     Score         DG    S(hbond)    S(metal)    S(lipo)     H(rot)  DE(clash)    DE(int)     intcor
     15.81     -17.53       1.98        0.00      86.12       1.82       0.71       1.00       ----

> <Gold.Chemscore.Fitness>
15.8134

> <Gold.Chemscore.DG>
-17.5290

> <Gold.Chemscore.ZeroCoef>
-5.4800

> <Gold.Chemscore.Hbond>
1.9827

> <Gold.Chemscore.Metal>
0.0000

> <Gold.Chemscore.Lipo>
86.1237

> <Gold.Chemscore.Internal_Hbond>
0.0000

> <Gold.Chemscore.DEClash>
0.7139

> <Gold.Chemscore.DEInternal>
1.0017

> <Gold.Chemscore.Rot>
1.8163

> <Gold.Chemscore.Internal.Correction>
   9.000000E+99

> <Gold.Chemscore.Hbonds>
donor molecule, donor type, donor heavy atom, donor atom, acceptor molecule, acceptor atom, score
      L1  H     9    29       P1  7948  0.94
      L1  H     9    47       P1  7957  0.99

> <Gold.Chemscore.Hbond.Weighted>
-6.6222

> <Gold.Chemscore.Metal.Weighted>
-0.0000

> <Gold.Chemscore.Lipo.Weighted>
-10.0765

> <Gold.Chemscore.Internal_Hbond.Weighted>
0.0000

> <Gold.Chemscore.DEClash.Weighted>
0.7139

> <Gold.Chemscore.DEInternal.Weighted>
1.0017

> <Gold.Chemscore.Rot.Weighted>
4.6497

> <Gold.Chemscore.Internal.Correction.Weighted>
   9.000000E+99

> <Gold.Protein.RotatedTorsions>
[ 6907 6896 6895 6894 ] final  125.54 input  -60.11 | X-H torsion
[ 7974 7965 7964 7962 ] final  -73.57 input  175.53 | X-H torsion
[ 8008 7997 7996 7995 ] final  178.38 input   59.86 | X-H torsion
[ 10167 10162 10161 10158 ] final  -94.78 input  -65.29 | X-H torsion
[ 10718 10713 10712 10709 ] final   40.73 input   66.30 | X-H torsion
[ 10763 10752 10751 10750 ] final   61.40 input  -60.55 | X-H torsion
[ 11005 11000 10999 10996 ] final -127.31 input  -57.11 | X-H torsion

> <Gold.Protein.ActiveResidues>
 VAL166  LYS551  ARG553  GLY616  TRP617  ASP618  TYR619  PRO620  LYS621  CYS622 
 ASP623  PHE694  ASN695  SER759  ASP760  ASP761  ALA762  ILE779  LEU786  VAL792 
 PHE793  MET794  SER795  GLU796  ALA797  LYS798  CYS799  TRP800  GLU811  SER814 

> <Gold.Protein.RotatedAtoms>
  152.3982  133.6779  159.6294 H   0  0  0  0  0  0  0  0  0  0  0  0  # atno 6907 bound_to 6896
  150.7878  133.8836  159.3302 H   0  0  0  0  0  0  0  0  0  0  0  0  # atno 6908 bound_to 6896
  151.6608  135.0991  160.0230 H   0  0  0  0  0  0  0  0  0  0  0  0  # atno 6909 bound_to 6896
  145.6504  140.9284  143.0988 H   0  0  0  0  0  0  0  0  0  0  0  0  # atno 7974 bound_to 7965
  156.0553  140.1335  157.0004 H   0  0  0  0  0  0  0  0  0  0  0  0  # atno 8008 bound_to 7997
  154.4454  140.1002  156.6507 H   0  0  0  0  0  0  0  0  0  0  0  0  # atno 8009 bound_to 7997
  155.5461  140.3462  155.4460 H   0  0  0  0  0  0  0  0  0  0  0  0  # atno 8010 bound_to 7997
  140.3109  143.3105  152.0149 H   0  0  0  0  0  0  0  0  0  0  0  0  # atno 10167 bound_to 10162
  157.3855  130.7777  149.7227 H   0  0  0  0  0  0  0  0  0  0  0  0  # atno 10718 bound_to 10713
  152.9949  135.5502  154.6027 H   0  0  0  0  0  0  0  0  0  0  0  0  # atno 10763 bound_to 10752
  154.5365  135.2817  155.1136 H   0  0  0  0  0  0  0  0  0  0  0  0  # atno 10764 bound_to 10752
  154.2430  135.6413  153.5266 H   0  0  0  0  0  0  0  0  0  0  0  0  # atno 10765 bound_to 10752
  140.9610  134.0936  157.3968 H   0  0  0  0  0  0  0  0  0  0  0  0  # atno 11005 bound_to 11000
  144.7125  139.8319  143.7410 LP  0  0  0  0  0  0  0  0  0  0  0  0  # atno 17320 bound_to 7965
  146.1208  139.4226  143.0229 LP  0  0  0  0  0  0  0  0  0  0  0  0  # atno 17321 bound_to 7965
  139.4894  144.6385  151.6926 LP  0  0  0  0  0  0  0  0  0  0  0  0  # atno 17342 bound_to 10162
  140.5568  144.0334  150.6151 LP  0  0  0  0  0  0  0  0  0  0  0  0  # atno 17343 bound_to 10162
  155.9785  130.4050  150.3641 LP  0  0  0  0  0  0  0  0  0  0  0  0  # atno 17370 bound_to 10713
  157.1751  131.0378  151.2776 LP  0  0  0  0  0  0  0  0  0  0  0  0  # atno 17371 bound_to 10713
  139.8878  135.0093  156.6582 LP  0  0  0  0  0  0  0  0  0  0  0  0  # atno 17394 bound_to 11000
  140.7467  133.8931  155.8317 LP  0  0  0  0  0  0  0  0  0  0  0  0  # atno 17395 bound_to 11000

$$$$
