AV-unprocessed.smi:215|AV-procd|sdf|1654|dock9
  -GOLD-   2262020 43D 1   1.00000     0.00000
 Structure written by MMmdl.
 59 62  0  0  0  0  0  0  0  0  2 V2000
  149.9237  139.1467  156.8624 C   0  0  0  0  0  0  0  0  0  0  0  0
  149.4216  139.6830  155.5065 C   0  0  2  0  0  0  0  0  0  0  0  0
  149.6250  141.1908  155.2630 C   0  0  2  0  0  0  0  0  0  0  0  0
  149.5774  142.0465  156.4916 N   0  3  1  0  0  0  0  0  0  0  0  0
  148.3355  141.8159  157.2705 C   0  0  0  0  0  0  0  0  0  0  0  0
  150.8057  142.0268  157.3376 C   0  0  0  0  0  0  0  0  0  0  0  0
  150.8782  143.1996  158.3320 C   0  0  0  0  0  0  0  0  0  0  0  0
  150.8816  144.4308  157.6412 O   0  0  0  0  0  0  0  0  0  0  0  0
  148.5611  141.5243  154.2054 C   0  0  0  0  0  0  0  0  0  0  0  0
  147.4593  140.4717  154.3851 C   0  0  0  0  0  0  0  0  0  0  0  0
  148.0067  139.4260  155.2426 N   0  0  0  0  0  0  0  0  0  0  0  0
  147.5316  138.1690  155.0413 C   0  0  0  0  0  0  0  0  0  0  0  0
  147.8780  137.1675  155.8926 N   0  0  0  0  0  0  0  0  0  0  0  0
  147.4239  135.9261  155.6995 C   0  0  0  0  0  0  0  0  0  0  0  0
  146.6200  135.4732  154.7366 N   0  0  0  0  0  0  0  0  0  0  0  0
  146.2615  136.4727  153.8811 C   0  0  0  0  0  0  0  0  0  0  0  0
  146.6745  137.8336  153.9543 C   0  0  0  0  0  0  0  0  0  0  0  0
  146.1149  138.5526  152.9043 N   0  0  0  0  0  0  0  0  0  0  0  0
  145.4193  137.6664  152.2449 C   0  0  0  0  0  0  0  0  0  0  0  0
  145.4266  136.3981  152.7801 N   0  0  0  0  0  0  0  0  0  0  0  0
  144.7780  135.2346  152.2500 C   0  0  0  0  0  0  0  0  0  0  0  0
  145.5771  134.1038  151.5975 C   0  0  0  0  0  0  0  0  0  0  0  0
  144.4011  133.8386  150.6314 C   0  0  0  0  0  0  0  0  0  0  0  0
  144.8025  133.5510  149.1752 C   0  0  0  0  0  0  0  0  0  0  0  0
  143.7848  133.9413  148.2759 O   0  0  0  0  0  0  0  0  0  0  0  0
  143.3935  132.7693  151.1003 C   0  0  0  0  0  0  0  0  0  0  0  0
  142.3963  132.5357  150.1260 O   0  0  0  0  0  0  0  0  0  0  0  0
  143.9989  135.2995  150.9345 C   0  0  0  0  0  0  0  0  0  0  0  0
  149.9839  139.1699  154.7246 H   0  0  0  0  0  0  0  0  0  0  0  0
  150.6182  141.3134  154.8279 H   0  0  0  0  0  0  0  0  0  0  0  0
  150.9612  139.4347  157.0337 H   0  0  0  0  0  0  0  0  0  0  0  0
  149.8817  138.0591  156.9063 H   0  0  0  0  0  0  0  0  0  0  0  0
  149.3294  139.5237  157.6935 H   0  0  0  0  0  0  0  0  0  0  0  0
  148.3357  140.8258  157.7271 H   0  0  0  0  0  0  0  0  0  0  0  0
  147.4543  141.8945  156.6330 H   0  0  0  0  0  0  0  0  0  0  0  0
  148.2115  142.5545  158.0607 H   0  0  0  0  0  0  0  0  0  0  0  0
  150.8621  141.0826  157.8802 H   0  0  0  0  0  0  0  0  0  0  0  0
  151.6971  142.0755  156.7147 H   0  0  0  0  0  0  0  0  0  0  0  0
  150.0653  143.1832  159.0566 H   0  0  0  0  0  0  0  0  0  0  0  0
  151.8033  143.1320  158.9053 H   0  0  0  0  0  0  0  0  0  0  0  0
  150.0684  144.5124  157.1654 H   0  0  0  0  0  0  0  0  0  0  0  0
  148.1847  142.5460  154.2566 H   0  0  0  0  0  0  0  0  0  0  0  0
  149.0002  141.3999  153.2149 H   0  0  0  0  0  0  0  0  0  0  0  0
  146.5926  140.9134  154.8774 H   0  0  0  0  0  0  0  0  0  0  0  0
  147.1313  140.0795  153.4211 H   0  0  0  0  0  0  0  0  0  0  0  0
  147.7494  135.1910  156.4208 H   0  0  0  0  0  0  0  0  0  0  0  0
  144.8707  137.9197  151.3491 H   0  0  0  0  0  0  0  0  0  0  0  0
  144.1474  134.8493  153.0527 H   0  0  0  0  0  0  0  0  0  0  0  0
  146.4715  134.4639  151.0852 H   0  0  0  0  0  0  0  0  0  0  0  0
  145.8171  133.2762  152.2659 H   0  0  0  0  0  0  0  0  0  0  0  0
  145.7291  134.0580  148.9053 H   0  0  0  0  0  0  0  0  0  0  0  0
  144.9841  132.4862  149.0275 H   0  0  0  0  0  0  0  0  0  0  0  0
  142.9639  133.9638  148.7438 H   0  0  0  0  0  0  0  0  0  0  0  0
  143.8893  131.8254  151.3273 H   0  0  0  0  0  0  0  0  0  0  0  0
  142.8933  133.0748  152.0194 H   0  0  0  0  0  0  0  0  0  0  0  0
  142.2271  133.3460  149.6701 H   0  0  0  0  0  0  0  0  0  0  0  0
  142.9288  135.4707  151.0550 H   0  0  0  0  0  0  0  0  0  0  0  0
  144.4293  136.0161  150.2325 H   0  0  0  0  0  0  0  0  0  0  0  0
  149.5065  142.9928  156.1448 H   0  0  0  0  0  0  0  0  0  0  0  0
  1  2  1  0  0  0  0
  1 31  1  0  0  0  0
  1 32  1  0  0  0  0
  1 33  1  0  0  0  0
  2 29  1  0  0  0  0
  2 11  1  0  0  0  0
  2  3  1  0  0  0  0
  3 30  1  0  0  0  0
  3  4  1  0  0  0  0
  3  9  1  0  0  0  0
  4  5  1  0  0  0  0
  4  6  1  0  0  0  0
  4 59  1  0  0  0  0
  5 34  1  0  0  0  0
  5 35  1  0  0  0  0
  5 36  1  0  0  0  0
  6  7  1  0  0  0  0
  6 37  1  0  0  0  0
  6 38  1  0  0  0  0
  7  8  1  0  0  0  0
  7 39  1  0  0  0  0
  7 40  1  0  0  0  0
  8 41  1  0  0  0  0
  9 10  1  0  0  0  0
  9 42  1  0  0  0  0
  9 43  1  0  0  0  0
 10 11  1  0  0  0  0
 10 44  1  0  0  0  0
 10 45  1  0  0  0  0
 11 12  1  0  0  0  0
 12 17  1  0  0  0  0
 12 13  2  0  0  0  0
 13 14  1  0  0  0  0
 14 15  2  0  0  0  0
 14 46  1  0  0  0  0
 15 16  1  0  0  0  0
 16 20  1  0  0  0  0
 16 17  2  0  0  0  0
 17 18  1  0  0  0  0
 18 19  2  0  0  0  0
 19 20  1  0  0  0  0
 19 47  1  0  0  0  0
 20 21  1  0  0  0  0
 21 28  1  0  0  0  0
 21 22  1  0  0  0  0
 21 48  1  0  0  0  0
 22 23  1  0  0  0  0
 22 49  1  0  0  0  0
 22 50  1  0  0  0  0
 23 24  1  0  0  0  0
 23 26  1  0  0  0  0
 23 28  1  0  0  0  0
 24 25  1  0  0  0  0
 24 51  1  0  0  0  0
 24 52  1  0  0  0  0
 25 53  1  0  0  0  0
 26 27  1  0  0  0  0
 26 54  1  0  0  0  0
 26 55  1  0  0  0  0
 27 56  1  0  0  0  0
 28 57  1  0  0  0  0
 28 58  1  0  0  0  0
M  CHG  1   4   1
M  END
> <s_m_source_file>
AV-unprocessed.smi

> <i_m_source_file_index>
215

> <i_lp_mmshare_version>
43012

> <i_f3d_flags>
0

> <s_epik_input>
W09IXVtDSDJdW0NIMl1OKFtDSDNdKVtDQEBIXShbQ0BIXTFbQ0gzXSlbQ0gyXVtDSDJdTjFjKG5bY0hdbjIpYyhjMjMpbltjSF1uM1tDSF0oW0NIMl00KVtDSDJdQzQoW0NIMl1bT0hdKVtDSDJdW09IXQ==

> <s_epik_cmdline>
J2VwaWtfcHl0aG9uJywgJy1waCcsICc3LjAnLCAnLXRuJywgJzgnLCAnLW1hJywgJzIwMCcsICctbWV0YWxfYmluZGluZycsICctaW1hZScsICc8aW5maWxlLm1hZT4nLCAnLW9tYWUnLCAnPG91dGZpbGUubWFlPic=

> <r_lp_tautomer_probability>
1

> <r_epik_Ionization_Penalty>
0.0036237

> <r_epik_Ionization_Penalty_Charging>
0.0032725

> <r_epik_Ionization_Penalty_Neutral>
0.000351196

> <r_epik_State_Penalty>
-0

> <r_epik_Charging_Adjusted_Penalty>
0.0032725

> <i_epik_Tot_Q>
1

> <i_epik_Tot_abs_Q>
1

> <r_epik_Metal_State_Penalty>
-0

> <b_epik_Metal_Only>
0

> <s_lp_Force_Field>
OPLS_2005

> <r_lp_Energy>
70.2974

> <b_lp_Chiralities_Consistent>
1

> <s_lp_Variant>
AV-unprocessed.smi:215-5

> <Gold.Version>
5.8.1

> <Gold.Id.Protein>
6NUR|6NUR_protein|mol2

> <Gold.PLP.Fitness>
53.6042

> <Gold.PLP.PLP>
-34.2401

> <Gold.PLP.part.hbond>
-6.4304

> <Gold.PLP.part.metal>
0.0000

> <Gold.PLP.part.buried>
-0.7679

> <Gold.PLP.part.nonpolar>
-29.4412

> <Gold.PLP.part.repulsive>
0.8282

> <Gold.PLP.ligand.clash>
0.0000

> <Gold.PLP.ligand.torsion>
0.9985

> <Gold.PLP.Chemscore.Hbond>
5.5760

> <Gold.PLP.Chemscore.CHOScore>
1.2178

> <Gold.PLP.Chemscore.Metal>
0.0000

> <Gold.Chemscore.Hbonds>
donor molecule, donor type, donor heavy atom, donor atom, acceptor molecule, acceptor atom, score
      L1  H     4    59       P1  8028  2.00
      L1  H     8    41       P1  8028  1.00
      L1  H    25    53       P1 10186  0.70
      L1  H    27    56       P1 10186  0.74
      L1  C    19    47       P1 10171  0.80

> <Gold.PLP.Chemscore.Internal.Correction>
0.9797

> <Gold.Rescore>
     Score         DG    S(hbond)    S(metal)    S(lipo)     H(rot)  DE(clash)    DE(int)     intcor
     10.19     -16.34       3.81        0.00      89.28       4.81       1.54       4.61       ----

> <Gold.Chemscore.Fitness>
10.1898

> <Gold.Chemscore.DG>
-16.3409

> <Gold.Chemscore.ZeroCoef>
-5.4800

> <Gold.Chemscore.Hbond>
3.8109

> <Gold.Chemscore.Metal>
0.0000

> <Gold.Chemscore.Lipo>
89.2784

> <Gold.Chemscore.Internal_Hbond>
0.0000

> <Gold.Chemscore.DEClash>
1.5393

> <Gold.Chemscore.DEInternal>
4.6119

> <Gold.Chemscore.Rot>
4.8098

> <Gold.Chemscore.Internal.Correction>
   9.000000E+99

> <Gold.Chemscore.Hbonds>
donor molecule, donor type, donor heavy atom, donor atom, acceptor molecule, acceptor atom, score
      L1  H     4    59       P1  8028  1.00
      L1  H     8    41       P1  8028  0.50
      L1  H    25    53       P1 10186  0.69
      L1  H    27    56       P1 10186  0.73

> <Gold.Chemscore.Hbond.Weighted>
-12.7284

> <Gold.Chemscore.Metal.Weighted>
-0.0000

> <Gold.Chemscore.Lipo.Weighted>
-10.4456

> <Gold.Chemscore.Internal_Hbond.Weighted>
0.0000

> <Gold.Chemscore.DEClash.Weighted>
1.5393

> <Gold.Chemscore.DEInternal.Weighted>
4.6119

> <Gold.Chemscore.Rot.Weighted>
12.3130

> <Gold.Chemscore.Internal.Correction.Weighted>
   9.000000E+99

> <Gold.Protein.RotatedTorsions>
[ 6907 6896 6895 6894 ] final  -33.77 input  -60.11 | X-H torsion
[ 7974 7965 7964 7962 ] final   55.67 input  175.53 | X-H torsion
[ 8008 7997 7996 7995 ] final  101.61 input   59.86 | X-H torsion
[ 10167 10162 10161 10158 ] final   -0.33 input  -65.29 | X-H torsion
[ 10718 10713 10712 10709 ] final  -75.87 input   66.30 | X-H torsion
[ 10763 10752 10751 10750 ] final   73.87 input  -60.55 | X-H torsion
[ 11005 11000 10999 10996 ] final  -63.53 input  -57.11 | X-H torsion

> <Gold.Protein.ActiveResidues>
 VAL166  LYS551  ARG553  GLY616  TRP617  ASP618  TYR619  PRO620  LYS621  CYS622 
 ASP623  PHE694  ASN695  SER759  ASP760  ASP761  ALA762  ILE779  LEU786  VAL792 
 PHE793  MET794  SER795  GLU796  ALA797  LYS798  CYS799  TRP800  GLU811  SER814 

> <Gold.Protein.RotatedAtoms>
  151.0613  134.9738  159.8261 H   0  0  0  0  0  0  0  0  0  0  0  0  # atno 6907 bound_to 6896
  152.5396  134.2414  159.8873 H   0  0  0  0  0  0  0  0  0  0  0  0  # atno 6908 bound_to 6896
  151.2434  133.4344  159.2642 H   0  0  0  0  0  0  0  0  0  0  0  0  # atno 6909 bound_to 6896
  145.9479  139.3946  143.0324 H   0  0  0  0  0  0  0  0  0  0  0  0  # atno 7974 bound_to 7965
  156.1315  140.3194  155.8357 H   0  0  0  0  0  0  0  0  0  0  0  0  # atno 8008 bound_to 7997
  155.4322  140.0519  157.3034 H   0  0  0  0  0  0  0  0  0  0  0  0  # atno 8009 bound_to 7997
  154.4903  140.2089  155.9575 H   0  0  0  0  0  0  0  0  0  0  0  0  # atno 8010 bound_to 7997
  140.6763  143.6907  150.8030 H   0  0  0  0  0  0  0  0  0  0  0  0  # atno 10167 bound_to 10162
  156.0193  130.4451  150.3108 H   0  0  0  0  0  0  0  0  0  0  0  0  # atno 10718 bound_to 10713
  153.0550  135.5046  154.7958 H   0  0  0  0  0  0  0  0  0  0  0  0  # atno 10763 bound_to 10752
  154.6792  135.2965  154.9639 H   0  0  0  0  0  0  0  0  0  0  0  0  # atno 10764 bound_to 10752
  154.0431  135.6714  153.4845 H   0  0  0  0  0  0  0  0  0  0  0  0  # atno 10765 bound_to 10752
  141.1396  133.6653  156.5694 H   0  0  0  0  0  0  0  0  0  0  0  0  # atno 11005 bound_to 11000
  145.8211  140.9678  143.0898 LP  0  0  0  0  0  0  0  0  0  0  0  0  # atno 17320 bound_to 7965
  144.6790  140.0043  143.7484 LP  0  0  0  0  0  0  0  0  0  0  0  0  # atno 17321 bound_to 7965
  140.0600  143.5164  152.2632 LP  0  0  0  0  0  0  0  0  0  0  0  0  # atno 17342 bound_to 10162
  139.6057  144.7595  151.3067 LP  0  0  0  0  0  0  0  0  0  0  0  0  # atno 17343 bound_to 10162
  157.1210  131.0246  151.3009 LP  0  0  0  0  0  0  0  0  0  0  0  0  # atno 17370 bound_to 10713
  157.4628  130.7663  149.7252 LP  0  0  0  0  0  0  0  0  0  0  0  0  # atno 17371 bound_to 10713
  140.3925  134.7428  157.4730 LP  0  0  0  0  0  0  0  0  0  0  0  0  # atno 17394 bound_to 11000
  140.0555  134.6069  155.8810 LP  0  0  0  0  0  0  0  0  0  0  0  0  # atno 17395 bound_to 11000

$$$$
