#       Name:                AV-unprocessed.smi:1889
#       Creating user name   scv26
#       Creation time:       Fri Mar 27 09:39:34 2020


#       File generated by GOLD software.
#

@<TRIPOS>MOLECULE
AV-unprocessed.smi:1889
    42    43     1
SMALL
NO_CHARGES


@<TRIPOS>ATOM
      1 ****        -7.3351  -0.2185  -0.1762 C.3            1 S1                 0.0000
      2 ****        -5.8113  -0.1687  -0.0222 C.3            1 S1                 0.0000
      3 ****        -5.1244  -1.4476  -0.5214 C.3            1 S1                 0.0000
      4 ****        -3.6392  -1.3869  -0.3875 C.2            1 S1                 0.0000
      5 ****        -2.9972  -1.7552   0.7282 N.2            1 S1                 0.0000
      6 ****        -1.6248  -1.5739   0.6302 N.2            1 S1                 0.0000
      7 ****        -1.2724  -1.0585  -0.5555 C.2            1 S1                 0.0000
      8 ****         0.0676  -0.7648  -0.9219 N.am           1 S1                 0.0000
      9 ****         1.1834  -0.9039  -0.1846 C.2            1 S1                 0.0000
     10 ****         1.2261  -1.3239   0.9720 O.2            1 S1                 0.0000
     11 ****         2.2689  -0.5195  -0.8713 N.am           1 S1                 0.0000
     12 ****         3.6349  -0.5390  -0.3589 C.3            1 S1                 0.0000
     13 ****         3.9299   0.6688   0.5505 C.3            1 S1                 0.0000
     14 ****         5.3579   0.7263   1.0510 C.3            1 S1                 0.0000
     15 ****         5.4719   2.1813   1.4924 C.3            1 S1                 0.0000
     16 ****         4.6492   2.9189   0.5937 O.3            1 S1                 0.0000
     17 ****         3.7971   2.0337  -0.1289 C.3            1 S1                 0.0000
     18 ****        -2.6017  -0.7561  -1.6611 S.3            1 S1                 0.0000
     19 ****        -7.7914   0.7034   0.1847 H              1 S1                 0.0000
     20 ****        -7.7617  -1.0453   0.3924 H              1 S1                 0.0000
     21 ****        -7.6220  -0.3446  -1.2205 H              1 S1                 0.0000
     22 ****        -5.4241   0.6915  -0.5695 H              1 S1                 0.0000
     23 ****        -5.5616  -0.0057   1.0268 H              1 S1                 0.0000
     24 ****        -5.4925  -2.3127   0.0318 H              1 S1                 0.0000
     25 ****        -5.3707  -1.6200  -1.5695 H              1 S1                 0.0000
     26 ****         0.1902  -0.4001  -1.8549 H              1 S1                 0.0000
     27 ****         2.1427  -0.1880  -1.8165 H              1 S1                 0.0000
     28 ****         3.8162  -1.4704   0.1804 H              1 S1                 0.0000
     29 ****         4.3141  -0.5409  -1.2119 H              1 S1                 0.0000
     30 ****         3.2671   0.6451   1.4172 H              1 S1                 0.0000
     31 ****         5.5594   0.0207   1.8573 H              1 S1                 0.0000
     32 ****         6.0575   0.5266   0.2380 H              1 S1                 0.0000
     33 ****         5.0793   2.3030   2.5026 H              1 S1                 0.0000
     34 ****         6.5003   2.5429   1.4827 H              1 S1                 0.0000
     35 ****         4.1479   1.9892  -1.1606 H              1 S1                 0.0000
     36 ****         2.7681   2.3939  -0.1384 H              1 S1                 0.0000
     37 ****        -3.4544  -2.1194   1.5395 LP             1 S1                 0.0000
     38 ****        -0.9766  -1.8007   1.3571 LP             1 S1                 0.0000
     39 ****         0.3832  -1.5945   1.4371 LP             1 S1                 0.0000
     40 ****         2.1037  -1.3945   1.4462 LP             1 S1                 0.0000
     41 ****         5.2283   3.4194  -0.0499 LP             1 S1                 0.0000
     42 ****         4.0904   3.5661   1.1122 LP             1 S1                 0.0000
@<TRIPOS>BOND
    1    1    2 1     
    2    1   19 1     
    3    1   20 1     
    4    1   21 1     
    5    2    3 1     
    6    2   22 1     
    7    2   23 1     
    8    3    4 1     
    9    3   24 1     
   10    3   25 1     
   11    4   18 1     
   12    4    5 2     
   13    5    6 1     
   14    6    7 2     
   15    7    8 1     
   16    7   18 1     
   17    8    9 am    
   18    8   26 1     
   19    9   10 2     
   20    9   11 am    
   21   11   12 1     
   22   11   27 1     
   23   12   13 1     
   24   12   28 1     
   25   12   29 1     
   26   13   17 1     
   27   13   14 1     
   28   13   30 1     
   29   14   15 1     
   30   14   31 1     
   31   14   32 1     
   32   15   16 1     
   33   15   33 1     
   34   15   34 1     
   35   16   17 1     
   36   17   35 1     
   37   17   36 1     
   38    5   37 1     
   39    6   38 1     
   40   10   39 1     
   41   10   40 1     
   42   16   41 1     
   43   16   42 1     
@<TRIPOS>SUBSTRUCTURE
      1 S1             1
@<TRIPOS>SET
LONE_PAIRS      STATIC     ATOMS    <user>   **** ""
6 37 38 39 40 41 42
DONOR_HYDROGENS      STATIC     ATOMS    <user>   **** ""
2 26 27
ATOM$BLUE        STATIC     ATOMS    COLORGROUP SYSTEM
6 37 38 39 40 41 42
ATOM$RED        STATIC     ATOMS    COLORGROUP SYSTEM
2 26 27
