#       Name:                AV-unprocessed.smi:2402
#       Creating user name   scv26
#       Creation time:       Fri Mar 27 13:13:31 2020


#       File generated by GOLD software.
#

@<TRIPOS>MOLECULE
AV-unprocessed.smi:2402
    43    44     1
SMALL
NO_CHARGES


@<TRIPOS>ATOM
      1 ****        -4.9595   2.5127   1.6040 C.3            1 S1                 0.0000
      2 ****        -4.1812   1.2803   1.1935 C.ar           1 S1                 0.0000
      3 ****        -4.8454   0.0869   0.8511 C.ar           1 S1                 0.0000
      4 ****        -4.0648  -1.0245   0.4771 C.ar           1 S1                 0.0000
      5 ****        -4.7133  -2.3406   0.1025 C.3            1 S1                 0.0000
      6 ****        -2.7155  -0.9960   0.4337 N.ar           1 S1                 0.0000
      7 ****        -2.0648   0.1480   0.7609 C.ar           1 S1                 0.0000
      8 ****        -0.6504   0.2797   0.7540 N.am           1 S1                 0.0000
      9 ****         0.2688  -0.6430   0.4188 C.2            1 S1                 0.0000
     10 ****         0.0239  -1.7777   0.0076 O.2            1 S1                 0.0000
     11 ****         1.5129  -0.1716   0.5856 N.am           1 S1                 0.0000
     12 ****         2.7318  -0.9250   0.3123 C.3            1 S1                 0.0000
     13 ****         3.9201  -0.2595   0.9503 C.2            1 S1                 0.0000
     14 ****         4.8975  -0.0109   0.0815 C.2            1 S1                 0.0000
     15 ****         4.5617  -0.4515  -1.3190 C.3            1 S1                 0.0000
     16 ****         4.7555   0.6787  -2.3434 C.3            1 S1                 0.0000
     17 ****         4.5242   0.1980  -3.6505 O.3            1 S1                 0.0000
     18 ****         3.0970  -0.9486  -1.1952 C.3            1 S1                 0.0000
     19 ****        -2.7728   1.3085   1.1469 C.ar           1 S1                 0.0000
     20 ****         2.6538  -1.9380   0.7113 H              1 S1                 0.0000
     21 ****         5.2199  -1.2869  -1.5618 H              1 S1                 0.0000
     22 ****        -6.0185   2.2877   1.7338 H              1 S1                 0.0000
     23 ****        -4.8652   3.2885   0.8439 H              1 S1                 0.0000
     24 ****        -4.5778   2.9057   2.5467 H              1 S1                 0.0000
     25 ****        -5.9236   0.0243   0.8756 H              1 S1                 0.0000
     26 ****        -5.7883  -2.2251  -0.0384 H              1 S1                 0.0000
     27 ****        -4.5489  -3.0782   0.8884 H              1 S1                 0.0000
     28 ****        -4.2893  -2.7258  -0.8253 H              1 S1                 0.0000
     29 ****        -0.2972   1.1758   1.0546 H              1 S1                 0.0000
     30 ****         1.6262   0.7725   0.9244 H              1 S1                 0.0000
     31 ****         3.9569  -0.0363   2.0065 H              1 S1                 0.0000
     32 ****         5.8447   0.4458   0.3284 H              1 S1                 0.0000
     33 ****         4.0822   1.5121  -2.1390 H              1 S1                 0.0000
     34 ****         5.7735   1.0662  -2.2942 H              1 S1                 0.0000
     35 ****         4.6568   0.9075  -4.2604 H              1 S1                 0.0000
     36 ****         2.9864  -1.9513  -1.6095 H              1 S1                 0.0000
     37 ****         2.4266  -0.3019  -1.7638 H              1 S1                 0.0000
     38 ****        -2.2427   2.2139   1.4062 H              1 S1                 0.0000
     39 ****        -2.2014  -1.8100   0.1631 LP             1 S1                 0.0000
     40 ****        -0.9243  -2.0767  -0.1001 LP             1 S1                 0.0000
     41 ****         0.7732  -2.4001  -0.2186 LP             1 S1                 0.0000
     42 ****         3.5855  -0.1389  -3.7244 LP             1 S1                 0.0000
     43 ****         5.1619  -0.5449  -3.8540 LP             1 S1                 0.0000
@<TRIPOS>BOND
    1    1    2 1     
    2    1   22 1     
    3    1   23 1     
    4    1   24 1     
    5    2   19 ar    
    6    2    3 ar    
    7    3    4 ar    
    8    3   25 1     
    9    4    5 1     
   10    4    6 ar    
   11    5   26 1     
   12    5   27 1     
   13    5   28 1     
   14    6    7 ar    
   15    7    8 1     
   16    7   19 ar    
   17    8    9 am    
   18    8   29 1     
   19    9   10 2     
   20    9   11 am    
   21   11   12 1     
   22   11   30 1     
   23   12   20 1     
   24   12   18 1     
   25   12   13 1     
   26   13   14 2     
   27   13   31 1     
   28   14   15 1     
   29   14   32 1     
   30   15   21 1     
   31   15   16 1     
   32   15   18 1     
   33   16   17 1     
   34   16   33 1     
   35   16   34 1     
   36   17   35 1     
   37   18   36 1     
   38   18   37 1     
   39   19   38 1     
   40    6   39 1     
   41   10   40 1     
   42   10   41 1     
   43   17   42 1     
   44   17   43 1     
@<TRIPOS>SUBSTRUCTURE
      1 S1             1
@<TRIPOS>SET
LONE_PAIRS      STATIC     ATOMS    <user>   **** ""
5 39 40 41 42 43
DONOR_HYDROGENS      STATIC     ATOMS    <user>   **** ""
3 29 30 35
ATOM$BLUE        STATIC     ATOMS    COLORGROUP SYSTEM
5 39 40 41 42 43
ATOM$RED        STATIC     ATOMS    COLORGROUP SYSTEM
3 29 30 35
