#       Name:                AV-unprocessed.smi:1264
#       Creating user name   scv26
#       Creation time:       Fri Mar 27 04:43:52 2020


#       File generated by GOLD software.
#

@<TRIPOS>MOLECULE
AV-unprocessed.smi:1264
    50    50     1
SMALL
NO_CHARGES


@<TRIPOS>ATOM
      1 ****        -3.4913   2.6186  -0.8956 C.3            1 S1                 0.0000
      2 ****        -2.8882   1.3072  -0.7150 N.am           1 S1                 0.0000
      3 ****        -1.7924   1.0769   0.0221 C.2            1 S1                 0.0000
      4 ****        -1.1920   1.9661   0.6288 O.2            1 S1                 0.0000
      5 ****        -1.3186  -0.3846   0.0997 C.3            1 S1                 0.0000
      6 ****        -1.8303  -0.9754   1.4352 C.3            1 S1                 0.0000
      7 ****        -1.4667  -2.4574   1.6837 C.3            1 S1                 0.0000
      8 ****        -2.0944  -3.4015   0.6444 C.3            1 S1                 0.0000
      9 ****        -1.8722  -2.8799   3.1042 C.3            1 S1                 0.0000
     10 ****         0.1429  -0.4279   0.0945 N.am           1 S1                 0.0000
     11 ****         0.9146  -0.4580  -1.0029 C.2            1 S1                 0.0000
     12 ****         0.4663  -0.4967  -2.1487 O.2            1 S1                 0.0000
     13 ****         2.4245  -0.4213  -0.7728 C.3            1 S1                 0.0000
     14 ****         2.9273   0.9831  -0.9867 C.2            1 S1                 0.0000
     15 ****         2.9098   2.0789  -0.0749 C.2            1 S1                 0.0000
     16 ****         2.3878   2.1287   1.3325 C.3            1 S1                 0.0000
     17 ****         3.4342   3.1705  -0.6059 N.2            1 S1                 0.0000
     18 ****         3.8160   2.8209  -1.9045 O.3            1 S1                 0.0000
     19 ****         3.5006   1.5169  -2.1078 C.2            1 S1                 0.0000
     20 ****         3.8243   0.9516  -3.4491 C.3            1 S1                 0.0000
     21 ****        -4.3472   2.5449  -1.5662 H              1 S1                 0.0000
     22 ****        -2.7770   3.3190  -1.3302 H              1 S1                 0.0000
     23 ****        -3.8373   3.0203   0.0575 H              1 S1                 0.0000
     24 ****        -3.3273   0.5266  -1.1815 H              1 S1                 0.0000
     25 ****        -1.7227  -0.9438  -0.7458 H              1 S1                 0.0000
     26 ****        -1.4393  -0.3787   2.2616 H              1 S1                 0.0000
     27 ****        -2.9158  -0.8722   1.4847 H              1 S1                 0.0000
     28 ****        -0.3836  -2.5668   1.6196 H              1 S1                 0.0000
     29 ****        -3.1802  -3.3043   0.6243 H              1 S1                 0.0000
     30 ****        -1.8588  -4.4422   0.8688 H              1 S1                 0.0000
     31 ****        -1.7207  -3.2007  -0.3595 H              1 S1                 0.0000
     32 ****        -2.9506  -2.8041   3.2479 H              1 S1                 0.0000
     33 ****        -1.3913  -2.2521   3.8547 H              1 S1                 0.0000
     34 ****        -1.5816  -3.9113   3.3067 H              1 S1                 0.0000
     35 ****         0.5999  -0.3893   0.9939 H              1 S1                 0.0000
     36 ****         2.6570  -0.7807   0.2304 H              1 S1                 0.0000
     37 ****         2.8987  -1.1232  -1.4598 H              1 S1                 0.0000
     38 ****         2.1786   1.1309   1.7174 H              1 S1                 0.0000
     39 ****         1.4630   2.7035   1.3854 H              1 S1                 0.0000
     40 ****         3.1088   2.5957   2.0041 H              1 S1                 0.0000
     41 ****         3.0882   0.2031  -3.7432 H              1 S1                 0.0000
     42 ****         4.8054   0.4766  -3.4397 H              1 S1                 0.0000
     43 ****         3.8319   1.7316  -4.2108 H              1 S1                 0.0000
     44 ****        -1.5186   2.9102   0.5840 LP             1 S1                 0.0000
     45 ****        -0.3783   1.7434   1.1658 LP             1 S1                 0.0000
     46 ****        -0.5223  -0.5071  -2.2987 LP             1 S1                 0.0000
     47 ****         1.0907  -0.5177  -2.9295 LP             1 S1                 0.0000
     48 ****         3.5367   4.0637  -0.1680 LP             1 S1                 0.0000
     49 ****         4.8015   2.9508  -2.0132 LP             1 S1                 0.0000
     50 ****         3.3296   3.3929  -2.5650 LP             1 S1                 0.0000
@<TRIPOS>BOND
    1    1    2 1     
    2    1   21 1     
    3    1   22 1     
    4    1   23 1     
    5    2    3 am    
    6    2   24 1     
    7    3    4 2     
    8    3    5 1     
    9    5    6 1     
   10    5   10 1     
   11    5   25 1     
   12    6    7 1     
   13    6   26 1     
   14    6   27 1     
   15    7    8 1     
   16    7    9 1     
   17    7   28 1     
   18    8   29 1     
   19    8   30 1     
   20    8   31 1     
   21    9   32 1     
   22    9   33 1     
   23    9   34 1     
   24   10   11 am    
   25   10   35 1     
   26   11   12 2     
   27   11   13 1     
   28   13   14 1     
   29   13   36 1     
   30   13   37 1     
   31   14   19 2     
   32   14   15 1     
   33   15   16 1     
   34   15   17 2     
   35   16   38 1     
   36   16   39 1     
   37   16   40 1     
   38   17   18 1     
   39   18   19 1     
   40   19   20 1     
   41   20   41 1     
   42   20   42 1     
   43   20   43 1     
   44    4   44 1     
   45    4   45 1     
   46   12   46 1     
   47   12   47 1     
   48   17   48 1     
   49   18   49 1     
   50   18   50 1     
@<TRIPOS>SUBSTRUCTURE
      1 S1             1
@<TRIPOS>SET
LONE_PAIRS      STATIC     ATOMS    <user>   **** ""
7 44 45 46 47 48 49 50
DONOR_HYDROGENS      STATIC     ATOMS    <user>   **** ""
2 24 35
ATOM$BLUE        STATIC     ATOMS    COLORGROUP SYSTEM
7 44 45 46 47 48 49 50
ATOM$RED        STATIC     ATOMS    COLORGROUP SYSTEM
2 24 35
