AV-unprocessed.smi:416|AV-procd|sdf|2526|dock6
  -GOLD-   2262022483D 1   1.00000     0.00000
 Structure written by MMmdl.
 43 44  0  0  0  0  0  0  0  0  1 V2000
  154.2017  129.9689  157.1300 C   0  0  0  0  0  0  0  0  0  0  0  0
  154.0070  131.1876  156.2054 C   0  0  0  0  0  0  0  0  0  0  0  0
  155.2867  132.0497  156.2321 C   0  0  0  0  0  0  0  0  0  0  0  0
  153.7718  130.6915  154.7588 C   0  0  0  0  0  0  0  0  0  0  0  0
  152.8247  132.0293  156.7448 C   0  0  0  0  0  0  0  0  0  0  0  0
  152.8756  132.4864  157.8877 O   0  0  0  0  0  0  0  0  0  0  0  0
  151.7654  132.2264  155.9408 N   0  0  0  0  0  0  0  0  0  0  0  0
  150.5546  132.9656  156.2843 C   0  0  0  0  0  0  0  0  0  0  0  0
  149.5199  132.9675  155.1707 C   0  0  0  0  0  0  0  0  0  0  0  0
  149.6910  132.1632  154.0271 C   0  0  0  0  0  0  0  0  0  0  0  0
  148.7130  132.1956  153.0147 C   0  0  0  0  0  0  0  0  0  0  0  0
  147.5865  133.0394  153.1677 C   0  0  0  0  0  0  0  0  0  0  0  0
  146.5932  133.0928  152.1647 N   0  0  0  0  0  0  0  0  0  0  0  0
  145.5119  134.0496  152.3891 C   0  0  0  0  0  0  0  0  0  0  0  0
  144.6814  134.2316  151.1071 C   0  0  0  0  0  0  0  0  0  0  0  0
  144.2126  132.9670  150.6519 O   0  0  0  0  0  0  0  0  0  0  0  0
  145.2868  132.0904  150.3297 C   0  0  0  0  0  0  0  0  0  0  0  0
  146.1376  131.8302  151.5842 C   0  0  0  0  0  0  0  0  0  0  0  0
  147.4254  133.8095  154.2722 N   0  0  0  0  0  0  0  0  0  0  0  0
  148.3656  133.7748  155.2395 C   0  0  0  0  0  0  0  0  0  0  0  0
  155.0425  129.3562  156.8029 H   0  0  0  0  0  0  0  0  0  0  0  0
  153.3173  129.3300  157.1383 H   0  0  0  0  0  0  0  0  0  0  0  0
  154.4011  130.2674  158.1602 H   0  0  0  0  0  0  0  0  0  0  0  0
  155.5341  132.3815  157.2416 H   0  0  0  0  0  0  0  0  0  0  0  0
  155.1817  132.9392  155.6093 H   0  0  0  0  0  0  0  0  0  0  0  0
  156.1460  131.4914  155.8592 H   0  0  0  0  0  0  0  0  0  0  0  0
  154.6276  130.1203  154.3975 H   0  0  0  0  0  0  0  0  0  0  0  0
  153.6252  131.5212  154.0656 H   0  0  0  0  0  0  0  0  0  0  0  0
  152.9010  130.0380  154.6900 H   0  0  0  0  0  0  0  0  0  0  0  0
  151.7985  131.8191  155.0173 H   0  0  0  0  0  0  0  0  0  0  0  0
  150.0962  132.5714  157.1927 H   0  0  0  0  0  0  0  0  0  0  0  0
  150.8458  133.9910  156.5137 H   0  0  0  0  0  0  0  0  0  0  0  0
  150.5556  131.5238  153.9246 H   0  0  0  0  0  0  0  0  0  0  0  0
  148.8321  131.5656  152.1462 H   0  0  0  0  0  0  0  0  0  0  0  0
  144.8769  133.6795  153.1950 H   0  0  0  0  0  0  0  0  0  0  0  0
  145.8887  135.0214  152.7037 H   0  0  0  0  0  0  0  0  0  0  0  0
  143.8256  134.8774  151.3033 H   0  0  0  0  0  0  0  0  0  0  0  0
  145.2722  134.7150  150.3273 H   0  0  0  0  0  0  0  0  0  0  0  0
  144.8790  131.1530  149.9516 H   0  0  0  0  0  0  0  0  0  0  0  0
  145.8933  132.5190  149.5303 H   0  0  0  0  0  0  0  0  0  0  0  0
  146.9915  131.2068  151.3159 H   0  0  0  0  0  0  0  0  0  0  0  0
  145.5525  131.2826  152.3245 H   0  0  0  0  0  0  0  0  0  0  0  0
  148.1872  134.4152  156.0903 H   0  0  0  0  0  0  0  0  0  0  0  0
  1  2  1  0  0  0  0
  1 21  1  0  0  0  0
  1 22  1  0  0  0  0
  1 23  1  0  0  0  0
  2  3  1  0  0  0  0
  2  4  1  0  0  0  0
  2  5  1  0  0  0  0
  3 24  1  0  0  0  0
  3 25  1  0  0  0  0
  3 26  1  0  0  0  0
  4 27  1  0  0  0  0
  4 28  1  0  0  0  0
  4 29  1  0  0  0  0
  5  6  2  0  0  0  0
  5  7  1  0  0  0  0
  7  8  1  0  0  0  0
  7 30  1  0  0  0  0
  8  9  1  0  0  0  0
  8 31  1  0  0  0  0
  8 32  1  0  0  0  0
  9 20  1  0  0  0  0
  9 10  2  0  0  0  0
 10 11  1  0  0  0  0
 10 33  1  0  0  0  0
 11 12  2  0  0  0  0
 11 34  1  0  0  0  0
 12 13  1  0  0  0  0
 12 19  1  0  0  0  0
 13 18  1  0  0  0  0
 13 14  1  0  0  0  0
 14 15  1  0  0  0  0
 14 35  1  0  0  0  0
 14 36  1  0  0  0  0
 15 16  1  0  0  0  0
 15 37  1  0  0  0  0
 15 38  1  0  0  0  0
 16 17  1  0  0  0  0
 17 18  1  0  0  0  0
 17 39  1  0  0  0  0
 17 40  1  0  0  0  0
 18 41  1  0  0  0  0
 18 42  1  0  0  0  0
 19 20  2  0  0  0  0
 20 43  1  0  0  0  0
M  END
> <s_m_source_file>
AV-unprocessed.smi

> <i_m_source_file_index>
416

> <i_lp_mmshare_version>
43012

> <i_f3d_flags>
0

> <s_epik_input>
W0NIM11DKFtDSDNdKShbQ0gzXSlDKD1PKVtOSF1bQ0gyXWMxW2NIXVtjSF1jKG5bY0hdMSlOMltDSDJdW0NIMl1PW0NIMl1bQ0gyXTI=

> <s_epik_cmdline>
J2VwaWtfcHl0aG9uJywgJy1waCcsICc3LjAnLCAnLXRuJywgJzgnLCAnLW1hJywgJzIwMCcsICctbWV0YWxfYmluZGluZycsICctaW1hZScsICc8aW5maWxlLm1hZT4nLCAnLW9tYWUnLCAnPG91dGZpbGUubWFlPic=

> <r_lp_tautomer_probability>
1

> <r_epik_Ionization_Penalty>
0.00522353

> <r_epik_Ionization_Penalty_Charging>
0

> <r_epik_Ionization_Penalty_Neutral>
0.00522353

> <r_epik_State_Penalty>
0.0038086

> <r_epik_Charging_Adjusted_Penalty>
0.0038086

> <i_epik_Tot_Q>
0

> <i_epik_Tot_abs_Q>
0

> <r_epik_Metal_State_Penalty>
-0

> <b_epik_Metal_Only>
0

> <s_lp_Force_Field>
OPLS_2005

> <r_lp_Energy>
22.6444

> <b_lp_Chiralities_Consistent>
1

> <s_lp_Variant>
AV-unprocessed.smi:416-1

> <Gold.Version>
5.8.1

> <Gold.Id.Protein>
6NUR|6NUR_protein|mol2

> <Gold.PLP.Fitness>
32.8322

> <Gold.PLP.PLP>
-30.0584

> <Gold.PLP.part.hbond>
-1.0000

> <Gold.PLP.part.metal>
0.0000

> <Gold.PLP.part.buried>
-3.4766

> <Gold.PLP.part.nonpolar>
-26.1395

> <Gold.PLP.part.repulsive>
1.2106

> <Gold.PLP.ligand.clash>
0.0000

> <Gold.PLP.ligand.torsion>
0.2864

> <Gold.PLP.Chemscore.Hbond>
1.0000

> <Gold.PLP.Chemscore.CHOScore>
0.0000

> <Gold.PLP.Chemscore.Metal>
0.0000

> <Gold.Chemscore.Hbonds>
donor molecule, donor type, donor heavy atom, donor atom, acceptor molecule, acceptor atom, score
      P1  H  6896  6909       L1     6  1.00

> <Gold.PLP.Chemscore.Internal.Correction>
0.3466

> <Gold.Rescore>
     Score         DG    S(hbond)    S(metal)    S(lipo)     H(rot)  DE(clash)    DE(int)     intcor
     12.67     -13.50       0.99        0.00      73.56       1.52       0.15       0.68       ----

> <Gold.Chemscore.Fitness>
12.6748

> <Gold.Chemscore.DG>
-13.5044

> <Gold.Chemscore.ZeroCoef>
-5.4800

> <Gold.Chemscore.Hbond>
0.9886

> <Gold.Chemscore.Metal>
0.0000

> <Gold.Chemscore.Lipo>
73.5625

> <Gold.Chemscore.Internal_Hbond>
0.0000

> <Gold.Chemscore.DEClash>
0.1461

> <Gold.Chemscore.DEInternal>
0.6835

> <Gold.Chemscore.Rot>
1.5173

> <Gold.Chemscore.Internal.Correction>
   9.000000E+99

> <Gold.Chemscore.Hbonds>
donor molecule, donor type, donor heavy atom, donor atom, acceptor molecule, acceptor atom, score
      P1  H  6896  6909       L1     6  0.99

> <Gold.Chemscore.Hbond.Weighted>
-3.3019

> <Gold.Chemscore.Metal.Weighted>
-0.0000

> <Gold.Chemscore.Lipo.Weighted>
-8.6068

> <Gold.Chemscore.Internal_Hbond.Weighted>
0.0000

> <Gold.Chemscore.DEClash.Weighted>
0.1461

> <Gold.Chemscore.DEInternal.Weighted>
0.6835

> <Gold.Chemscore.Rot.Weighted>
3.8843

> <Gold.Chemscore.Internal.Correction.Weighted>
   9.000000E+99

> <Gold.Protein.RotatedTorsions>
[ 6907 6896 6895 6894 ] final  -81.39 input  -60.11 | X-H torsion
[ 7974 7965 7964 7962 ] final -175.95 input  175.53 | X-H torsion
[ 8008 7997 7996 7995 ] final  152.30 input   59.86 | X-H torsion
[ 10167 10162 10161 10158 ] final    6.44 input  -65.29 | X-H torsion
[ 10718 10713 10712 10709 ] final   60.51 input   66.30 | X-H torsion
[ 10763 10752 10751 10750 ] final  129.53 input  -60.55 | X-H torsion
[ 11005 11000 10999 10996 ] final  -79.08 input  -57.11 | X-H torsion

> <Gold.Protein.ActiveResidues>
 VAL166  LYS551  ARG553  GLY616  TRP617  ASP618  TYR619  PRO620  LYS621  CYS622 
 ASP623  PHE694  ASN695  SER759  ASP760  ASP761  ALA762  ILE779  LEU786  VAL792 
 PHE793  MET794  SER795  GLU796  ALA797  LYS798  CYS799  TRP800  GLU811  SER814 

> <Gold.Protein.RotatedAtoms>
  150.6913  134.3825  159.5040 H   0  0  0  0  0  0  0  0  0  0  0  0  # atno 6907 bound_to 6896
  152.1625  134.8897  160.0549 H   0  0  0  0  0  0  0  0  0  0  0  0  # atno 6908 bound_to 6896
  151.9954  133.3771  159.4197 H   0  0  0  0  0  0  0  0  0  0  0  0  # atno 6909 bound_to 6896
  144.7127  140.1244  143.6403 H   0  0  0  0  0  0  0  0  0  0  0  0  # atno 7974 bound_to 7965
  156.2635  140.2024  156.6311 H   0  0  0  0  0  0  0  0  0  0  0  0  # atno 8008 bound_to 7997
  154.6682  140.0553  157.0161 H   0  0  0  0  0  0  0  0  0  0  0  0  # atno 8009 bound_to 7997
  155.1176  140.3221  155.4508 H   0  0  0  0  0  0  0  0  0  0  0  0  # atno 8010 bound_to 7997
  140.6427  143.7735  150.7453 H   0  0  0  0  0  0  0  0  0  0  0  0  # atno 10167 bound_to 10162
  157.5758  130.8943  149.9345 H   0  0  0  0  0  0  0  0  0  0  0  0  # atno 10718 bound_to 10713
  153.7433  135.3221  155.3308 H   0  0  0  0  0  0  0  0  0  0  0  0  # atno 10763 bound_to 10752
  154.8288  135.4550  154.1005 H   0  0  0  0  0  0  0  0  0  0  0  0  # atno 10764 bound_to 10752
  153.2186  135.6945  153.8109 H   0  0  0  0  0  0  0  0  0  0  0  0  # atno 10765 bound_to 10752
  141.1666  133.7090  156.8069 H   0  0  0  0  0  0  0  0  0  0  0  0  # atno 11005 bound_to 11000
  145.9342  139.2626  143.1307 LP  0  0  0  0  0  0  0  0  0  0  0  0  # atno 17320 bound_to 7965
  145.9491  140.8922  143.0268 LP  0  0  0  0  0  0  0  0  0  0  0  0  # atno 17321 bound_to 7965
  140.1370  143.4475  152.2218 LP  0  0  0  0  0  0  0  0  0  0  0  0  # atno 17342 bound_to 10162
  139.5637  144.7422  151.4083 LP  0  0  0  0  0  0  0  0  0  0  0  0  # atno 17343 bound_to 10162
  156.0803  130.3674  150.0594 LP  0  0  0  0  0  0  0  0  0  0  0  0  # atno 17370 bound_to 10713
  156.8740  130.9534  151.3606 LP  0  0  0  0  0  0  0  0  0  0  0  0  # atno 17371 bound_to 10713
  140.2216  134.8753  157.3383 LP  0  0  0  0  0  0  0  0  0  0  0  0  # atno 17394 bound_to 11000
  140.1982  134.4287  155.7677 LP  0  0  0  0  0  0  0  0  0  0  0  0  # atno 17395 bound_to 11000

$$$$
