#       Name:                AV-unprocessed.smi:2438
#       Creating user name   scv26
#       Creation time:       Fri Mar 27 13:23:03 2020


#       File generated by GOLD software.
#

@<TRIPOS>MOLECULE
AV-unprocessed.smi:2438
    48    49     1
SMALL
NO_CHARGES


@<TRIPOS>ATOM
      1 ****        -1.7164  -1.6706  -4.8302 C.3            1 S1                 0.0000
      2 ****        -1.0543  -0.8884  -3.7938 N.3            1 S1                 0.0000
      3 ****        -1.7612   0.3023  -3.3418 C.3            1 S1                 0.0000
      4 ****         0.3318  -0.6865  -3.9506 C.ar           1 S1                 0.0000
      5 ****         0.8202  -0.5735  -5.2099 N.ar           1 S1                 0.0000
      6 ****         2.1292  -0.3567  -5.3479 C.ar           1 S1                 0.0000
      7 ****         3.0257  -0.2419  -4.3681 N.ar           1 S1                 0.0000
      8 ****         2.5625  -0.3537  -3.1058 C.ar           1 S1                 0.0000
      9 ****         1.1917  -0.5751  -2.8267 C.ar           1 S1                 0.0000
     10 ****         0.6891  -0.7558  -1.5092 N.am           1 S1                 0.0000
     11 ****         1.1432  -0.1959  -0.3767 C.2            1 S1                 0.0000
     12 ****         2.0792   0.6008  -0.3085 O.2            1 S1                 0.0000
     13 ****         0.4233  -0.5939   0.6814 N.am           1 S1                 0.0000
     14 ****         0.6121  -0.1381   2.0552 C.3            1 S1                 0.0000
     15 ****         0.2679  -1.2799   3.0277 C.3            1 S1                 0.0000
     16 ****         0.3739  -0.8191   4.4885 C.3            1 S1                 0.0000
     17 ****        -0.5115   0.4090   4.7498 C.3            1 S1                 0.0000
     18 ****        -0.1679   1.5716   3.7950 C.3            1 S1                 0.0000
     19 ****        -1.0426   2.8144   4.0608 C.3            1 S1                 0.0000
     20 ****        -2.3308   2.5418   3.8504 F              1 S1                 0.0000
     21 ****        -0.8886   3.2207   5.3210 F              1 S1                 0.0000
     22 ****        -0.6766   3.8113   3.2552 F              1 S1                 0.0000
     23 ****        -0.2642   1.1013   2.3276 C.3            1 S1                 0.0000
     24 ****        -1.1447  -2.5695  -5.0650 H              1 S1                 0.0000
     25 ****        -1.8370  -1.0861  -5.7432 H              1 S1                 0.0000
     26 ****        -2.7052  -1.9820  -4.4928 H              1 S1                 0.0000
     27 ****        -1.2916   0.7476  -2.4647 H              1 S1                 0.0000
     28 ****        -2.7900   0.0550  -3.0789 H              1 S1                 0.0000
     29 ****        -1.7837   1.0531  -4.1326 H              1 S1                 0.0000
     30 ****         2.5014  -0.2685  -6.3578 H              1 S1                 0.0000
     31 ****         3.3060  -0.2934  -2.3255 H              1 S1                 0.0000
     32 ****        -0.1581  -1.3004  -1.4367 H              1 S1                 0.0000
     33 ****        -0.3264  -1.2510   0.5226 H              1 S1                 0.0000
     34 ****         1.6592   0.1302   2.2096 H              1 S1                 0.0000
     35 ****        -0.7444  -1.6390   2.8358 H              1 S1                 0.0000
     36 ****         0.9338  -2.1274   2.8606 H              1 S1                 0.0000
     37 ****         0.0872  -1.6327   5.1554 H              1 S1                 0.0000
     38 ****         1.4119  -0.5789   4.7229 H              1 S1                 0.0000
     39 ****        -1.5597   0.1312   4.6331 H              1 S1                 0.0000
     40 ****        -0.3914   0.7260   5.7859 H              1 S1                 0.0000
     41 ****         0.8686   1.8572   3.9821 H              1 S1                 0.0000
     42 ****         0.0338   1.9112   1.6609 H              1 S1                 0.0000
     43 ****        -1.3035   0.8736   2.0866 H              1 S1                 0.0000
     44 ****        -1.1202  -1.5248  -3.0253 LP             1 S1                 0.0000
     45 ****         0.2209  -0.6499  -6.0068 LP             1 S1                 0.0000
     46 ****         3.9939  -0.0808  -4.5593 LP             1 S1                 0.0000
     47 ****         2.5630   0.8761  -1.1393 LP             1 S1                 0.0000
     48 ****         2.3556   0.9727   0.5776 LP             1 S1                 0.0000
@<TRIPOS>BOND
    1    1    2 1     
    2    1   24 1     
    3    1   25 1     
    4    1   26 1     
    5    2    3 1     
    6    2    4 1     
    7    3   27 1     
    8    3   28 1     
    9    3   29 1     
   10    4    9 ar    
   11    4    5 ar    
   12    5    6 ar    
   13    6    7 ar    
   14    6   30 1     
   15    7    8 ar    
   16    8    9 ar    
   17    8   31 1     
   18    9   10 1     
   19   10   11 am    
   20   10   32 1     
   21   11   12 2     
   22   11   13 am    
   23   13   14 1     
   24   13   33 1     
   25   14   23 1     
   26   14   15 1     
   27   14   34 1     
   28   15   16 1     
   29   15   35 1     
   30   15   36 1     
   31   16   17 1     
   32   16   37 1     
   33   16   38 1     
   34   17   18 1     
   35   17   39 1     
   36   17   40 1     
   37   18   19 1     
   38   18   23 1     
   39   18   41 1     
   40   19   20 1     
   41   19   21 1     
   42   19   22 1     
   43   23   42 1     
   44   23   43 1     
   45    2   44 1     
   46    5   45 1     
   47    7   46 1     
   48   12   47 1     
   49   12   48 1     
@<TRIPOS>SUBSTRUCTURE
      1 S1             1
@<TRIPOS>SET
LONE_PAIRS      STATIC     ATOMS    <user>   **** ""
5 44 45 46 47 48
DONOR_HYDROGENS      STATIC     ATOMS    <user>   **** ""
2 32 33
ATOM$BLUE        STATIC     ATOMS    COLORGROUP SYSTEM
5 44 45 46 47 48
ATOM$RED        STATIC     ATOMS    COLORGROUP SYSTEM
2 32 33
