#       Name:                AV-unprocessed.smi:1491
#       Creating user name   scv26
#       Creation time:       Fri Mar 27 06:14:02 2020


#       File generated by GOLD software.
#

@<TRIPOS>MOLECULE
AV-unprocessed.smi:1491
    43    44     1
SMALL
NO_CHARGES


@<TRIPOS>ATOM
      1 ****         1.5722   0.9117  -0.2109 O.2            1 S1                 0.0000
      2 ****         1.1459  -0.1955  -0.5399 C.2            1 S1                 0.0000
      3 ****         1.9204  -1.2719  -0.7367 N.am           1 S1                 0.0000
      4 ****         3.3672  -1.3141  -0.5442 C.3            1 S1                 0.0000
      5 ****         3.7457  -1.9042   0.8267 C.3            1 S1                 0.0000
      6 ****         3.3424  -1.0545   1.9317 N.pl3          1 S1                 0.0000
      7 ****         2.2560  -1.2378   2.7775 C.2            1 S1                 0.0000
      8 ****         2.2665  -0.1853   3.6645 C.2            1 S1                 0.0000
      9 ****         3.3464   0.6498   3.3883 N.2            1 S1                 0.0000
     10 ****         3.9369   0.0710   2.3506 C.2            1 S1                 0.0000
     11 ****        -0.1506  -0.4762  -0.7304 N.am           1 S1                 0.0000
     12 ****        -1.2503   0.4691  -0.5654 C.3            1 S1                 0.0000
     13 ****        -2.5096  -0.2805  -0.0950 C.3            1 S1                 0.0000
     14 ****        -3.7122   0.6693   0.0434 C.3            1 S1                 0.0000
     15 ****        -3.9870   1.4551  -1.2525 C.3            1 S1                 0.0000
     16 ****        -4.4858   0.5851  -2.2492 O.3            1 S1                 0.0000
     17 ****        -2.7209   2.1712  -1.7599 C.3            1 S1                 0.0000
     18 ****        -1.5200   1.2173  -1.8857 C.3            1 S1                 0.0000
     19 ****         1.4730  -2.1345  -1.0098 H              1 S1                 0.0000
     20 ****         3.7843  -1.9416  -1.3319 H              1 S1                 0.0000
     21 ****         3.8147  -0.3274  -0.6757 H              1 S1                 0.0000
     22 ****         3.2965  -2.8898   0.9563 H              1 S1                 0.0000
     23 ****         4.8258  -2.0436   0.8844 H              1 S1                 0.0000
     24 ****         1.5805  -2.0745   2.6766 H              1 S1                 0.0000
     25 ****         1.5854   0.0334   4.4737 H              1 S1                 0.0000
     26 ****         4.8211   0.4770   1.8816 H              1 S1                 0.0000
     27 ****        -0.3988  -1.4173  -0.9986 H              1 S1                 0.0000
     28 ****        -0.9869   1.1976   0.2042 H              1 S1                 0.0000
     29 ****        -2.7536  -1.0762  -0.8005 H              1 S1                 0.0000
     30 ****        -2.3181  -0.7670   0.8622 H              1 S1                 0.0000
     31 ****        -4.5995   0.1103   0.3424 H              1 S1                 0.0000
     32 ****        -3.5122   1.3750   0.8506 H              1 S1                 0.0000
     33 ****        -4.7637   2.1962  -1.0609 H              1 S1                 0.0000
     34 ****        -4.6890   1.0947  -3.0186 H              1 S1                 0.0000
     35 ****        -2.9169   2.6548  -2.7176 H              1 S1                 0.0000
     36 ****        -2.4634   2.9707  -1.0640 H              1 S1                 0.0000
     37 ****        -0.6363   1.7831  -2.1831 H              1 S1                 0.0000
     38 ****        -1.7079   0.4994  -2.6853 H              1 S1                 0.0000
     39 ****         2.5532   1.0493  -0.0739 LP             1 S1                 0.0000
     40 ****         0.9375   1.6734  -0.0806 LP             1 S1                 0.0000
     41 ****         3.6141   1.4892   3.8614 LP             1 S1                 0.0000
     42 ****        -5.3127   0.1311  -1.9174 LP             1 S1                 0.0000
     43 ****        -3.7950  -0.1025  -2.4729 LP             1 S1                 0.0000
@<TRIPOS>BOND
    1    1    2 2     
    2    2    3 am    
    3    2   11 am    
    4    3    4 1     
    5    3   19 1     
    6    4    5 1     
    7    4   20 1     
    8    4   21 1     
    9    5    6 1     
   10    5   22 1     
   11    5   23 1     
   12    6   10 1     
   13    6    7 1     
   14    7    8 2     
   15    7   24 1     
   16    8    9 1     
   17    8   25 1     
   18    9   10 2     
   19   10   26 1     
   20   11   12 1     
   21   11   27 1     
   22   12   18 1     
   23   12   13 1     
   24   12   28 1     
   25   13   14 1     
   26   13   29 1     
   27   13   30 1     
   28   14   15 1     
   29   14   31 1     
   30   14   32 1     
   31   15   16 1     
   32   15   17 1     
   33   15   33 1     
   34   16   34 1     
   35   17   18 1     
   36   17   35 1     
   37   17   36 1     
   38   18   37 1     
   39   18   38 1     
   40    1   39 1     
   41    1   40 1     
   42    9   41 1     
   43   16   42 1     
   44   16   43 1     
@<TRIPOS>SUBSTRUCTURE
      1 S1             1
@<TRIPOS>SET
LONE_PAIRS      STATIC     ATOMS    <user>   **** ""
5 39 40 41 42 43
DONOR_HYDROGENS      STATIC     ATOMS    <user>   **** ""
3 19 27 34
ATOM$BLUE        STATIC     ATOMS    COLORGROUP SYSTEM
5 39 40 41 42 43
ATOM$RED        STATIC     ATOMS    COLORGROUP SYSTEM
3 19 27 34
