AV-unprocessed.smi:2731|AV-procd|sdf|10531|dock7
  -GOLD-   2272014573D 1   1.00000     0.00000
 Structure written by MMmdl.
 46 47  0  0  0  0  0  0  0  0  2 V2000
  143.3430  134.3952  152.8739 C   0  0  0  0  0  0  0  0  0  0  0  0
  143.9616  133.7499  151.6802 C   0  0  0  0  0  0  0  0  0  0  0  0
  143.3287  133.5728  150.4898 N   0  3  0  0  0  0  0  0  0  0  0  0
  144.1374  132.9472  149.6226 N   0  0  0  0  0  0  0  0  0  0  0  0
  143.6425  132.6576  148.2764 C   0  0  0  0  0  0  0  0  0  0  0  0
  145.3428  132.6892  150.2060 C   0  0  0  0  0  0  0  0  0  0  0  0
  146.4856  131.9928  149.5410 C   0  0  0  0  0  0  0  0  0  0  0  0
  145.2321  133.1884  151.5104 C   0  0  0  0  0  0  0  0  0  0  0  0
  146.2952  133.1091  152.5734 C   0  0  0  0  0  0  0  0  0  0  0  0
  147.7337  133.1853  152.0225 C   0  0  0  0  0  0  0  0  0  0  0  0
  148.7265  133.3757  153.0779 N   0  0  0  0  0  0  0  0  0  0  0  0
  149.1866  132.4139  153.8933 C   0  0  0  0  0  0  0  0  0  0  0  0
  148.7799  131.2513  153.8581 O   0  0  0  0  0  0  0  0  0  0  0  0
  150.2838  132.8355  154.8793 C   0  0  0  0  0  0  0  0  0  0  0  0
  150.7571  131.7196  155.7093 N   0  0  0  0  0  0  0  0  0  0  0  0
  151.3237  130.5584  155.0117 C   0  0  0  0  0  0  0  0  0  0  0  0
  150.7078  129.2527  155.5425 C   0  0  0  0  0  0  0  0  0  0  0  0
  150.7936  129.1437  157.0786 C   0  0  0  0  0  0  0  0  0  0  0  0
  151.1477  130.4674  157.7926 C   0  0  0  0  0  0  0  0  0  0  0  0
  150.6249  131.7072  157.0559 C   0  0  0  0  0  0  0  0  0  0  0  0
  150.1261  132.6295  157.7003 O   0  0  0  0  0  0  0  0  0  0  0  0
  143.0538  133.6362  153.6009 H   0  0  0  0  0  0  0  0  0  0  0  0
  142.4549  134.9597  152.5885 H   0  0  0  0  0  0  0  0  0  0  0  0
  144.0501  135.0779  153.3446 H   0  0  0  0  0  0  0  0  0  0  0  0
  144.0191  133.4152  147.5889 H   0  0  0  0  0  0  0  0  0  0  0  0
  142.5516  132.6647  148.2689 H   0  0  0  0  0  0  0  0  0  0  0  0
  143.9954  131.6740  147.9661 H   0  0  0  0  0  0  0  0  0  0  0  0
  146.5405  130.9587  149.8808 H   0  0  0  0  0  0  0  0  0  0  0  0
  147.4249  132.4891  149.7833 H   0  0  0  0  0  0  0  0  0  0  0  0
  146.3706  131.9974  148.4572 H   0  0  0  0  0  0  0  0  0  0  0  0
  146.1572  133.9075  153.3025 H   0  0  0  0  0  0  0  0  0  0  0  0
  146.1827  132.1838  153.1391 H   0  0  0  0  0  0  0  0  0  0  0  0
  147.9709  132.2614  151.4946 H   0  0  0  0  0  0  0  0  0  0  0  0
  147.8098  133.9821  151.2808 H   0  0  0  0  0  0  0  0  0  0  0  0
  149.1059  134.3058  153.1828 H   0  0  0  0  0  0  0  0  0  0  0  0
  151.1266  133.2502  154.3242 H   0  0  0  0  0  0  0  0  0  0  0  0
  149.9073  133.6533  155.4958 H   0  0  0  0  0  0  0  0  0  0  0  0
  151.1541  130.6288  153.9368 H   0  0  0  0  0  0  0  0  0  0  0  0
  152.4051  130.5526  155.1552 H   0  0  0  0  0  0  0  0  0  0  0  0
  149.6585  129.2212  155.2449 H   0  0  0  0  0  0  0  0  0  0  0  0
  151.1806  128.3892  155.0741 H   0  0  0  0  0  0  0  0  0  0  0  0
  149.8483  128.7595  157.4637 H   0  0  0  0  0  0  0  0  0  0  0  0
  151.5439  128.3982  157.3435 H   0  0  0  0  0  0  0  0  0  0  0  0
  150.7787  130.4532  158.8189 H   0  0  0  0  0  0  0  0  0  0  0  0
  152.2321  130.5655  157.8572 H   0  0  0  0  0  0  0  0  0  0  0  0
  142.3884  133.8413  150.2287 H   0  0  0  0  0  0  0  0  0  0  0  0
  1  2  1  0  0  0  0
  1 22  1  0  0  0  0
  1 23  1  0  0  0  0
  1 24  1  0  0  0  0
  2  8  1  0  0  0  0
  2  3  2  0  0  0  0
  3  4  1  0  0  0  0
  3 46  1  0  0  0  0
  4  5  1  0  0  0  0
  4  6  1  0  0  0  0
  5 25  1  0  0  0  0
  5 26  1  0  0  0  0
  5 27  1  0  0  0  0
  6  7  1  0  0  0  0
  6  8  2  0  0  0  0
  7 28  1  0  0  0  0
  7 29  1  0  0  0  0
  7 30  1  0  0  0  0
  8  9  1  0  0  0  0
  9 10  1  0  0  0  0
  9 31  1  0  0  0  0
  9 32  1  0  0  0  0
 10 11  1  0  0  0  0
 10 33  1  0  0  0  0
 10 34  1  0  0  0  0
 11 12  1  0  0  0  0
 11 35  1  0  0  0  0
 12 13  2  0  0  0  0
 12 14  1  0  0  0  0
 14 15  1  0  0  0  0
 14 36  1  0  0  0  0
 14 37  1  0  0  0  0
 15 20  1  0  0  0  0
 15 16  1  0  0  0  0
 16 17  1  0  0  0  0
 16 38  1  0  0  0  0
 16 39  1  0  0  0  0
 17 18  1  0  0  0  0
 17 40  1  0  0  0  0
 17 41  1  0  0  0  0
 18 19  1  0  0  0  0
 18 42  1  0  0  0  0
 18 43  1  0  0  0  0
 19 20  1  0  0  0  0
 19 44  1  0  0  0  0
 19 45  1  0  0  0  0
 20 21  2  0  0  0  0
M  CHG  1   3   1
M  END
> <s_m_source_file>
AV-unprocessed.smi

> <i_m_source_file_index>
2731

> <i_lp_mmshare_version>
43012

> <i_f3d_flags>
0

> <s_epik_input>
W0NIM11jMW5uKFtDSDNdKWMoW0NIM10pYzFbQ0gyXVtDSDJdW05IXUMoPU8pW0NIMl1OMltDSDJdW0NIMl1bQ0gyXVtDSDJdQzI9Tw==

> <s_epik_cmdline>
J2VwaWtfcHl0aG9uJywgJy1waCcsICc3LjAnLCAnLXRuJywgJzgnLCAnLW1hJywgJzIwMCcsICctbWV0YWxfYmluZGluZycsICctaW1hZScsICc8aW5maWxlLm1hZT4nLCAnLW9tYWUnLCAnPG91dGZpbGUubWFlPic=

> <r_lp_tautomer_probability>
1

> <r_epik_Ionization_Penalty>
2.35701

> <r_epik_Ionization_Penalty_Charging>
2.357

> <r_epik_Ionization_Penalty_Neutral>
2.49505e-07

> <r_epik_State_Penalty>
2.51177

> <r_epik_Charging_Adjusted_Penalty>
4.86877

> <i_epik_Tot_Q>
1

> <i_epik_Tot_abs_Q>
1

> <r_epik_Metal_State_Penalty>
2.52284

> <b_epik_Metal_Only>
0

> <s_lp_Force_Field>
OPLS_2005

> <r_lp_Energy>
19.064

> <b_lp_Chiralities_Consistent>
1

> <s_lp_Variant>
AV-unprocessed.smi:2731-2

> <Gold.Version>
5.8.1

> <Gold.Id.Protein>
6NUR|6NUR_protein|mol2

> <Gold.PLP.Fitness>
45.2190

> <Gold.PLP.PLP>
-36.3194

> <Gold.PLP.part.hbond>
-3.0000

> <Gold.PLP.part.metal>
0.0000

> <Gold.PLP.part.buried>
-2.1158

> <Gold.PLP.part.nonpolar>
-31.0661

> <Gold.PLP.part.repulsive>
0.0836

> <Gold.PLP.ligand.clash>
0.0000

> <Gold.PLP.ligand.torsion>
0.5318

> <Gold.PLP.Chemscore.Hbond>
3.3123

> <Gold.PLP.Chemscore.CHOScore>
0.0000

> <Gold.PLP.Chemscore.Metal>
0.0000

> <Gold.Chemscore.Hbonds>
donor molecule, donor type, donor heavy atom, donor atom, acceptor molecule, acceptor atom, score
      L1  H     3    46       P1 10186  2.00
      L1  H    11    35       P1  7948  0.09
      P1  H  6896  6908       L1    21  1.00

> <Gold.PLP.Chemscore.Internal.Correction>
0.0262

> <Gold.Rescore>
     Score         DG    S(hbond)    S(metal)    S(lipo)     H(rot)  DE(clash)    DE(int)     intcor
     13.24     -17.04       1.97        0.00      83.03       1.85       0.91       2.90       ----

> <Gold.Chemscore.Fitness>
13.2353

> <Gold.Chemscore.DG>
-17.0426

> <Gold.Chemscore.ZeroCoef>
-5.4800

> <Gold.Chemscore.Hbond>
1.9713

> <Gold.Chemscore.Metal>
0.0000

> <Gold.Chemscore.Lipo>
83.0323

> <Gold.Chemscore.Internal_Hbond>
0.0000

> <Gold.Chemscore.DEClash>
0.9052

> <Gold.Chemscore.DEInternal>
2.9021

> <Gold.Chemscore.Rot>
1.8501

> <Gold.Chemscore.Internal.Correction>
   9.000000E+99

> <Gold.Chemscore.Hbonds>
donor molecule, donor type, donor heavy atom, donor atom, acceptor molecule, acceptor atom, score
      L1  H     3    46       P1 10186  0.99
      P1  H  6896  6908       L1    21  0.96

> <Gold.Chemscore.Hbond.Weighted>
-6.5840

> <Gold.Chemscore.Metal.Weighted>
-0.0000

> <Gold.Chemscore.Lipo.Weighted>
-9.7148

> <Gold.Chemscore.Internal_Hbond.Weighted>
0.0000

> <Gold.Chemscore.DEClash.Weighted>
0.9052

> <Gold.Chemscore.DEInternal.Weighted>
2.9021

> <Gold.Chemscore.Rot.Weighted>
4.7362

> <Gold.Chemscore.Internal.Correction.Weighted>
   9.000000E+99

> <Gold.Protein.RotatedTorsions>
[ 6907 6896 6895 6894 ] final   92.94 input  -60.11 | X-H torsion
[ 7974 7965 7964 7962 ] final -142.88 input  175.53 | X-H torsion
[ 8008 7997 7996 7995 ] final  -42.10 input   59.86 | X-H torsion
[ 10167 10162 10161 10158 ] final  -84.82 input  -65.29 | X-H torsion
[ 10718 10713 10712 10709 ] final   48.24 input   66.30 | X-H torsion
[ 10763 10752 10751 10750 ] final  142.54 input  -60.55 | X-H torsion
[ 11005 11000 10999 10996 ] final  -19.79 input  -57.11 | X-H torsion

> <Gold.Protein.ActiveResidues>
 VAL166  LYS551  ARG553  GLY616  TRP617  ASP618  TYR619  PRO620  LYS621  CYS622 
 ASP623  PHE694  ASN695  SER759  ASP760  ASP761  ALA762  ILE779  LEU786  VAL792 
 PHE793  MET794  SER795  GLU796  ALA797  LYS798  CYS799  TRP800  GLU811  SER814 

> <Gold.Protein.RotatedAtoms>
  152.5453  134.1424  159.8484 H   0  0  0  0  0  0  0  0  0  0  0  0  # atno 6907 bound_to 6896
  151.1458  133.4933  159.2603 H   0  0  0  0  0  0  0  0  0  0  0  0  # atno 6908 bound_to 6896
  151.1524  135.0244  159.8729 H   0  0  0  0  0  0  0  0  0  0  0  0  # atno 6909 bound_to 6896
  144.8411  140.5904  143.5452 H   0  0  0  0  0  0  0  0  0  0  0  0  # atno 7974 bound_to 7965
  154.4000  140.1482  156.3299 H   0  0  0  0  0  0  0  0  0  0  0  0  # atno 8008 bound_to 7997
  155.8452  140.3460  155.5636 H   0  0  0  0  0  0  0  0  0  0  0  0  # atno 8009 bound_to 7997
  155.8043  140.0875  157.1930 H   0  0  0  0  0  0  0  0  0  0  0  0  # atno 8010 bound_to 7997
  140.4096  143.2628  151.9035 H   0  0  0  0  0  0  0  0  0  0  0  0  # atno 10167 bound_to 10162
  157.4666  130.8229  149.7943 H   0  0  0  0  0  0  0  0  0  0  0  0  # atno 10718 bound_to 10713
  153.9575  135.2963  155.3435 H   0  0  0  0  0  0  0  0  0  0  0  0  # atno 10763 bound_to 10752
  154.7393  135.5032  153.9098 H   0  0  0  0  0  0  0  0  0  0  0  0  # atno 10764 bound_to 10752
  153.0963  135.6722  153.9867 H   0  0  0  0  0  0  0  0  0  0  0  0  # atno 10765 bound_to 10752
  140.8401  133.7932  155.9852 H   0  0  0  0  0  0  0  0  0  0  0  0  # atno 11005 bound_to 11000
  145.4693  139.1505  143.3823 LP  0  0  0  0  0  0  0  0  0  0  0  0  # atno 17320 bound_to 7965
  146.2703  140.4826  142.8817 LP  0  0  0  0  0  0  0  0  0  0  0  0  # atno 17321 bound_to 7965
  139.4783  144.5550  151.8327 LP  0  0  0  0  0  0  0  0  0  0  0  0  # atno 17342 bound_to 10162
  140.4652  144.1666  150.5911 LP  0  0  0  0  0  0  0  0  0  0  0  0  # atno 17343 bound_to 10162
  156.0053  130.3858  150.2453 LP  0  0  0  0  0  0  0  0  0  0  0  0  # atno 17370 bound_to 10713
  157.0633  131.0096  151.3215 LP  0  0  0  0  0  0  0  0  0  0  0  0  # atno 17371 bound_to 10713
  140.8904  134.2502  157.5097 LP  0  0  0  0  0  0  0  0  0  0  0  0  # atno 17394 bound_to 11000
  139.8703  134.9658  156.4543 LP  0  0  0  0  0  0  0  0  0  0  0  0  # atno 17395 bound_to 11000

$$$$
