AV-unprocessed.smi:1575|AV-procd|sdf|6341|dock6
  -GOLD-   22720 6563D 1   1.00000     0.00000
 Structure written by MMmdl.
 40 40  0  0  0  0  0  0  0  0  2 V2000
  148.8013  133.8033  155.2771 C   0  0  0  0  0  0  0  0  0  0  0  0
  148.0105  134.7469  154.5024 N   0  0  0  0  0  0  0  0  0  0  0  0
  146.8993  135.3478  154.9517 C   0  0  0  0  0  0  0  0  0  0  0  0
  146.4424  135.1579  156.0804 O   0  0  0  0  0  0  0  0  0  0  0  0
  146.2165  136.3271  153.9817 C   0  0  2  0  0  0  0  0  0  0  0  0
  145.8112  135.5381  152.7130 C   0  0  0  0  0  0  0  0  0  0  0  0
  145.1737  136.3793  151.5818 C   0  0  0  0  0  0  0  0  0  0  0  0
  143.8822  137.0851  152.0262 C   0  0  0  0  0  0  0  0  0  0  0  0
  144.9121  135.5082  150.3440 C   0  0  0  0  0  0  0  0  0  0  0  0
  147.1448  137.3842  153.5900 N   0  0  0  0  0  0  0  0  0  0  0  0
  146.9645  138.7040  153.7657 C   0  0  0  0  0  0  0  0  0  0  0  0
  145.9831  139.1730  154.3416 O   0  0  0  0  0  0  0  0  0  0  0  0
  148.0355  139.6551  153.2043 C   0  0  0  0  0  0  0  0  0  0  0  0
  149.2950  139.6808  153.9719 N   0  0  0  0  0  0  0  0  0  0  0  0
  149.8926  138.4475  154.2866 C   0  0  0  0  0  0  0  0  0  0  0  0
  151.0548  138.3732  154.9628 C   0  0  0  0  0  0  0  0  0  0  0  0
  151.6965  139.6165  155.3718 C   0  0  0  0  0  0  0  0  0  0  0  0
  152.7588  139.5678  155.9889 O   0  0  0  0  0  0  0  0  0  0  0  0
  151.0773  140.7881  155.0435 N   0  5  0  0  0  0  0  0  0  0  0  0
  149.8961  140.8487  154.3540 C   0  0  0  0  0  0  0  0  0  0  0  0
  149.3612  141.9171  154.0566 O   0  0  0  0  0  0  0  0  0  0  0  0
  149.6235  133.4227  154.6715 H   0  0  0  0  0  0  0  0  0  0  0  0
  148.1937  132.9563  155.5987 H   0  0  0  0  0  0  0  0  0  0  0  0
  149.2225  134.2855  156.1602 H   0  0  0  0  0  0  0  0  0  0  0  0
  148.3237  134.9547  153.5653 H   0  0  0  0  0  0  0  0  0  0  0  0
  145.3357  136.7615  154.4573 H   0  0  0  0  0  0  0  0  0  0  0  0
  146.6923  135.0349  152.3095 H   0  0  0  0  0  0  0  0  0  0  0  0
  145.1178  134.7423  152.9901 H   0  0  0  0  0  0  0  0  0  0  0  0
  145.8821  137.1499  151.2754 H   0  0  0  0  0  0  0  0  0  0  0  0
  143.1433  136.3703  152.3893 H   0  0  0  0  0  0  0  0  0  0  0  0
  143.4338  137.6355  151.1987 H   0  0  0  0  0  0  0  0  0  0  0  0
  144.0725  137.8060  152.8209 H   0  0  0  0  0  0  0  0  0  0  0  0
  144.2035  134.7091  150.5637 H   0  0  0  0  0  0  0  0  0  0  0  0
  145.8332  135.0482  149.9849 H   0  0  0  0  0  0  0  0  0  0  0  0
  144.5033  136.1008  149.5251 H   0  0  0  0  0  0  0  0  0  0  0  0
  147.9829  137.0913  153.1084 H   0  0  0  0  0  0  0  0  0  0  0  0
  148.2350  139.3823  152.1666 H   0  0  0  0  0  0  0  0  0  0  0  0
  147.6042  140.6558  153.1558 H   0  0  0  0  0  0  0  0  0  0  0  0
  149.3574  137.5753  153.9411 H   0  0  0  0  0  0  0  0  0  0  0  0
  151.5028  137.4179  155.1935 H   0  0  0  0  0  0  0  0  0  0  0  0
  1  2  1  0  0  0  0
  1 22  1  0  0  0  0
  1 23  1  0  0  0  0
  1 24  1  0  0  0  0
  2  3  1  0  0  0  0
  2 25  1  0  0  0  0
  3  4  2  0  0  0  0
  3  5  1  0  0  0  0
  5  6  1  0  0  0  0
  5 10  1  0  0  0  0
  5 26  1  0  0  0  0
  6  7  1  0  0  0  0
  6 27  1  0  0  0  0
  6 28  1  0  0  0  0
  7  8  1  0  0  0  0
  7  9  1  0  0  0  0
  7 29  1  0  0  0  0
  8 30  1  0  0  0  0
  8 31  1  0  0  0  0
  8 32  1  0  0  0  0
  9 33  1  0  0  0  0
  9 34  1  0  0  0  0
  9 35  1  0  0  0  0
 10 11  1  0  0  0  0
 10 36  1  0  0  0  0
 11 12  2  0  0  0  0
 11 13  1  0  0  0  0
 13 14  1  0  0  0  0
 13 37  1  0  0  0  0
 13 38  1  0  0  0  0
 14 20  1  0  0  0  0
 14 15  1  0  0  0  0
 15 16  2  0  0  0  0
 15 39  1  0  0  0  0
 16 17  1  0  0  0  0
 16 40  1  0  0  0  0
 17 18  2  0  0  0  0
 17 19  1  0  0  0  0
 19 20  1  0  0  0  0
 20 21  2  0  0  0  0
M  CHG  1  19  -1
M  END
> <s_m_source_file>
AV-unprocessed.smi

> <i_m_source_file_index>
1575

> <i_lp_mmshare_version>
43012

> <i_f3d_flags>
0

> <s_epik_input>
W0NIM11bTkhdQyg9TylbQ0BIXShbQ0gyXVtDSF0oW0NIM10pW0NIM10pW05IXUMoPU8pW0NIMl1uMVtjSF1bY0hdYyg9TylbbkhdYzE9Tw==

> <s_epik_cmdline>
J2VwaWtfcHl0aG9uJywgJy1waCcsICc3LjAnLCAnLXRuJywgJzgnLCAnLW1hJywgJzIwMCcsICctbWV0YWxfYmluZGluZycsICctaW1hZScsICc8aW5maWxlLm1hZT4nLCAnLW9tYWUnLCAnPG91dGZpbGUubWFlPic=

> <r_lp_tautomer_probability>
0.999537

> <r_epik_Ionization_Penalty>
3.03017

> <r_epik_Ionization_Penalty_Charging>
2.35557e-08

> <r_epik_Ionization_Penalty_Neutral>
3.03017

> <r_epik_State_Penalty>
3.02913

> <r_epik_Charging_Adjusted_Penalty>
3.02913

> <i_epik_Tot_Q>
-1

> <i_epik_Tot_abs_Q>
1

> <r_epik_Metal_State_Penalty>
0.455824

> <b_epik_Metal_Only>
1

> <s_lp_Force_Field>
OPLS_2005

> <r_lp_Energy>
14.6611

> <b_lp_Chiralities_Consistent>
1

> <s_lp_Variant>
AV-unprocessed.smi:1575-3

> <Gold.Version>
5.8.1

> <Gold.Id.Protein>
6NUR|6NUR_protein|mol2

> <Gold.PLP.Fitness>
44.9512

> <Gold.PLP.PLP>
-32.6498

> <Gold.PLP.part.hbond>
-4.0000

> <Gold.PLP.part.metal>
0.0000

> <Gold.PLP.part.buried>
-0.9751

> <Gold.PLP.part.nonpolar>
-27.3740

> <Gold.PLP.part.repulsive>
0.2628

> <Gold.PLP.ligand.clash>
0.0000

> <Gold.PLP.ligand.torsion>
0.2855

> <Gold.PLP.Chemscore.Hbond>
3.2750

> <Gold.PLP.Chemscore.CHOScore>
1.0000

> <Gold.PLP.Chemscore.Metal>
0.0000

> <Gold.Chemscore.Hbonds>
donor molecule, donor type, donor heavy atom, donor atom, acceptor molecule, acceptor atom, score
      L1  H     2    25       P1  7948  0.59
      L1  H    10    36       P1  7948  1.00
      P1  H  7997  8010       L1    18  1.00
      P1  H  8011  8017       L1    21  0.45
      L1  C    15    39       P1  7948  1.00

> <Gold.PLP.Chemscore.Internal.Correction>
0.0474

> <Gold.Rescore>
     Score         DG    S(hbond)    S(metal)    S(lipo)     H(rot)  DE(clash)    DE(int)     intcor
     12.11     -12.65       2.64        0.00      46.06       2.74       0.04       0.49       ----

> <Gold.Chemscore.Fitness>
12.1135

> <Gold.Chemscore.DG>
-12.6505

> <Gold.Chemscore.ZeroCoef>
-5.4800

> <Gold.Chemscore.Hbond>
2.6361

> <Gold.Chemscore.Metal>
0.0000

> <Gold.Chemscore.Lipo>
46.0604

> <Gold.Chemscore.Internal_Hbond>
0.0000

> <Gold.Chemscore.DEClash>
0.0425

> <Gold.Chemscore.DEInternal>
0.4945

> <Gold.Chemscore.Rot>
2.7435

> <Gold.Chemscore.Internal.Correction>
   9.000000E+99

> <Gold.Chemscore.Hbonds>
donor molecule, donor type, donor heavy atom, donor atom, acceptor molecule, acceptor atom, score
      L1  H     2    25       P1  7948  0.52
      L1  H    10    36       P1  7948  0.99
      P1  H  7997  8010       L1    18  1.00
      P1  H  8011  8017       L1    21  0.36

> <Gold.Chemscore.Hbond.Weighted>
-8.8047

> <Gold.Chemscore.Metal.Weighted>
-0.0000

> <Gold.Chemscore.Lipo.Weighted>
-5.3891

> <Gold.Chemscore.Internal_Hbond.Weighted>
0.0000

> <Gold.Chemscore.DEClash.Weighted>
0.0425

> <Gold.Chemscore.DEInternal.Weighted>
0.4945

> <Gold.Chemscore.Rot.Weighted>
7.0233

> <Gold.Chemscore.Internal.Correction.Weighted>
   9.000000E+99

> <Gold.Protein.RotatedTorsions>
[ 6907 6896 6895 6894 ] final  165.62 input  -60.11 | X-H torsion
[ 7974 7965 7964 7962 ] final -179.05 input  175.53 | X-H torsion
[ 8008 7997 7996 7995 ] final   94.24 input   59.86 | X-H torsion
[ 10167 10162 10161 10158 ] final  -87.70 input  -65.29 | X-H torsion
[ 10718 10713 10712 10709 ] final   76.91 input   66.30 | X-H torsion
[ 10763 10752 10751 10750 ] final -138.06 input  -60.55 | X-H torsion
[ 11005 11000 10999 10996 ] final  -94.22 input  -57.11 | X-H torsion

> <Gold.Protein.ActiveResidues>
 VAL166  LYS551  ARG553  GLY616  TRP617  ASP618  TYR619  PRO620  LYS621  CYS622 
 ASP623  PHE694  ASN695  SER759  ASP760  ASP761  ALA762  ILE779  LEU786  VAL792 
 PHE793  MET794  SER795  GLU796  ALA797  LYS798  CYS799  TRP800  GLU811  SER814 

> <Gold.Protein.RotatedAtoms>
  151.8916  133.3517  159.3799 H   0  0  0  0  0  0  0  0  0  0  0  0  # atno 6907 bound_to 6896
  150.7102  134.4918  159.5529 H   0  0  0  0  0  0  0  0  0  0  0  0  # atno 6908 bound_to 6896
  152.2489  134.8153  160.0500 H   0  0  0  0  0  0  0  0  0  0  0  0  # atno 6909 bound_to 6896
  144.7134  140.0776  143.6427 H   0  0  0  0  0  0  0  0  0  0  0  0  # atno 7974 bound_to 7965
  156.0558  140.3302  155.7403 H   0  0  0  0  0  0  0  0  0  0  0  0  # atno 8008 bound_to 7997
  155.5532  140.0612  157.2863 H   0  0  0  0  0  0  0  0  0  0  0  0  # atno 8009 bound_to 7997
  154.4457  140.1890  156.0695 H   0  0  0  0  0  0  0  0  0  0  0  0  # atno 8010 bound_to 7997
  140.3819  143.2744  151.9373 H   0  0  0  0  0  0  0  0  0  0  0  0  # atno 10167 bound_to 10162
  157.6691  130.9796  150.1565 H   0  0  0  0  0  0  0  0  0  0  0  0  # atno 10718 bound_to 10713
  154.8646  135.3623  154.5324 H   0  0  0  0  0  0  0  0  0  0  0  0  # atno 10763 bound_to 10752
  153.5949  135.7014  153.5413 H   0  0  0  0  0  0  0  0  0  0  0  0  # atno 10764 bound_to 10752
  153.3341  135.4116  155.1481 H   0  0  0  0  0  0  0  0  0  0  0  0  # atno 10765 bound_to 10752
  141.1476  133.7941  157.0267 H   0  0  0  0  0  0  0  0  0  0  0  0  # atno 11005 bound_to 11000
  145.9730  139.2884  143.1087 LP  0  0  0  0  0  0  0  0  0  0  0  0  # atno 17320 bound_to 7965
  145.9095  140.9189  143.0461 LP  0  0  0  0  0  0  0  0  0  0  0  0  # atno 17321 bound_to 7965
  139.4795  144.5810  151.7932 LP  0  0  0  0  0  0  0  0  0  0  0  0  # atno 17342 bound_to 10162
  140.4928  144.1284  150.5954 LP  0  0  0  0  0  0  0  0  0  0  0  0  # atno 17343 bound_to 10162
  156.2351  130.3685  149.8400 LP  0  0  0  0  0  0  0  0  0  0  0  0  # atno 17370 bound_to 10713
  156.6216  130.8628  151.3476 LP  0  0  0  0  0  0  0  0  0  0  0  0  # atno 17371 bound_to 10713
  140.0780  134.9664  157.1578 LP  0  0  0  0  0  0  0  0  0  0  0  0  # atno 17394 bound_to 11000
  140.3616  134.2487  155.7186 LP  0  0  0  0  0  0  0  0  0  0  0  0  # atno 17395 bound_to 11000

$$$$
