AV-unprocessed.smi:91|AV-procd|sdf|837|dock6
  -GOLD-   2262017263D 1   1.00000     0.00000
 Structure written by MMmdl.
 60 63  0  0  0  0  0  0  0  0  1 V2000
  152.2100  144.0155  161.4724 C   0  0  0  0  0  0  0  0  0  0  0  0
  152.3720  142.8221  160.7265 O   0  0  0  0  0  0  0  0  0  0  0  0
  153.6500  142.7320  160.1168 C   0  0  0  0  0  0  0  0  0  0  0  0
  153.7964  141.3861  159.3937 C   0  0  2  0  0  0  0  0  0  0  0  0
  152.6614  141.1155  158.3902 C   0  0  0  0  0  0  0  0  0  0  0  0
  152.8096  139.7782  157.8289 N   0  0  0  0  0  0  0  0  0  0  0  0
  152.1044  139.4610  156.7146 C   0  0  0  0  0  0  0  0  0  0  0  0
  152.4619  138.3835  155.9657 N   0  0  0  0  0  0  0  0  0  0  0  0
  151.7736  138.0694  154.8641 C   0  0  0  0  0  0  0  0  0  0  0  0
  150.7102  138.6825  154.3413 N   0  0  0  0  0  0  0  0  0  0  0  0
  150.3400  139.7579  155.0935 C   0  0  0  0  0  0  0  0  0  0  0  0
  150.9761  140.2137  156.2828 C   0  0  0  0  0  0  0  0  0  0  0  0
  150.3099  141.3286  156.7783 N   0  0  0  0  0  0  0  0  0  0  0  0
  149.3399  141.5248  155.9278 C   0  0  0  0  0  0  0  0  0  0  0  0
  149.2797  140.6241  154.8894 N   0  0  0  0  0  0  0  0  0  0  0  0
  148.2990  140.6089  153.8179 C   0  0  0  0  0  0  0  0  0  0  0  0
  147.4681  139.3024  153.7799 C   0  0  2  0  0  0  0  0  0  0  0  0
  146.6335  139.1694  152.4827 C   0  0  0  0  0  0  0  0  0  0  0  0
  147.4587  138.9375  151.3592 O   0  0  0  0  0  0  0  0  0  0  0  0
  146.6068  139.1348  155.0574 C   0  0  1  0  0  0  0  0  0  0  0  0
  145.5085  140.1697  155.2291 C   0  0  0  0  0  0  0  0  0  0  0  0
  144.5883  139.4943  156.2385 C   0  0  0  0  0  0  0  0  0  0  0  0
  144.6639  138.1037  155.9482 O   0  0  0  0  0  0  0  0  0  0  0  0
  145.7830  137.8422  155.1064 C   0  0  0  0  0  0  0  0  0  0  0  0
  152.8640  138.7370  158.8489 C   0  0  0  0  0  0  0  0  0  0  0  0
  153.9941  139.0166  159.8643 C   0  0  0  0  0  0  0  0  0  0  0  0
  153.8361  138.0947  161.0830 C   0  0  0  0  0  0  0  0  0  0  0  0
  155.3897  138.7993  159.2415 C   0  0  0  0  0  0  0  0  0  0  0  0
  153.8570  140.3484  160.3736 O   0  0  0  0  0  0  0  0  0  0  0  0
  151.2161  144.0369  161.9189 H   0  0  0  0  0  0  0  0  0  0  0  0
  152.3121  144.8952  160.8355 H   0  0  0  0  0  0  0  0  0  0  0  0
  152.9424  144.0797  162.2780 H   0  0  0  0  0  0  0  0  0  0  0  0
  153.7716  143.5470  159.4016 H   0  0  0  0  0  0  0  0  0  0  0  0
  154.4355  142.8381  160.8666 H   0  0  0  0  0  0  0  0  0  0  0  0
  154.7441  141.4143  158.8559 H   0  0  0  0  0  0  0  0  0  0  0  0
  151.6901  141.1907  158.8815 H   0  0  0  0  0  0  0  0  0  0  0  0
  152.6855  141.8647  157.5976 H   0  0  0  0  0  0  0  0  0  0  0  0
  152.1252  137.2021  154.3251 H   0  0  0  0  0  0  0  0  0  0  0  0
  148.6316  142.3331  156.0383 H   0  0  0  0  0  0  0  0  0  0  0  0
  147.6505  141.4736  153.9587 H   0  0  0  0  0  0  0  0  0  0  0  0
  148.8118  140.7634  152.8680 H   0  0  0  0  0  0  0  0  0  0  0  0
  148.1810  138.4766  153.7683 H   0  0  0  0  0  0  0  0  0  0  0  0
  145.9132  138.3552  152.5613 H   0  0  0  0  0  0  0  0  0  0  0  0
  146.0461  140.0697  152.3041 H   0  0  0  0  0  0  0  0  0  0  0  0
  148.1990  139.5235  151.4026 H   0  0  0  0  0  0  0  0  0  0  0  0
  147.2491  139.1663  155.9391 H   0  0  0  0  0  0  0  0  0  0  0  0
  145.8754  141.1337  155.5825 H   0  0  0  0  0  0  0  0  0  0  0  0
  144.9801  140.3276  154.2878 H   0  0  0  0  0  0  0  0  0  0  0  0
  144.9520  139.6580  157.2537 H   0  0  0  0  0  0  0  0  0  0  0  0
  143.5632  139.8608  156.1811 H   0  0  0  0  0  0  0  0  0  0  0  0
  145.4077  137.5825  154.1156 H   0  0  0  0  0  0  0  0  0  0  0  0
  146.3605  136.9958  155.4789 H   0  0  0  0  0  0  0  0  0  0  0  0
  151.9011  138.7193  159.3616 H   0  0  0  0  0  0  0  0  0  0  0  0
  152.9976  137.7481  158.4114 H   0  0  0  0  0  0  0  0  0  0  0  0
  153.9098  137.0443  160.7990 H   0  0  0  0  0  0  0  0  0  0  0  0
  152.8688  138.2396  161.5652 H   0  0  0  0  0  0  0  0  0  0  0  0
  154.6066  138.2915  161.8289 H   0  0  0  0  0  0  0  0  0  0  0  0
  155.5336  137.7542  158.9653 H   0  0  0  0  0  0  0  0  0  0  0  0
  156.1797  139.0664  159.9441 H   0  0  0  0  0  0  0  0  0  0  0  0
  155.5391  139.3868  158.3362 H   0  0  0  0  0  0  0  0  0  0  0  0
  1  2  1  0  0  0  0
  1 30  1  0  0  0  0
  1 31  1  0  0  0  0
  1 32  1  0  0  0  0
  2  3  1  0  0  0  0
  3  4  1  0  0  0  0
  3 33  1  0  0  0  0
  3 34  1  0  0  0  0
  4 29  1  0  0  0  0
  4  5  1  0  0  0  0
  4 35  1  0  0  0  0
  5  6  1  0  0  0  0
  5 36  1  0  0  0  0
  5 37  1  0  0  0  0
  6  7  1  0  0  0  0
  6 25  1  0  0  0  0
  7 12  1  0  0  0  0
  7  8  2  0  0  0  0
  8  9  1  0  0  0  0
  9 10  2  0  0  0  0
  9 38  1  0  0  0  0
 10 11  1  0  0  0  0
 11 15  1  0  0  0  0
 11 12  2  0  0  0  0
 12 13  1  0  0  0  0
 13 14  2  0  0  0  0
 14 15  1  0  0  0  0
 14 39  1  0  0  0  0
 15 16  1  0  0  0  0
 16 17  1  0  0  0  0
 16 40  1  0  0  0  0
 16 41  1  0  0  0  0
 17 18  1  0  0  0  0
 17 20  1  0  0  0  0
 17 42  1  0  0  0  0
 18 19  1  0  0  0  0
 18 43  1  0  0  0  0
 18 44  1  0  0  0  0
 19 45  1  0  0  0  0
 20 24  1  0  0  0  0
 20 21  1  0  0  0  0
 20 46  1  0  0  0  0
 21 22  1  0  0  0  0
 21 47  1  0  0  0  0
 21 48  1  0  0  0  0
 22 23  1  0  0  0  0
 22 49  1  0  0  0  0
 22 50  1  0  0  0  0
 23 24  1  0  0  0  0
 24 51  1  0  0  0  0
 24 52  1  0  0  0  0
 25 26  1  0  0  0  0
 25 53  1  0  0  0  0
 25 54  1  0  0  0  0
 26 27  1  0  0  0  0
 26 28  1  0  0  0  0
 26 29  1  0  0  0  0
 27 55  1  0  0  0  0
 27 56  1  0  0  0  0
 27 57  1  0  0  0  0
 28 58  1  0  0  0  0
 28 59  1  0  0  0  0
 28 60  1  0  0  0  0
M  END
> <s_m_source_file>
AV-unprocessed.smi

> <i_m_source_file_index>
91

> <i_lp_mmshare_version>
43012

> <i_f3d_flags>
0

> <s_epik_input>
W0NIM11PW0NIMl1bQ0BASF0oTzEpW0NIMl1OKFtDSDJdQzEoW0NIM10pW0NIM10pYyhuW2NIXW4yKWMoYzIzKW5bY0hdbjNbQ0gyXVtDQEhdKFtDSDJdW09IXSlbQ0BASF00W0NIMl1bQ0gyXU9bQ0gyXTQ=

> <s_epik_cmdline>
J2VwaWtfcHl0aG9uJywgJy1waCcsICc3LjAnLCAnLXRuJywgJzgnLCAnLW1hJywgJzIwMCcsICctbWV0YWxfYmluZGluZycsICctaW1hZScsICc8aW5maWxlLm1hZT4nLCAnLW9tYWUnLCAnPG91dGZpbGUubWFlPic=

> <r_lp_tautomer_probability>
1

> <r_epik_Ionization_Penalty>
8.63591e-05

> <r_epik_Ionization_Penalty_Charging>
0

> <r_epik_Ionization_Penalty_Neutral>
8.63591e-05

> <r_epik_State_Penalty>
-0

> <r_epik_Charging_Adjusted_Penalty>
0

> <i_epik_Tot_Q>
0

> <i_epik_Tot_abs_Q>
0

> <r_epik_Metal_State_Penalty>
-0

> <b_epik_Metal_Only>
0

> <s_lp_Force_Field>
OPLS_2005

> <r_lp_Energy>
47.5582

> <b_lp_Chiralities_Consistent>
1

> <s_lp_Variant>
AV-unprocessed.smi:91-5

> <Gold.Version>
5.8.1

> <Gold.Id.Protein>
6NUR|6NUR_protein|mol2

> <Gold.PLP.Fitness>
50.2781

> <Gold.PLP.PLP>
-40.0357

> <Gold.PLP.part.hbond>
-3.3132

> <Gold.PLP.part.metal>
0.0000

> <Gold.PLP.part.buried>
-3.6805

> <Gold.PLP.part.nonpolar>
-31.2954

> <Gold.PLP.part.repulsive>
0.3160

> <Gold.PLP.ligand.clash>
0.0000

> <Gold.PLP.ligand.torsion>
0.4175

> <Gold.PLP.Chemscore.Hbond>
2.5860

> <Gold.PLP.Chemscore.CHOScore>
0.9305

> <Gold.PLP.Chemscore.Metal>
0.0000

> <Gold.Chemscore.Hbonds>
donor molecule, donor type, donor heavy atom, donor atom, acceptor molecule, acceptor atom, score
      L1  H    19    45       P1  7957  0.86
      P1  H  7954  7966       L1    19  0.58
      P1  H  7997  8009       L1     6  0.85
      L1  C    14    39       P1  8028  1.00

> <Gold.PLP.Chemscore.Internal.Correction>
0.5278

> <Gold.Rescore>
     Score         DG    S(hbond)    S(metal)    S(lipo)     H(rot)  DE(clash)    DE(int)     intcor
     10.57     -12.45       1.27        0.00      89.54       3.03       0.09       1.78       ----

> <Gold.Chemscore.Fitness>
10.5711

> <Gold.Chemscore.DG>
-12.4467

> <Gold.Chemscore.ZeroCoef>
-5.4800

> <Gold.Chemscore.Hbond>
1.2703

> <Gold.Chemscore.Metal>
0.0000

> <Gold.Chemscore.Lipo>
89.5440

> <Gold.Chemscore.Internal_Hbond>
0.0000

> <Gold.Chemscore.DEClash>
0.0908

> <Gold.Chemscore.DEInternal>
1.7848

> <Gold.Chemscore.Rot>
3.0284

> <Gold.Chemscore.Internal.Correction>
   9.000000E+99

> <Gold.Chemscore.Hbonds>
donor molecule, donor type, donor heavy atom, donor atom, acceptor molecule, acceptor atom, score
      L1  H    19    45       P1  7957  0.80
      P1  H  7954  7966       L1    19  0.06
      P1  H  7997  8009       L1     6  0.03

> <Gold.Chemscore.Hbond.Weighted>
-4.2428

> <Gold.Chemscore.Metal.Weighted>
-0.0000

> <Gold.Chemscore.Lipo.Weighted>
-10.4766

> <Gold.Chemscore.Internal_Hbond.Weighted>
0.0000

> <Gold.Chemscore.DEClash.Weighted>
0.0908

> <Gold.Chemscore.DEInternal.Weighted>
1.7848

> <Gold.Chemscore.Rot.Weighted>
7.7528

> <Gold.Chemscore.Internal.Correction.Weighted>
   9.000000E+99

> <Gold.Protein.RotatedTorsions>
[ 6907 6896 6895 6894 ] final   79.22 input  -60.11 | X-H torsion
[ 7974 7965 7964 7962 ] final -117.46 input  175.53 | X-H torsion
[ 8008 7997 7996 7995 ] final  149.67 input   59.86 | X-H torsion
[ 10167 10162 10161 10158 ] final  144.58 input  -65.29 | X-H torsion
[ 10718 10713 10712 10709 ] final -178.64 input   66.30 | X-H torsion
[ 10763 10752 10751 10750 ] final  103.98 input  -60.55 | X-H torsion
[ 11005 11000 10999 10996 ] final  135.46 input  -57.11 | X-H torsion

> <Gold.Protein.ActiveResidues>
 VAL166  LYS551  ARG553  GLY616  TRP617  ASP618  TYR619  PRO620  LYS621  CYS622 
 ASP623  PHE694  ASN695  SER759  ASP760  ASP761  ALA762  ILE779  LEU786  VAL792 
 PHE793  MET794  SER795  GLU796  ALA797  LYS798  CYS799  TRP800  GLU811  SER814 

> <Gold.Protein.RotatedAtoms>
  152.5190  134.3544  159.9262 H   0  0  0  0  0  0  0  0  0  0  0  0  # atno 6907 bound_to 6896
  151.3495  133.3924  159.2686 H   0  0  0  0  0  0  0  0  0  0  0  0  # atno 6908 bound_to 6896
  150.9738  134.9125  159.7862 H   0  0  0  0  0  0  0  0  0  0  0  0  # atno 6909 bound_to 6896
  145.0850  140.8451  143.4016 H   0  0  0  0  0  0  0  0  0  0  0  0  # atno 7974 bound_to 7965
  156.2746  140.2095  156.5895 H   0  0  0  0  0  0  0  0  0  0  0  0  # atno 8008 bound_to 7997
  154.6994  140.0522  157.0466 H   0  0  0  0  0  0  0  0  0  0  0  0  # atno 8009 bound_to 7997
  155.0756  140.3181  155.4620 H   0  0  0  0  0  0  0  0  0  0  0  0  # atno 8010 bound_to 7997
  139.4944  144.5962  151.6578 H   0  0  0  0  0  0  0  0  0  0  0  0  # atno 10167 bound_to 10162
  156.8473  130.9707  151.3095 H   0  0  0  0  0  0  0  0  0  0  0  0  # atno 10718 bound_to 10713
  153.3599  135.3958  155.1710 H   0  0  0  0  0  0  0  0  0  0  0  0  # atno 10763 bound_to 10752
  154.8677  135.3677  154.5113 H   0  0  0  0  0  0  0  0  0  0  0  0  # atno 10764 bound_to 10752
  153.5571  135.7082  153.5624 H   0  0  0  0  0  0  0  0  0  0  0  0  # atno 10765 bound_to 10752
  139.9981  134.9489  157.0010 H   0  0  0  0  0  0  0  0  0  0  0  0  # atno 11005 bound_to 11000
  145.1134  139.2742  143.5626 LP  0  0  0  0  0  0  0  0  0  0  0  0  # atno 17320 bound_to 7965
  146.3531  140.0736  142.8622 LP  0  0  0  0  0  0  0  0  0  0  0  0  # atno 17321 bound_to 7965
  140.5600  144.0284  150.6165 LP  0  0  0  0  0  0  0  0  0  0  0  0  # atno 17342 bound_to 10162
  140.3367  143.3044  152.0631 LP  0  0  0  0  0  0  0  0  0  0  0  0  # atno 17343 bound_to 10162
  157.6323  130.8739  149.9295 LP  0  0  0  0  0  0  0  0  0  0  0  0  # atno 17370 bound_to 10713
  156.0847  130.3669  150.0510 LP  0  0  0  0  0  0  0  0  0  0  0  0  # atno 17371 bound_to 10713
  140.4779  134.1319  155.7212 LP  0  0  0  0  0  0  0  0  0  0  0  0  # atno 17394 bound_to 11000
  141.1620  133.8774  157.1820 LP  0  0  0  0  0  0  0  0  0  0  0  0  # atno 17395 bound_to 11000

$$$$
