AV-unprocessed.smi:2976|AV-procd|sdf|11361|dock4
  -GOLD-   2272016273D 1   1.00000     0.00000
 Structure written by MMmdl.
 40 41  0  0  0  0  0  0  0  0  1 V2000
  152.7990  142.7985  161.8767 C   0  0  0  0  0  0  0  0  0  0  0  0
  152.7244  143.1321  160.3752 C   0  0  2  0  0  0  0  0  0  0  0  0
  152.1547  144.5535  160.1932 C   0  0  0  0  0  0  0  0  0  0  0  0
  152.0837  144.9575  158.7166 C   0  0  0  0  0  0  0  0  0  0  0  0
  151.2439  143.9517  157.9242 C   0  0  0  0  0  0  0  0  0  0  0  0
  151.8004  142.5243  158.0672 C   0  0  2  0  0  0  0  0  0  0  0  0
  150.9359  141.6124  157.3183 N   0  0  0  0  0  0  0  0  0  0  0  0
  151.2813  140.4013  156.8540 C   0  0  0  0  0  0  0  0  0  0  0  0
  152.4062  139.9176  156.9864 O   0  0  0  0  0  0  0  0  0  0  0  0
  150.1826  139.6248  156.1147 C   0  0  0  0  0  0  0  0  0  0  0  0
  148.8626  140.2636  156.2196 N   0  0  0  0  0  0  0  0  0  0  0  0
  148.2428  140.0839  157.4440 N   0  0  0  0  0  0  0  0  0  0  0  0
  147.0921  140.6227  157.6575 C   0  0  0  0  0  0  0  0  0  0  0  0
  146.4127  141.4121  156.6539 C   0  0  0  0  0  0  0  0  0  0  0  0
  144.8702  142.1118  156.9990 Cl  0  0  0  0  0  0  0  0  0  0  0  0
  147.0249  141.5747  155.4538 C   0  0  0  0  0  0  0  0  0  0  0  0
  146.2731  142.5041  154.2024 Cl  0  0  0  0  0  0  0  0  0  0  0  0
  148.3375  140.9754  155.1748 C   0  0  0  0  0  0  0  0  0  0  0  0
  148.9251  141.0983  154.0989 O   0  0  0  0  0  0  0  0  0  0  0  0
  151.9102  142.0905  159.5552 C   0  0  1  0  0  0  0  0  0  0  0  0
  152.5005  140.6680  159.6793 C   0  0  0  0  0  0  0  0  0  0  0  0
  151.8041  142.6888  162.3090 H   0  0  0  0  0  0  0  0  0  0  0  0
  153.3124  143.5878  162.4267 H   0  0  0  0  0  0  0  0  0  0  0  0
  153.3520  141.8786  162.0637 H   0  0  0  0  0  0  0  0  0  0  0  0
  153.7459  143.1372  159.9914 H   0  0  0  0  0  0  0  0  0  0  0  0
  151.1583  144.6116  160.6335 H   0  0  0  0  0  0  0  0  0  0  0  0
  152.7712  145.2738  160.7323 H   0  0  0  0  0  0  0  0  0  0  0  0
  151.6548  145.9555  158.6235 H   0  0  0  0  0  0  0  0  0  0  0  0
  153.0897  145.0108  158.2982 H   0  0  0  0  0  0  0  0  0  0  0  0
  150.2113  143.9861  158.2752 H   0  0  0  0  0  0  0  0  0  0  0  0
  151.2236  144.2418  156.8730 H   0  0  0  0  0  0  0  0  0  0  0  0
  152.8066  142.5199  157.6435 H   0  0  0  0  0  0  0  0  0  0  0  0
  149.9894  141.9236  157.1550 H   0  0  0  0  0  0  0  0  0  0  0  0
  150.4540  139.5043  155.0640 H   0  0  0  0  0  0  0  0  0  0  0  0
  150.1499  138.6143  156.5262 H   0  0  0  0  0  0  0  0  0  0  0  0
  146.5686  140.5122  158.6072 H   0  0  0  0  0  0  0  0  0  0  0  0
  150.9003  142.0607  159.9678 H   0  0  0  0  0  0  0  0  0  0  0  0
  153.5281  140.6349  159.3160 H   0  0  0  0  0  0  0  0  0  0  0  0
  151.9269  139.9374  159.1095 H   0  0  0  0  0  0  0  0  0  0  0  0
  152.4977  140.3142  160.7093 H   0  0  0  0  0  0  0  0  0  0  0  0
  1  2  1  0  0  0  0
  1 22  1  0  0  0  0
  1 23  1  0  0  0  0
  1 24  1  0  0  0  0
  2 20  1  0  0  0  0
  2  3  1  0  0  0  0
  2 25  1  0  0  0  0
  3  4  1  0  0  0  0
  3 26  1  0  0  0  0
  3 27  1  0  0  0  0
  4  5  1  0  0  0  0
  4 28  1  0  0  0  0
  4 29  1  0  0  0  0
  5  6  1  0  0  0  0
  5 30  1  0  0  0  0
  5 31  1  0  0  0  0
  6  7  1  0  0  0  0
  6 20  1  0  0  0  0
  6 32  1  0  0  0  0
  7  8  1  0  0  0  0
  7 33  1  0  0  0  0
  8  9  2  0  0  0  0
  8 10  1  0  0  0  0
 10 11  1  0  0  0  0
 10 34  1  0  0  0  0
 10 35  1  0  0  0  0
 11 18  1  0  0  0  0
 11 12  1  0  0  0  0
 12 13  2  0  0  0  0
 13 14  1  0  0  0  0
 13 36  1  0  0  0  0
 14 15  1  0  0  0  0
 14 16  2  0  0  0  0
 16 17  1  0  0  0  0
 16 18  1  0  0  0  0
 18 19  2  0  0  0  0
 20 21  1  0  0  0  0
 20 37  1  0  0  0  0
 21 38  1  0  0  0  0
 21 39  1  0  0  0  0
 21 40  1  0  0  0  0
M  END
> <s_m_source_file>
AV-unprocessed.smi

> <i_m_source_file_index>
2976

> <i_lp_mmshare_version>
43012

> <i_f3d_flags>
0

> <s_epik_input>
W0NIM11bQ0BASF0xW0NIMl1bQ0gyXVtDSDJdW0NASF0oW0NASF0xW0NIM10pW05IXUMoPU8pW0NIMl1uMm5bY0hdYyhDbCljKENsKWMyPU8=

> <s_epik_cmdline>
J2VwaWtfcHl0aG9uJywgJy1waCcsICc3LjAnLCAnLXRuJywgJzgnLCAnLW1hJywgJzIwMCcsICctbWV0YWxfYmluZGluZycsICctaW1hZScsICc8aW5maWxlLm1hZT4nLCAnLW9tYWUnLCAnPG91dGZpbGUubWFlPic=

> <r_lp_tautomer_probability>
1

> <r_epik_Ionization_Penalty>
1.90777e-08

> <r_epik_Ionization_Penalty_Charging>
3.07942e-11

> <r_epik_Ionization_Penalty_Neutral>
1.90469e-08

> <r_epik_State_Penalty>
-0

> <r_epik_Charging_Adjusted_Penalty>
3.07942e-11

> <i_epik_Tot_Q>
0

> <i_epik_Tot_abs_Q>
0

> <r_epik_Metal_State_Penalty>
-0

> <b_epik_Metal_Only>
0

> <s_lp_Force_Field>
OPLS_2005

> <r_lp_Energy>
26.5415

> <b_lp_Chiralities_Consistent>
1

> <s_lp_Variant>
AV-unprocessed.smi:2976-3

> <Gold.Version>
5.8.1

> <Gold.Id.Protein>
6NUR|6NUR_protein|mol2

> <Gold.PLP.Fitness>
49.1478

> <Gold.PLP.PLP>
-45.1348

> <Gold.PLP.part.hbond>
-3.0000

> <Gold.PLP.part.metal>
0.0000

> <Gold.PLP.part.buried>
-4.7686

> <Gold.PLP.part.nonpolar>
-36.7385

> <Gold.PLP.part.repulsive>
0.6535

> <Gold.PLP.ligand.clash>
0.0000

> <Gold.PLP.ligand.torsion>
0.5769

> <Gold.PLP.Chemscore.Hbond>
1.7200

> <Gold.PLP.Chemscore.CHOScore>
0.0000

> <Gold.PLP.Chemscore.Metal>
0.0000

> <Gold.Chemscore.Hbonds>
donor molecule, donor type, donor heavy atom, donor atom, acceptor molecule, acceptor atom, score
      P1  H  7997  8008       L1     9  0.98
      P1  H  8011  8017       L1    19  0.14

> <Gold.PLP.Chemscore.Internal.Correction>
0.0067

> <Gold.Rescore>
     Score         DG    S(hbond)    S(metal)    S(lipo)     H(rot)  DE(clash)    DE(int)     intcor
     16.63     -19.67       1.66        0.00     106.57       1.49       0.96       2.08       ----

> <Gold.Chemscore.Fitness>
16.6329

> <Gold.Chemscore.DG>
-19.6741

> <Gold.Chemscore.ZeroCoef>
-5.4800

> <Gold.Chemscore.Hbond>
1.6559

> <Gold.Chemscore.Metal>
0.0000

> <Gold.Chemscore.Lipo>
106.5744

> <Gold.Chemscore.Internal_Hbond>
0.0000

> <Gold.Chemscore.DEClash>
0.9573

> <Gold.Chemscore.DEInternal>
2.0839

> <Gold.Chemscore.Rot>
1.4866

> <Gold.Chemscore.Internal.Correction>
   9.000000E+99

> <Gold.Chemscore.Hbonds>
donor molecule, donor type, donor heavy atom, donor atom, acceptor molecule, acceptor atom, score
      P1  H  7997  8008       L1     9  0.88
      P1  H  8011  8017       L1    19  0.14

> <Gold.Chemscore.Hbond.Weighted>
-5.5306

> <Gold.Chemscore.Metal.Weighted>
-0.0000

> <Gold.Chemscore.Lipo.Weighted>
-12.4692

> <Gold.Chemscore.Internal_Hbond.Weighted>
0.0000

> <Gold.Chemscore.DEClash.Weighted>
0.9573

> <Gold.Chemscore.DEInternal.Weighted>
2.0839

> <Gold.Chemscore.Rot.Weighted>
3.8057

> <Gold.Chemscore.Internal.Correction.Weighted>
   9.000000E+99

> <Gold.Protein.RotatedTorsions>
[ 6907 6896 6895 6894 ] final   85.50 input  -60.11 | X-H torsion
[ 7974 7965 7964 7962 ] final   30.30 input  175.53 | X-H torsion
[ 8008 7997 7996 7995 ] final  -42.53 input   59.86 | X-H torsion
[ 10167 10162 10161 10158 ] final  -51.13 input  -65.29 | X-H torsion
[ 10718 10713 10712 10709 ] final  129.35 input   66.30 | X-H torsion
[ 10763 10752 10751 10750 ] final  147.36 input  -60.55 | X-H torsion
[ 11005 11000 10999 10996 ] final   71.80 input  -57.11 | X-H torsion

> <Gold.Protein.ActiveResidues>
 VAL166  LYS551  ARG553  GLY616  TRP617  ASP618  TYR619  PRO620  LYS621  CYS622 
 ASP623  PHE694  ASN695  SER759  ASP760  ASP761  ALA762  ILE779  LEU786  VAL792 
 PHE793  MET794  SER795  GLU796  ALA797  LYS798  CYS799  TRP800  GLU811  SER814 

> <Gold.Protein.RotatedAtoms>
  152.5376  134.2577  159.8922 H   0  0  0  0  0  0  0  0  0  0  0  0  # atno 6907 bound_to 6896
  151.2537  133.4330  159.2620 H   0  0  0  0  0  0  0  0  0  0  0  0  # atno 6908 bound_to 6896
  151.0515  134.9690  159.8270 H   0  0  0  0  0  0  0  0  0  0  0  0  # atno 6909 bound_to 6896
  146.1620  139.6807  142.9027 H   0  0  0  0  0  0  0  0  0  0  0  0  # atno 7974 bound_to 7965
  154.3999  140.1471  156.3370 H   0  0  0  0  0  0  0  0  0  0  0  0  # atno 8008 bound_to 7997
  155.8391  140.3462  155.5599 H   0  0  0  0  0  0  0  0  0  0  0  0  # atno 8009 bound_to 7997
  155.8106  140.0883  157.1896 H   0  0  0  0  0  0  0  0  0  0  0  0  # atno 8010 bound_to 7997
  140.6603  143.2631  151.4460 H   0  0  0  0  0  0  0  0  0  0  0  0  # atno 10167 bound_to 10162
  157.5162  131.1097  150.9221 H   0  0  0  0  0  0  0  0  0  0  0  0  # atno 10718 bound_to 10713
  154.0370  135.2893  155.3360 H   0  0  0  0  0  0  0  0  0  0  0  0  # atno 10763 bound_to 10752
  154.6953  135.5210  153.8452 H   0  0  0  0  0  0  0  0  0  0  0  0  # atno 10764 bound_to 10752
  153.0616  135.6616  154.0578 H   0  0  0  0  0  0  0  0  0  0  0  0  # atno 10765 bound_to 10752
  139.9524  134.7203  156.0831 H   0  0  0  0  0  0  0  0  0  0  0  0  # atno 11005 bound_to 11000
  145.4564  141.0431  143.2776 LP  0  0  0  0  0  0  0  0  0  0  0  0  # atno 17320 bound_to 7965
  144.8040  139.6087  143.7059 LP  0  0  0  0  0  0  0  0  0  0  0  0  # atno 17321 bound_to 7965
  139.5836  144.1655  152.2000 LP  0  0  0  0  0  0  0  0  0  0  0  0  # atno 17342 bound_to 10162
  140.0988  144.5558  150.7003 LP  0  0  0  0  0  0  0  0  0  0  0  0  # atno 17343 bound_to 10162
  156.9846  130.5540  149.5299 LP  0  0  0  0  0  0  0  0  0  0  0  0  # atno 17370 bound_to 10713
  156.0322  130.5412  150.8562 LP  0  0  0  0  0  0  0  0  0  0  0  0  # atno 17371 bound_to 10713
  141.1190  133.6619  156.3166 LP  0  0  0  0  0  0  0  0  0  0  0  0  # atno 17394 bound_to 11000
  140.5687  134.5862  157.5452 LP  0  0  0  0  0  0  0  0  0  0  0  0  # atno 17395 bound_to 11000

$$$$
