AV-unprocessed.smi:1188|AV-procd|sdf|4977|dock8
  -GOLD-   22720 3573D 1   1.00000     0.00000
 Structure written by MMmdl.
 48 49  0  0  0  0  0  0  0  0  1 V2000
  145.5896  136.0946  150.5724 C   0  0  0  0  0  0  0  0  0  0  0  0
  146.2333  135.0673  150.7195 C   0  0  0  0  0  0  0  0  0  0  0  0
  147.0016  133.8286  150.9121 C   0  0  0  0  0  0  0  0  0  0  0  0
  147.8483  133.8985  152.0934 N   0  0  0  0  0  0  0  0  0  0  0  0
  148.0336  132.8919  152.9648 C   0  0  0  0  0  0  0  0  0  0  0  0
  147.4768  131.8028  152.8200 O   0  0  0  0  0  0  0  0  0  0  0  0
  148.9411  133.2125  154.0704 C   0  0  0  0  0  0  0  0  0  0  0  0
  149.2452  132.1916  155.0542 C   0  0  0  0  0  0  0  0  0  0  0  0
  150.0856  132.4464  156.0759 C   0  0  0  0  0  0  0  0  0  0  0  0
  150.7218  133.7561  156.2413 C   0  0  0  0  0  0  0  0  0  0  0  0
  151.4959  133.9941  157.1690 O   0  0  0  0  0  0  0  0  0  0  0  0
  150.3997  134.6960  155.3014 N   0  0  0  0  0  0  0  0  0  0  0  0
  150.9737  136.0506  155.3676 C   0  0  0  0  0  0  0  0  0  0  0  0
  150.4898  136.8526  156.5840 C   0  0  0  0  0  0  0  0  0  0  0  0
  149.5779  136.4294  157.2956 O   0  0  0  0  0  0  0  0  0  0  0  0
  151.1301  138.0077  156.8196 N   0  0  0  0  0  0  0  0  0  0  0  0
  150.8356  138.9216  157.9169 C   0  0  0  0  0  0  0  0  0  0  0  0
  152.1145  139.3411  158.6638 C   0  0  0  0  0  0  0  0  0  0  0  0
  152.2470  140.8488  158.8025 C   0  0  0  0  0  0  0  0  0  0  0  0
  151.4874  141.7005  158.0860 C   0  0  0  0  0  0  0  0  0  0  0  0
  151.5880  143.2135  158.1722 C   0  0  0  0  0  0  0  0  0  0  0  0
  152.8660  143.6752  158.8928 C   0  0  0  0  0  0  0  0  0  0  0  0
  153.1280  142.8334  160.1478 C   0  0  0  0  0  0  0  0  0  0  0  0
  153.2899  141.3429  159.7991 C   0  0  0  0  0  0  0  0  0  0  0  0
  149.5258  134.4206  154.2306 C   0  0  0  0  0  0  0  0  0  0  0  0
  145.0291  136.9937  150.4465 H   0  0  0  0  0  0  0  0  0  0  0  0
  146.2993  132.9989  151.0022 H   0  0  0  0  0  0  0  0  0  0  0  0
  147.6075  133.6621  150.0203 H   0  0  0  0  0  0  0  0  0  0  0  0
  148.3319  134.7688  152.2603 H   0  0  0  0  0  0  0  0  0  0  0  0
  148.8022  131.2090  154.9776 H   0  0  0  0  0  0  0  0  0  0  0  0
  150.2967  131.6666  156.7929 H   0  0  0  0  0  0  0  0  0  0  0  0
  152.0630  136.0053  155.4034 H   0  0  0  0  0  0  0  0  0  0  0  0
  150.7433  136.6002  154.4527 H   0  0  0  0  0  0  0  0  0  0  0  0
  151.8720  138.2760  156.1895 H   0  0  0  0  0  0  0  0  0  0  0  0
  150.3008  139.7934  157.5369 H   0  0  0  0  0  0  0  0  0  0  0  0
  150.1566  138.4139  158.6027 H   0  0  0  0  0  0  0  0  0  0  0  0
  152.1212  138.8861  159.6556 H   0  0  0  0  0  0  0  0  0  0  0  0
  152.9979  138.9629  158.1479 H   0  0  0  0  0  0  0  0  0  0  0  0
  150.7440  141.3144  157.4037 H   0  0  0  0  0  0  0  0  0  0  0  0
  151.5562  143.6341  157.1668 H   0  0  0  0  0  0  0  0  0  0  0  0
  150.7059  143.5799  158.6980 H   0  0  0  0  0  0  0  0  0  0  0  0
  153.7178  143.5854  158.2173 H   0  0  0  0  0  0  0  0  0  0  0  0
  152.7876  144.7315  159.1518 H   0  0  0  0  0  0  0  0  0  0  0  0
  154.0170  143.1926  160.6671 H   0  0  0  0  0  0  0  0  0  0  0  0
  152.2952  142.9565  160.8414 H   0  0  0  0  0  0  0  0  0  0  0  0
  153.2346  140.7477  160.7114 H   0  0  0  0  0  0  0  0  0  0  0  0
  154.2781  141.1732  159.3706 H   0  0  0  0  0  0  0  0  0  0  0  0
  149.3824  135.2565  153.5610 H   0  0  0  0  0  0  0  0  0  0  0  0
  1  2  3  0  0  0  0
  1 26  1  0  0  0  0
  2  3  1  0  0  0  0
  3  4  1  0  0  0  0
  3 27  1  0  0  0  0
  3 28  1  0  0  0  0
  4  5  1  0  0  0  0
  4 29  1  0  0  0  0
  5  6  2  0  0  0  0
  5  7  1  0  0  0  0
  7 25  2  0  0  0  0
  7  8  1  0  0  0  0
  8  9  2  0  0  0  0
  8 30  1  0  0  0  0
  9 10  1  0  0  0  0
  9 31  1  0  0  0  0
 10 11  2  0  0  0  0
 10 12  1  0  0  0  0
 12 13  1  0  0  0  0
 12 25  1  0  0  0  0
 13 14  1  0  0  0  0
 13 32  1  0  0  0  0
 13 33  1  0  0  0  0
 14 15  2  0  0  0  0
 14 16  1  0  0  0  0
 16 17  1  0  0  0  0
 16 34  1  0  0  0  0
 17 18  1  0  0  0  0
 17 35  1  0  0  0  0
 17 36  1  0  0  0  0
 18 19  1  0  0  0  0
 18 37  1  0  0  0  0
 18 38  1  0  0  0  0
 19 24  1  0  0  0  0
 19 20  2  0  0  0  0
 20 21  1  0  0  0  0
 20 39  1  0  0  0  0
 21 22  1  0  0  0  0
 21 40  1  0  0  0  0
 21 41  1  0  0  0  0
 22 23  1  0  0  0  0
 22 42  1  0  0  0  0
 22 43  1  0  0  0  0
 23 24  1  0  0  0  0
 23 44  1  0  0  0  0
 23 45  1  0  0  0  0
 24 46  1  0  0  0  0
 24 47  1  0  0  0  0
 25 48  1  0  0  0  0
M  END
> <s_m_source_file>
AV-unprocessed.smi

> <i_m_source_file_index>
1188

> <i_lp_mmshare_version>
43012

> <i_f3d_flags>
0

> <s_epik_input>
W0NIXSNDW0NIMl1bTkhdQyg9TyljMVtjSF1bY0hdYyg9TyluKFtjSF0xKVtDSDJdQyg9TylbTkhdW0NIMl1bQ0gyXUMyPVtDSF1bQ0gyXVtDSDJdW0NIMl1bQ0gyXTI=

> <s_epik_cmdline>
J2VwaWtfcHl0aG9uJywgJy1waCcsICc3LjAnLCAnLXRuJywgJzgnLCAnLW1hJywgJzIwMCcsICctbWV0YWxfYmluZGluZycsICctaW1hZScsICc8aW5maWxlLm1hZT4nLCAnLW9tYWUnLCAnPG91dGZpbGUubWFlPic=

> <r_lp_tautomer_probability>
1

> <r_epik_Ionization_Penalty>
3.04448e-06

> <r_epik_Ionization_Penalty_Charging>
4.20752e-08

> <r_epik_Ionization_Penalty_Neutral>
3.00241e-06

> <r_epik_State_Penalty>
-0

> <r_epik_Charging_Adjusted_Penalty>
4.20752e-08

> <i_epik_Tot_Q>
0

> <i_epik_Tot_abs_Q>
0

> <r_epik_Metal_State_Penalty>
-0

> <b_epik_Metal_Only>
0

> <s_lp_Force_Field>
OPLS_2005

> <r_lp_Energy>
18.5418

> <b_lp_Chiralities_Consistent>
1

> <s_lp_Variant>
AV-unprocessed.smi:1188-1

> <Gold.Version>
5.8.1

> <Gold.Id.Protein>
6NUR|6NUR_protein|mol2

> <Gold.PLP.Fitness>
52.9289

> <Gold.PLP.PLP>
-47.8461

> <Gold.PLP.part.hbond>
-2.0000

> <Gold.PLP.part.metal>
0.0000

> <Gold.PLP.part.buried>
-5.6013

> <Gold.PLP.part.nonpolar>
-41.3195

> <Gold.PLP.part.repulsive>
0.1223

> <Gold.PLP.ligand.clash>
0.0000

> <Gold.PLP.ligand.torsion>
0.8524

> <Gold.PLP.Chemscore.Hbond>
1.2077

> <Gold.PLP.Chemscore.CHOScore>
1.0000

> <Gold.PLP.Chemscore.Metal>
0.0000

> <Gold.Chemscore.Hbonds>
donor molecule, donor type, donor heavy atom, donor atom, acceptor molecule, acceptor atom, score
      L1  H     4    29       P1  7948  0.90
      P1  H  6896  6909       L1    11  0.27
      L1  C    25    48       P1  7948  0.73

> <Gold.PLP.Chemscore.Internal.Correction>
0.1644

> <Gold.Rescore>
     Score         DG    S(hbond)    S(metal)    S(lipo)     H(rot)  DE(clash)    DE(int)     intcor
     16.23     -17.04       1.08        0.00     110.90       1.97       0.00       0.81       ----

> <Gold.Chemscore.Fitness>
16.2282

> <Gold.Chemscore.DG>
-17.0350

> <Gold.Chemscore.ZeroCoef>
-5.4800

> <Gold.Chemscore.Hbond>
1.0842

> <Gold.Chemscore.Metal>
0.0000

> <Gold.Chemscore.Lipo>
110.9016

> <Gold.Chemscore.Internal_Hbond>
0.0000

> <Gold.Chemscore.DEClash>
0.0000

> <Gold.Chemscore.DEInternal>
0.8069

> <Gold.Chemscore.Rot>
1.9694

> <Gold.Chemscore.Internal.Correction>
   9.000000E+99

> <Gold.Chemscore.Hbonds>
donor molecule, donor type, donor heavy atom, donor atom, acceptor molecule, acceptor atom, score
      L1  H     4    29       P1  7948  0.17
      P1  H  6896  6909       L1    11  0.26

> <Gold.Chemscore.Hbond.Weighted>
-3.6211

> <Gold.Chemscore.Metal.Weighted>
-0.0000

> <Gold.Chemscore.Lipo.Weighted>
-12.9755

> <Gold.Chemscore.Internal_Hbond.Weighted>
0.0000

> <Gold.Chemscore.DEClash.Weighted>
0.0000

> <Gold.Chemscore.DEInternal.Weighted>
0.8069

> <Gold.Chemscore.Rot.Weighted>
5.0416

> <Gold.Chemscore.Internal.Correction.Weighted>
   9.000000E+99

> <Gold.Protein.RotatedTorsions>
[ 6907 6896 6895 6894 ] final  -37.07 input  -60.11 | X-H torsion
[ 7974 7965 7964 7962 ] final  -30.96 input  175.53 | X-H torsion
[ 8008 7997 7996 7995 ] final  174.99 input   59.86 | X-H torsion
[ 10167 10162 10161 10158 ] final -131.70 input  -65.29 | X-H torsion
[ 10718 10713 10712 10709 ] final  -26.64 input   66.30 | X-H torsion
[ 10763 10752 10751 10750 ] final    4.86 input  -60.55 | X-H torsion
[ 11005 11000 10999 10996 ] final -112.38 input  -57.11 | X-H torsion

> <Gold.Protein.ActiveResidues>
 VAL166  LYS551  ARG553  GLY616  TRP617  ASP618  TYR619  PRO620  LYS621  CYS622 
 ASP623  PHE694  ASN695  SER759  ASP760  ASP761  ALA762  ILE779  LEU786  VAL792 
 PHE793  MET794  SER795  GLU796  ALA797  LYS798  CYS799  TRP800  GLU811  SER814 

> <Gold.Protein.RotatedAtoms>
  151.0193  134.9457  159.8050 H   0  0  0  0  0  0  0  0  0  0  0  0  # atno 6907 bound_to 6896
  152.5321  134.2925  159.9058 H   0  0  0  0  0  0  0  0  0  0  0  0  # atno 6908 bound_to 6896
  151.2932  133.4114  159.2668 H   0  0  0  0  0  0  0  0  0  0  0  0  # atno 6909 bound_to 6896
  146.1103  140.5607  142.8781 H   0  0  0  0  0  0  0  0  0  0  0  0  # atno 7974 bound_to 7965
  156.0917  140.1420  156.9584 H   0  0  0  0  0  0  0  0  0  0  0  0  # atno 8008 bound_to 7997
  154.4646  140.0931  156.7032 H   0  0  0  0  0  0  0  0  0  0  0  0  # atno 8009 bound_to 7997
  155.4909  140.3448  155.4357 H   0  0  0  0  0  0  0  0  0  0  0  0  # atno 8010 bound_to 7997
  139.9161  143.6436  152.2564 H   0  0  0  0  0  0  0  0  0  0  0  0  # atno 10167 bound_to 10162
  156.4486  130.4479  149.7005 H   0  0  0  0  0  0  0  0  0  0  0  0  # atno 10718 bound_to 10713
  153.2662  135.6928  153.7527 H   0  0  0  0  0  0  0  0  0  0  0  0  # atno 10763 bound_to 10752
  153.6568  135.3367  155.3116 H   0  0  0  0  0  0  0  0  0  0  0  0  # atno 10764 bound_to 10752
  154.8448  135.4467  154.1669 H   0  0  0  0  0  0  0  0  0  0  0  0  # atno 10765 bound_to 10752
  141.0678  133.9429  157.2544 H   0  0  0  0  0  0  0  0  0  0  0  0  # atno 11005 bound_to 11000
  144.7506  140.5181  143.6804 LP  0  0  0  0  0  0  0  0  0  0  0  0  # atno 17320 bound_to 7965
  145.5677  139.1482  143.3306 LP  0  0  0  0  0  0  0  0  0  0  0  0  # atno 17321 bound_to 7965
  139.6901  144.7648  151.1454 LP  0  0  0  0  0  0  0  0  0  0  0  0  # atno 17342 bound_to 10162
  140.7673  143.5602  150.9108 LP  0  0  0  0  0  0  0  0  0  0  0  0  # atno 17343 bound_to 10162
  156.3840  130.7593  151.2589 LP  0  0  0  0  0  0  0  0  0  0  0  0  # atno 17370 bound_to 10713
  157.7504  131.0287  150.4061 LP  0  0  0  0  0  0  0  0  0  0  0  0  # atno 17371 bound_to 10713
  139.9494  135.0178  156.8948 LP  0  0  0  0  0  0  0  0  0  0  0  0  # atno 17394 bound_to 11000
  140.5736  134.0419  155.7439 LP  0  0  0  0  0  0  0  0  0  0  0  0  # atno 17395 bound_to 11000

$$$$
