#       Name:                AV-unprocessed.smi:1260
#       Creating user name   scv26
#       Creation time:       Fri Mar 27 04:42:02 2020


#       File generated by GOLD software.
#

@<TRIPOS>MOLECULE
AV-unprocessed.smi:1260
    42    44     1
SMALL
NO_CHARGES


@<TRIPOS>ATOM
      1 ****         1.1319   2.2254   0.1759 O.2            1 S1                 0.0000
      2 ****         1.7888   1.2288  -0.1228 C.2            1 S1                 0.0000
      3 ****         3.3119   1.3195  -0.2222 C.3            1 S1                 0.0000
      4 ****         3.7537   1.1862  -1.5976 N.pl3          1 S1                 0.0000
      5 ****         3.8084   2.0749  -2.5918 C.2            1 S1                 0.0000
      6 ****         4.2649   1.5299  -3.7091 N.2            1 S1                 0.0000
      7 ****         4.5001   0.2145  -3.3452 N.2            1 S1                 0.0000
      8 ****         4.1981   0.0044  -2.0935 N.2            1 S1                 0.0000
      9 ****         1.2416   0.0285  -0.3717 N.am           1 S1                 0.0000
     10 ****        -0.1882  -0.2666  -0.3624 C.3            1 S1                 0.0000
     11 ****        -0.5852  -1.3280  -1.3982 C.3            1 S1                 0.0000
     12 ****        -1.6775  -2.1763  -0.7169 C.3            1 S1                 0.0000
     13 ****        -1.9279  -1.5645   0.6087 N.4            1 S1                 1.0000
     14 ****        -3.1211  -0.6731   0.5958 C.3            1 S1                 0.0000
     15 ****        -3.2476   0.1461   1.8868 C.3            1 S1                 0.0000
     16 ****        -1.9827   0.9781   2.1124 C.3            1 S1                 0.0000
     17 ****        -0.7688   0.0465   2.1828 C.3            1 S1                 0.0000
     18 ****        -0.6537  -0.8910   0.9593 C.3            1 S1                 0.0000
     19 ****         3.6570   2.2795   0.1640 H              1 S1                 0.0000
     20 ****         3.7735   0.5407   0.3870 H              1 S1                 0.0000
     21 ****         3.5107   3.1090  -2.4993 H              1 S1                 0.0000
     22 ****         1.8631  -0.7316  -0.6094 H              1 S1                 0.0000
     23 ****        -0.7632   0.6382  -0.5675 H              1 S1                 0.0000
     24 ****        -0.9468  -0.8632  -2.3160 H              1 S1                 0.0000
     25 ****         0.2611  -1.9629  -1.6650 H              1 S1                 0.0000
     26 ****        -2.5831  -2.2509  -1.3210 H              1 S1                 0.0000
     27 ****        -1.3100  -3.1914  -0.5624 H              1 S1                 0.0000
     28 ****        -3.0700   0.0054  -0.2573 H              1 S1                 0.0000
     29 ****        -4.0156  -1.2810   0.4554 H              1 S1                 0.0000
     30 ****        -4.1175   0.8010   1.8279 H              1 S1                 0.0000
     31 ****        -3.4150  -0.5182   2.7357 H              1 S1                 0.0000
     32 ****        -1.8578   1.7017   1.3061 H              1 S1                 0.0000
     33 ****        -2.0684   1.5519   3.0357 H              1 S1                 0.0000
     34 ****         0.1449   0.6269   2.3080 H              1 S1                 0.0000
     35 ****        -0.8561  -0.5650   3.0820 H              1 S1                 0.0000
     36 ****         0.0540  -1.6808   1.2202 H              1 S1                 0.0000
     37 ****        -2.1058  -2.2926   1.2858 H              1 S1                 0.0000
     38 ****         1.5941   3.0942   0.3535 LP             1 S1                 0.0000
     39 ****         0.1357   2.1666   0.2410 LP             1 S1                 0.0000
     40 ****         4.4056   1.9630  -4.5994 LP             1 S1                 0.0000
     41 ****         4.8564  -0.4858  -3.9638 LP             1 S1                 0.0000
     42 ****         4.2785  -0.8596  -1.5965 LP             1 S1                 0.0000
@<TRIPOS>BOND
    1    1    2 2     
    2    2    3 1     
    3    2    9 am    
    4    3    4 1     
    5    3   19 1     
    6    3   20 1     
    7    4    8 1     
    8    4    5 1     
    9    5    6 2     
   10    5   21 1     
   11    6    7 1     
   12    7    8 2     
   13    9   10 1     
   14    9   22 1     
   15   10   18 1     
   16   10   11 1     
   17   10   23 1     
   18   11   12 1     
   19   11   24 1     
   20   11   25 1     
   21   12   13 1     
   22   12   26 1     
   23   12   27 1     
   24   13   18 1     
   25   13   14 1     
   26   13   37 1     
   27   14   15 1     
   28   14   28 1     
   29   14   29 1     
   30   15   16 1     
   31   15   30 1     
   32   15   31 1     
   33   16   17 1     
   34   16   32 1     
   35   16   33 1     
   36   17   18 1     
   37   17   34 1     
   38   17   35 1     
   39   18   36 1     
   40    1   38 1     
   41    1   39 1     
   42    6   40 1     
   43    7   41 1     
   44    8   42 1     
@<TRIPOS>SUBSTRUCTURE
      1 S1             1
@<TRIPOS>SET
LONE_PAIRS      STATIC     ATOMS    <user>   **** ""
5 38 39 40 41 42
DONOR_HYDROGENS      STATIC     ATOMS    <user>   **** ""
2 22 37
ATOM$BLUE        STATIC     ATOMS    COLORGROUP SYSTEM
5 38 39 40 41 42
ATOM$RED        STATIC     ATOMS    COLORGROUP SYSTEM
2 22 37
