AV-unprocessed.smi:290|AV-procd|sdf|2224|dock3
  -GOLD-   2262022 73D 1   1.00000     0.00000
 Structure written by MMmdl.
 59 62  0  0  0  0  0  0  0  0  2 V2000
  153.5954  138.8393  157.1986 C   0  0  0  0  0  0  0  0  0  0  0  0
  152.6843  139.0321  155.9765 C   0  0  1  0  0  0  0  0  0  0  0  0
  153.3871  139.6498  154.8994 O   0  0  0  0  0  0  0  0  0  0  0  0
  153.1128  138.9779  153.6756 C   0  0  0  0  0  0  0  0  0  0  0  0
  151.8565  138.1548  153.9403 C   0  0  0  0  0  0  0  0  0  0  0  0
  152.0228  137.7586  155.4008 C   0  0  1  0  0  0  0  0  0  0  0  0
  152.9199  136.6624  155.4684 O   0  0  0  0  0  0  0  0  0  0  0  0
  150.7226  137.2939  156.1075 C   0  0  0  0  0  0  0  0  0  0  0  0
  149.8429  136.4661  155.2967 N   0  0  0  0  0  0  0  0  0  0  0  0
  150.2160  135.4657  154.4258 C   0  0  0  0  0  0  0  0  0  0  0  0
  149.2331  134.8611  153.8150 N   0  0  0  0  0  0  0  0  0  0  0  0
  148.0967  135.4814  154.3164 C   0  0  0  0  0  0  0  0  0  0  0  0
  146.7056  135.3174  154.0929 C   0  0  0  0  0  0  0  0  0  0  0  0
  146.2332  134.3990  153.2210 N   0  0  0  0  0  0  0  0  0  0  0  0
  146.7386  133.0526  153.4397 C   0  0  0  0  0  0  0  0  0  0  0  0
  146.4010  132.2643  152.1678 C   0  0  0  0  0  0  0  0  0  0  0  0
  146.1093  133.3372  151.0961 C   0  0  1  0  0  0  0  0  0  0  0  0
  144.7428  133.2676  150.4894 N   0  3  2  0  0  0  0  0  0  0  0  0
  143.6107  133.2578  151.4516 C   0  0  0  0  0  0  0  0  0  0  0  0
  144.6051  132.2104  149.4554 C   0  0  0  0  0  0  0  0  0  0  0  0
  143.3455  132.4020  148.5941 C   0  0  0  0  0  0  0  0  0  0  0  0
  143.4499  133.5963  147.8483 O   0  0  0  0  0  0  0  0  0  0  0  0
  146.4198  134.6721  151.8024 C   0  0  1  0  0  0  0  0  0  0  0  0
  145.6753  135.9226  151.2926 C   0  0  0  0  0  0  0  0  0  0  0  0
  145.8500  136.1163  154.7836 N   0  0  0  0  0  0  0  0  0  0  0  0
  146.3305  137.0212  155.6423 C   0  0  0  0  0  0  0  0  0  0  0  0
  147.6019  137.2855  155.9522 N   0  0  0  0  0  0  0  0  0  0  0  0
  148.4595  136.4850  155.2563 C   0  0  0  0  0  0  0  0  0  0  0  0
  146.8360  133.2354  150.2904 H   0  0  0  0  0  0  0  0  0  0  0  0
  147.4849  134.8567  151.6499 H   0  0  0  0  0  0  0  0  0  0  0  0
  153.0559  138.3625  158.0171 H   0  0  0  0  0  0  0  0  0  0  0  0
  153.9631  139.7997  157.5597 H   0  0  0  0  0  0  0  0  0  0  0  0
  154.4641  138.2246  156.9621 H   0  0  0  0  0  0  0  0  0  0  0  0
  151.9117  139.7523  156.2415 H   0  0  0  0  0  0  0  0  0  0  0  0
  152.9875  139.6820  152.8527 H   0  0  0  0  0  0  0  0  0  0  0  0
  153.9540  138.3257  153.4381 H   0  0  0  0  0  0  0  0  0  0  0  0
  150.9877  138.7982  153.8068 H   0  0  0  0  0  0  0  0  0  0  0  0
  151.7504  137.3060  153.2639 H   0  0  0  0  0  0  0  0  0  0  0  0
  152.5263  135.9823  155.9932 H   0  0  0  0  0  0  0  0  0  0  0  0
  150.9697  136.7347  157.0110 H   0  0  0  0  0  0  0  0  0  0  0  0
  150.1517  138.1628  156.4390 H   0  0  0  0  0  0  0  0  0  0  0  0
  151.2490  135.1998  154.2532 H   0  0  0  0  0  0  0  0  0  0  0  0
  147.8186  133.0695  153.5953 H   0  0  0  0  0  0  0  0  0  0  0  0
  146.2796  132.6034  154.3211 H   0  0  0  0  0  0  0  0  0  0  0  0
  147.2439  131.6367  151.8771 H   0  0  0  0  0  0  0  0  0  0  0  0
  145.5637  131.5912  152.3418 H   0  0  0  0  0  0  0  0  0  0  0  0
  143.4760  132.2803  151.9141 H   0  0  0  0  0  0  0  0  0  0  0  0
  142.6843  133.5003  150.9304 H   0  0  0  0  0  0  0  0  0  0  0  0
  143.7356  133.9947  152.2436 H   0  0  0  0  0  0  0  0  0  0  0  0
  145.4976  132.1937  148.8284 H   0  0  0  0  0  0  0  0  0  0  0  0
  144.5505  131.2277  149.9275 H   0  0  0  0  0  0  0  0  0  0  0  0
  143.1752  131.5637  147.9194 H   0  0  0  0  0  0  0  0  0  0  0  0
  142.4669  132.4757  149.2353 H   0  0  0  0  0  0  0  0  0  0  0  0
  144.3394  133.9120  147.9062 H   0  0  0  0  0  0  0  0  0  0  0  0
  145.8132  136.0451  150.2181 H   0  0  0  0  0  0  0  0  0  0  0  0
  146.0539  136.8253  151.7730 H   0  0  0  0  0  0  0  0  0  0  0  0
  144.6050  135.8775  151.4901 H   0  0  0  0  0  0  0  0  0  0  0  0
  145.5915  137.6214  156.1527 H   0  0  0  0  0  0  0  0  0  0  0  0
  144.6385  134.1341  149.9800 H   0  0  0  0  0  0  0  0  0  0  0  0
  1  2  1  0  0  0  0
  1 31  1  0  0  0  0
  1 32  1  0  0  0  0
  1 33  1  0  0  0  0
  2  6  1  0  0  0  0
  2  3  1  0  0  0  0
  2 34  1  0  0  0  0
  3  4  1  0  0  0  0
  4  5  1  0  0  0  0
  4 35  1  0  0  0  0
  4 36  1  0  0  0  0
  5  6  1  0  0  0  0
  5 37  1  0  0  0  0
  5 38  1  0  0  0  0
  6  7  1  0  0  0  0
  6  8  1  0  0  0  0
  7 39  1  0  0  0  0
  8  9  1  0  0  0  0
  8 40  1  0  0  0  0
  8 41  1  0  0  0  0
  9 28  1  0  0  0  0
  9 10  1  0  0  0  0
 10 11  2  0  0  0  0
 10 42  1  0  0  0  0
 11 12  1  0  0  0  0
 12 28  2  0  0  0  0
 12 13  1  0  0  0  0
 13 14  1  0  0  0  0
 13 25  2  0  0  0  0
 14 23  1  0  0  0  0
 14 15  1  0  0  0  0
 15 16  1  0  0  0  0
 15 43  1  0  0  0  0
 15 44  1  0  0  0  0
 16 17  1  0  0  0  0
 16 45  1  0  0  0  0
 16 46  1  0  0  0  0
 17 29  1  0  0  0  0
 17 18  1  0  0  0  0
 17 23  1  0  0  0  0
 18 19  1  0  0  0  0
 18 20  1  0  0  0  0
 18 59  1  0  0  0  0
 19 47  1  0  0  0  0
 19 48  1  0  0  0  0
 19 49  1  0  0  0  0
 20 21  1  0  0  0  0
 20 50  1  0  0  0  0
 20 51  1  0  0  0  0
 21 22  1  0  0  0  0
 21 52  1  0  0  0  0
 21 53  1  0  0  0  0
 22 54  1  0  0  0  0
 23 30  1  0  0  0  0
 23 24  1  0  0  0  0
 24 55  1  0  0  0  0
 24 56  1  0  0  0  0
 24 57  1  0  0  0  0
 25 26  1  0  0  0  0
 26 27  2  0  0  0  0
 26 58  1  0  0  0  0
 27 28  1  0  0  0  0
M  CHG  1  18   1
M  END
> <s_m_source_file>
AV-unprocessed.smi

> <i_m_source_file_index>
290

> <i_lp_mmshare_version>
43012

> <i_f3d_flags>
0

> <s_epik_input>
W0NIMl0xW0NIMl1PW0NAQEhdKFtDSDNdKVtDQEBdMShbT0hdKVtDSDJdbihbY0hdbjIpYyhjMjMpbltjSF1uYzNONFtDSDJdW0NIMl1bQ0BIXShbQ0BIXTRbQ0gzXSlOKFtDSDNdKVtDSDJdW0NIMl1bT0hd

> <s_epik_cmdline>
J2VwaWtfcHl0aG9uJywgJy1waCcsICc3LjAnLCAnLXRuJywgJzgnLCAnLW1hJywgJzIwMCcsICctbWV0YWxfYmluZGluZycsICctaW1hZScsICc8aW5maWxlLm1hZT4nLCAnLW9tYWUnLCAnPG91dGZpbGUubWFlPic=

> <r_lp_tautomer_probability>
1

> <r_epik_Ionization_Penalty>
0.0036983

> <r_epik_Ionization_Penalty_Charging>
0.0032725

> <r_epik_Ionization_Penalty_Neutral>
0.000425798

> <r_epik_State_Penalty>
-0

> <r_epik_Charging_Adjusted_Penalty>
0.0032725

> <i_epik_Tot_Q>
1

> <i_epik_Tot_abs_Q>
1

> <r_epik_Metal_State_Penalty>
-0

> <b_epik_Metal_Only>
0

> <s_lp_Force_Field>
OPLS_2005

> <r_lp_Energy>
72.0744

> <b_lp_Chiralities_Consistent>
1

> <s_lp_Variant>
AV-unprocessed.smi:290-10

> <Gold.Version>
5.8.1

> <Gold.Id.Protein>
6NUR|6NUR_protein|mol2

> <Gold.PLP.Fitness>
49.4202

> <Gold.PLP.PLP>
-39.3394

> <Gold.PLP.part.hbond>
-5.7720

> <Gold.PLP.part.metal>
0.0000

> <Gold.PLP.part.buried>
-6.6951

> <Gold.PLP.part.nonpolar>
-28.7787

> <Gold.PLP.part.repulsive>
1.6557

> <Gold.PLP.ligand.clash>
0.0000

> <Gold.PLP.ligand.torsion>
1.0519

> <Gold.PLP.Chemscore.Hbond>
4.0000

> <Gold.PLP.Chemscore.CHOScore>
0.0000

> <Gold.PLP.Chemscore.Metal>
0.0000

> <Gold.Chemscore.Hbonds>
donor molecule, donor type, donor heavy atom, donor atom, acceptor molecule, acceptor atom, score
      L1  H    22    54       P1  7921  1.00
      P1  H 10192 10197       L1    22  0.50
      L1  C    10    42       P1  7949  0.05

> <Gold.PLP.Chemscore.Internal.Correction>
0.1846

> <Gold.Rescore>
     Score         DG    S(hbond)    S(metal)    S(lipo)     H(rot)  DE(clash)    DE(int)     intcor
     16.46     -21.14       4.05        0.00      98.49       3.67       2.82       1.85       ----

> <Gold.Chemscore.Fitness>
16.4630

> <Gold.Chemscore.DG>
-21.1393

> <Gold.Chemscore.ZeroCoef>
-5.4800

> <Gold.Chemscore.Hbond>
4.0480

> <Gold.Chemscore.Metal>
0.0000

> <Gold.Chemscore.Lipo>
98.4900

> <Gold.Chemscore.Internal_Hbond>
0.0000

> <Gold.Chemscore.DEClash>
2.8226

> <Gold.Chemscore.DEInternal>
1.8536

> <Gold.Chemscore.Rot>
3.6658

> <Gold.Chemscore.Internal.Correction>
   9.000000E+99

> <Gold.Chemscore.Hbonds>
donor molecule, donor type, donor heavy atom, donor atom, acceptor molecule, acceptor atom, score
      L1  H    22    54       P1  7921  0.96
      P1  H 10192 10197       L1    22  0.43

> <Gold.Chemscore.Hbond.Weighted>
-13.5204

> <Gold.Chemscore.Metal.Weighted>
-0.0000

> <Gold.Chemscore.Lipo.Weighted>
-11.5233

> <Gold.Chemscore.Internal_Hbond.Weighted>
0.0000

> <Gold.Chemscore.DEClash.Weighted>
2.8226

> <Gold.Chemscore.DEInternal.Weighted>
1.8536

> <Gold.Chemscore.Rot.Weighted>
9.3844

> <Gold.Chemscore.Internal.Correction.Weighted>
   9.000000E+99

> <Gold.Protein.RotatedTorsions>
[ 6907 6896 6895 6894 ] final  150.17 input  -60.11 | X-H torsion
[ 7974 7965 7964 7962 ] final -103.49 input  175.53 | X-H torsion
[ 8008 7997 7996 7995 ] final  -60.14 input   59.86 | X-H torsion
[ 10167 10162 10161 10158 ] final   78.21 input  -65.29 | X-H torsion
[ 10718 10713 10712 10709 ] final   10.74 input   66.30 | X-H torsion
[ 10763 10752 10751 10750 ] final  116.05 input  -60.55 | X-H torsion
[ 11005 11000 10999 10996 ] final -110.55 input  -57.11 | X-H torsion

> <Gold.Protein.ActiveResidues>
 VAL166  LYS551  ARG553  GLY616  TRP617  ASP618  TYR619  PRO620  LYS621  CYS622 
 ASP623  PHE694  ASN695  SER759  ASP760  ASP761  ALA762  ILE779  LEU786  VAL792 
 PHE793  MET794  SER795  GLU796  ALA797  LYS798  CYS799  TRP800  GLU811  SER814 

> <Gold.Protein.RotatedAtoms>
  152.1181  133.4338  159.4662 H   0  0  0  0  0  0  0  0  0  0  0  0  # atno 6907 bound_to 6896
  150.6870  134.2568  159.4542 H   0  0  0  0  0  0  0  0  0  0  0  0  # atno 6908 bound_to 6896
  152.0442  134.9692  160.0625 H   0  0  0  0  0  0  0  0  0  0  0  0  # atno 6909 bound_to 6896
  145.2552  140.9251  143.3072 H   0  0  0  0  0  0  0  0  0  0  0  0  # atno 7974 bound_to 7965
  154.4384  140.1046  156.6226 H   0  0  0  0  0  0  0  0  0  0  0  0  # atno 8008 bound_to 7997
  155.5691  140.3489  155.4492 H   0  0  0  0  0  0  0  0  0  0  0  0  # atno 8009 bound_to 7997
  156.0403  140.1280  157.0152 H   0  0  0  0  0  0  0  0  0  0  0  0  # atno 8010 bound_to 7997
  139.9733  144.5879  150.7966 H   0  0  0  0  0  0  0  0  0  0  0  0  # atno 10167 bound_to 10162
  156.9853  130.6021  149.5680 H   0  0  0  0  0  0  0  0  0  0  0  0  # atno 10718 bound_to 10713
  153.5314  135.3577  155.2677 H   0  0  0  0  0  0  0  0  0  0  0  0  # atno 10763 bound_to 10752
  154.8726  135.4069  154.3147 H   0  0  0  0  0  0  0  0  0  0  0  0  # atno 10764 bound_to 10752
  153.3836  135.7069  153.6614 H   0  0  0  0  0  0  0  0  0  0  0  0  # atno 10765 bound_to 10752
  141.0785  133.9260  157.2339 H   0  0  0  0  0  0  0  0  0  0  0  0  # atno 11005 bound_to 11000
  144.9467  139.4128  143.6422 LP  0  0  0  0  0  0  0  0  0  0  0  0  # atno 17320 bound_to 7965
  146.3291  139.8454  142.8883 LP  0  0  0  0  0  0  0  0  0  0  0  0  # atno 17321 bound_to 7965
  140.7514  143.2972  151.3173 LP  0  0  0  0  0  0  0  0  0  0  0  0  # atno 17342 bound_to 10162
  139.6464  144.0442  152.2594 LP  0  0  0  0  0  0  0  0  0  0  0  0  # atno 17343 bound_to 10162
  156.0228  130.5323  150.8324 LP  0  0  0  0  0  0  0  0  0  0  0  0  # atno 17370 bound_to 10713
  157.5497  131.0943  150.9713 LP  0  0  0  0  0  0  0  0  0  0  0  0  # atno 17371 bound_to 10713
  139.9598  135.0157  156.9229 LP  0  0  0  0  0  0  0  0  0  0  0  0  # atno 17394 bound_to 11000
  140.5521  134.0617  155.7372 LP  0  0  0  0  0  0  0  0  0  0  0  0  # atno 17395 bound_to 11000

$$$$
