AV-unprocessed.smi:276|AV-procd|sdf|2073|dock9
  -GOLD-   2262021333D 1   1.00000     0.00000
 Structure written by MMmdl.
 57 61  0  0  0  0  0  0  0  0  1 V2000
  154.6648  128.3671  163.2616 C   0  0  0  0  0  0  0  0  0  0  0  0
  153.8917  129.4471  163.7543 O   0  0  0  0  0  0  0  0  0  0  0  0
  154.3885  130.7087  163.3364 C   0  0  1  0  0  0  0  0  0  0  0  0
  154.2642  130.9755  161.8313 C   0  0  0  0  0  0  0  0  0  0  0  0
  153.8349  132.4180  162.1647 C   0  0  2  0  0  0  0  0  0  0  0  0
  154.9829  133.3369  162.1659 N   0  0  0  0  0  0  0  0  0  0  0  0
  155.8385  133.2978  160.9844 C   0  0  0  0  0  0  0  0  0  0  0  0
  154.7039  134.6211  162.4805 C   0  0  0  0  0  0  0  0  0  0  0  0
  154.7619  134.9603  163.7921 N   0  0  0  0  0  0  0  0  0  0  0  0
  154.4675  136.2068  164.1734 C   0  0  0  0  0  0  0  0  0  0  0  0
  154.0977  137.2450  163.4204 N   0  0  0  0  0  0  0  0  0  0  0  0
  154.0555  136.9099  162.0987 C   0  0  0  0  0  0  0  0  0  0  0  0
  154.3539  135.6345  161.5427 C   0  0  0  0  0  0  0  0  0  0  0  0
  154.2163  135.6775  160.1603 N   0  0  0  0  0  0  0  0  0  0  0  0
  153.8381  136.9018  159.9150 C   0  0  0  0  0  0  0  0  0  0  0  0
  153.6892  137.7021  161.0250 N   0  0  0  0  0  0  0  0  0  0  0  0
  153.2617  139.0893  161.0426 C   0  0  0  0  0  0  0  0  0  0  0  0
  154.4052  140.0939  160.7685 C   0  0  2  0  0  0  0  0  0  0  0  0
  155.3014  139.9496  161.8518 O   0  0  0  0  0  0  0  0  0  0  0  0
  153.9897  141.5836  160.7142 C   0  0  2  0  0  0  0  0  0  0  0  0
  153.2594  142.1316  161.9467 C   0  0  0  0  0  0  0  0  0  0  0  0
  152.3622  143.2327  161.4026 C   0  0  0  0  0  0  0  0  0  0  0  0
  152.4385  143.0537  159.8879 C   0  0  0  0  0  0  0  0  0  0  0  0
  152.9923  141.7587  159.7173 O   0  0  0  0  0  0  0  0  0  0  0  0
  153.4028  131.8705  163.5537 C   0  0  0  0  0  0  0  0  0  0  0  0
  151.9145  131.5748  163.8166 C   0  0  0  0  0  0  0  0  0  0  0  0
  152.1832  131.8217  165.3033 C   0  0  0  0  0  0  0  0  0  0  0  0
  153.3886  132.6621  164.8764 C   0  0  0  0  0  0  0  0  0  0  0  0
  154.2462  127.4257  163.6170 H   0  0  0  0  0  0  0  0  0  0  0  0
  155.6960  128.4303  163.6111 H   0  0  0  0  0  0  0  0  0  0  0  0
  154.6658  128.3439  162.1713 H   0  0  0  0  0  0  0  0  0  0  0  0
  155.3808  130.9403  163.7291 H   0  0  0  0  0  0  0  0  0  0  0  0
  155.1959  130.8554  161.2794 H   0  0  0  0  0  0  0  0  0  0  0  0
  153.4596  130.4006  161.3695 H   0  0  0  0  0  0  0  0  0  0  0  0
  153.0004  132.7492  161.5463 H   0  0  0  0  0  0  0  0  0  0  0  0
  156.5453  134.1290  160.9664 H   0  0  0  0  0  0  0  0  0  0  0  0
  155.2391  133.3433  160.0746 H   0  0  0  0  0  0  0  0  0  0  0  0
  156.4239  132.3793  160.9613 H   0  0  0  0  0  0  0  0  0  0  0  0
  154.5297  136.3972  165.2348 H   0  0  0  0  0  0  0  0  0  0  0  0
  153.6400  137.2518  158.9123 H   0  0  0  0  0  0  0  0  0  0  0  0
  152.4560  139.2258  160.3202 H   0  0  0  0  0  0  0  0  0  0  0  0
  152.8287  139.2766  162.0263 H   0  0  0  0  0  0  0  0  0  0  0  0
  154.9306  139.8186  159.8534 H   0  0  0  0  0  0  0  0  0  0  0  0
  154.9869  140.4732  162.5728 H   0  0  0  0  0  0  0  0  0  0  0  0
  154.8491  142.2172  160.4849 H   0  0  0  0  0  0  0  0  0  0  0  0
  152.6378  141.3581  162.3990 H   0  0  0  0  0  0  0  0  0  0  0  0
  153.9462  142.5030  162.7065 H   0  0  0  0  0  0  0  0  0  0  0  0
  151.3415  143.1064  161.7642 H   0  0  0  0  0  0  0  0  0  0  0  0
  152.7055  144.2243  161.6990 H   0  0  0  0  0  0  0  0  0  0  0  0
  151.4654  143.1382  159.4037 H   0  0  0  0  0  0  0  0  0  0  0  0
  153.1070  143.7935  159.4449 H   0  0  0  0  0  0  0  0  0  0  0  0
  151.2548  132.3276  163.3814 H   0  0  0  0  0  0  0  0  0  0  0  0
  151.5823  130.5658  163.5713 H   0  0  0  0  0  0  0  0  0  0  0  0
  151.4006  132.3726  165.8248 H   0  0  0  0  0  0  0  0  0  0  0  0
  152.4678  130.9148  165.8392 H   0  0  0  0  0  0  0  0  0  0  0  0
  154.2762  132.5384  165.4970 H   0  0  0  0  0  0  0  0  0  0  0  0
  153.1154  133.7109  164.7677 H   0  0  0  0  0  0  0  0  0  0  0  0
  1  2  1  0  0  0  0
  1 29  1  0  0  0  0
  1 30  1  0  0  0  0
  1 31  1  0  0  0  0
  2  3  1  0  0  0  0
  3 25  1  0  0  0  0
  3  4  1  0  0  0  0
  3 32  1  0  0  0  0
  4  5  1  0  0  0  0
  4 33  1  0  0  0  0
  4 34  1  0  0  0  0
  5  6  1  0  0  0  0
  5 25  1  0  0  0  0
  5 35  1  0  0  0  0
  6  7  1  0  0  0  0
  6  8  1  0  0  0  0
  7 36  1  0  0  0  0
  7 37  1  0  0  0  0
  7 38  1  0  0  0  0
  8 13  1  0  0  0  0
  8  9  2  0  0  0  0
  9 10  1  0  0  0  0
 10 11  2  0  0  0  0
 10 39  1  0  0  0  0
 11 12  1  0  0  0  0
 12 16  1  0  0  0  0
 12 13  2  0  0  0  0
 13 14  1  0  0  0  0
 14 15  2  0  0  0  0
 15 16  1  0  0  0  0
 15 40  1  0  0  0  0
 16 17  1  0  0  0  0
 17 18  1  0  0  0  0
 17 41  1  0  0  0  0
 17 42  1  0  0  0  0
 18 19  1  0  0  0  0
 18 20  1  0  0  0  0
 18 43  1  0  0  0  0
 19 44  1  0  0  0  0
 20 24  1  0  0  0  0
 20 21  1  0  0  0  0
 20 45  1  0  0  0  0
 21 22  1  0  0  0  0
 21 46  1  0  0  0  0
 21 47  1  0  0  0  0
 22 23  1  0  0  0  0
 22 48  1  0  0  0  0
 22 49  1  0  0  0  0
 23 24  1  0  0  0  0
 23 50  1  0  0  0  0
 23 51  1  0  0  0  0
 25 28  1  0  0  0  0
 25 26  1  0  0  0  0
 26 27  1  0  0  0  0
 26 52  1  0  0  0  0
 26 53  1  0  0  0  0
 27 28  1  0  0  0  0
 27 54  1  0  0  0  0
 27 55  1  0  0  0  0
 28 56  1  0  0  0  0
 28 57  1  0  0  0  0
M  END
> <s_m_source_file>
AV-unprocessed.smi

> <i_m_source_file_index>
276

> <i_lp_mmshare_version>
43012

> <i_f3d_flags>
0

> <s_epik_input>
W0NIMl0xW0NIMl1bQ0gyXUMxMltDQEhdKE9bQ0gzXSlbQ0gyXVtDQEhdMk4oW0NIM10pYyhuW2NIXW4zKWMoYzM0KW5bY0hdbjRbQ0gyXVtDQEhdKFtPSF0pW0NAQEhdNVtDSDJdW0NIMl1bQ0gyXU81

> <s_epik_cmdline>
J2VwaWtfcHl0aG9uJywgJy1waCcsICc3LjAnLCAnLXRuJywgJzgnLCAnLW1hJywgJzIwMCcsICctbWV0YWxfYmluZGluZycsICctaW1hZScsICc8aW5maWxlLm1hZT4nLCAnLW9tYWUnLCAnPG91dGZpbGUubWFlPic=

> <r_lp_tautomer_probability>
1

> <r_epik_Ionization_Penalty>
0.00204117

> <r_epik_Ionization_Penalty_Charging>
0

> <r_epik_Ionization_Penalty_Neutral>
0.00204117

> <r_epik_State_Penalty>
0.00127401

> <r_epik_Charging_Adjusted_Penalty>
0.00127401

> <i_epik_Tot_Q>
0

> <i_epik_Tot_abs_Q>
0

> <r_epik_Metal_State_Penalty>
-0

> <b_epik_Metal_Only>
0

> <s_lp_Force_Field>
OPLS_2005

> <r_lp_Energy>
57.8978

> <b_lp_Chiralities_Consistent>
1

> <s_lp_Variant>
AV-unprocessed.smi:276-4

> <Gold.Version>
5.8.1

> <Gold.Id.Protein>
6NUR|6NUR_protein|mol2

> <Gold.PLP.Fitness>
41.8434

> <Gold.PLP.PLP>
-40.8933

> <Gold.PLP.part.hbond>
-0.9111

> <Gold.PLP.part.metal>
0.0000

> <Gold.PLP.part.buried>
-6.3966

> <Gold.PLP.part.nonpolar>
-34.2100

> <Gold.PLP.part.repulsive>
0.0589

> <Gold.PLP.ligand.clash>
0.0000

> <Gold.PLP.ligand.torsion>
1.3546

> <Gold.PLP.Chemscore.Hbond>
0.9588

> <Gold.PLP.Chemscore.CHOScore>
0.0000

> <Gold.PLP.Chemscore.Metal>
0.0000

> <Gold.Chemscore.Hbonds>
donor molecule, donor type, donor heavy atom, donor atom, acceptor molecule, acceptor atom, score
      P1  H  6896  6907       L1    14  0.93

> <Gold.PLP.Chemscore.Internal.Correction>
0.7831

> <Gold.Rescore>
     Score         DG    S(hbond)    S(metal)    S(lipo)     H(rot)  DE(clash)    DE(int)     intcor
      9.10     -12.82       0.54        0.00     106.77       2.72       0.20       3.52       ----

> <Gold.Chemscore.Fitness>
9.1017

> <Gold.Chemscore.DG>
-12.8184

> <Gold.Chemscore.ZeroCoef>
-5.4800

> <Gold.Chemscore.Hbond>
0.5395

> <Gold.Chemscore.Metal>
0.0000

> <Gold.Chemscore.Lipo>
106.7728

> <Gold.Chemscore.Internal_Hbond>
0.0000

> <Gold.Chemscore.DEClash>
0.2014

> <Gold.Chemscore.DEInternal>
3.5153

> <Gold.Chemscore.Rot>
2.7172

> <Gold.Chemscore.Internal.Correction>
   9.000000E+99

> <Gold.Chemscore.Hbonds>
donor molecule, donor type, donor heavy atom, donor atom, acceptor molecule, acceptor atom, score
      P1  H  6896  6907       L1    14  0.10

> <Gold.Chemscore.Hbond.Weighted>
-1.8020

> <Gold.Chemscore.Metal.Weighted>
-0.0000

> <Gold.Chemscore.Lipo.Weighted>
-12.4924

> <Gold.Chemscore.Internal_Hbond.Weighted>
0.0000

> <Gold.Chemscore.DEClash.Weighted>
0.2014

> <Gold.Chemscore.DEInternal.Weighted>
3.5153

> <Gold.Chemscore.Rot.Weighted>
6.9560

> <Gold.Chemscore.Internal.Correction.Weighted>
   9.000000E+99

> <Gold.Protein.RotatedTorsions>
[ 6907 6896 6895 6894 ] final   67.53 input  -60.11 | X-H torsion
[ 7974 7965 7964 7962 ] final   30.31 input  175.53 | X-H torsion
[ 8008 7997 7996 7995 ] final  -62.41 input   59.86 | X-H torsion
[ 10167 10162 10161 10158 ] final  -73.81 input  -65.29 | X-H torsion
[ 10718 10713 10712 10709 ] final  -50.49 input   66.30 | X-H torsion
[ 10763 10752 10751 10750 ] final  -21.15 input  -60.55 | X-H torsion
[ 11005 11000 10999 10996 ] final  -71.42 input  -57.11 | X-H torsion

> <Gold.Protein.ActiveResidues>
 VAL166  LYS551  ARG553  GLY616  TRP617  ASP618  TYR619  PRO620  LYS621  CYS622 
 ASP623  PHE694  ASN695  SER759  ASP760  ASP761  ALA762  ILE779  LEU786  VAL792 
 PHE793  MET794  SER795  GLU796  ALA797  LYS798  CYS799  TRP800  GLU811  SER814 

> <Gold.Protein.RotatedAtoms>
  152.4558  134.5293  159.9806 H   0  0  0  0  0  0  0  0  0  0  0  0  # atno 6907 bound_to 6896
  151.5355  133.3436  159.2933 H   0  0  0  0  0  0  0  0  0  0  0  0  # atno 6908 bound_to 6896
  150.8503  134.7855  159.7066 H   0  0  0  0  0  0  0  0  0  0  0  0  # atno 6909 bound_to 6896
  146.1619  139.6805  142.9027 H   0  0  0  0  0  0  0  0  0  0  0  0  # atno 7974 bound_to 7965
  154.4498  140.0997  156.6582 H   0  0  0  0  0  0  0  0  0  0  0  0  # atno 8008 bound_to 7997
  155.5322  140.3481  155.4410 H   0  0  0  0  0  0  0  0  0  0  0  0  # atno 8009 bound_to 7997
  156.0656  140.1337  156.9879 H   0  0  0  0  0  0  0  0  0  0  0  0  # atno 8010 bound_to 7997
  140.5079  143.2349  151.7642 H   0  0  0  0  0  0  0  0  0  0  0  0  # atno 10167 bound_to 10162
  156.1796  130.4150  149.9527 H   0  0  0  0  0  0  0  0  0  0  0  0  # atno 10718 bound_to 10713
  153.6316  135.6989  153.5273 H   0  0  0  0  0  0  0  0  0  0  0  0  # atno 10763 bound_to 10752
  153.2855  135.4173  155.1118 H   0  0  0  0  0  0  0  0  0  0  0  0  # atno 10764 bound_to 10752
  154.8521  135.3612  154.5859 H   0  0  0  0  0  0  0  0  0  0  0  0  # atno 10765 bound_to 10752
  141.1592  133.6817  156.6903 H   0  0  0  0  0  0  0  0  0  0  0  0  # atno 11005 bound_to 11000
  145.4565  141.0431  143.2775 LP  0  0  0  0  0  0  0  0  0  0  0  0  # atno 17320 bound_to 7965
  144.8039  139.6088  143.7059 LP  0  0  0  0  0  0  0  0  0  0  0  0  # atno 17321 bound_to 7965
  139.4888  144.4431  151.9741 LP  0  0  0  0  0  0  0  0  0  0  0  0  # atno 17342 bound_to 10162
  140.3522  144.3075  150.5947 LP  0  0  0  0  0  0  0  0  0  0  0  0  # atno 17343 bound_to 10162
  156.7302  130.9040  151.3625 LP  0  0  0  0  0  0  0  0  0  0  0  0  # atno 17370 bound_to 10713
  157.6859  130.9185  150.0385 LP  0  0  0  0  0  0  0  0  0  0  0  0  # atno 17371 bound_to 10713
  140.3035  134.8144  157.4118 LP  0  0  0  0  0  0  0  0  0  0  0  0  # atno 17394 bound_to 11000
  140.1241  134.5181  155.8159 LP  0  0  0  0  0  0  0  0  0  0  0  0  # atno 17395 bound_to 11000

$$$$
