#       Name:                AV-unprocessed.smi:2007
#       Creating user name   scv26
#       Creation time:       Fri Mar 27 10:37:18 2020


#       File generated by GOLD software.
#

@<TRIPOS>MOLECULE
AV-unprocessed.smi:2007
    42    43     1
SMALL
NO_CHARGES


@<TRIPOS>ATOM
      1 ****        -0.0978   3.5187   1.0204 C.3            1 S1                 0.0000
      2 ****         0.0126   2.0050   0.7946 C.3            1 S1                 0.0000
      3 ****         1.4477   1.6104   0.3806 C.3            1 S1                 0.0000
      4 ****         1.6954   0.1758   0.2288 N.3            1 S1                 0.0000
      5 ****         2.9766  -0.0745  -0.4203 C.3            1 S1                 0.0000
      6 ****         3.2405  -1.5792  -0.6036 C.3            1 S1                 0.0000
      7 ****         3.1792  -2.2322   0.6603 O.3            1 S1                 0.0000
      8 ****         1.9267  -2.0464   1.3124 C.3            1 S1                 0.0000
      9 ****         1.6599  -0.5432   1.5003 C.3            1 S1                 0.0000
     10 ****        -0.9420   1.6125  -0.2420 N.am           1 S1                 0.0000
     11 ****        -1.7145   0.5158  -0.2476 C.2            1 S1                 0.0000
     12 ****        -1.6768  -0.2742   0.6986 O.2            1 S1                 0.0000
     13 ****        -2.4814   0.3988  -1.3557 N.pl3          1 S1                -1.0000
     14 ****        -3.2771  -0.6717  -1.5106 C.2            1 S1                 0.0000
     15 ****        -4.5953  -0.6402  -1.2842 N.2            1 S1                 0.0000
     16 ****        -5.2269  -1.8639  -1.5131 C.2            1 S1                 0.0000
     17 ****        -4.3712  -2.8477  -1.9326 C.2            1 S1                 0.0000
     18 ****        -2.7362  -2.2631  -2.0527 S.3            1 S1                 0.0000
     19 ****         0.5833   3.8485   1.8051 H              1 S1                 0.0000
     20 ****        -1.1076   3.7970   1.3236 H              1 S1                 0.0000
     21 ****         0.1433   4.0755   0.1142 H              1 S1                 0.0000
     22 ****        -0.2440   1.5318   1.7425 H              1 S1                 0.0000
     23 ****         1.6666   2.1084  -0.5652 H              1 S1                 0.0000
     24 ****         2.1569   2.0217   1.1005 H              1 S1                 0.0000
     25 ****         2.9999   0.4148  -1.3947 H              1 S1                 0.0000
     26 ****         3.7826   0.3649   0.1695 H              1 S1                 0.0000
     27 ****         2.5096  -2.0193  -1.2841 H              1 S1                 0.0000
     28 ****         4.2253  -1.7413  -1.0417 H              1 S1                 0.0000
     29 ****         1.1303  -2.5082   0.7263 H              1 S1                 0.0000
     30 ****         1.9482  -2.5516   2.2780 H              1 S1                 0.0000
     31 ****         2.4023  -0.1264   2.1824 H              1 S1                 0.0000
     32 ****         0.6912  -0.4215   1.9822 H              1 S1                 0.0000
     33 ****        -1.0135   2.2231  -1.0424 H              1 S1                 0.0000
     34 ****        -6.2918  -1.9440  -1.3534 H              1 S1                 0.0000
     35 ****        -4.6003  -3.8736  -2.1780 H              1 S1                 0.0000
     36 ****         0.9517  -0.1675  -0.3449 LP             1 S1                 0.0000
     37 ****         3.9025  -1.8658   1.2456 LP             1 S1                 0.0000
     38 ****         3.3262  -3.2117   0.5223 LP             1 S1                 0.0000
     39 ****        -1.0692  -0.0982   1.4731 LP             1 S1                 0.0000
     40 ****        -2.2540  -1.0909   0.6915 LP             1 S1                 0.0000
     41 ****        -2.4558   1.1091  -2.0591 LP             1 S1                 0.0000
     42 ****        -5.0807   0.1797  -0.9806 LP             1 S1                 0.0000
@<TRIPOS>BOND
    1    1    2 1     
    2    1   19 1     
    3    1   20 1     
    4    1   21 1     
    5    2    3 1     
    6    2   10 1     
    7    2   22 1     
    8    3    4 1     
    9    3   23 1     
   10    3   24 1     
   11    4    9 1     
   12    4    5 1     
   13    5    6 1     
   14    5   25 1     
   15    5   26 1     
   16    6    7 1     
   17    6   27 1     
   18    6   28 1     
   19    7    8 1     
   20    8    9 1     
   21    8   29 1     
   22    8   30 1     
   23    9   31 1     
   24    9   32 1     
   25   10   11 am    
   26   10   33 1     
   27   11   12 2     
   28   11   13 1     
   29   13   14 1     
   30   14   18 1     
   31   14   15 2     
   32   15   16 1     
   33   16   17 2     
   34   16   34 1     
   35   17   18 1     
   36   17   35 1     
   37    4   36 1     
   38    7   37 1     
   39    7   38 1     
   40   12   39 1     
   41   12   40 1     
   42   13   41 1     
   43   15   42 1     
@<TRIPOS>SUBSTRUCTURE
      1 S1             1
@<TRIPOS>SET
LONE_PAIRS      STATIC     ATOMS    <user>   **** ""
7 36 37 38 39 40 41 42
DONOR_HYDROGENS      STATIC     ATOMS    <user>   **** ""
1 33
ATOM$BLUE        STATIC     ATOMS    COLORGROUP SYSTEM
7 36 37 38 39 40 41 42
ATOM$RED        STATIC     ATOMS    COLORGROUP SYSTEM
1 33
