AV-unprocessed.smi:464|AV-procd|sdf|2636|dock5
  -GOLD-   2262023 43D 1   1.00000     0.00000
 Structure written by MMmdl.
 25 26  0  0  0  0  0  0  0  0  1 V2000
  150.2929  140.4053  154.8572 O   0  0  0  0  0  0  0  0  0  0  0  0
  150.7862  140.9981  155.8132 C   0  0  0  0  0  0  0  0  0  0  0  0
  150.4362  142.3138  156.1196 N   0  0  0  0  0  0  0  0  0  0  0  0
  150.9980  142.9671  157.1960 C   0  0  0  0  0  0  0  0  0  0  0  0
  151.9118  142.3822  158.0109 C   0  0  0  0  0  0  0  0  0  0  0  0
  152.4729  143.0471  159.0896 N   0  0  0  0  0  0  0  0  0  0  0  0
  152.9219  142.3700  160.2978 C   0  0  0  0  0  0  0  0  0  0  0  0
  152.1149  142.8640  161.5114 C   0  0  0  0  0  0  0  0  0  0  0  0
  152.2161  144.2824  161.6061 O   0  0  0  0  0  0  0  0  0  0  0  0
  151.6986  144.9374  160.4510 C   0  0  0  0  0  0  0  0  0  0  0  0
  152.4945  144.4981  159.2091 C   0  0  0  0  0  0  0  0  0  0  0  0
  152.3332  140.9968  157.7547 C   0  0  0  0  0  0  0  0  0  0  0  0
  153.1501  140.3613  158.4198 O   0  0  0  0  0  0  0  0  0  0  0  0
  151.7248  140.3913  156.6482 N   0  0  0  0  0  0  0  0  0  0  0  0
  149.7594  142.7757  155.5292 H   0  0  0  0  0  0  0  0  0  0  0  0
  151.9871  139.4391  156.4385 H   0  0  0  0  0  0  0  0  0  0  0  0
  150.6888  143.9853  157.3849 H   0  0  0  0  0  0  0  0  0  0  0  0
  152.8135  141.2900  160.1886 H   0  0  0  0  0  0  0  0  0  0  0  0
  153.9846  142.5686  160.4426 H   0  0  0  0  0  0  0  0  0  0  0  0
  151.0677  142.5688  161.4308 H   0  0  0  0  0  0  0  0  0  0  0  0
  152.5015  142.4178  162.4276 H   0  0  0  0  0  0  0  0  0  0  0  0
  150.6379  144.7088  160.3361 H   0  0  0  0  0  0  0  0  0  0  0  0
  151.7788  146.0158  160.5877 H   0  0  0  0  0  0  0  0  0  0  0  0
  153.5296  144.8336  159.2835 H   0  0  0  0  0  0  0  0  0  0  0  0
  152.0760  144.9577  158.3126 H   0  0  0  0  0  0  0  0  0  0  0  0
  1  2  2  0  0  0  0
  2 14  1  0  0  0  0
  2  3  1  0  0  0  0
  3 15  1  0  0  0  0
  3  4  1  0  0  0  0
  4  5  2  0  0  0  0
  4 17  1  0  0  0  0
  5  6  1  0  0  0  0
  5 12  1  0  0  0  0
  6 11  1  0  0  0  0
  6  7  1  0  0  0  0
  7  8  1  0  0  0  0
  7 18  1  0  0  0  0
  7 19  1  0  0  0  0
  8  9  1  0  0  0  0
  8 20  1  0  0  0  0
  8 21  1  0  0  0  0
  9 10  1  0  0  0  0
 10 11  1  0  0  0  0
 10 22  1  0  0  0  0
 10 23  1  0  0  0  0
 11 24  1  0  0  0  0
 11 25  1  0  0  0  0
 12 13  2  0  0  0  0
 12 14  1  0  0  0  0
 14 16  1  0  0  0  0
M  END
> <s_m_source_file>
AV-unprocessed.smi

> <i_m_source_file_index>
464

> <i_lp_mmshare_version>
43012

> <i_f3d_flags>
0

> <s_epik_input>
Tz1jMVtuSF1bY0hdYyhjKD1PKVtuSF0xKU4yW0NIMl1bQ0gyXU9bQ0gyXVtDSDJdMg==

> <s_epik_cmdline>
J2VwaWtfcHl0aG9uJywgJy1waCcsICc3LjAnLCAnLXRuJywgJzgnLCAnLW1hJywgJzIwMCcsICctbWV0YWxfYmluZGluZycsICctaW1hZScsICc8aW5maWxlLm1hZT4nLCAnLW9tYWUnLCAnPG91dGZpbGUubWFlPic=

> <r_lp_tautomer_probability>
0.999801

> <r_epik_Ionization_Penalty>
0.0101854

> <r_epik_Ionization_Penalty_Charging>
0.0101853

> <r_epik_Ionization_Penalty_Neutral>
7.32569e-08

> <r_epik_State_Penalty>
0.00491364

> <r_epik_Charging_Adjusted_Penalty>
0.015099

> <i_epik_Tot_Q>
0

> <i_epik_Tot_abs_Q>
0

> <r_epik_Metal_State_Penalty>
1.54201

> <b_epik_Metal_Only>
0

> <s_lp_Force_Field>
OPLS_2005

> <r_lp_Energy>
18.7327

> <b_lp_Chiralities_Consistent>
1

> <s_lp_Variant>
AV-unprocessed.smi:464-1

> <Gold.Version>
5.8.1

> <Gold.Id.Protein>
6NUR|6NUR_protein|mol2

> <Gold.PLP.Fitness>
38.7710

> <Gold.PLP.PLP>
-30.0707

> <Gold.PLP.part.hbond>
-3.0000

> <Gold.PLP.part.metal>
0.0000

> <Gold.PLP.part.buried>
-1.7500

> <Gold.PLP.part.nonpolar>
-24.3526

> <Gold.PLP.part.repulsive>
0.5038

> <Gold.PLP.ligand.clash>
0.0000

> <Gold.PLP.ligand.torsion>
0.2764

> <Gold.PLP.Chemscore.Hbond>
2.3643

> <Gold.PLP.Chemscore.CHOScore>
0.5489

> <Gold.PLP.Chemscore.Metal>
0.0000

> <Gold.Chemscore.Hbonds>
donor molecule, donor type, donor heavy atom, donor atom, acceptor molecule, acceptor atom, score
      L1  H     3    15       P1  8028  0.47
      P1  H  7989  7998       L1     1  0.95
      P1  H  7997  8008       L1    13  0.82
      L1  C     4    17       P1  8028  0.56

> <Gold.PLP.Chemscore.Internal.Correction>
0.5136

> <Gold.Rescore>
     Score         DG    S(hbond)    S(metal)    S(lipo)     H(rot)  DE(clash)    DE(int)     intcor
     17.41     -19.15       1.82        0.00      65.00       0.00       0.00       1.74       ----

> <Gold.Chemscore.Fitness>
17.4109

> <Gold.Chemscore.DG>
-19.1512

> <Gold.Chemscore.ZeroCoef>
-5.4800

> <Gold.Chemscore.Hbond>
1.8161

> <Gold.Chemscore.Metal>
0.0000

> <Gold.Chemscore.Lipo>
65.0026

> <Gold.Chemscore.Internal_Hbond>
0.0000

> <Gold.Chemscore.DEClash>
0.0018

> <Gold.Chemscore.DEInternal>
1.7385

> <Gold.Chemscore.Rot>
0.0000

> <Gold.Chemscore.Internal.Correction>
   9.000000E+99

> <Gold.Chemscore.Hbonds>
donor molecule, donor type, donor heavy atom, donor atom, acceptor molecule, acceptor atom, score
      L1  H     3    15       P1  8028  0.46
      P1  H  7989  7998       L1     1  0.20
      P1  H  7997  8008       L1    13  0.17

> <Gold.Chemscore.Hbond.Weighted>
-6.0659

> <Gold.Chemscore.Metal.Weighted>
-0.0000

> <Gold.Chemscore.Lipo.Weighted>
-7.6053

> <Gold.Chemscore.Internal_Hbond.Weighted>
0.0000

> <Gold.Chemscore.DEClash.Weighted>
0.0018

> <Gold.Chemscore.DEInternal.Weighted>
1.7385

> <Gold.Chemscore.Rot.Weighted>
0.0000

> <Gold.Chemscore.Internal.Correction.Weighted>
   9.000000E+99

> <Gold.Protein.RotatedTorsions>
[ 6907 6896 6895 6894 ] final  -76.69 input  -60.11 | X-H torsion
[ 7974 7965 7964 7962 ] final   97.00 input  175.53 | X-H torsion
[ 8008 7997 7996 7995 ] final  -82.26 input   59.86 | X-H torsion
[ 10167 10162 10161 10158 ] final   47.15 input  -65.29 | X-H torsion
[ 10718 10713 10712 10709 ] final -173.79 input   66.30 | X-H torsion
[ 10763 10752 10751 10750 ] final  174.00 input  -60.55 | X-H torsion
[ 11005 11000 10999 10996 ] final  -36.05 input  -57.11 | X-H torsion

> <Gold.Protein.ActiveResidues>
 VAL166  LYS551  ARG553  GLY616  TRP617  ASP618  TYR619  PRO620  LYS621  CYS622 
 ASP623  PHE694  ASN695  SER759  ASP760  ASP761  ALA762  ILE779  LEU786  VAL792 
 PHE793  MET794  SER795  GLU796  ALA797  LYS798  CYS799  TRP800  GLU811  SER814 

> <Gold.Protein.RotatedAtoms>
  150.7020  134.4535  159.5346 H   0  0  0  0  0  0  0  0  0  0  0  0  # atno 6907 bound_to 6896
  152.2223  134.8398  160.0493 H   0  0  0  0  0  0  0  0  0  0  0  0  # atno 6908 bound_to 6896
  151.9244  133.3559  159.3945 H   0  0  0  0  0  0  0  0  0  0  0  0  # atno 6909 bound_to 6896
  145.4314  139.2310  143.3142 H   0  0  0  0  0  0  0  0  0  0  0  0  # atno 7974 bound_to 7965
  154.6068  140.0635  156.9442 H   0  0  0  0  0  0  0  0  0  0  0  0  # atno 8008 bound_to 7997
  155.2039  140.3317  155.4320 H   0  0  0  0  0  0  0  0  0  0  0  0  # atno 8009 bound_to 7997
  156.2352  140.1860  156.7120 H   0  0  0  0  0  0  0  0  0  0  0  0  # atno 8010 bound_to 7997
  140.3066  144.2870  150.6208 H   0  0  0  0  0  0  0  0  0  0  0  0  # atno 10167 bound_to 10162
  156.7755  130.9464  151.3120 H   0  0  0  0  0  0  0  0  0  0  0  0  # atno 10718 bound_to 10713
  154.4479  135.2764  155.1802 H   0  0  0  0  0  0  0  0  0  0  0  0  # atno 10763 bound_to 10752
  154.3641  135.6123  153.5709 H   0  0  0  0  0  0  0  0  0  0  0  0  # atno 10764 bound_to 10752
  152.9845  135.5841  154.4818 H   0  0  0  0  0  0  0  0  0  0  0  0  # atno 10765 bound_to 10752
  140.9844  133.7039  156.1739 H   0  0  0  0  0  0  0  0  0  0  0  0  # atno 11005 bound_to 11000
  146.2605  140.5051  142.8855 LP  0  0  0  0  0  0  0  0  0  0  0  0  # atno 17320 bound_to 7965
  144.8180  140.6502  143.6371 LP  0  0  0  0  0  0  0  0  0  0  0  0  # atno 17321 bound_to 7965
  140.5605  143.2193  151.7774 LP  0  0  0  0  0  0  0  0  0  0  0  0  # atno 17342 bound_to 10162
  139.4903  144.4355  151.9823 LP  0  0  0  0  0  0  0  0  0  0  0  0  # atno 17343 bound_to 10162
  157.6671  130.9017  149.9956 LP  0  0  0  0  0  0  0  0  0  0  0  0  # atno 17370 bound_to 10713
  156.1251  130.3645  149.9823 LP  0  0  0  0  0  0  0  0  0  0  0  0  # atno 17371 bound_to 10713
  140.7137  134.4434  157.5580 LP  0  0  0  0  0  0  0  0  0  0  0  0  # atno 17394 bound_to 11000
  139.8964  134.8660  156.2089 LP  0  0  0  0  0  0  0  0  0  0  0  0  # atno 17395 bound_to 11000

$$$$
