AV-unprocessed.smi:2789|AV-procd|sdf|10764|dock5
  -GOLD-   2272015193D 1   1.00000     0.00000
 Structure written by MMmdl.
 35 36  0  0  0  0  0  0  0  0  1 V2000
  146.0640  143.2400  154.2682 C   0  0  0  0  0  0  0  0  0  0  0  0
  147.0543  142.3556  154.7665 O   0  0  0  0  0  0  0  0  0  0  0  0
  147.8648  141.7704  153.7506 C   0  0  2  0  0  0  0  0  0  0  0  0
  147.1390  140.5063  153.2843 C   0  0  0  0  0  0  0  0  0  0  0  0
  147.5665  139.4345  154.2818 C   0  0  0  0  0  0  0  0  0  0  0  0
  149.0350  139.7495  154.5688 C   0  0  0  0  0  0  0  0  0  0  0  0
  149.2110  141.2609  154.3225 C   0  0  2  0  0  0  0  0  0  0  0  0
  149.6028  141.9429  155.5545 N   0  0  0  0  0  0  0  0  0  0  0  0
  150.5905  141.5541  156.3727 C   0  0  0  0  0  0  0  0  0  0  0  0
  151.2775  140.5510  156.1788 O   0  0  0  0  0  0  0  0  0  0  0  0
  150.7282  142.4080  157.4015 N   0  0  0  0  0  0  0  0  0  0  0  0
  151.6077  142.3579  158.4372 C   0  0  0  0  0  0  0  0  0  0  0  0
  152.0486  141.2662  159.1347 C   0  0  0  0  0  0  0  0  0  0  0  0
  152.9359  141.8454  160.0861 C   0  0  0  0  0  0  0  0  0  0  0  0
  153.0247  143.1649  159.9782 N   0  0  0  0  0  0  0  0  0  0  0  0
  152.2004  143.4891  158.9585 N   0  0  0  0  0  0  0  0  0  0  0  0
  152.0633  144.8801  158.5711 C   0  0  0  0  0  0  0  0  0  0  0  0
  145.5123  143.6785  155.0996 H   0  0  0  0  0  0  0  0  0  0  0  0
  145.3518  142.7110  153.6337 H   0  0  0  0  0  0  0  0  0  0  0  0
  146.5075  144.0522  153.6920 H   0  0  0  0  0  0  0  0  0  0  0  0
  148.0173  142.4538  152.9126 H   0  0  0  0  0  0  0  0  0  0  0  0
  146.0567  140.6305  153.2348 H   0  0  0  0  0  0  0  0  0  0  0  0
  147.4855  140.2313  152.2872 H   0  0  0  0  0  0  0  0  0  0  0  0
  146.9830  139.5338  155.1978 H   0  0  0  0  0  0  0  0  0  0  0  0
  147.4205  138.4232  153.9014 H   0  0  0  0  0  0  0  0  0  0  0  0
  149.3201  139.4401  155.5752 H   0  0  0  0  0  0  0  0  0  0  0  0
  149.6676  139.1948  153.8746 H   0  0  0  0  0  0  0  0  0  0  0  0
  149.9896  141.3839  153.5670 H   0  0  0  0  0  0  0  0  0  0  0  0
  149.0960  142.7847  155.7849 H   0  0  0  0  0  0  0  0  0  0  0  0
  150.1050  143.2019  157.4051 H   0  0  0  0  0  0  0  0  0  0  0  0
  151.7928  140.2254  159.0052 H   0  0  0  0  0  0  0  0  0  0  0  0
  153.5158  141.3492  160.8505 H   0  0  0  0  0  0  0  0  0  0  0  0
  151.2504  145.0026  157.8554 H   0  0  0  0  0  0  0  0  0  0  0  0
  152.9911  145.2253  158.1143 H   0  0  0  0  0  0  0  0  0  0  0  0
  151.8498  145.4895  159.4497 H   0  0  0  0  0  0  0  0  0  0  0  0
  1  2  1  0  0  0  0
  1 18  1  0  0  0  0
  1 19  1  0  0  0  0
  1 20  1  0  0  0  0
  2  3  1  0  0  0  0
  3  7  1  0  0  0  0
  3  4  1  0  0  0  0
  3 21  1  0  0  0  0
  4  5  1  0  0  0  0
  4 22  1  0  0  0  0
  4 23  1  0  0  0  0
  5  6  1  0  0  0  0
  5 24  1  0  0  0  0
  5 25  1  0  0  0  0
  6  7  1  0  0  0  0
  6 26  1  0  0  0  0
  6 27  1  0  0  0  0
  7  8  1  0  0  0  0
  7 28  1  0  0  0  0
  8  9  1  0  0  0  0
  8 29  1  0  0  0  0
  9 10  2  0  0  0  0
  9 11  1  0  0  0  0
 11 12  1  0  0  0  0
 11 30  1  0  0  0  0
 12 16  1  0  0  0  0
 12 13  2  0  0  0  0
 13 14  1  0  0  0  0
 13 31  1  0  0  0  0
 14 15  2  0  0  0  0
 14 32  1  0  0  0  0
 15 16  1  0  0  0  0
 16 17  1  0  0  0  0
 17 33  1  0  0  0  0
 17 34  1  0  0  0  0
 17 35  1  0  0  0  0
M  END
> <s_m_source_file>
AV-unprocessed.smi

> <i_m_source_file_index>
2789

> <i_lp_mmshare_version>
43012

> <i_f3d_flags>
0

> <s_epik_input>
W0NIM11PW0NAQEhdMVtDSDJdW0NIMl1bQ0gyXVtDQEhdMVtOSF1DKD1PKVtOSF1jMltjSF1bY0hdbm4yW0NIM10=

> <s_epik_cmdline>
J2VwaWtfcHl0aG9uJywgJy1waCcsICc3LjAnLCAnLXRuJywgJzgnLCAnLW1hJywgJzIwMCcsICctbWV0YWxfYmluZGluZycsICctaW1hZScsICc8aW5maWxlLm1hZT4nLCAnLW9tYWUnLCAnPG91dGZpbGUubWFlPic=

> <r_lp_tautomer_probability>
1

> <r_epik_Ionization_Penalty>
4.40608e-05

> <r_epik_Ionization_Penalty_Charging>
0

> <r_epik_Ionization_Penalty_Neutral>
4.40608e-05

> <r_epik_State_Penalty>
-0

> <r_epik_Charging_Adjusted_Penalty>
0

> <i_epik_Tot_Q>
0

> <i_epik_Tot_abs_Q>
0

> <r_epik_Metal_State_Penalty>
-0

> <b_epik_Metal_Only>
0

> <s_lp_Force_Field>
OPLS_2005

> <r_lp_Energy>
23.3685

> <b_lp_Chiralities_Consistent>
1

> <s_lp_Variant>
AV-unprocessed.smi:2789-3

> <Gold.Version>
5.8.1

> <Gold.Id.Protein>
6NUR|6NUR_protein|mol2

> <Gold.PLP.Fitness>
39.4925

> <Gold.PLP.PLP>
-38.1911

> <Gold.PLP.part.hbond>
-1.0000

> <Gold.PLP.part.metal>
0.0000

> <Gold.PLP.part.buried>
-5.5109

> <Gold.PLP.part.nonpolar>
-31.3688

> <Gold.PLP.part.repulsive>
0.3454

> <Gold.PLP.ligand.clash>
0.0000

> <Gold.PLP.ligand.torsion>
0.6749

> <Gold.PLP.Chemscore.Hbond>
0.8800

> <Gold.PLP.Chemscore.CHOScore>
0.0000

> <Gold.PLP.Chemscore.Metal>
0.0000

> <Gold.Chemscore.Hbonds>
donor molecule, donor type, donor heavy atom, donor atom, acceptor molecule, acceptor atom, score
      L1  H     8    29       P1  8028  1.00

> <Gold.PLP.Chemscore.Internal.Correction>
0.0113

> <Gold.Rescore>
     Score         DG    S(hbond)    S(metal)    S(lipo)     H(rot)  DE(clash)    DE(int)     intcor
     13.08     -15.35       1.40        0.00      72.26       1.27       0.09       2.18       ----

> <Gold.Chemscore.Fitness>
13.0772

> <Gold.Chemscore.DG>
-15.3484

> <Gold.Chemscore.ZeroCoef>
-5.4800

> <Gold.Chemscore.Hbond>
1.3978

> <Gold.Chemscore.Metal>
0.0000

> <Gold.Chemscore.Lipo>
72.2572

> <Gold.Chemscore.Internal_Hbond>
0.0000

> <Gold.Chemscore.DEClash>
0.0894

> <Gold.Chemscore.DEInternal>
2.1819

> <Gold.Chemscore.Rot>
1.2712

> <Gold.Chemscore.Internal.Correction>
   9.000000E+99

> <Gold.Chemscore.Hbonds>
donor molecule, donor type, donor heavy atom, donor atom, acceptor molecule, acceptor atom, score
      L1  H     8    29       P1  8028  0.93

> <Gold.Chemscore.Hbond.Weighted>
-4.6687

> <Gold.Chemscore.Metal.Weighted>
-0.0000

> <Gold.Chemscore.Lipo.Weighted>
-8.4541

> <Gold.Chemscore.Internal_Hbond.Weighted>
0.0000

> <Gold.Chemscore.DEClash.Weighted>
0.0894

> <Gold.Chemscore.DEInternal.Weighted>
2.1819

> <Gold.Chemscore.Rot.Weighted>
3.2544

> <Gold.Chemscore.Internal.Correction.Weighted>
   9.000000E+99

> <Gold.Protein.RotatedTorsions>
[ 6907 6896 6895 6894 ] final  168.51 input  -60.11 | X-H torsion
[ 7974 7965 7964 7962 ] final  -82.17 input  175.53 | X-H torsion
[ 8008 7997 7996 7995 ] final  123.78 input   59.86 | X-H torsion
[ 10167 10162 10161 10158 ] final  -60.71 input  -65.29 | X-H torsion
[ 10718 10713 10712 10709 ] final   22.90 input   66.30 | X-H torsion
[ 10763 10752 10751 10750 ] final -136.54 input  -60.55 | X-H torsion
[ 11005 11000 10999 10996 ] final  109.92 input  -57.11 | X-H torsion

> <Gold.Protein.ActiveResidues>
 VAL166  LYS551  ARG553  GLY616  TRP617  ASP618  TYR619  PRO620  LYS621  CYS622 
 ASP623  PHE694  ASN695  SER759  ASP760  ASP761  ALA762  ILE779  LEU786  VAL792 
 PHE793  MET794  SER795  GLU796  ALA797  LYS798  CYS799  TRP800  GLU811  SER814 

> <Gold.Protein.RotatedAtoms>
  151.8465  133.3432  159.3659 H   0  0  0  0  0  0  0  0  0  0  0  0  # atno 6907 bound_to 6896
  150.7219  134.5341  159.5724 H   0  0  0  0  0  0  0  0  0  0  0  0  # atno 6908 bound_to 6896
  152.2825  134.7813  160.0445 H   0  0  0  0  0  0  0  0  0  0  0  0  # atno 6909 bound_to 6896
  145.5369  140.9514  143.1572 H   0  0  0  0  0  0  0  0  0  0  0  0  # atno 7974 bound_to 7965
  156.2778  140.2755  156.1683 H   0  0  0  0  0  0  0  0  0  0  0  0  # atno 8008 bound_to 7997
  155.0682  140.0387  157.2617 H   0  0  0  0  0  0  0  0  0  0  0  0  # atno 8009 bound_to 7997
  154.7062  140.2659  155.6678 H   0  0  0  0  0  0  0  0  0  0  0  0  # atno 8010 bound_to 7997
  140.6053  143.2372  151.5835 H   0  0  0  0  0  0  0  0  0  0  0  0  # atno 10167 bound_to 10162
  157.1586  130.6707  149.6036 H   0  0  0  0  0  0  0  0  0  0  0  0  # atno 10718 bound_to 10713
  154.8681  135.3669  154.5078 H   0  0  0  0  0  0  0  0  0  0  0  0  # atno 10763 bound_to 10752
  153.5715  135.7020  153.5507 H   0  0  0  0  0  0  0  0  0  0  0  0  # atno 10764 bound_to 10752
  153.3538  135.4065  155.1629 H   0  0  0  0  0  0  0  0  0  0  0  0  # atno 10765 bound_to 10752
  139.8871  134.9471  156.6199 H   0  0  0  0  0  0  0  0  0  0  0  0  # atno 11005 bound_to 11000
  144.7597  139.6987  143.7239 LP  0  0  0  0  0  0  0  0  0  0  0  0  # atno 17320 bound_to 7965
  146.2007  139.5300  142.9745 LP  0  0  0  0  0  0  0  0  0  0  0  0  # atno 17321 bound_to 7965
  139.5320  144.2887  152.1170 LP  0  0  0  0  0  0  0  0  0  0  0  0  # atno 17342 bound_to 10162
  140.2076  144.4595  150.6401 LP  0  0  0  0  0  0  0  0  0  0  0  0  # atno 17343 bound_to 10162
  155.9757  130.4719  150.6482 LP  0  0  0  0  0  0  0  0  0  0  0  0  # atno 17370 bound_to 10713
  157.4153  131.0829  151.1182 LP  0  0  0  0  0  0  0  0  0  0  0  0  # atno 17371 bound_to 10713
  140.7747  133.8709  155.8520 LP  0  0  0  0  0  0  0  0  0  0  0  0  # atno 17394 bound_to 11000
  140.9812  134.1403  157.4493 LP  0  0  0  0  0  0  0  0  0  0  0  0  # atno 17395 bound_to 11000

$$$$
