AV-unprocessed.smi:613|AV-procd|sdf|3067|dock4
  -GOLD-   2262023593D 1   1.00000     0.00000
 Structure written by MMmdl.
 39 40  0  0  0  0  0  0  0  0  2 V2000
  150.8171  140.7601  158.3985 C   0  0  0  0  0  0  0  0  0  0  0  0
  150.4361  142.0096  157.7514 N   0  0  0  0  0  0  0  0  0  0  0  0
  149.2022  142.0436  156.9625 C   0  0  0  0  0  0  0  0  0  0  0  0
  147.9319  142.1873  157.8245 C   0  0  1  0  0  0  0  0  0  0  0  0
  147.6767  143.6318  158.3064 C   0  0  0  0  0  0  0  0  0  0  0  0
  146.4061  143.7663  159.0233 N   0  0  0  0  0  0  0  0  0  0  0  0
  146.1300  145.1320  159.4907 C   0  0  0  0  0  0  0  0  0  0  0  0
  144.8653  145.2643  160.3475 C   0  0  0  0  0  0  0  0  0  0  0  0
  144.5559  146.4867  160.7860 N   0  0  0  0  0  0  0  0  0  0  0  0
  144.1758  144.2785  160.6009 O   0  0  0  0  0  0  0  0  0  0  0  0
  145.3195  143.2566  158.1925 C   0  0  0  0  0  0  0  0  0  0  0  0
  145.5855  141.8180  157.7203 C   0  0  0  0  0  0  0  0  0  0  0  0
  146.8282  141.7680  157.0272 O   0  0  0  0  0  0  0  0  0  0  0  0
  151.0740  143.2083  158.1507 C   0  0  0  0  0  0  0  0  0  0  0  0
  152.0497  143.2562  159.1768 C   0  0  0  0  0  0  0  0  0  0  0  0
  152.6164  144.4962  159.5170 C   0  0  0  0  0  0  0  0  0  0  0  0
  152.1790  145.6278  158.8094 C   0  0  0  0  0  0  0  0  0  0  0  0
  151.2546  145.5714  157.8269 N   0  0  0  0  0  0  0  0  0  0  0  0
  150.7343  144.3694  157.5261 N   0  3  0  0  0  0  0  0  0  0  0  0
  151.8671  140.5337  158.2110 H   0  0  0  0  0  0  0  0  0  0  0  0
  150.2258  139.9270  158.0171 H   0  0  0  0  0  0  0  0  0  0  0  0
  150.6559  140.8176  159.4753 H   0  0  0  0  0  0  0  0  0  0  0  0
  149.2312  142.8171  156.1952 H   0  0  0  0  0  0  0  0  0  0  0  0
  149.1451  141.1035  156.4128 H   0  0  0  0  0  0  0  0  0  0  0  0
  148.0033  141.5211  158.6862 H   0  0  0  0  0  0  0  0  0  0  0  0
  148.5040  143.9246  158.9512 H   0  0  0  0  0  0  0  0  0  0  0  0
  147.6896  144.3103  157.4514 H   0  0  0  0  0  0  0  0  0  0  0  0
  146.9784  145.5080  160.0654 H   0  0  0  0  0  0  0  0  0  0  0  0
  146.0262  145.8009  158.6346 H   0  0  0  0  0  0  0  0  0  0  0  0
  143.7284  146.6254  161.3479 H   0  0  0  0  0  0  0  0  0  0  0  0
  145.1469  147.2699  160.5482 H   0  0  0  0  0  0  0  0  0  0  0  0
  144.3815  143.2823  158.7487 H   0  0  0  0  0  0  0  0  0  0  0  0
  145.1817  143.9001  157.3217 H   0  0  0  0  0  0  0  0  0  0  0  0
  145.6033  141.1291  158.5661 H   0  0  0  0  0  0  0  0  0  0  0  0
  144.7911  141.4851  157.0519 H   0  0  0  0  0  0  0  0  0  0  0  0
  152.3671  142.3719  159.7086 H   0  0  0  0  0  0  0  0  0  0  0  0
  153.3595  144.5783  160.2963 H   0  0  0  0  0  0  0  0  0  0  0  0
  152.5818  146.6045  159.0338 H   0  0  0  0  0  0  0  0  0  0  0  0
  150.0334  144.3235  156.7865 H   0  0  0  0  0  0  0  0  0  0  0  0
  1  2  1  0  0  0  0
  1 20  1  0  0  0  0
  1 21  1  0  0  0  0
  1 22  1  0  0  0  0
  2  3  1  0  0  0  0
  2 14  1  0  0  0  0
  3  4  1  0  0  0  0
  3 23  1  0  0  0  0
  3 24  1  0  0  0  0
  4 13  1  0  0  0  0
  4  5  1  0  0  0  0
  4 25  1  0  0  0  0
  5  6  1  0  0  0  0
  5 26  1  0  0  0  0
  5 27  1  0  0  0  0
  6  7  1  0  0  0  0
  6 11  1  0  0  0  0
  7  8  1  0  0  0  0
  7 28  1  0  0  0  0
  7 29  1  0  0  0  0
  8  9  1  0  0  0  0
  8 10  2  0  0  0  0
  9 30  1  0  0  0  0
  9 31  1  0  0  0  0
 11 12  1  0  0  0  0
 11 32  1  0  0  0  0
 11 33  1  0  0  0  0
 12 13  1  0  0  0  0
 12 34  1  0  0  0  0
 12 35  1  0  0  0  0
 14 19  1  0  0  0  0
 14 15  2  0  0  0  0
 15 16  1  0  0  0  0
 15 36  1  0  0  0  0
 16 17  2  0  0  0  0
 16 37  1  0  0  0  0
 17 18  1  0  0  0  0
 17 38  1  0  0  0  0
 18 19  2  0  0  0  0
 19 39  1  0  0  0  0
M  CHG  1  19   1
M  END
> <s_m_source_file>
AV-unprocessed.smi

> <i_m_source_file_index>
613

> <i_lp_mmshare_version>
43012

> <i_f3d_flags>
0

> <s_epik_input>
bjFuW2NIXVtjSF1bY0hdYzFOKFtDSDNdKVtDSDJdW0NAQEhdMltDSDJdTihbQ0gyXVtDSDJdTzIpW0NIMl1DKD1PKVtOSDJd

> <s_epik_cmdline>
J2VwaWtfcHl0aG9uJywgJy1waCcsICc3LjAnLCAnLXRuJywgJzgnLCAnLW1hJywgJzIwMCcsICctbWV0YWxfYmluZGluZycsICctaW1hZScsICc8aW5maWxlLm1hZT4nLCAnLW9tYWUnLCAnPG91dGZpbGUubWFlPic=

> <r_lp_tautomer_probability>
0.966961

> <r_epik_Ionization_Penalty>
1.86301

> <r_epik_Ionization_Penalty_Charging>
1.86058

> <r_epik_Ionization_Penalty_Neutral>
0.00243207

> <r_epik_State_Penalty>
1.48112

> <r_epik_Charging_Adjusted_Penalty>
3.3417

> <i_epik_Tot_Q>
1

> <i_epik_Tot_abs_Q>
1

> <r_epik_Metal_State_Penalty>
1.50193

> <b_epik_Metal_Only>
0

> <s_lp_Force_Field>
OPLS_2005

> <r_lp_Energy>
27.4635

> <b_lp_Chiralities_Consistent>
1

> <s_lp_Variant>
AV-unprocessed.smi:613-4

> <Gold.Version>
5.8.1

> <Gold.Id.Protein>
6NUR|6NUR_protein|mol2

> <Gold.PLP.Fitness>
41.3259

> <Gold.PLP.PLP>
-33.1735

> <Gold.PLP.part.hbond>
-4.9617

> <Gold.PLP.part.metal>
0.0000

> <Gold.PLP.part.buried>
-5.3873

> <Gold.PLP.part.nonpolar>
-23.6409

> <Gold.PLP.part.repulsive>
0.4644

> <Gold.PLP.ligand.clash>
0.0000

> <Gold.PLP.ligand.torsion>
0.5528

> <Gold.PLP.Chemscore.Hbond>
3.0000

> <Gold.PLP.Chemscore.CHOScore>
0.0000

> <Gold.PLP.Chemscore.Metal>
0.0000

> <Gold.Chemscore.Hbonds>
donor molecule, donor type, donor heavy atom, donor atom, acceptor molecule, acceptor atom, score
      L1  H    19    39       P1  8028  2.00

> <Gold.PLP.Chemscore.Internal.Correction>
0.2581

> <Gold.Rescore>
     Score         DG    S(hbond)    S(metal)    S(lipo)     H(rot)  DE(clash)    DE(int)     intcor
      8.30      -9.18       1.01        0.00      51.69       2.23       0.21       0.67       ----

> <Gold.Chemscore.Fitness>
8.2964

> <Gold.Chemscore.DG>
-9.1821

> <Gold.Chemscore.ZeroCoef>
-5.4800

> <Gold.Chemscore.Hbond>
1.0105

> <Gold.Chemscore.Metal>
0.0000

> <Gold.Chemscore.Lipo>
51.6920

> <Gold.Chemscore.Internal_Hbond>
0.0000

> <Gold.Chemscore.DEClash>
0.2121

> <Gold.Chemscore.DEInternal>
0.6736

> <Gold.Chemscore.Rot>
2.2348

> <Gold.Chemscore.Internal.Correction>
   9.000000E+99

> <Gold.Chemscore.Hbonds>
donor molecule, donor type, donor heavy atom, donor atom, acceptor molecule, acceptor atom, score
      L1  H    19    39       P1  8028  0.90

> <Gold.Chemscore.Hbond.Weighted>
-3.3752

> <Gold.Chemscore.Metal.Weighted>
-0.0000

> <Gold.Chemscore.Lipo.Weighted>
-6.0480

> <Gold.Chemscore.Internal_Hbond.Weighted>
0.0000

> <Gold.Chemscore.DEClash.Weighted>
0.2121

> <Gold.Chemscore.DEInternal.Weighted>
0.6736

> <Gold.Chemscore.Rot.Weighted>
5.7211

> <Gold.Chemscore.Internal.Correction.Weighted>
   9.000000E+99

> <Gold.Protein.RotatedTorsions>
[ 6907 6896 6895 6894 ] final  -47.46 input  -60.11 | X-H torsion
[ 7974 7965 7964 7962 ] final  167.58 input  175.53 | X-H torsion
[ 8008 7997 7996 7995 ] final  -60.29 input   59.86 | X-H torsion
[ 10167 10162 10161 10158 ] final -160.63 input  -65.29 | X-H torsion
[ 10718 10713 10712 10709 ] final   12.76 input   66.30 | X-H torsion
[ 10763 10752 10751 10750 ] final   30.41 input  -60.55 | X-H torsion
[ 11005 11000 10999 10996 ] final  126.05 input  -57.11 | X-H torsion

> <Gold.Protein.ActiveResidues>
 VAL166  LYS551  ARG553  GLY616  TRP617  ASP618  TYR619  PRO620  LYS621  CYS622 
 ASP623  PHE694  ASN695  SER759  ASP760  ASP761  ALA762  ILE779  LEU786  VAL792 
 PHE793  MET794  SER795  GLU796  ALA797  LYS798  CYS799  TRP800  GLU811  SER814 

> <Gold.Protein.RotatedAtoms>
  150.9005  134.8417  159.7356 H   0  0  0  0  0  0  0  0  0  0  0  0  # atno 6907 bound_to 6896
  152.4890  134.4509  159.9584 H   0  0  0  0  0  0  0  0  0  0  0  0  # atno 6908 bound_to 6896
  151.4562  133.3565  159.2837 H   0  0  0  0  0  0  0  0  0  0  0  0  # atno 6909 bound_to 6896
  144.7419  139.8782  143.6394 H   0  0  0  0  0  0  0  0  0  0  0  0  # atno 7974 bound_to 7965
  154.4392  140.1043  156.6250 H   0  0  0  0  0  0  0  0  0  0  0  0  # atno 8008 bound_to 7997
  155.5666  140.3488  155.4486 H   0  0  0  0  0  0  0  0  0  0  0  0  # atno 8009 bound_to 7997
  156.0420  140.1284  157.0134 H   0  0  0  0  0  0  0  0  0  0  0  0  # atno 8010 bound_to 7997
  139.6525  144.0059  152.2171 H   0  0  0  0  0  0  0  0  0  0  0  0  # atno 10167 bound_to 10162
  157.0149  130.6131  149.5713 H   0  0  0  0  0  0  0  0  0  0  0  0  # atno 10718 bound_to 10713
  153.0373  135.6465  154.1040 H   0  0  0  0  0  0  0  0  0  0  0  0  # atno 10763 bound_to 10752
  154.0753  135.2877  155.3302 H   0  0  0  0  0  0  0  0  0  0  0  0  # atno 10764 bound_to 10752
  154.6567  135.5406  153.8031 H   0  0  0  0  0  0  0  0  0  0  0  0  # atno 10765 bound_to 10752
  139.9437  134.9632  156.8649 H   0  0  0  0  0  0  0  0  0  0  0  0  # atno 11005 bound_to 11000
  146.1231  139.4252  143.0216 LP  0  0  0  0  0  0  0  0  0  0  0  0  # atno 17320 bound_to 7965
  145.7275  141.0054  143.1369 LP  0  0  0  0  0  0  0  0  0  0  0  0  # atno 17321 bound_to 7965
  139.9776  144.6450  150.7930 LP  0  0  0  0  0  0  0  0  0  0  0  0  # atno 17342 bound_to 10162
  140.7544  143.3026  151.3041 LP  0  0  0  0  0  0  0  0  0  0  0  0  # atno 17343 bound_to 10162
  156.0123  130.5215  150.8026 LP  0  0  0  0  0  0  0  0  0  0  0  0  # atno 17370 bound_to 10713
  157.5293  131.0936  150.9976 LP  0  0  0  0  0  0  0  0  0  0  0  0  # atno 17371 bound_to 10713
  140.5889  134.0281  155.7492 LP  0  0  0  0  0  0  0  0  0  0  0  0  # atno 17394 bound_to 11000
  141.1080  133.9663  157.2962 LP  0  0  0  0  0  0  0  0  0  0  0  0  # atno 17395 bound_to 11000

$$$$
