#       Name:                AV-unprocessed.smi:1239
#       Creating user name   scv26
#       Creation time:       Fri Mar 27 04:27:48 2020


#       File generated by GOLD software.
#

@<TRIPOS>MOLECULE
AV-unprocessed.smi:1239
    53    54     1
SMALL
NO_CHARGES


@<TRIPOS>ATOM
      1 ****        -1.5436   2.8679  -1.9146 C.3            1 S1                 0.0000
      2 ****        -2.1855   1.5527  -1.4049 C.3            1 S1                 0.0000
      3 ****        -1.6445   0.2687  -2.0943 C.3            1 S1                 0.0000
      4 ****        -0.2191   0.0785  -1.8203 N.pl3          1 S1                -1.0000
      5 ****         0.2913  -0.4716  -0.6859 C.2            1 S1                 0.0000
      6 ****        -0.3331  -0.8648   0.3059 O.2            1 S1                 0.0000
      7 ****         1.6346  -0.5302  -0.7153 N.am           1 S1                 0.0000
      8 ****         2.5355  -1.0657   0.2442 C.ar           1 S1                 0.0000
      9 ****         3.8701  -0.6127   0.2148 C.ar           1 S1                 0.0000
     10 ****         4.8082  -1.1324   1.1300 C.ar           1 S1                 0.0000
     11 ****         4.4073  -2.1155   2.0679 C.ar           1 S1                 0.0000
     12 ****         5.2869  -2.6860   3.0134 N.pl3          1 S1                 0.0000
     13 ****         4.8010  -3.7168   3.9240 C.3            1 S1                 0.0000
     14 ****         6.6941  -2.3083   3.0131 C.3            1 S1                 0.0000
     15 ****         3.1165  -2.5289   2.0483 N.pl3          1 S1                 1.0000
     16 ****         2.1861  -2.0576   1.1903 C.ar           1 S1                 0.0000
     17 ****        -3.6807   1.5798  -1.4501 N.4            1 S1                 1.0000
     18 ****        -4.3024   2.1490  -0.2285 C.3            1 S1                 0.0000
     19 ****        -5.8290   1.9650  -0.2733 C.3            1 S1                 0.0000
     20 ****        -6.3542   2.5644  -1.4516 O.3            1 S1                 0.0000
     21 ****        -5.8244   1.9740  -2.6326 C.3            1 S1                 0.0000
     22 ****        -4.3012   2.1756  -2.6664 C.3            1 S1                 0.0000
     23 ****        -0.4685   2.8939  -1.7275 H              1 S1                 0.0000
     24 ****        -1.9661   3.7306  -1.3993 H              1 S1                 0.0000
     25 ****        -1.6886   3.0217  -2.9853 H              1 S1                 0.0000
     26 ****        -1.9128   1.4629  -0.3523 H              1 S1                 0.0000
     27 ****        -2.2328  -0.5865  -1.7575 H              1 S1                 0.0000
     28 ****        -1.8330   0.3367  -3.1656 H              1 S1                 0.0000
     29 ****         2.0641  -0.0966  -1.5195 H              1 S1                 0.0000
     30 ****         4.1766   0.1339  -0.5036 H              1 S1                 0.0000
     31 ****         5.8235  -0.7670   1.0937 H              1 S1                 0.0000
     32 ****         4.4398  -4.5816   3.3661 H              1 S1                 0.0000
     33 ****         3.9846  -3.3330   4.5365 H              1 S1                 0.0000
     34 ****         5.5895  -4.0574   4.5957 H              1 S1                 0.0000
     35 ****         6.8047  -1.2408   3.2060 H              1 S1                 0.0000
     36 ****         7.1523  -2.5389   2.0508 H              1 S1                 0.0000
     37 ****         7.2487  -2.8441   3.7838 H              1 S1                 0.0000
     38 ****         1.2089  -2.5057   1.2887 H              1 S1                 0.0000
     39 ****        -3.9082   1.6550   0.6604 H              1 S1                 0.0000
     40 ****        -4.0526   3.2077  -0.1467 H              1 S1                 0.0000
     41 ****        -6.0936   0.9069  -0.2423 H              1 S1                 0.0000
     42 ****        -6.2893   2.4331   0.5968 H              1 S1                 0.0000
     43 ****        -6.0793   0.9137  -2.6733 H              1 S1                 0.0000
     44 ****        -6.2853   2.4464  -3.5002 H              1 S1                 0.0000
     45 ****        -4.0832   3.2430  -2.7185 H              1 S1                 0.0000
     46 ****        -3.8951   1.7201  -3.5699 H              1 S1                 0.0000
     47 ****         2.8295  -3.2430   2.7176 H              1 S1                 0.0000
     48 ****        -3.9489   0.6057  -1.4505 H              1 S1                 0.0000
     49 ****         0.4293   0.3759  -2.5211 LP             1 S1                 0.0000
     50 ****        -1.3303  -0.7937   0.3296 LP             1 S1                 0.0000
     51 ****         0.1590  -1.2541   1.0846 LP             1 S1                 0.0000
     52 ****        -6.1263   3.5380  -1.4474 LP             1 S1                 0.0000
     53 ****        -7.3481   2.4547  -1.4539 LP             1 S1                 0.0000
@<TRIPOS>BOND
    1    1    2 1     
    2    1   23 1     
    3    1   24 1     
    4    1   25 1     
    5    2    3 1     
    6    2   17 1     
    7    2   26 1     
    8    3    4 1     
    9    3   27 1     
   10    3   28 1     
   11    4    5 1     
   12    5    6 2     
   13    5    7 am    
   14    7    8 1     
   15    7   29 1     
   16    8   16 ar    
   17    8    9 ar    
   18    9   10 ar    
   19    9   30 1     
   20   10   11 ar    
   21   10   31 1     
   22   11   12 1     
   23   11   15 ar    
   24   12   13 1     
   25   12   14 1     
   26   13   32 1     
   27   13   33 1     
   28   13   34 1     
   29   14   35 1     
   30   14   36 1     
   31   14   37 1     
   32   15   16 ar    
   33   15   47 1     
   34   16   38 1     
   35   17   22 1     
   36   17   18 1     
   37   17   48 1     
   38   18   19 1     
   39   18   39 1     
   40   18   40 1     
   41   19   20 1     
   42   19   41 1     
   43   19   42 1     
   44   20   21 1     
   45   21   22 1     
   46   21   43 1     
   47   21   44 1     
   48   22   45 1     
   49   22   46 1     
   50    4   49 1     
   51    6   50 1     
   52    6   51 1     
   53   20   52 1     
   54   20   53 1     
@<TRIPOS>SUBSTRUCTURE
      1 S1             1
@<TRIPOS>SET
LONE_PAIRS      STATIC     ATOMS    <user>   **** ""
5 49 50 51 52 53
DONOR_HYDROGENS      STATIC     ATOMS    <user>   **** ""
3 29 47 48
ATOM$BLUE        STATIC     ATOMS    COLORGROUP SYSTEM
5 49 50 51 52 53
ATOM$RED        STATIC     ATOMS    COLORGROUP SYSTEM
3 29 47 48
