AV-unprocessed.smi:2319|AV-procd|sdf|9277|dock5
  -GOLD-   2272012503D 1   1.00000     0.00000
 Structure written by MMmdl.
 46 47  0  0  0  0  0  0  0  0  1 V2000
  151.9767  138.1231  154.4670 C   0  0  0  0  0  0  0  0  0  0  0  0
  150.5618  137.9348  155.0245 C   0  0  0  0  0  0  0  0  0  0  0  0
  150.3997  136.6653  155.7936 C   0  0  0  0  0  0  0  0  0  0  0  0
  151.0415  136.5771  156.9881 O   0  0  0  0  0  0  0  0  0  0  0  0
  150.7893  135.3148  157.5469 N   0  0  0  0  0  0  0  0  0  0  0  0
  150.0135  134.6667  156.6902 C   0  0  0  0  0  0  0  0  0  0  0  0
  149.6263  133.2451  156.9888 C   0  0  0  0  0  0  0  0  0  0  0  0
  149.7193  135.5043  155.5744 C   0  0  0  0  0  0  0  0  0  0  0  0
  148.9597  135.2257  154.4109 N   0  0  0  0  0  0  0  0  0  0  0  0
  147.9636  134.3352  154.2938 C   0  0  0  0  0  0  0  0  0  0  0  0
  147.5507  133.6165  155.2032 O   0  0  0  0  0  0  0  0  0  0  0  0
  147.4473  134.3425  153.0578 N   0  0  0  0  0  0  0  0  0  0  0  0
  146.3265  133.5186  152.6096 C   0  0  2  0  0  0  0  0  0  0  0  0
  146.7460  132.5512  151.5205 C   0  0  0  0  0  0  0  0  0  0  0  0
  145.4287  132.2508  150.7941 C   0  0  0  0  0  0  0  0  0  0  0  0
  145.6219  132.0925  149.2782 C   0  0  0  0  0  0  0  0  0  0  0  0
  144.7111  131.0273  151.3890 C   0  0  0  0  0  0  0  0  0  0  0  0
  144.5954  133.3855  151.0285 O   0  0  0  0  0  0  0  0  0  0  0  0
  145.1966  134.3177  151.9256 C   0  0  0  0  0  0  0  0  0  0  0  0
  144.1188  134.7770  152.9201 C   0  0  0  0  0  0  0  0  0  0  0  0
  145.6851  135.5038  151.0672 C   0  0  0  0  0  0  0  0  0  0  0  0
  152.0549  139.0584  153.9124 H   0  0  0  0  0  0  0  0  0  0  0  0
  152.2431  137.3105  153.7905 H   0  0  0  0  0  0  0  0  0  0  0  0
  152.7160  138.1484  155.2683 H   0  0  0  0  0  0  0  0  0  0  0  0
  150.3121  138.7785  155.6685 H   0  0  0  0  0  0  0  0  0  0  0  0
  149.8445  137.9586  154.2038 H   0  0  0  0  0  0  0  0  0  0  0  0
  149.5451  132.6575  156.0745 H   0  0  0  0  0  0  0  0  0  0  0  0
  148.6671  133.2010  157.5048 H   0  0  0  0  0  0  0  0  0  0  0  0
  150.3648  132.7549  157.6239 H   0  0  0  0  0  0  0  0  0  0  0  0
  149.1185  135.8351  153.6220 H   0  0  0  0  0  0  0  0  0  0  0  0
  147.8475  134.9725  152.3781 H   0  0  0  0  0  0  0  0  0  0  0  0
  145.9247  132.9367  153.4418 H   0  0  0  0  0  0  0  0  0  0  0  0
  147.4505  133.0358  150.8425 H   0  0  0  0  0  0  0  0  0  0  0  0
  147.2341  131.6578  151.9125 H   0  0  0  0  0  0  0  0  0  0  0  0
  146.2705  131.2464  149.0495 H   0  0  0  0  0  0  0  0  0  0  0  0
  146.0717  132.9847  148.8412 H   0  0  0  0  0  0  0  0  0  0  0  0
  144.6686  131.9274  148.7755 H   0  0  0  0  0  0  0  0  0  0  0  0
  145.3016  130.1203  151.2559 H   0  0  0  0  0  0  0  0  0  0  0  0
  143.7452  130.8667  150.9091 H   0  0  0  0  0  0  0  0  0  0  0  0
  144.5289  131.1506  152.4567 H   0  0  0  0  0  0  0  0  0  0  0  0
  144.5178  135.5007  153.6309 H   0  0  0  0  0  0  0  0  0  0  0  0
  143.7210  133.9361  153.4889 H   0  0  0  0  0  0  0  0  0  0  0  0
  143.2822  135.2482  152.4038 H   0  0  0  0  0  0  0  0  0  0  0  0
  146.1229  136.2909  151.6817 H   0  0  0  0  0  0  0  0  0  0  0  0
  144.8581  135.9482  150.5126 H   0  0  0  0  0  0  0  0  0  0  0  0
  146.4342  135.1937  150.3388 H   0  0  0  0  0  0  0  0  0  0  0  0
  1  2  1  0  0  0  0
  1 22  1  0  0  0  0
  1 23  1  0  0  0  0
  1 24  1  0  0  0  0
  2  3  1  0  0  0  0
  2 25  1  0  0  0  0
  2 26  1  0  0  0  0
  3  8  2  0  0  0  0
  3  4  1  0  0  0  0
  4  5  1  0  0  0  0
  5  6  2  0  0  0  0
  6  7  1  0  0  0  0
  6  8  1  0  0  0  0
  7 27  1  0  0  0  0
  7 28  1  0  0  0  0
  7 29  1  0  0  0  0
  8  9  1  0  0  0  0
  9 10  1  0  0  0  0
  9 30  1  0  0  0  0
 10 11  2  0  0  0  0
 10 12  1  0  0  0  0
 12 13  1  0  0  0  0
 12 31  1  0  0  0  0
 13 19  1  0  0  0  0
 13 14  1  0  0  0  0
 13 32  1  0  0  0  0
 14 15  1  0  0  0  0
 14 33  1  0  0  0  0
 14 34  1  0  0  0  0
 15 16  1  0  0  0  0
 15 17  1  0  0  0  0
 15 18  1  0  0  0  0
 16 35  1  0  0  0  0
 16 36  1  0  0  0  0
 16 37  1  0  0  0  0
 17 38  1  0  0  0  0
 17 39  1  0  0  0  0
 17 40  1  0  0  0  0
 18 19  1  0  0  0  0
 19 20  1  0  0  0  0
 19 21  1  0  0  0  0
 20 41  1  0  0  0  0
 20 42  1  0  0  0  0
 20 43  1  0  0  0  0
 21 44  1  0  0  0  0
 21 45  1  0  0  0  0
 21 46  1  0  0  0  0
M  END
> <s_m_source_file>
AV-unprocessed.smi

> <i_m_source_file_index>
2319

> <i_lp_mmshare_version>
43012

> <i_f3d_flags>
0

> <s_epik_input>
W0NIM11bQ0gyXWMxb25jKFtDSDNdKWMxW05IXUMoPU8pW05IXVtDQEBIXShDKE8yKShbQ0gzXSlbQ0gzXSlbQ0gyXUMyKFtDSDNdKVtDSDNd

> <s_epik_cmdline>
J2VwaWtfcHl0aG9uJywgJy1waCcsICc3LjAnLCAnLXRuJywgJzgnLCAnLW1hJywgJzIwMCcsICctbWV0YWxfYmluZGluZycsICctaW1hZScsICc8aW5maWxlLm1hZT4nLCAnLW9tYWUnLCAnPG91dGZpbGUubWFlPic=

> <r_lp_tautomer_probability>
1

> <r_epik_Ionization_Penalty>
3.17207e-05

> <r_epik_Ionization_Penalty_Charging>
0

> <r_epik_Ionization_Penalty_Neutral>
3.17207e-05

> <r_epik_State_Penalty>
-0

> <r_epik_Charging_Adjusted_Penalty>
0

> <i_epik_Tot_Q>
0

> <i_epik_Tot_abs_Q>
0

> <r_epik_Metal_State_Penalty>
-0

> <b_epik_Metal_Only>
0

> <s_lp_Force_Field>
OPLS_2005

> <r_lp_Energy>
19.5027

> <b_lp_Chiralities_Consistent>
1

> <s_lp_Variant>
AV-unprocessed.smi:2319-1

> <Gold.Version>
5.8.1

> <Gold.Id.Protein>
6NUR|6NUR_protein|mol2

> <Gold.PLP.Fitness>
38.6385

> <Gold.PLP.PLP>
-31.8590

> <Gold.PLP.part.hbond>
-3.0000

> <Gold.PLP.part.metal>
0.0000

> <Gold.PLP.part.buried>
-4.0938

> <Gold.PLP.part.nonpolar>
-25.3773

> <Gold.PLP.part.repulsive>
0.1579

> <Gold.PLP.ligand.clash>
0.0000

> <Gold.PLP.ligand.torsion>
0.2481

> <Gold.PLP.Chemscore.Hbond>
2.3315

> <Gold.PLP.Chemscore.CHOScore>
0.0000

> <Gold.PLP.Chemscore.Metal>
0.0000

> <Gold.Chemscore.Hbonds>
donor molecule, donor type, donor heavy atom, donor atom, acceptor molecule, acceptor atom, score
      L1  H     9    30       P1  7948  1.00
      L1  H    12    31       P1  7948  1.00
      P1  H  6896  6907       L1     5  0.33

> <Gold.PLP.Chemscore.Internal.Correction>
0.2811

> <Gold.Rescore>
     Score         DG    S(hbond)    S(metal)    S(lipo)     H(rot)  DE(clash)    DE(int)     intcor
     19.01     -20.67       2.59        0.00      81.30       1.16       0.00       1.65       ----

> <Gold.Chemscore.Fitness>
19.0095

> <Gold.Chemscore.DG>
-20.6672

> <Gold.Chemscore.ZeroCoef>
-5.4800

> <Gold.Chemscore.Hbond>
2.5875

> <Gold.Chemscore.Metal>
0.0000

> <Gold.Chemscore.Lipo>
81.3004

> <Gold.Chemscore.Internal_Hbond>
0.0000

> <Gold.Chemscore.DEClash>
0.0029

> <Gold.Chemscore.DEInternal>
1.6548

> <Gold.Chemscore.Rot>
1.1590

> <Gold.Chemscore.Internal.Correction>
   9.000000E+99

> <Gold.Chemscore.Hbonds>
donor molecule, donor type, donor heavy atom, donor atom, acceptor molecule, acceptor atom, score
      L1  H     9    30       P1  7948  0.78
      L1  H    12    31       P1  7948  0.86
      P1  H  6896  6907       L1     5  0.28

> <Gold.Chemscore.Hbond.Weighted>
-8.6421

> <Gold.Chemscore.Metal.Weighted>
-0.0000

> <Gold.Chemscore.Lipo.Weighted>
-9.5121

> <Gold.Chemscore.Internal_Hbond.Weighted>
0.0000

> <Gold.Chemscore.DEClash.Weighted>
0.0029

> <Gold.Chemscore.DEInternal.Weighted>
1.6548

> <Gold.Chemscore.Rot.Weighted>
2.9671

> <Gold.Chemscore.Internal.Correction.Weighted>
   9.000000E+99

> <Gold.Protein.RotatedTorsions>
[ 6907 6896 6895 6894 ] final  -74.85 input  -60.11 | X-H torsion
[ 7974 7965 7964 7962 ] final -173.94 input  175.53 | X-H torsion
[ 8008 7997 7996 7995 ] final  -46.20 input   59.86 | X-H torsion
[ 10167 10162 10161 10158 ] final -125.31 input  -65.29 | X-H torsion
[ 10718 10713 10712 10709 ] final   14.52 input   66.30 | X-H torsion
[ 10763 10752 10751 10750 ] final  -18.10 input  -60.55 | X-H torsion
[ 11005 11000 10999 10996 ] final   46.47 input  -57.11 | X-H torsion

> <Gold.Protein.ActiveResidues>
 VAL166  LYS551  ARG553  GLY616  TRP617  ASP618  TYR619  PRO620  LYS621  CYS622 
 ASP623  PHE694  ASN695  SER759  ASP760  ASP761  ALA762  ILE779  LEU786  VAL792 
 PHE793  MET794  SER795  GLU796  ALA797  LYS798  CYS799  TRP800  GLU811  SER814 

> <Gold.Protein.RotatedAtoms>
  150.7078  134.4807  159.5468 H   0  0  0  0  0  0  0  0  0  0  0  0  # atno 6907 bound_to 6896
  152.2445  134.8192  160.0464 H   0  0  0  0  0  0  0  0  0  0  0  0  # atno 6908 bound_to 6896
  151.8962  133.3492  159.3852 H   0  0  0  0  0  0  0  0  0  0  0  0  # atno 6909 bound_to 6896
  144.7135  140.1547  143.6381 H   0  0  0  0  0  0  0  0  0  0  0  0  # atno 7974 bound_to 7965
  154.4006  140.1377  156.3972 H   0  0  0  0  0  0  0  0  0  0  0  0  # atno 8008 bound_to 7997
  155.7858  140.3480  155.5302 H   0  0  0  0  0  0  0  0  0  0  0  0  # atno 8009 bound_to 7997
  155.8628  140.0959  157.1592 H   0  0  0  0  0  0  0  0  0  0  0  0  # atno 8010 bound_to 7997
  139.9835  143.5717  152.2369 H   0  0  0  0  0  0  0  0  0  0  0  0  # atno 10167 bound_to 10162
  157.0403  130.6228  149.5750 H   0  0  0  0  0  0  0  0  0  0  0  0  # atno 10718 bound_to 10713
  153.5840  135.7004  153.5451 H   0  0  0  0  0  0  0  0  0  0  0  0  # atno 10763 bound_to 10752
  153.3236  135.4067  155.1437 H   0  0  0  0  0  0  0  0  0  0  0  0  # atno 10764 bound_to 10752
  154.8612  135.3701  154.5369 H   0  0  0  0  0  0  0  0  0  0  0  0  # atno 10765 bound_to 10752
  140.1365  134.4637  155.8481 H   0  0  0  0  0  0  0  0  0  0  0  0  # atno 11005 bound_to 11000
  145.9084  139.2472  143.1452 LP  0  0  0  0  0  0  0  0  0  0  0  0  # atno 17320 bound_to 7965
  145.9740  140.8737  143.0148 LP  0  0  0  0  0  0  0  0  0  0  0  0  # atno 17321 bound_to 7965
  139.6392  144.7653  151.2373 LP  0  0  0  0  0  0  0  0  0  0  0  0  # atno 17342 bound_to 10162
  140.7481  143.6345  150.8392 LP  0  0  0  0  0  0  0  0  0  0  0  0  # atno 17343 bound_to 10162
  156.0040  130.5124  150.7765 LP  0  0  0  0  0  0  0  0  0  0  0  0  # atno 17370 bound_to 10713
  157.5109  131.0925  151.0199 LP  0  0  0  0  0  0  0  0  0  0  0  0  # atno 17371 bound_to 10713
  141.2179  133.6816  156.7168 LP  0  0  0  0  0  0  0  0  0  0  0  0  # atno 17394 bound_to 11000
  140.2775  134.8343  157.3903 LP  0  0  0  0  0  0  0  0  0  0  0  0  # atno 17395 bound_to 11000

$$$$
