#       Name:                AV-unprocessed.smi:1144
#       Creating user name   scv26
#       Creation time:       Fri Mar 27 03:45:03 2020


#       File generated by GOLD software.
#

@<TRIPOS>MOLECULE
AV-unprocessed.smi:1144
    39    40     1
SMALL
NO_CHARGES


@<TRIPOS>ATOM
      1 ****        -2.8995   3.1438  -1.3005 C.3            1 S1                 0.0000
      2 ****        -3.0597   2.3646  -0.0512 N.4            1 S1                 1.0000
      3 ****        -2.4948   3.0329   1.1447 C.3            1 S1                 0.0000
      4 ****        -0.9650   2.8717   1.2054 C.3            1 S1                 0.0000
      5 ****        -0.6310   1.4902   1.1532 O.3            1 S1                 0.0000
      6 ****        -1.0482   0.8704  -0.0599 C.3            1 S1                 0.0000
      7 ****        -0.5749  -0.5892  -0.0371 C.3            1 S1                 0.0000
      8 ****         0.8740  -0.6894  -0.1283 N.pl3          1 S1                 0.0000
      9 ****         1.5666  -1.8852  -0.1196 C.ar           1 S1                 0.0000
     10 ****         0.8635  -3.0236  -0.1128 N.ar           1 S1                 0.0000
     11 ****         1.5647  -4.1779  -0.1025 C.ar           1 S1                 0.0000
     12 ****         2.9734  -4.1888  -0.0989 C.ar           1 S1                 0.0000
     13 ****         3.6101  -2.9290  -0.1062 C.ar           1 S1                 0.0000
     14 ****         5.1275  -2.8231  -0.1031 C.3            1 S1                 0.0000
     15 ****         5.6135  -3.4366   0.9758 F              1 S1                 0.0000
     16 ****         5.6161  -3.4173  -1.1914 F              1 S1                 0.0000
     17 ****         5.5383  -1.5535  -0.0909 F              1 S1                 0.0000
     18 ****         2.8967  -1.7780  -0.1179 N.ar           1 S1                 0.0000
     19 ****        -2.5870   0.9630  -0.1548 C.3            1 S1                 0.0000
     20 ****        -1.8514   3.2775  -1.5675 H              1 S1                 0.0000
     21 ****        -3.3499   4.1312  -1.1935 H              1 S1                 0.0000
     22 ****        -3.3994   2.6429  -2.1300 H              1 S1                 0.0000
     23 ****        -2.7765   4.0864   1.1615 H              1 S1                 0.0000
     24 ****        -2.9393   2.5795   2.0316 H              1 S1                 0.0000
     25 ****        -0.4742   3.4108   0.3939 H              1 S1                 0.0000
     26 ****        -0.5827   3.2898   2.1368 H              1 S1                 0.0000
     27 ****        -0.5923   1.3781  -0.9118 H              1 S1                 0.0000
     28 ****        -0.9190  -1.0849   0.8715 H              1 S1                 0.0000
     29 ****        -1.0087  -1.1283  -0.8802 H              1 S1                 0.0000
     30 ****         1.4189   0.1603  -0.1052 H              1 S1                 0.0000
     31 ****         0.9986  -5.0975  -0.0972 H              1 S1                 0.0000
     32 ****         3.5347  -5.1113  -0.0912 H              1 S1                 0.0000
     33 ****        -3.0363   0.3938   0.6603 H              1 S1                 0.0000
     34 ****        -2.9476   0.5132  -1.0809 H              1 S1                 0.0000
     35 ****        -4.0575   2.3147   0.0987 H              1 S1                 0.0000
     36 ****        -1.0739   1.0245   1.9194 LP             1 S1                 0.0000
     37 ****         0.3612   1.3974   1.2353 LP             1 S1                 0.0000
     38 ****        -0.1365  -3.0200  -0.1153 LP             1 S1                 0.0000
     39 ****         3.3476  -0.8855  -0.1250 LP             1 S1                 0.0000
@<TRIPOS>BOND
    1    1    2 1     
    2    1   20 1     
    3    1   21 1     
    4    1   22 1     
    5    2   19 1     
    6    2    3 1     
    7    2   35 1     
    8    3    4 1     
    9    3   23 1     
   10    3   24 1     
   11    4    5 1     
   12    4   25 1     
   13    4   26 1     
   14    5    6 1     
   15    6    7 1     
   16    6   19 1     
   17    6   27 1     
   18    7    8 1     
   19    7   28 1     
   20    7   29 1     
   21    8    9 1     
   22    8   30 1     
   23    9   18 ar    
   24    9   10 ar    
   25   10   11 ar    
   26   11   12 ar    
   27   11   31 1     
   28   12   13 ar    
   29   12   32 1     
   30   13   14 1     
   31   13   18 ar    
   32   14   15 1     
   33   14   16 1     
   34   14   17 1     
   35   19   33 1     
   36   19   34 1     
   37    5   36 1     
   38    5   37 1     
   39   10   38 1     
   40   18   39 1     
@<TRIPOS>SUBSTRUCTURE
      1 S1             1
@<TRIPOS>SET
LONE_PAIRS      STATIC     ATOMS    <user>   **** ""
4 36 37 38 39
DONOR_HYDROGENS      STATIC     ATOMS    <user>   **** ""
2 35 30
ATOM$BLUE        STATIC     ATOMS    COLORGROUP SYSTEM
4 36 37 38 39
ATOM$RED        STATIC     ATOMS    COLORGROUP SYSTEM
2 35 30
