AV-unprocessed.smi:442|AV-procd|sdf|2583|dock5
  -GOLD-   2262022573D 1   1.00000     0.00000
 Structure written by MMmdl.
 37 37  0  0  0  0  0  0  0  0  3 V2000
  152.9595  142.0743  160.2954 C   0  0  0  0  0  0  0  0  0  0  0  0
  151.9968  141.9131  159.1100 C   0  0  0  0  0  0  0  0  0  0  0  0
  151.8682  143.1730  158.2311 C   0  0  2  0  0  0  0  0  0  0  0  0
  151.2121  144.3313  158.9955 C   0  0  0  0  0  0  0  0  0  0  0  0
  151.0833  142.8880  157.0308 N   0  0  0  0  0  0  0  0  0  0  0  0
  151.2670  141.8546  156.1940 C   0  0  0  0  0  0  0  0  0  0  0  0
  152.1317  140.9929  156.3583 O   0  0  0  0  0  0  0  0  0  0  0  0
  150.3016  141.7801  155.0025 C   0  0  0  0  0  0  0  0  0  0  0  0
  149.9548  140.3989  154.6203 N   0  0  0  0  0  0  0  0  0  0  0  0
  151.0278  139.5497  154.2960 C   0  0  0  0  0  0  0  0  0  0  0  0
  150.8433  138.2713  153.9230 C   0  0  0  0  0  0  0  0  0  0  0  0
  151.9641  137.4194  153.5875 N   0  3  0  0  0  0  0  0  0  0  0  0
  151.7487  136.2452  153.3050 O   0  0  0  0  0  0  0  0  0  0  0  0
  153.0963  137.8936  153.5958 O   0  5  0  0  0  0  0  0  0  0  0  0
  149.4847  137.7732  153.8629 C   0  0  0  0  0  0  0  0  0  0  0  0
  148.4329  138.5761  154.1666 C   0  0  0  0  0  0  0  0  0  0  0  0
  147.0288  138.1094  154.1200 C   0  0  0  0  0  0  0  0  0  0  0  0
  146.1302  139.0832  153.9275 N   0  0  0  0  0  0  0  0  0  0  0  0
  146.6301  136.9511  154.2385 O   0  0  0  0  0  0  0  0  0  0  0  0
  148.6477  139.9917  154.5730 C   0  0  0  0  0  0  0  0  0  0  0  0
  147.7482  140.7874  154.8569 O   0  0  0  0  0  0  0  0  0  0  0  0
  152.9651  141.1761  160.9131 H   0  0  0  0  0  0  0  0  0  0  0  0
  152.6664  142.9116  160.9293 H   0  0  0  0  0  0  0  0  0  0  0  0
  153.9824  142.2486  159.9612 H   0  0  0  0  0  0  0  0  0  0  0  0
  152.3171  141.0676  158.4997 H   0  0  0  0  0  0  0  0  0  0  0  0
  151.0125  141.6490  159.4987 H   0  0  0  0  0  0  0  0  0  0  0  0
  152.8734  143.4974  157.9557 H   0  0  0  0  0  0  0  0  0  0  0  0
  151.7870  144.5896  159.8854 H   0  0  0  0  0  0  0  0  0  0  0  0
  150.2011  144.0762  159.3155 H   0  0  0  0  0  0  0  0  0  0  0  0
  151.1497  145.2259  158.3750 H   0  0  0  0  0  0  0  0  0  0  0  0
  150.3416  143.5381  156.8150 H   0  0  0  0  0  0  0  0  0  0  0  0
  149.4045  142.3448  155.2599 H   0  0  0  0  0  0  0  0  0  0  0  0
  150.7321  142.3121  154.1518 H   0  0  0  0  0  0  0  0  0  0  0  0
  152.0018  140.0128  154.3617 H   0  0  0  0  0  0  0  0  0  0  0  0
  149.3361  136.7444  153.5712 H   0  0  0  0  0  0  0  0  0  0  0  0
  145.1462  138.8635  153.8795 H   0  0  0  0  0  0  0  0  0  0  0  0
  146.4433  140.0381  153.8292 H   0  0  0  0  0  0  0  0  0  0  0  0
  1  2  1  0  0  0  0
  1 22  1  0  0  0  0
  1 23  1  0  0  0  0
  1 24  1  0  0  0  0
  2  3  1  0  0  0  0
  2 25  1  0  0  0  0
  2 26  1  0  0  0  0
  3  4  1  0  0  0  0
  3  5  1  0  0  0  0
  3 27  1  0  0  0  0
  4 28  1  0  0  0  0
  4 29  1  0  0  0  0
  4 30  1  0  0  0  0
  5  6  1  0  0  0  0
  5 31  1  0  0  0  0
  6  7  2  0  0  0  0
  6  8  1  0  0  0  0
  8  9  1  0  0  0  0
  8 32  1  0  0  0  0
  8 33  1  0  0  0  0
  9 20  1  0  0  0  0
  9 10  1  0  0  0  0
 10 11  2  0  0  0  0
 10 34  1  0  0  0  0
 11 12  1  0  0  0  0
 11 15  1  0  0  0  0
 12 13  2  0  0  0  0
 12 14  1  0  0  0  0
 15 16  2  0  0  0  0
 15 35  1  0  0  0  0
 16 17  1  0  0  0  0
 16 20  1  0  0  0  0
 17 18  1  0  0  0  0
 17 19  2  0  0  0  0
 18 36  1  0  0  0  0
 18 37  1  0  0  0  0
 20 21  2  0  0  0  0
M  CHG  1  12   1
M  CHG  1  14  -1
M  END
> <s_m_source_file>
AV-unprocessed.smi

> <i_m_source_file_index>
442

> <i_lp_mmshare_version>
43012

> <i_f3d_flags>
0

> <s_epik_input>
W0NIM11bQ0gyXVtDQEhdKFtDSDNdKVtOSF1DKD1PKVtDSDJdbjFbY0hdYyhbTitdKD1PKVtPLV0pW2NIXWMoYzE9TylDKD1PKVtOSDJd

> <s_epik_cmdline>
J2VwaWtfcHl0aG9uJywgJy1waCcsICc3LjAnLCAnLXRuJywgJzgnLCAnLW1hJywgJzIwMCcsICctbWV0YWxfYmluZGluZycsICctaW1hZScsICc8aW5maWxlLm1hZT4nLCAnLW9tYWUnLCAnPG91dGZpbGUubWFlPic=

> <r_lp_tautomer_probability>
1

> <r_epik_Ionization_Penalty>
2.86914e-06

> <r_epik_Ionization_Penalty_Charging>
2.2828e-12

> <r_epik_Ionization_Penalty_Neutral>
2.86914e-06

> <r_epik_State_Penalty>
-0

> <r_epik_Charging_Adjusted_Penalty>
2.2828e-12

> <i_epik_Tot_Q>
0

> <i_epik_Tot_abs_Q>
2

> <r_epik_Metal_State_Penalty>
-0

> <b_epik_Metal_Only>
0

> <s_lp_Force_Field>
OPLS_2005

> <r_lp_Energy>
21.8648

> <b_lp_Chiralities_Consistent>
1

> <s_lp_Variant>
AV-unprocessed.smi:442-1

> <Gold.Version>
5.8.1

> <Gold.Id.Protein>
6NUR|6NUR_protein|mol2

> <Gold.PLP.Fitness>
36.4584

> <Gold.PLP.PLP>
-30.9106

> <Gold.PLP.part.hbond>
-3.0000

> <Gold.PLP.part.metal>
0.0000

> <Gold.PLP.part.buried>
-4.4303

> <Gold.PLP.part.nonpolar>
-23.7415

> <Gold.PLP.part.repulsive>
0.6375

> <Gold.PLP.ligand.clash>
0.0535

> <Gold.PLP.ligand.torsion>
0.7454

> <Gold.PLP.Chemscore.Hbond>
2.3360

> <Gold.PLP.Chemscore.CHOScore>
0.0000

> <Gold.PLP.Chemscore.Metal>
0.0000

> <Gold.Chemscore.Hbonds>
donor molecule, donor type, donor heavy atom, donor atom, acceptor molecule, acceptor atom, score
      L1  H     5    31       P1  8028  0.60
      P1  H  7997  8010       L1     7  0.12
      P1  H 10752 10764       L1    13  0.49

> <Gold.PLP.Chemscore.Internal.Correction>
0.0842

> <Gold.Rescore>
     Score         DG    S(hbond)    S(metal)    S(lipo)     H(rot)  DE(clash)    DE(int)     intcor
     10.43     -16.03       2.50        0.00      63.33       2.03       0.27       5.33       ----

> <Gold.Chemscore.Fitness>
10.4266

> <Gold.Chemscore.DG>
-16.0269

> <Gold.Chemscore.ZeroCoef>
-5.4800

> <Gold.Chemscore.Hbond>
2.4983

> <Gold.Chemscore.Metal>
0.0000

> <Gold.Chemscore.Lipo>
63.3297

> <Gold.Chemscore.Internal_Hbond>
0.0000

> <Gold.Chemscore.DEClash>
0.2699

> <Gold.Chemscore.DEInternal>
5.3305

> <Gold.Chemscore.Rot>
2.0340

> <Gold.Chemscore.Internal.Correction>
   9.000000E+99

> <Gold.Chemscore.Hbonds>
donor molecule, donor type, donor heavy atom, donor atom, acceptor molecule, acceptor atom, score
      L1  H     5    31       P1  8028  0.60
      P1  H  7997  8010       L1     7  0.13
      P1  H 10752 10764       L1    13  0.06

> <Gold.Chemscore.Hbond.Weighted>
-8.3444

> <Gold.Chemscore.Metal.Weighted>
-0.0000

> <Gold.Chemscore.Lipo.Weighted>
-7.4096

> <Gold.Chemscore.Internal_Hbond.Weighted>
0.0000

> <Gold.Chemscore.DEClash.Weighted>
0.2699

> <Gold.Chemscore.DEInternal.Weighted>
5.3305

> <Gold.Chemscore.Rot.Weighted>
5.2071

> <Gold.Chemscore.Internal.Correction.Weighted>
   9.000000E+99

> <Gold.Protein.RotatedTorsions>
[ 6907 6896 6895 6894 ] final  127.37 input  -60.11 | X-H torsion
[ 7974 7965 7964 7962 ] final  178.67 input  175.53 | X-H torsion
[ 8008 7997 7996 7995 ] final   70.60 input   59.86 | X-H torsion
[ 10167 10162 10161 10158 ] final   82.68 input  -65.29 | X-H torsion
[ 10718 10713 10712 10709 ] final -144.31 input   66.30 | X-H torsion
[ 10763 10752 10751 10750 ] final  -65.93 input  -60.55 | X-H torsion
[ 11005 11000 10999 10996 ] final   47.88 input  -57.11 | X-H torsion

> <Gold.Protein.ActiveResidues>
 VAL166  LYS551  ARG553  GLY616  TRP617  ASP618  TYR619  PRO620  LYS621  CYS622 
 ASP623  PHE694  ASN695  SER759  ASP760  ASP761  ALA762  ILE779  LEU786  VAL792 
 PHE793  MET794  SER795  GLU796  ALA797  LYS798  CYS799  TRP800  GLU811  SER814 

> <Gold.Protein.RotatedAtoms>
  152.3819  133.6558  159.6167 H   0  0  0  0  0  0  0  0  0  0  0  0  # atno 6907 bound_to 6896
  150.7748  133.9100  159.3375 H   0  0  0  0  0  0  0  0  0  0  0  0  # atno 6908 bound_to 6896
  151.6904  135.0949  160.0284 H   0  0  0  0  0  0  0  0  0  0  0  0  # atno 6909 bound_to 6896
  144.7153  140.0432  143.6437 H   0  0  0  0  0  0  0  0  0  0  0  0  # atno 7974 bound_to 7965
  155.7412  140.3490  155.5105 H   0  0  0  0  0  0  0  0  0  0  0  0  # atno 8008 bound_to 7997
  155.9092  140.1047  157.1313 H   0  0  0  0  0  0  0  0  0  0  0  0  # atno 8009 bound_to 7997
  154.4053  140.1271  156.4522 H   0  0  0  0  0  0  0  0  0  0  0  0  # atno 8010 bound_to 7997
  139.9263  144.6181  150.8390 H   0  0  0  0  0  0  0  0  0  0  0  0  # atno 10167 bound_to 10162
  156.3686  130.7776  151.1954 H   0  0  0  0  0  0  0  0  0  0  0  0  # atno 10718 bound_to 10713
  154.3524  135.6134  153.5649 H   0  0  0  0  0  0  0  0  0  0  0  0  # atno 10763 bound_to 10752
  152.9797  135.5795  154.4728 H   0  0  0  0  0  0  0  0  0  0  0  0  # atno 10764 bound_to 10752
  154.4452  135.2851  155.1797 H   0  0  0  0  0  0  0  0  0  0  0  0  # atno 10765 bound_to 10752
  140.1240  134.4793  155.8574 H   0  0  0  0  0  0  0  0  0  0  0  0  # atno 11005 bound_to 11000
  146.0006  139.3088  143.0930 LP  0  0  0  0  0  0  0  0  0  0  0  0  # atno 17320 bound_to 7965
  145.8797  140.9370  143.0607 LP  0  0  0  0  0  0  0  0  0  0  0  0  # atno 17321 bound_to 7965
  140.7649  143.3261  151.2512 LP  0  0  0  0  0  0  0  0  0  0  0  0  # atno 17342 bound_to 10162
  139.6819  143.9839  152.2813 LP  0  0  0  0  0  0  0  0  0  0  0  0  # atno 17343 bound_to 10162
  157.7481  131.0379  150.4477 LP  0  0  0  0  0  0  0  0  0  0  0  0  # atno 17370 bound_to 10713
  156.4700  130.4050  149.6524 LP  0  0  0  0  0  0  0  0  0  0  0  0  # atno 17371 bound_to 10713
  141.2157  133.6771  156.6942 LP  0  0  0  0  0  0  0  0  0  0  0  0  # atno 17394 bound_to 11000
  140.2928  134.8226  157.4032 LP  0  0  0  0  0  0  0  0  0  0  0  0  # atno 17395 bound_to 11000

$$$$
