AV-unprocessed.smi:244|AV-procd|sdf|1872|dock1
  -GOLD-   2262020513D 1   1.00000     0.00000
 Structure written by MMmdl.
 56 60  0  0  0  0  0  0  0  0  1 V2000
  152.9429  142.9881  162.6624 C   0  0  0  0  0  0  0  0  0  0  0  0
  152.1122  143.0936  161.4711 N   0  0  0  0  0  0  0  0  0  0  0  0
  152.2939  144.4179  160.8731 C   0  0  0  0  0  0  0  0  0  0  0  0
  151.4055  144.5705  159.6260 C   0  0  0  0  0  0  0  0  0  0  0  0
  151.7351  143.4726  158.6104 C   0  0  2  0  0  0  0  0  0  0  0  0
  150.8765  143.5703  157.4805 O   0  0  0  0  0  0  0  0  0  0  0  0
  151.2182  142.6083  156.4885 C   0  0  0  0  0  0  0  0  0  0  0  0
  151.0637  141.1928  157.0685 C   0  0  0  0  0  0  0  0  0  0  0  0
  151.8426  141.0430  158.2957 N   0  0  0  0  0  0  0  0  0  0  0  0
  151.8179  139.7541  158.7139 C   0  0  0  0  0  0  0  0  0  0  0  0
  150.6516  139.0551  158.7340 N   0  0  0  0  0  0  0  0  0  0  0  0
  150.6426  137.7766  159.1238 C   0  0  0  0  0  0  0  0  0  0  0  0
  151.6673  137.0159  159.5157 N   0  0  0  0  0  0  0  0  0  0  0  0
  152.8404  137.7114  159.4842 C   0  0  0  0  0  0  0  0  0  0  0  0
  153.0026  139.0708  159.0976 C   0  0  0  0  0  0  0  0  0  0  0  0
  154.3394  139.4368  159.1872 N   0  0  0  0  0  0  0  0  0  0  0  0
  154.9359  138.3530  159.6035 C   0  0  0  0  0  0  0  0  0  0  0  0
  154.1105  137.2706  159.8125 N   0  0  0  0  0  0  0  0  0  0  0  0
  154.5090  135.9485  160.2701 C   0  0  0  0  0  0  0  0  0  0  0  0
  154.6861  135.8424  161.8047 C   0  0  0  0  0  0  0  0  0  0  0  0
  156.0066  136.2548  162.1149 O   0  0  0  0  0  0  0  0  0  0  0  0
  153.6977  136.7402  162.5809 C   0  0  0  0  0  0  0  0  0  0  0  0
  153.7423  136.4743  164.0960 C   0  0  0  0  0  0  0  0  0  0  0  0
  153.5099  135.0956  164.3583 O   0  0  0  0  0  0  0  0  0  0  0  0
  154.5108  134.2530  163.8000 C   0  0  0  0  0  0  0  0  0  0  0  0
  154.5122  134.3814  162.2663 C   0  0  0  0  0  0  0  0  0  0  0  0
  151.5636  142.0942  159.2801 C   0  0  1  0  0  0  0  0  0  0  0  0
  152.4838  142.0387  160.5248 C   0  0  0  0  0  0  0  0  0  0  0  0
  152.6737  143.7573  163.3870 H   0  0  0  0  0  0  0  0  0  0  0  0
  154.0010  143.1009  162.4210 H   0  0  0  0  0  0  0  0  0  0  0  0
  152.8035  142.0188  163.1421 H   0  0  0  0  0  0  0  0  0  0  0  0
  152.0332  145.1866  161.6016 H   0  0  0  0  0  0  0  0  0  0  0  0
  153.3417  144.5688  160.6083 H   0  0  0  0  0  0  0  0  0  0  0  0
  150.3534  144.5157  159.9090 H   0  0  0  0  0  0  0  0  0  0  0  0
  151.5583  145.5523  159.1777 H   0  0  0  0  0  0  0  0  0  0  0  0
  152.7690  143.6026  158.2826 H   0  0  0  0  0  0  0  0  0  0  0  0
  150.5608  142.7355  155.6285 H   0  0  0  0  0  0  0  0  0  0  0  0
  152.2377  142.7748  156.1366 H   0  0  0  0  0  0  0  0  0  0  0  0
  150.0126  140.9965  157.2853 H   0  0  0  0  0  0  0  0  0  0  0  0
  151.3783  140.4597  156.3245 H   0  0  0  0  0  0  0  0  0  0  0  0
  149.6766  137.2938  159.1175 H   0  0  0  0  0  0  0  0  0  0  0  0
  156.0018  138.3130  159.7746 H   0  0  0  0  0  0  0  0  0  0  0  0
  153.7592  135.2332  159.9302 H   0  0  0  0  0  0  0  0  0  0  0  0
  155.4360  135.6783  159.7621 H   0  0  0  0  0  0  0  0  0  0  0  0
  156.3639  135.6602  162.7568 H   0  0  0  0  0  0  0  0  0  0  0  0
  153.8952  137.7954  162.3887 H   0  0  0  0  0  0  0  0  0  0  0  0
  152.6843  136.5485  162.2257 H   0  0  0  0  0  0  0  0  0  0  0  0
  154.6993  136.7808  164.5213 H   0  0  0  0  0  0  0  0  0  0  0  0
  152.9731  137.0607  164.5988 H   0  0  0  0  0  0  0  0  0  0  0  0
  155.4876  134.5018  164.2176 H   0  0  0  0  0  0  0  0  0  0  0  0
  154.2995  133.2227  164.0862 H   0  0  0  0  0  0  0  0  0  0  0  0
  153.5646  133.9948  161.8887 H   0  0  0  0  0  0  0  0  0  0  0  0
  155.2913  133.7485  161.8389 H   0  0  0  0  0  0  0  0  0  0  0  0
  150.5256  141.9896  159.6016 H   0  0  0  0  0  0  0  0  0  0  0  0
  153.5297  142.1448  160.2311 H   0  0  0  0  0  0  0  0  0  0  0  0
  152.3912  141.0768  161.0285 H   0  0  0  0  0  0  0  0  0  0  0  0
  1  2  1  0  0  0  0
  1 29  1  0  0  0  0
  1 30  1  0  0  0  0
  1 31  1  0  0  0  0
  2 28  1  0  0  0  0
  2  3  1  0  0  0  0
  3  4  1  0  0  0  0
  3 32  1  0  0  0  0
  3 33  1  0  0  0  0
  4  5  1  0  0  0  0
  4 34  1  0  0  0  0
  4 35  1  0  0  0  0
  5 27  1  0  0  0  0
  5  6  1  0  0  0  0
  5 36  1  0  0  0  0
  6  7  1  0  0  0  0
  7  8  1  0  0  0  0
  7 37  1  0  0  0  0
  7 38  1  0  0  0  0
  8  9  1  0  0  0  0
  8 39  1  0  0  0  0
  8 40  1  0  0  0  0
  9 10  1  0  0  0  0
  9 27  1  0  0  0  0
 10 15  1  0  0  0  0
 10 11  2  0  0  0  0
 11 12  1  0  0  0  0
 12 13  2  0  0  0  0
 12 41  1  0  0  0  0
 13 14  1  0  0  0  0
 14 18  1  0  0  0  0
 14 15  2  0  0  0  0
 15 16  1  0  0  0  0
 16 17  2  0  0  0  0
 17 18  1  0  0  0  0
 17 42  1  0  0  0  0
 18 19  1  0  0  0  0
 19 20  1  0  0  0  0
 19 43  1  0  0  0  0
 19 44  1  0  0  0  0
 20 26  1  0  0  0  0
 20 21  1  0  0  0  0
 20 22  1  0  0  0  0
 21 45  1  0  0  0  0
 22 23  1  0  0  0  0
 22 46  1  0  0  0  0
 22 47  1  0  0  0  0
 23 24  1  0  0  0  0
 23 48  1  0  0  0  0
 23 49  1  0  0  0  0
 24 25  1  0  0  0  0
 25 26  1  0  0  0  0
 25 50  1  0  0  0  0
 25 51  1  0  0  0  0
 26 52  1  0  0  0  0
 26 53  1  0  0  0  0
 27 28  1  0  0  0  0
 27 54  1  0  0  0  0
 28 55  1  0  0  0  0
 28 56  1  0  0  0  0
M  END
> <s_m_source_file>
AV-unprocessed.smi

> <i_m_source_file_index>
244

> <i_lp_mmshare_version>
43012

> <i_f3d_flags>
0

> <s_epik_input>
W0NIMl0xW0NIMl1OKFtDSDNdKVtDSDJdW0NAQEhdKFtDQEhdMTIpTihbQ0gyXVtDSDJdTzIpYyhuW2NIXW4zKWMoYzM0KW5bY0hdbjRbQ0gyXUM1KFtPSF0pW0NIMl1bQ0gyXU9bQ0gyXVtDSDJdNQ==

> <s_epik_cmdline>
J2VwaWtfcHl0aG9uJywgJy1waCcsICc3LjAnLCAnLXRuJywgJzgnLCAnLW1hJywgJzIwMCcsICctbWV0YWxfYmluZGluZycsICctaW1hZScsICc8aW5maWxlLm1hZT4nLCAnLW9tYWUnLCAnPG91dGZpbGUubWFlPic=

> <r_lp_tautomer_probability>
1

> <r_epik_Ionization_Penalty>
2.27765

> <r_epik_Ionization_Penalty_Charging>
0

> <r_epik_Ionization_Penalty_Neutral>
2.27765

> <r_epik_State_Penalty>
2.4114

> <r_epik_Charging_Adjusted_Penalty>
2.4114

> <i_epik_Tot_Q>
0

> <i_epik_Tot_abs_Q>
0

> <r_epik_Metal_State_Penalty>
2.39769

> <b_epik_Metal_Only>
0

> <s_lp_Force_Field>
OPLS_2005

> <r_lp_Energy>
38.8348

> <b_lp_Chiralities_Consistent>
1

> <s_lp_Variant>
AV-unprocessed.smi:244-9

> <Gold.Version>
5.8.1

> <Gold.Id.Protein>
6NUR|6NUR_protein|mol2

> <Gold.PLP.Fitness>
51.4221

> <Gold.PLP.PLP>
-47.7843

> <Gold.PLP.part.hbond>
-2.0000

> <Gold.PLP.part.metal>
0.0000

> <Gold.PLP.part.buried>
-9.3675

> <Gold.PLP.part.nonpolar>
-37.3765

> <Gold.PLP.part.repulsive>
1.6181

> <Gold.PLP.ligand.clash>
0.0000

> <Gold.PLP.ligand.torsion>
1.2449

> <Gold.PLP.Chemscore.Hbond>
1.9913

> <Gold.PLP.Chemscore.CHOScore>
0.0000

> <Gold.PLP.Chemscore.Metal>
0.0000

> <Gold.Chemscore.Hbonds>
donor molecule, donor type, donor heavy atom, donor atom, acceptor molecule, acceptor atom, score
      P1  H  6896  6909       L1    13  1.00
      P1  H  7997  8010       L1    16  0.78

> <Gold.PLP.Chemscore.Internal.Correction>
0.1539

> <Gold.Rescore>
     Score         DG    S(hbond)    S(metal)    S(lipo)     H(rot)  DE(clash)    DE(int)     intcor
     17.89     -19.31       1.48        0.00     121.21       2.06       0.43       0.99       ----

> <Gold.Chemscore.Fitness>
17.8923

> <Gold.Chemscore.DG>
-19.3116

> <Gold.Chemscore.ZeroCoef>
-5.4800

> <Gold.Chemscore.Hbond>
1.4750

> <Gold.Chemscore.Metal>
0.0000

> <Gold.Chemscore.Lipo>
121.2101

> <Gold.Chemscore.Internal_Hbond>
0.0000

> <Gold.Chemscore.DEClash>
0.4288

> <Gold.Chemscore.DEInternal>
0.9905

> <Gold.Chemscore.Rot>
2.0611

> <Gold.Chemscore.Internal.Correction>
   9.000000E+99

> <Gold.Chemscore.Hbonds>
donor molecule, donor type, donor heavy atom, donor atom, acceptor molecule, acceptor atom, score
      P1  H  6896  6909       L1    13  0.98
      P1  H  7997  8010       L1    16  0.45

> <Gold.Chemscore.Hbond.Weighted>
-4.9265

> <Gold.Chemscore.Metal.Weighted>
-0.0000

> <Gold.Chemscore.Lipo.Weighted>
-14.1816

> <Gold.Chemscore.Internal_Hbond.Weighted>
0.0000

> <Gold.Chemscore.DEClash.Weighted>
0.4288

> <Gold.Chemscore.DEInternal.Weighted>
0.9905

> <Gold.Chemscore.Rot.Weighted>
5.2765

> <Gold.Chemscore.Internal.Correction.Weighted>
   9.000000E+99

> <Gold.Protein.RotatedTorsions>
[ 6907 6896 6895 6894 ] final  110.41 input  -60.11 | X-H torsion
[ 7974 7965 7964 7962 ] final  178.04 input  175.53 | X-H torsion
[ 8008 7997 7996 7995 ] final   -8.71 input   59.86 | X-H torsion
[ 10167 10162 10161 10158 ] final -137.35 input  -65.29 | X-H torsion
[ 10718 10713 10712 10709 ] final  -51.88 input   66.30 | X-H torsion
[ 10763 10752 10751 10750 ] final  161.10 input  -60.55 | X-H torsion
[ 11005 11000 10999 10996 ] final  123.71 input  -57.11 | X-H torsion

> <Gold.Protein.ActiveResidues>
 VAL166  LYS551  ARG553  GLY616  TRP617  ASP618  TYR619  PRO620  LYS621  CYS622 
 ASP623  PHE694  ASN695  SER759  ASP760  ASP761  ALA762  ILE779  LEU786  VAL792 
 PHE793  MET794  SER795  GLU796  ALA797  LYS798  CYS799  TRP800  GLU811  SER814 

> <Gold.Protein.RotatedAtoms>
  152.5021  133.8804  159.7343 H   0  0  0  0  0  0  0  0  0  0  0  0  # atno 6907 bound_to 6896
  150.9268  133.6805  159.2826 H   0  0  0  0  0  0  0  0  0  0  0  0  # atno 6908 bound_to 6896
  151.4164  135.0996  159.9653 H   0  0  0  0  0  0  0  0  0  0  0  0  # atno 6909 bound_to 6896
  144.7161  140.0338  143.6438 H   0  0  0  0  0  0  0  0  0  0  0  0  # atno 7974 bound_to 7965
  154.5715  140.2374  155.8185 H   0  0  0  0  0  0  0  0  0  0  0  0  # atno 8008 bound_to 7997
  156.2110  140.3026  155.9691 H   0  0  0  0  0  0  0  0  0  0  0  0  # atno 8009 bound_to 7997
  155.2704  140.0418  157.2997 H   0  0  0  0  0  0  0  0  0  0  0  0  # atno 8010 bound_to 7997
  139.8586  143.7106  152.2652 H   0  0  0  0  0  0  0  0  0  0  0  0  # atno 10167 bound_to 10162
  156.1670  130.4149  149.9705 H   0  0  0  0  0  0  0  0  0  0  0  0  # atno 10718 bound_to 10713
  154.2578  135.2769  155.2790 H   0  0  0  0  0  0  0  0  0  0  0  0  # atno 10763 bound_to 10752
  154.5410  135.5702  153.6843 H   0  0  0  0  0  0  0  0  0  0  0  0  # atno 10764 bound_to 10752
  152.9968  135.6251  154.2727 H   0  0  0  0  0  0  0  0  0  0  0  0  # atno 10765 bound_to 10752
  139.9325  134.9641  156.8301 H   0  0  0  0  0  0  0  0  0  0  0  0  # atno 11005 bound_to 11000
  146.0080  139.3146  143.0887 LP  0  0  0  0  0  0  0  0  0  0  0  0  # atno 17320 bound_to 7965
  145.8715  140.9417  143.0648 LP  0  0  0  0  0  0  0  0  0  0  0  0  # atno 17321 bound_to 7965
  139.7396  144.7563  151.0674 LP  0  0  0  0  0  0  0  0  0  0  0  0  # atno 17342 bound_to 10162
  140.7778  143.4989  150.9797 LP  0  0  0  0  0  0  0  0  0  0  0  0  # atno 17343 bound_to 10162
  156.7516  130.9117  151.3637 LP  0  0  0  0  0  0  0  0  0  0  0  0  # atno 17370 bound_to 10713
  157.6775  130.9108  150.0186 LP  0  0  0  0  0  0  0  0  0  0  0  0  # atno 17371 bound_to 10713
  140.6163  134.0035  155.7599 LP  0  0  0  0  0  0  0  0  0  0  0  0  # atno 17394 bound_to 11000
  141.0922  133.9899  157.3219 LP  0  0  0  0  0  0  0  0  0  0  0  0  # atno 17395 bound_to 11000

$$$$
