AV-unprocessed.smi:2439|AV-procd|sdf|9609|dock6
  -GOLD-   2272013243D 1   1.00000     0.00000
 Structure written by MMmdl.
 41 43  0  0  0  0  0  0  0  0  2 V2000
  154.5731  139.7662  159.4034 N   0  0  0  0  0  0  0  0  0  0  0  0
  153.9459  140.6867  159.7163 C   0  0  0  0  0  0  0  0  0  0  0  0
  153.1555  141.8471  160.1086 C   0  0  0  0  0  0  0  0  0  0  0  0
  153.2315  142.3082  161.4397 C   0  0  0  0  0  0  0  0  0  0  0  0
  152.4675  143.4256  161.8228 C   0  0  0  0  0  0  0  0  0  0  0  0
  151.6546  144.0413  160.8540 C   0  0  0  0  0  0  0  0  0  0  0  0
  151.5724  143.6110  159.5775 N   0  0  0  0  0  0  0  0  0  0  0  0
  152.3048  142.5340  159.2011 C   0  0  0  0  0  0  0  0  0  0  0  0
  152.1956  142.1093  157.8650 N   0  0  0  0  0  0  0  0  0  0  0  0
  150.9858  142.3564  157.0935 C   0  0  0  0  0  0  0  0  0  0  0  0
  150.3553  141.0423  156.5925 C   0  0  2  0  0  0  0  0  0  0  0  0
  149.6899  141.1828  155.2105 C   0  0  0  0  0  0  0  0  0  0  0  0
  148.4414  141.9770  155.2912 N   0  3  1  0  0  0  0  0  0  0  0  0
  147.8066  142.1592  153.9608 C   0  0  0  0  0  0  0  0  0  0  0  0
  146.5634  143.0574  154.0561 C   0  0  0  0  0  0  0  0  0  0  0  0
  145.5603  142.4924  155.0692 C   0  0  0  0  0  0  0  0  0  0  0  0
  146.2449  142.2918  156.4274 C   0  0  0  0  0  0  0  0  0  0  0  0
  147.5043  141.4107  156.2991 C   0  0  2  0  0  0  0  0  0  0  0  0
  148.2157  141.2633  157.6577 C   0  0  0  0  0  0  0  0  0  0  0  0
  149.4099  140.5011  157.5159 O   0  0  0  0  0  0  0  0  0  0  0  0
  153.8648  141.8146  162.1631 H   0  0  0  0  0  0  0  0  0  0  0  0
  152.5040  143.8012  162.8349 H   0  0  0  0  0  0  0  0  0  0  0  0
  151.0535  144.9011  161.1101 H   0  0  0  0  0  0  0  0  0  0  0  0
  152.9134  141.5186  157.4691 H   0  0  0  0  0  0  0  0  0  0  0  0
  150.2749  142.9302  157.6876 H   0  0  0  0  0  0  0  0  0  0  0  0
  151.2494  142.9798  156.2382 H   0  0  0  0  0  0  0  0  0  0  0  0
  151.1568  140.3084  156.4991 H   0  0  0  0  0  0  0  0  0  0  0  0
  150.3818  141.6474  154.5068 H   0  0  0  0  0  0  0  0  0  0  0  0
  149.4570  140.1924  154.8160 H   0  0  0  0  0  0  0  0  0  0  0  0
  148.5253  142.6041  153.2715 H   0  0  0  0  0  0  0  0  0  0  0  0
  147.5333  141.1861  153.5497 H   0  0  0  0  0  0  0  0  0  0  0  0
  146.8588  144.0648  154.3526 H   0  0  0  0  0  0  0  0  0  0  0  0
  146.0927  143.1480  153.0767 H   0  0  0  0  0  0  0  0  0  0  0  0
  144.7084  143.1652  155.1719 H   0  0  0  0  0  0  0  0  0  0  0  0
  145.1669  141.5408  154.7091 H   0  0  0  0  0  0  0  0  0  0  0  0
  146.5143  143.2643  156.8427 H   0  0  0  0  0  0  0  0  0  0  0  0
  145.5425  141.8411  157.1295 H   0  0  0  0  0  0  0  0  0  0  0  0
  147.2033  140.4180  155.9591 H   0  0  0  0  0  0  0  0  0  0  0  0
  148.4325  142.2365  158.0988 H   0  0  0  0  0  0  0  0  0  0  0  0
  147.5645  140.7476  158.3638 H   0  0  0  0  0  0  0  0  0  0  0  0
  148.7005  142.8968  155.6187 H   0  0  0  0  0  0  0  0  0  0  0  0
  1  2  3  0  0  0  0
  2  3  1  0  0  0  0
  3  8  1  0  0  0  0
  3  4  2  0  0  0  0
  4  5  1  0  0  0  0
  4 21  1  0  0  0  0
  5  6  2  0  0  0  0
  5 22  1  0  0  0  0
  6  7  1  0  0  0  0
  6 23  1  0  0  0  0
  7  8  2  0  0  0  0
  8  9  1  0  0  0  0
  9 10  1  0  0  0  0
  9 24  1  0  0  0  0
 10 11  1  0  0  0  0
 10 25  1  0  0  0  0
 10 26  1  0  0  0  0
 11 20  1  0  0  0  0
 11 12  1  0  0  0  0
 11 27  1  0  0  0  0
 12 13  1  0  0  0  0
 12 28  1  0  0  0  0
 12 29  1  0  0  0  0
 13 18  1  0  0  0  0
 13 14  1  0  0  0  0
 13 41  1  0  0  0  0
 14 15  1  0  0  0  0
 14 30  1  0  0  0  0
 14 31  1  0  0  0  0
 15 16  1  0  0  0  0
 15 32  1  0  0  0  0
 15 33  1  0  0  0  0
 16 17  1  0  0  0  0
 16 34  1  0  0  0  0
 16 35  1  0  0  0  0
 17 18  1  0  0  0  0
 17 36  1  0  0  0  0
 17 37  1  0  0  0  0
 18 19  1  0  0  0  0
 18 38  1  0  0  0  0
 19 20  1  0  0  0  0
 19 39  1  0  0  0  0
 19 40  1  0  0  0  0
M  CHG  1  13   1
M  END
> <s_m_source_file>
AV-unprocessed.smi

> <i_m_source_file_index>
2439

> <i_lp_mmshare_version>
43012

> <i_f3d_flags>
0

> <s_epik_input>
TiNDYzFbY0hdW2NIXVtjSF1uYzFbTkhdW0NIMl1bQ0BIXShbQ0gyXTIpT1tDSDJdW0NAQEhdKE4yMylbQ0gyXVtDSDJdW0NIMl1bQ0gyXTM=

> <s_epik_cmdline>
J2VwaWtfcHl0aG9uJywgJy1waCcsICc3LjAnLCAnLXRuJywgJzgnLCAnLW1hJywgJzIwMCcsICctbWV0YWxfYmluZGluZycsICctaW1hZScsICc8aW5maWxlLm1hZT4nLCAnLW9tYWUnLCAnPG91dGZpbGUubWFlPic=

> <r_epik_Ionization_Penalty>
0.0803594

> <r_epik_Ionization_Penalty_Charging>
0.0803403

> <r_epik_Ionization_Penalty_Neutral>
1.90988e-05

> <r_epik_State_Penalty>
0.0711481

> <r_epik_Charging_Adjusted_Penalty>
0.151488

> <i_epik_Tot_Q>
1

> <i_epik_Tot_abs_Q>
1

> <r_epik_Metal_State_Penalty>
0.0711482

> <b_epik_Metal_Only>
0

> <s_lp_Force_Field>
OPLS_2005

> <r_lp_Energy>
31.556

> <b_lp_Chiralities_Consistent>
1

> <s_lp_Variant>
AV-unprocessed.smi:2439-7

> <Gold.Version>
5.8.1

> <Gold.Id.Protein>
6NUR|6NUR_protein|mol2

> <Gold.PLP.Fitness>
48.6977

> <Gold.PLP.PLP>
-40.8449

> <Gold.PLP.part.hbond>
-2.0000

> <Gold.PLP.part.metal>
0.0000

> <Gold.PLP.part.buried>
-3.8647

> <Gold.PLP.part.nonpolar>
-35.1282

> <Gold.PLP.part.repulsive>
0.2133

> <Gold.PLP.ligand.clash>
0.0000

> <Gold.PLP.ligand.torsion>
0.5781

> <Gold.PLP.Chemscore.Hbond>
3.0000

> <Gold.PLP.Chemscore.CHOScore>
0.0000

> <Gold.PLP.Chemscore.Metal>
0.0000

> <Gold.Chemscore.Hbonds>
donor molecule, donor type, donor heavy atom, donor atom, acceptor molecule, acceptor atom, score
      L1  H    13    41       P1  8028  2.00
      P1  H  7997  8009       L1     1  0.70

> <Gold.PLP.Chemscore.Internal.Correction>
0.0090

> <Gold.Rescore>
     Score         DG    S(hbond)    S(metal)    S(lipo)     H(rot)  DE(clash)    DE(int)     intcor
     17.76     -18.96       1.87        0.00      89.41       1.27       0.70       0.49       ----

> <Gold.Chemscore.Fitness>
17.7632

> <Gold.Chemscore.DG>
-18.9562

> <Gold.Chemscore.ZeroCoef>
-5.4800

> <Gold.Chemscore.Hbond>
1.8730

> <Gold.Chemscore.Metal>
0.0000

> <Gold.Chemscore.Lipo>
89.4113

> <Gold.Chemscore.Internal_Hbond>
0.0000

> <Gold.Chemscore.DEClash>
0.7024

> <Gold.Chemscore.DEInternal>
0.4905

> <Gold.Chemscore.Rot>
1.2659

> <Gold.Chemscore.Internal.Correction>
   9.000000E+99

> <Gold.Chemscore.Hbonds>
donor molecule, donor type, donor heavy atom, donor atom, acceptor molecule, acceptor atom, score
      L1  H    13    41       P1  8028  0.99
      P1  H  7997  8009       L1     1  0.37

> <Gold.Chemscore.Hbond.Weighted>
-6.2558

> <Gold.Chemscore.Metal.Weighted>
-0.0000

> <Gold.Chemscore.Lipo.Weighted>
-10.4611

> <Gold.Chemscore.Internal_Hbond.Weighted>
0.0000

> <Gold.Chemscore.DEClash.Weighted>
0.7024

> <Gold.Chemscore.DEInternal.Weighted>
0.4905

> <Gold.Chemscore.Rot.Weighted>
3.2408

> <Gold.Chemscore.Internal.Correction.Weighted>
   9.000000E+99

> <Gold.Protein.RotatedTorsions>
[ 6907 6896 6895 6894 ] final  158.63 input  -60.11 | X-H torsion
[ 7974 7965 7964 7962 ] final   48.16 input  175.53 | X-H torsion
[ 8008 7997 7996 7995 ] final  127.33 input   59.86 | X-H torsion
[ 10167 10162 10161 10158 ] final -130.28 input  -65.29 | X-H torsion
[ 10718 10713 10712 10709 ] final  -94.83 input   66.30 | X-H torsion
[ 10763 10752 10751 10750 ] final  136.23 input  -60.55 | X-H torsion
[ 11005 11000 10999 10996 ] final -110.34 input  -57.11 | X-H torsion

> <Gold.Protein.ActiveResidues>
 VAL166  LYS551  ARG553  GLY616  TRP617  ASP618  TYR619  PRO620  LYS621  CYS622 
 ASP623  PHE694  ASN695  SER759  ASP760  ASP761  ALA762  ILE779  LEU786  VAL792 
 PHE793  MET794  SER795  GLU796  ALA797  LYS798  CYS799  TRP800  GLU811  SER814 

> <Gold.Protein.RotatedAtoms>
  151.9976  133.3813  159.4168 H   0  0  0  0  0  0  0  0  0  0  0  0  # atno 6907 bound_to 6896
  150.6914  134.3869  159.5068 H   0  0  0  0  0  0  0  0  0  0  0  0  # atno 6908 bound_to 6896
  152.1612  134.8910  160.0592 H   0  0  0  0  0  0  0  0  0  0  0  0  # atno 6909 bound_to 6896
  146.0230  139.4674  142.9885 H   0  0  0  0  0  0  0  0  0  0  0  0  # atno 7974 bound_to 7965
  156.2888  140.2671  156.2256 H   0  0  0  0  0  0  0  0  0  0  0  0  # atno 8008 bound_to 7997
  155.0123  140.0387  157.2422 H   0  0  0  0  0  0  0  0  0  0  0  0  # atno 8009 bound_to 7997
  154.7507  140.2742  155.6300 H   0  0  0  0  0  0  0  0  0  0  0  0  # atno 8010 bound_to 7997
  139.9309  143.6273  152.2530 H   0  0  0  0  0  0  0  0  0  0  0  0  # atno 10167 bound_to 10162
  156.0033  130.5084  150.5986 H   0  0  0  0  0  0  0  0  0  0  0  0  # atno 10718 bound_to 10713
  153.8531  135.3077  155.3433 H   0  0  0  0  0  0  0  0  0  0  0  0  # atno 10763 bound_to 10752
  154.7882  135.4797  153.9996 H   0  0  0  0  0  0  0  0  0  0  0  0  # atno 10764 bound_to 10752
  153.1506  135.6842  153.8981 H   0  0  0  0  0  0  0  0  0  0  0  0  # atno 10765 bound_to 10752
  141.0797  133.9241  157.2315 H   0  0  0  0  0  0  0  0  0  0  0  0  # atno 11005 bound_to 11000
  145.7162  141.0090  143.1427 LP  0  0  0  0  0  0  0  0  0  0  0  0  # atno 17320 bound_to 7965
  144.6998  139.8816  143.7447 LP  0  0  0  0  0  0  0  0  0  0  0  0  # atno 17321 bound_to 7965
  139.6783  144.7657  151.1655 LP  0  0  0  0  0  0  0  0  0  0  0  0  # atno 17342 bound_to 10162
  140.7637  143.5762  150.8943 LP  0  0  0  0  0  0  0  0  0  0  0  0  # atno 17343 bound_to 10162
  157.3839  131.0785  151.1453 LP  0  0  0  0  0  0  0  0  0  0  0  0  # atno 17370 bound_to 10713
  157.2167  130.6462  149.5795 LP  0  0  0  0  0  0  0  0  0  0  0  0  # atno 17371 bound_to 10713
  139.9610  135.0154  156.9261 LP  0  0  0  0  0  0  0  0  0  0  0  0  # atno 17394 bound_to 11000
  140.5496  134.0640  155.7365 LP  0  0  0  0  0  0  0  0  0  0  0  0  # atno 17395 bound_to 11000

$$$$
