AV-unprocessed.smi:1005|AV-procd|sdf|4372|dock4
  -GOLD-   22720 2283D 1   1.00000     0.00000
 Structure written by MMmdl.
 57 59  0  0  0  0  0  0  0  0  3 V2000
  152.9657  142.8393  160.2035 C   0  0  0  0  0  0  0  0  0  0  0  0
  152.1896  142.1581  159.0901 C   0  0  0  0  0  0  0  0  0  0  0  0
  152.0715  140.7498  159.0968 C   0  0  0  0  0  0  0  0  0  0  0  0
  151.3614  140.0779  158.0779 C   0  0  0  0  0  0  0  0  0  0  0  0
  151.1296  138.7268  157.8838 N   0  0  0  0  0  0  0  0  0  0  0  0
  150.4132  138.7352  156.7637 C   0  0  0  0  0  0  0  0  0  0  0  0
  150.1546  139.9336  156.2057 N   0  0  0  0  0  0  0  0  0  0  0  0
  149.4017  140.1861  154.9897 C   0  0  0  0  0  0  0  0  0  0  0  0
  148.9011  138.8887  154.3255 C   0  0  2  0  0  0  0  0  0  0  0  0
  149.8931  138.3969  153.4443 O   0  0  0  0  0  0  0  0  0  0  0  0
  147.6041  139.1233  153.5251 C   0  0  0  0  0  0  0  0  0  0  0  0
  147.0764  137.8812  152.9038 N   0  3  2  0  0  0  0  0  0  0  0  0
  146.4208  138.1347  151.5994 C   0  0  0  0  0  0  0  0  0  0  0  0
  145.9589  136.8124  150.9659 C   0  0  0  0  0  0  0  0  0  0  0  0
  145.0938  136.1292  151.8656 O   0  0  0  0  0  0  0  0  0  0  0  0
  145.7391  135.7933  153.0898 C   0  0  2  0  0  0  0  0  0  0  0  0
  144.7451  134.9928  153.9526 C   0  0  0  0  0  0  0  0  0  0  0  0
  144.0183  133.9505  153.1825 N   0  3  0  0  0  0  0  0  0  0  0  0
  142.8069  134.4596  152.4978 C   0  0  0  0  0  0  0  0  0  0  0  0
  144.9077  133.2331  152.2423 C   0  0  0  0  0  0  0  0  0  0  0  0
  146.1776  137.0972  153.7870 C   0  0  0  0  0  0  0  0  0  0  0  0
  150.7641  140.8596  157.0461 C   0  0  0  0  0  0  0  0  0  0  0  0
  150.8720  142.2615  157.0303 C   0  0  0  0  0  0  0  0  0  0  0  0
  151.5902  142.9166  158.0524 C   0  0  0  0  0  0  0  0  0  0  0  0
  151.7104  144.4299  158.0195 C   0  0  0  0  0  0  0  0  0  0  0  0
  153.3295  142.1172  160.9348 H   0  0  0  0  0  0  0  0  0  0  0  0
  152.3337  143.5561  160.7281 H   0  0  0  0  0  0  0  0  0  0  0  0
  153.8284  143.3688  159.7985 H   0  0  0  0  0  0  0  0  0  0  0  0
  152.5293  140.1717  159.8860 H   0  0  0  0  0  0  0  0  0  0  0  0
  150.0573  137.8162  156.3209 H   0  0  0  0  0  0  0  0  0  0  0  0
  148.5569  140.8292  155.2403 H   0  0  0  0  0  0  0  0  0  0  0  0
  150.0303  140.7543  154.3027 H   0  0  0  0  0  0  0  0  0  0  0  0
  148.7378  138.1449  155.1047 H   0  0  0  0  0  0  0  0  0  0  0  0
  149.5510  137.6336  153.0026 H   0  0  0  0  0  0  0  0  0  0  0  0
  146.8357  139.5655  154.1609 H   0  0  0  0  0  0  0  0  0  0  0  0
  147.8113  139.8555  152.7428 H   0  0  0  0  0  0  0  0  0  0  0  0
  145.5679  138.8005  151.7414 H   0  0  0  0  0  0  0  0  0  0  0  0
  147.1143  138.6397  150.9258 H   0  0  0  0  0  0  0  0  0  0  0  0
  145.4213  137.0090  150.0382 H   0  0  0  0  0  0  0  0  0  0  0  0
  146.8126  136.1816  150.7122 H   0  0  0  0  0  0  0  0  0  0  0  0
  146.6250  135.1918  152.8836 H   0  0  0  0  0  0  0  0  0  0  0  0
  145.2584  134.5239  154.7935 H   0  0  0  0  0  0  0  0  0  0  0  0
  144.0273  135.6923  154.3845 H   0  0  0  0  0  0  0  0  0  0  0  0
  143.0621  135.2402  151.7798 H   0  0  0  0  0  0  0  0  0  0  0  0
  142.0858  134.8678  153.2046 H   0  0  0  0  0  0  0  0  0  0  0  0
  142.3058  133.6556  151.9575 H   0  0  0  0  0  0  0  0  0  0  0  0
  145.3045  133.9102  151.4846 H   0  0  0  0  0  0  0  0  0  0  0  0
  144.3689  132.4314  151.7360 H   0  0  0  0  0  0  0  0  0  0  0  0
  145.7473  132.7800  152.7708 H   0  0  0  0  0  0  0  0  0  0  0  0
  146.6838  136.8504  154.7194 H   0  0  0  0  0  0  0  0  0  0  0  0
  145.3056  137.6999  154.0467 H   0  0  0  0  0  0  0  0  0  0  0  0
  150.4102  142.8275  156.2348 H   0  0  0  0  0  0  0  0  0  0  0  0
  151.2382  144.8473  157.1296 H   0  0  0  0  0  0  0  0  0  0  0  0
  152.7584  144.7306  158.0118 H   0  0  0  0  0  0  0  0  0  0  0  0
  151.2295  144.8703  158.8931 H   0  0  0  0  0  0  0  0  0  0  0  0
  143.7103  133.2591  153.8522 H   0  0  0  0  0  0  0  0  0  0  0  0
  147.8827  137.3041  152.7084 H   0  0  0  0  0  0  0  0  0  0  0  0
  1  2  1  0  0  0  0
  1 26  1  0  0  0  0
  1 27  1  0  0  0  0
  1 28  1  0  0  0  0
  2 24  1  0  0  0  0
  2  3  2  0  0  0  0
  3  4  1  0  0  0  0
  3 29  1  0  0  0  0
  4 22  2  0  0  0  0
  4  5  1  0  0  0  0
  5  6  2  0  0  0  0
  6  7  1  0  0  0  0
  6 30  1  0  0  0  0
  7  8  1  0  0  0  0
  7 22  1  0  0  0  0
  8  9  1  0  0  0  0
  8 31  1  0  0  0  0
  8 32  1  0  0  0  0
  9 10  1  0  0  0  0
  9 11  1  0  0  0  0
  9 33  1  0  0  0  0
 10 34  1  0  0  0  0
 11 12  1  0  0  0  0
 11 35  1  0  0  0  0
 11 36  1  0  0  0  0
 12 21  1  0  0  0  0
 12 13  1  0  0  0  0
 12 57  1  0  0  0  0
 13 14  1  0  0  0  0
 13 37  1  0  0  0  0
 13 38  1  0  0  0  0
 14 15  1  0  0  0  0
 14 39  1  0  0  0  0
 14 40  1  0  0  0  0
 15 16  1  0  0  0  0
 16 17  1  0  0  0  0
 16 21  1  0  0  0  0
 16 41  1  0  0  0  0
 17 18  1  0  0  0  0
 17 42  1  0  0  0  0
 17 43  1  0  0  0  0
 18 19  1  0  0  0  0
 18 20  1  0  0  0  0
 18 56  1  0  0  0  0
 19 44  1  0  0  0  0
 19 45  1  0  0  0  0
 19 46  1  0  0  0  0
 20 47  1  0  0  0  0
 20 48  1  0  0  0  0
 20 49  1  0  0  0  0
 21 50  1  0  0  0  0
 21 51  1  0  0  0  0
 22 23  1  0  0  0  0
 23 24  2  0  0  0  0
 23 52  1  0  0  0  0
 24 25  1  0  0  0  0
 25 53  1  0  0  0  0
 25 54  1  0  0  0  0
 25 55  1  0  0  0  0
M  CHG  1  12   1
M  CHG  1  18   1
M  END
> <s_m_source_file>
AV-unprocessed.smi

> <i_m_source_file_index>
1005

> <i_lp_mmshare_version>
43012

> <i_f3d_flags>
0

> <s_epik_input>
W0NIM11jKFtjSF0xKWMoW0NIM10pW2NIXWMoYzEyKW4oW2NIXW4yKVtDSDJdW0NASF0oW09IXSlbQ0gyXU4zW0NIMl1bQ0gyXU9bQ0BIXShbQ0gyXTMpW0NIMl1OKFtDSDNdKVtDSDNd

> <s_epik_cmdline>
J2VwaWtfcHl0aG9uJywgJy1waCcsICc3LjAnLCAnLXRuJywgJzgnLCAnLW1hJywgJzIwMCcsICctbWV0YWxfYmluZGluZycsICctaW1hZScsICc8aW5maWxlLm1hZT4nLCAnLW9tYWUnLCAnPG91dGZpbGUubWFlPic=

> <r_epik_Ionization_Penalty>
1.0968

> <r_epik_Ionization_Penalty_Charging>
1.0096

> <r_epik_Ionization_Penalty_Neutral>
0.0871956

> <r_epik_State_Penalty>
1.31185

> <r_epik_Charging_Adjusted_Penalty>
2.32145

> <i_epik_Tot_Q>
2

> <i_epik_Tot_abs_Q>
2

> <r_epik_Metal_State_Penalty>
1.22442

> <b_epik_Metal_Only>
0

> <s_lp_Force_Field>
OPLS_2005

> <r_lp_Energy>
33.8105

> <b_lp_Chiralities_Consistent>
1

> <s_lp_Variant>
AV-unprocessed.smi:1005-11

> <Gold.Version>
5.8.1

> <Gold.Id.Protein>
6NUR|6NUR_protein|mol2

> <Gold.PLP.Fitness>
56.1047

> <Gold.PLP.PLP>
-43.0015

> <Gold.PLP.part.hbond>
-4.0975

> <Gold.PLP.part.metal>
0.0000

> <Gold.PLP.part.buried>
-1.8978

> <Gold.PLP.part.nonpolar>
-38.2080

> <Gold.PLP.part.repulsive>
0.2254

> <Gold.PLP.ligand.clash>
0.0000

> <Gold.PLP.ligand.torsion>
1.0728

> <Gold.PLP.Chemscore.Hbond>
4.9825

> <Gold.PLP.Chemscore.CHOScore>
0.0000

> <Gold.PLP.Chemscore.Metal>
0.0000

> <Gold.Chemscore.Hbonds>
donor molecule, donor type, donor heavy atom, donor atom, acceptor molecule, acceptor atom, score
      L1  H    10    34       P1  7948  1.00
      L1  H    12    57       P1  7948  2.00
      L1  H    18    56       P1 10957  1.92

> <Gold.PLP.Chemscore.Internal.Correction>
0.3013

> <Gold.Rescore>
     Score         DG    S(hbond)    S(metal)    S(lipo)     H(rot)  DE(clash)    DE(int)     intcor
     19.07     -22.89       2.81        0.00     123.02       2.48       0.45       3.37       ----

> <Gold.Chemscore.Fitness>
19.0744

> <Gold.Chemscore.DG>
-22.8901

> <Gold.Chemscore.ZeroCoef>
-5.4800

> <Gold.Chemscore.Hbond>
2.8051

> <Gold.Chemscore.Metal>
0.0000

> <Gold.Chemscore.Lipo>
123.0191

> <Gold.Chemscore.Internal_Hbond>
0.0000

> <Gold.Chemscore.DEClash>
0.4483

> <Gold.Chemscore.DEInternal>
3.3673

> <Gold.Chemscore.Rot>
2.4814

> <Gold.Chemscore.Internal.Correction>
   9.000000E+99

> <Gold.Chemscore.Hbonds>
donor molecule, donor type, donor heavy atom, donor atom, acceptor molecule, acceptor atom, score
      L1  H    10    34       P1  7948  0.78
      L1  H    12    57       P1  7948  0.99
      L1  H    18    56       P1 10957  0.91

> <Gold.Chemscore.Hbond.Weighted>
-9.3692

> <Gold.Chemscore.Metal.Weighted>
-0.0000

> <Gold.Chemscore.Lipo.Weighted>
-14.3932

> <Gold.Chemscore.Internal_Hbond.Weighted>
0.0000

> <Gold.Chemscore.DEClash.Weighted>
0.4483

> <Gold.Chemscore.DEInternal.Weighted>
3.3673

> <Gold.Chemscore.Rot.Weighted>
6.3524

> <Gold.Chemscore.Internal.Correction.Weighted>
   9.000000E+99

> <Gold.Protein.RotatedTorsions>
[ 6907 6896 6895 6894 ] final   11.97 input  -60.11 | X-H torsion
[ 7974 7965 7964 7962 ] final   38.30 input  175.53 | X-H torsion
[ 8008 7997 7996 7995 ] final  137.98 input   59.86 | X-H torsion
[ 10167 10162 10161 10158 ] final -117.34 input  -65.29 | X-H torsion
[ 10718 10713 10712 10709 ] final   18.68 input   66.30 | X-H torsion
[ 10763 10752 10751 10750 ] final  -22.03 input  -60.55 | X-H torsion
[ 11005 11000 10999 10996 ] final -172.33 input  -57.11 | X-H torsion

> <Gold.Protein.ActiveResidues>
 VAL166  LYS551  ARG553  GLY616  TRP617  ASP618  TYR619  PRO620  LYS621  CYS622 
 ASP623  PHE694  ASN695  SER759  ASP760  ASP761  ALA762  ILE779  LEU786  VAL792 
 PHE793  MET794  SER795  GLU796  ALA797  LYS798  CYS799  TRP800  GLU811  SER814 

> <Gold.Protein.RotatedAtoms>
  151.7629  135.0805  160.0348 H   0  0  0  0  0  0  0  0  0  0  0  0  # atno 6907 bound_to 6896
  152.3341  133.5987  159.5838 H   0  0  0  0  0  0  0  0  0  0  0  0  # atno 6908 bound_to 6896
  150.7440  133.9739  159.3596 H   0  0  0  0  0  0  0  0  0  0  0  0  # atno 6909 bound_to 6896
  146.1072  139.5788  142.9376 H   0  0  0  0  0  0  0  0  0  0  0  0  # atno 7974 bound_to 7965
  156.3000  140.2405  156.3999 H   0  0  0  0  0  0  0  0  0  0  0  0  # atno 8008 bound_to 7997
  154.8537  140.0423  157.1640 H   0  0  0  0  0  0  0  0  0  0  0  0  # atno 8009 bound_to 7997
  154.8971  140.2971  155.5342 H   0  0  0  0  0  0  0  0  0  0  0  0  # atno 8010 bound_to 7997
  140.0694  143.4892  152.1988 H   0  0  0  0  0  0  0  0  0  0  0  0  # atno 10167 bound_to 10162
  157.0997  130.6463  149.5869 H   0  0  0  0  0  0  0  0  0  0  0  0  # atno 10718 bound_to 10713
  153.6455  135.6983  153.5227 H   0  0  0  0  0  0  0  0  0  0  0  0  # atno 10763 bound_to 10752
  153.2748  135.4204  155.1022 H   0  0  0  0  0  0  0  0  0  0  0  0  # atno 10764 bound_to 10752
  154.8489  135.3587  154.5999 H   0  0  0  0  0  0  0  0  0  0  0  0  # atno 10765 bound_to 10752
  140.4982  134.5919  157.4978 H   0  0  0  0  0  0  0  0  0  0  0  0  # atno 11005 bound_to 11000
  145.5737  141.0391  143.2160 LP  0  0  0  0  0  0  0  0  0  0  0  0  # atno 17320 bound_to 7965
  144.7481  139.7267  143.7284 LP  0  0  0  0  0  0  0  0  0  0  0  0  # atno 17321 bound_to 7965
  139.5845  144.7525  151.3554 LP  0  0  0  0  0  0  0  0  0  0  0  0  # atno 17342 bound_to 10162
  140.7133  143.7333  150.7608 LP  0  0  0  0  0  0  0  0  0  0  0  0  # atno 17343 bound_to 10162
  155.9877  130.4917  150.7135 LP  0  0  0  0  0  0  0  0  0  0  0  0  # atno 17370 bound_to 10713
  157.4651  131.0887  151.0703 LP  0  0  0  0  0  0  0  0  0  0  0  0  # atno 17371 bound_to 10713
  139.9729  134.7263  156.0007 LP  0  0  0  0  0  0  0  0  0  0  0  0  # atno 17394 bound_to 11000
  141.1449  133.6558  156.3838 LP  0  0  0  0  0  0  0  0  0  0  0  0  # atno 17395 bound_to 11000

$$$$
