AV-unprocessed.smi:2822|AV-procd|sdf|10875|dock10
  -GOLD-   2272015313D 1   1.00000     0.00000
 Structure written by MMmdl.
 40 42  0  0  0  0  0  0  0  0  2 V2000
  151.0018  145.0427  159.7190 Cl  0  0  0  0  0  0  0  0  0  0  0  0
  151.9662  143.7106  160.2542 C   0  0  0  0  0  0  0  0  0  0  0  0
  152.4705  143.6968  161.5707 C   0  0  0  0  0  0  0  0  0  0  0  0
  153.2284  142.6963  162.0663 N   0  0  0  0  0  0  0  0  0  0  0  0
  153.5125  141.6603  161.2504 C   0  0  0  0  0  0  0  0  0  0  0  0
  153.0597  141.5739  159.9186 C   0  0  0  0  0  0  0  0  0  0  0  0
  152.2650  142.6237  159.4005 C   0  0  0  0  0  0  0  0  0  0  0  0
  151.7737  142.6227  158.0861 N   0  0  0  0  0  0  0  0  0  0  0  0
  152.2527  141.6600  157.1062 C   0  0  0  0  0  0  0  0  0  0  0  0
  151.1015  140.8205  156.5349 C   0  0  1  0  0  0  0  0  0  0  0  0
  149.9349  141.7026  156.0534 C   0  0  0  0  0  0  0  0  0  0  0  0
  148.8696  140.8715  155.4460 N   0  3  1  0  0  0  0  0  0  0  0  0
  147.7040  141.6781  155.0034 C   0  0  0  0  0  0  0  0  0  0  0  0
  146.5798  140.7775  154.4663 C   0  0  0  0  0  0  0  0  0  0  0  0
  147.0930  139.8803  153.3326 C   0  0  0  0  0  0  0  0  0  0  0  0
  148.3134  139.0800  153.8069 C   0  0  0  0  0  0  0  0  0  0  0  0
  149.4116  140.0099  154.3602 C   0  0  2  0  0  0  0  0  0  0  0  0
  150.6182  139.2044  154.8802 C   0  0  0  0  0  0  0  0  0  0  0  0
  151.5941  140.0871  155.4184 O   0  0  0  0  0  0  0  0  0  0  0  0
  152.2588  144.5129  162.2459 H   0  0  0  0  0  0  0  0  0  0  0  0
  154.1214  140.8740  161.6717 H   0  0  0  0  0  0  0  0  0  0  0  0
  153.3291  140.7132  159.3256 H   0  0  0  0  0  0  0  0  0  0  0  0
  150.9334  143.1445  157.8801 H   0  0  0  0  0  0  0  0  0  0  0  0
  152.7386  142.2053  156.2963 H   0  0  0  0  0  0  0  0  0  0  0  0
  153.0038  141.0123  157.5599 H   0  0  0  0  0  0  0  0  0  0  0  0
  150.7437  140.1319  157.3033 H   0  0  0  0  0  0  0  0  0  0  0  0
  149.5230  142.2641  156.8930 H   0  0  0  0  0  0  0  0  0  0  0  0
  150.2904  142.4321  155.3235 H   0  0  0  0  0  0  0  0  0  0  0  0
  147.3293  142.2689  155.8402 H   0  0  0  0  0  0  0  0  0  0  0  0
  148.0187  142.3832  154.2325 H   0  0  0  0  0  0  0  0  0  0  0  0
  146.1862  140.1594  155.2742 H   0  0  0  0  0  0  0  0  0  0  0  0
  145.7496  141.3886  154.1108 H   0  0  0  0  0  0  0  0  0  0  0  0
  146.3048  139.2041  152.9997 H   0  0  0  0  0  0  0  0  0  0  0  0
  147.3643  140.4923  152.4712 H   0  0  0  0  0  0  0  0  0  0  0  0
  148.0055  138.3713  154.5773 H   0  0  0  0  0  0  0  0  0  0  0  0
  148.7066  138.4862  152.9808 H   0  0  0  0  0  0  0  0  0  0  0  0
  149.7566  140.6602  153.5542 H   0  0  0  0  0  0  0  0  0  0  0  0
  150.3131  138.4796  155.6371 H   0  0  0  0  0  0  0  0  0  0  0  0
  151.0723  138.6393  154.0657 H   0  0  0  0  0  0  0  0  0  0  0  0
  148.5358  140.2510  156.1698 H   0  0  0  0  0  0  0  0  0  0  0  0
  1  2  1  0  0  0  0
  2  7  1  0  0  0  0
  2  3  2  0  0  0  0
  3  4  1  0  0  0  0
  3 20  1  0  0  0  0
  4  5  2  0  0  0  0
  5  6  1  0  0  0  0
  5 21  1  0  0  0  0
  6  7  2  0  0  0  0
  6 22  1  0  0  0  0
  7  8  1  0  0  0  0
  8  9  1  0  0  0  0
  8 23  1  0  0  0  0
  9 10  1  0  0  0  0
  9 24  1  0  0  0  0
  9 25  1  0  0  0  0
 10 19  1  0  0  0  0
 10 11  1  0  0  0  0
 10 26  1  0  0  0  0
 11 12  1  0  0  0  0
 11 27  1  0  0  0  0
 11 28  1  0  0  0  0
 12 17  1  0  0  0  0
 12 13  1  0  0  0  0
 12 40  1  0  0  0  0
 13 14  1  0  0  0  0
 13 29  1  0  0  0  0
 13 30  1  0  0  0  0
 14 15  1  0  0  0  0
 14 31  1  0  0  0  0
 14 32  1  0  0  0  0
 15 16  1  0  0  0  0
 15 33  1  0  0  0  0
 15 34  1  0  0  0  0
 16 17  1  0  0  0  0
 16 35  1  0  0  0  0
 16 36  1  0  0  0  0
 17 18  1  0  0  0  0
 17 37  1  0  0  0  0
 18 19  1  0  0  0  0
 18 38  1  0  0  0  0
 18 39  1  0  0  0  0
M  CHG  1  12   1
M  END
> <s_m_source_file>
AV-unprocessed.smi

> <i_m_source_file_index>
2822

> <i_lp_mmshare_version>
43012

> <i_f3d_flags>
0

> <s_epik_input>
Q2xjMVtjSF1uW2NIXVtjSF1jMVtOSF1bQ0gyXVtDQEhdKFtDSDJdMilPW0NIMl1bQ0BASF0oTjIzKVtDSDJdW0NIMl1bQ0gyXVtDSDJdMw==

> <s_epik_cmdline>
J2VwaWtfcHl0aG9uJywgJy1waCcsICc3LjAnLCAnLXRuJywgJzgnLCAnLW1hJywgJzIwMCcsICctbWV0YWxfYmluZGluZycsICctaW1hZScsICc8aW5maWxlLm1hZT4nLCAnLW9tYWUnLCAnPG91dGZpbGUubWFlPic=

> <r_lp_tautomer_probability>
0.999999

> <r_epik_Ionization_Penalty>
0.88937

> <r_epik_Ionization_Penalty_Charging>
0.0803403

> <r_epik_Ionization_Penalty_Neutral>
0.80903

> <r_epik_State_Penalty>
0.931884

> <r_epik_Charging_Adjusted_Penalty>
1.01222

> <i_epik_Tot_Q>
1

> <i_epik_Tot_abs_Q>
1

> <r_epik_Metal_State_Penalty>
0.0782275

> <b_epik_Metal_Only>
0

> <s_lp_Force_Field>
OPLS_2005

> <r_lp_Energy>
28.742

> <b_lp_Chiralities_Consistent>
1

> <s_lp_Variant>
AV-unprocessed.smi:2822-16

> <Gold.Version>
5.8.1

> <Gold.Id.Protein>
6NUR|6NUR_protein|mol2

> <Gold.PLP.Fitness>
38.0702

> <Gold.PLP.PLP>
-37.6281

> <Gold.PLP.part.hbond>
-1.0000

> <Gold.PLP.part.metal>
0.0000

> <Gold.PLP.part.buried>
-4.5907

> <Gold.PLP.part.nonpolar>
-31.5943

> <Gold.PLP.part.repulsive>
0.2127

> <Gold.PLP.ligand.clash>
0.0000

> <Gold.PLP.ligand.torsion>
0.0833

> <Gold.PLP.Chemscore.Hbond>
0.2028

> <Gold.PLP.Chemscore.CHOScore>
0.0000

> <Gold.PLP.Chemscore.Metal>
0.0000

> <Gold.Chemscore.Hbonds>
donor molecule, donor type, donor heavy atom, donor atom, acceptor molecule, acceptor atom, score
      P1  H  7989  7998       L1    19  0.22

> <Gold.PLP.Chemscore.Internal.Correction>
0.0003

> <Gold.Rescore>
     Score         DG    S(hbond)    S(metal)    S(lipo)     H(rot)  DE(clash)    DE(int)     intcor
     15.24     -17.21       0.00        0.00     125.84       1.17       1.81       0.16       ----

> <Gold.Chemscore.Fitness>
15.2391

> <Gold.Chemscore.DG>
-17.2102

> <Gold.Chemscore.ZeroCoef>
-5.4800

> <Gold.Chemscore.Hbond>
0.0000

> <Gold.Chemscore.Metal>
0.0000

> <Gold.Chemscore.Lipo>
125.8417

> <Gold.Chemscore.Internal_Hbond>
0.0000

> <Gold.Chemscore.DEClash>
1.8108

> <Gold.Chemscore.DEInternal>
0.1603

> <Gold.Chemscore.Rot>
1.1693

> <Gold.Chemscore.Internal.Correction>
   9.000000E+99

> <Gold.Chemscore.Hbond.Weighted>
-0.0001

> <Gold.Chemscore.Metal.Weighted>
-0.0000

> <Gold.Chemscore.Lipo.Weighted>
-14.7235

> <Gold.Chemscore.Internal_Hbond.Weighted>
0.0000

> <Gold.Chemscore.DEClash.Weighted>
1.8108

> <Gold.Chemscore.DEInternal.Weighted>
0.1603

> <Gold.Chemscore.Rot.Weighted>
2.9934

> <Gold.Chemscore.Internal.Correction.Weighted>
   9.000000E+99

> <Gold.Protein.RotatedTorsions>
[ 6907 6896 6895 6894 ] final  -57.94 input  -60.11 | X-H torsion
[ 7974 7965 7964 7962 ] final -158.65 input  175.53 | X-H torsion
[ 8008 7997 7996 7995 ] final   -8.86 input   59.86 | X-H torsion
[ 10167 10162 10161 10158 ] final   87.10 input  -65.29 | X-H torsion
[ 10718 10713 10712 10709 ] final  -35.93 input   66.30 | X-H torsion
[ 10763 10752 10751 10750 ] final -145.19 input  -60.55 | X-H torsion
[ 11005 11000 10999 10996 ] final  118.66 input  -57.11 | X-H torsion

> <Gold.Protein.ActiveResidues>
 VAL166  LYS551  ARG553  GLY616  TRP617  ASP618  TYR619  PRO620  LYS621  CYS622 
 ASP623  PHE694  ASN695  SER759  ASP760  ASP761  ALA762  ILE779  LEU786  VAL792 
 PHE793  MET794  SER795  GLU796  ALA797  LYS798  CYS799  TRP800  GLU811  SER814 

> <Gold.Protein.RotatedAtoms>
  150.8046  134.7163  159.6632 H   0  0  0  0  0  0  0  0  0  0  0  0  # atno 6907 bound_to 6896
  152.4165  134.6029  160.0014 H   0  0  0  0  0  0  0  0  0  0  0  0  # atno 6908 bound_to 6896
  151.6256  133.3298  159.3133 H   0  0  0  0  0  0  0  0  0  0  0  0  # atno 6909 bound_to 6896
  144.7497  140.3797  143.6058 H   0  0  0  0  0  0  0  0  0  0  0  0  # atno 7974 bound_to 7965
  154.5701  140.2370  155.8205 H   0  0  0  0  0  0  0  0  0  0  0  0  # atno 8008 bound_to 7997
  156.2099  140.3029  155.9668 H   0  0  0  0  0  0  0  0  0  0  0  0  # atno 8009 bound_to 7997
  155.2729  140.0419  157.2999 H   0  0  0  0  0  0  0  0  0  0  0  0  # atno 8010 bound_to 7997
  139.8807  144.6441  150.8846 H   0  0  0  0  0  0  0  0  0  0  0  0  # atno 10167 bound_to 10162
  156.3328  130.4282  149.7857 H   0  0  0  0  0  0  0  0  0  0  0  0  # atno 10718 bound_to 10713
  154.8394  135.3420  154.6465 H   0  0  0  0  0  0  0  0  0  0  0  0  # atno 10763 bound_to 10752
  153.7077  135.6966  153.5050 H   0  0  0  0  0  0  0  0  0  0  0  0  # atno 10764 bound_to 10752
  153.2475  135.4364  155.0717 H   0  0  0  0  0  0  0  0  0  0  0  0  # atno 10765 bound_to 10752
  139.9118  134.9622  156.7537 H   0  0  0  0  0  0  0  0  0  0  0  0  # atno 11005 bound_to 11000
  145.6990  139.1657  143.2603 LP  0  0  0  0  0  0  0  0  0  0  0  0  # atno 17320 bound_to 7965
  146.1429  140.7033  142.9358 LP  0  0  0  0  0  0  0  0  0  0  0  0  # atno 17321 bound_to 7965
  140.7745  143.3588  151.1869 LP  0  0  0  0  0  0  0  0  0  0  0  0  # atno 17342 bound_to 10162
  139.7198  143.9241  152.2981 LP  0  0  0  0  0  0  0  0  0  0  0  0  # atno 17343 bound_to 10162
  156.5123  130.8177  151.3173 LP  0  0  0  0  0  0  0  0  0  0  0  0  # atno 17370 bound_to 10713
  157.7433  130.9910  150.2585 LP  0  0  0  0  0  0  0  0  0  0  0  0  # atno 17371 bound_to 10713
  140.6753  133.9523  155.7879 LP  0  0  0  0  0  0  0  0  0  0  0  0  # atno 17394 bound_to 11000
  141.0549  134.0431  157.3736 LP  0  0  0  0  0  0  0  0  0  0  0  0  # atno 17395 bound_to 11000

$$$$
