AV-unprocessed.smi:2340|AV-procd|sdf|9346|dock8
  -GOLD-   2272012563D 1   1.00000     0.00000
 Structure written by MMmdl.
 40 41  0  0  0  0  0  0  0  0  1 V2000
  142.3418  135.1389  153.4330 C   0  0  0  0  0  0  0  0  0  0  0  0
  143.6312  134.9881  152.6894 C   0  0  0  0  0  0  0  0  0  0  0  0
  144.0192  135.6683  151.5622 C   0  0  0  0  0  0  0  0  0  0  0  0
  145.6043  135.1853  151.0257 S   0  0  0  0  0  0  0  0  0  0  0  0
  145.6832  134.0552  152.3737 C   0  0  0  0  0  0  0  0  0  0  0  0
  146.8752  133.1881  152.6461 C   0  0  2  0  0  0  0  0  0  0  0  0
  146.5393  131.6930  152.5511 C   0  0  0  0  0  0  0  0  0  0  0  0
  147.6114  133.5591  153.9536 C   0  0  0  0  0  0  0  0  0  0  0  0
  148.3634  134.8064  153.8480 N   0  0  0  0  0  0  0  0  0  0  0  0
  148.7509  135.5614  154.8841 C   0  0  0  0  0  0  0  0  0  0  0  0
  148.4642  135.3244  156.0578 O   0  0  0  0  0  0  0  0  0  0  0  0
  149.5126  136.5896  154.4895 N   0  0  0  0  0  0  0  0  0  0  0  0
  150.1394  137.5586  155.3865 C   0  0  1  0  0  0  0  0  0  0  0  0
  151.6662  137.4946  155.3007 C   0  0  0  0  0  0  0  0  0  0  0  0
  152.0892  138.9412  155.0659 C   0  0  0  0  0  0  0  0  0  0  0  0
  150.9856  139.4979  154.3740 O   0  0  0  0  0  0  0  0  0  0  0  0
  149.8113  139.0210  155.0139 C   0  0  1  0  0  0  0  0  0  0  0  0
  148.5826  139.2608  154.1215 C   0  0  0  0  0  0  0  0  0  0  0  0
  144.5883  134.0751  153.1401 N   0  0  0  0  0  0  0  0  0  0  0  0
  141.6784  135.8506  152.9409 H   0  0  0  0  0  0  0  0  0  0  0  0
  142.5135  135.4960  154.4485 H   0  0  0  0  0  0  0  0  0  0  0  0
  141.8128  134.1880  153.5006 H   0  0  0  0  0  0  0  0  0  0  0  0
  143.4714  136.4228  151.0172 H   0  0  0  0  0  0  0  0  0  0  0  0
  147.5751  133.3838  151.8328 H   0  0  0  0  0  0  0  0  0  0  0  0
  146.1158  131.4471  151.5770 H   0  0  0  0  0  0  0  0  0  0  0  0
  145.8160  131.4004  153.3127 H   0  0  0  0  0  0  0  0  0  0  0  0
  147.4314  131.0815  152.6877 H   0  0  0  0  0  0  0  0  0  0  0  0
  146.8835  133.6927  154.7543 H   0  0  0  0  0  0  0  0  0  0  0  0
  148.2700  132.7482  154.2684 H   0  0  0  0  0  0  0  0  0  0  0  0
  148.6518  135.0855  152.9216 H   0  0  0  0  0  0  0  0  0  0  0  0
  149.6953  136.6989  153.5026 H   0  0  0  0  0  0  0  0  0  0  0  0
  149.8025  137.3711  156.4076 H   0  0  0  0  0  0  0  0  0  0  0  0
  152.1193  137.0735  156.1987 H   0  0  0  0  0  0  0  0  0  0  0  0
  151.9860  136.8844  154.4541 H   0  0  0  0  0  0  0  0  0  0  0  0
  152.2279  139.4652  156.0129 H   0  0  0  0  0  0  0  0  0  0  0  0
  153.0106  139.0229  154.4890 H   0  0  0  0  0  0  0  0  0  0  0  0
  149.6890  139.5929  155.9356 H   0  0  0  0  0  0  0  0  0  0  0  0
  147.6780  138.8660  154.5844 H   0  0  0  0  0  0  0  0  0  0  0  0
  148.6967  138.7920  153.1438 H   0  0  0  0  0  0  0  0  0  0  0  0
  148.4307  140.3273  153.9552 H   0  0  0  0  0  0  0  0  0  0  0  0
  1  2  1  0  0  0  0
  1 20  1  0  0  0  0
  1 21  1  0  0  0  0
  1 22  1  0  0  0  0
  2 19  1  0  0  0  0
  2  3  2  0  0  0  0
  3  4  1  0  0  0  0
  3 23  1  0  0  0  0
  4  5  1  0  0  0  0
  5  6  1  0  0  0  0
  5 19  2  0  0  0  0
  6  7  1  0  0  0  0
  6  8  1  0  0  0  0
  6 24  1  0  0  0  0
  7 25  1  0  0  0  0
  7 26  1  0  0  0  0
  7 27  1  0  0  0  0
  8  9  1  0  0  0  0
  8 28  1  0  0  0  0
  8 29  1  0  0  0  0
  9 10  1  0  0  0  0
  9 30  1  0  0  0  0
 10 11  2  0  0  0  0
 10 12  1  0  0  0  0
 12 13  1  0  0  0  0
 12 31  1  0  0  0  0
 13 17  1  0  0  0  0
 13 14  1  0  0  0  0
 13 32  1  0  0  0  0
 14 15  1  0  0  0  0
 14 33  1  0  0  0  0
 14 34  1  0  0  0  0
 15 16  1  0  0  0  0
 15 35  1  0  0  0  0
 15 36  1  0  0  0  0
 16 17  1  0  0  0  0
 17 18  1  0  0  0  0
 17 37  1  0  0  0  0
 18 38  1  0  0  0  0
 18 39  1  0  0  0  0
 18 40  1  0  0  0  0
M  END
> <s_m_source_file>
AV-unprocessed.smi

> <i_m_source_file_index>
2340

> <i_lp_mmshare_version>
43012

> <i_f3d_flags>
0

> <s_epik_input>
W0NIM11jMVtjSF1zYyhuMSlbQ0BIXShbQ0gzXSlbQ0gyXVtOSF1DKD1PKVtOSF1bQ0BASF0yW0NIMl1bQ0gyXU9bQ0BIXTJbQ0gzXQ==

> <s_epik_cmdline>
J2VwaWtfcHl0aG9uJywgJy1waCcsICc3LjAnLCAnLXRuJywgJzgnLCAnLW1hJywgJzIwMCcsICctbWV0YWxfYmluZGluZycsICctaW1hZScsICc8aW5maWxlLm1hZT4nLCAnLW9tYWUnLCAnPG91dGZpbGUubWFlPic=

> <r_epik_Ionization_Penalty>
0.00156622

> <r_epik_Ionization_Penalty_Charging>
0

> <r_epik_Ionization_Penalty_Neutral>
0.00156622

> <r_epik_State_Penalty>
0.00101902

> <r_epik_Charging_Adjusted_Penalty>
0.00101902

> <i_epik_Tot_Q>
0

> <i_epik_Tot_abs_Q>
0

> <r_epik_Metal_State_Penalty>
-0

> <b_epik_Metal_Only>
0

> <s_lp_Force_Field>
OPLS_2005

> <r_lp_Energy>
5.02478

> <b_lp_Chiralities_Consistent>
1

> <s_lp_Variant>
AV-unprocessed.smi:2340-3

> <Gold.Version>
5.8.1

> <Gold.Id.Protein>
6NUR|6NUR_protein|mol2

> <Gold.PLP.Fitness>
39.5525

> <Gold.PLP.PLP>
-28.7382

> <Gold.PLP.part.hbond>
-2.8010

> <Gold.PLP.part.metal>
0.0000

> <Gold.PLP.part.buried>
-2.9778

> <Gold.PLP.part.nonpolar>
-22.3519

> <Gold.PLP.part.repulsive>
0.2672

> <Gold.PLP.ligand.clash>
0.0000

> <Gold.PLP.ligand.torsion>
0.3759

> <Gold.PLP.Chemscore.Hbond>
2.8160

> <Gold.PLP.Chemscore.CHOScore>
1.0000

> <Gold.PLP.Chemscore.Metal>
0.0000

> <Gold.Chemscore.Hbonds>
donor molecule, donor type, donor heavy atom, donor atom, acceptor molecule, acceptor atom, score
      L1  H     9    30       P1  7948  1.00
      L1  H    12    31       P1  7948  0.83
      P1  H  7989  7998       L1    16  1.00
      L1  C     3    23       P1 10171  1.00

> <Gold.PLP.Chemscore.Internal.Correction>
0.1181

> <Gold.Rescore>
     Score         DG    S(hbond)    S(metal)    S(lipo)     H(rot)  DE(clash)    DE(int)     intcor
     16.92     -17.34       2.47        0.00      64.34       1.53       0.01       0.41       ----

> <Gold.Chemscore.Fitness>
16.9234

> <Gold.Chemscore.DG>
-17.3435

> <Gold.Chemscore.ZeroCoef>
-5.4800

> <Gold.Chemscore.Hbond>
2.4727

> <Gold.Chemscore.Metal>
0.0000

> <Gold.Chemscore.Lipo>
64.3436

> <Gold.Chemscore.Internal_Hbond>
0.0000

> <Gold.Chemscore.DEClash>
0.0060

> <Gold.Chemscore.DEInternal>
0.4142

> <Gold.Chemscore.Rot>
1.5325

> <Gold.Chemscore.Internal.Correction>
   9.000000E+99

> <Gold.Chemscore.Hbonds>
donor molecule, donor type, donor heavy atom, donor atom, acceptor molecule, acceptor atom, score
      L1  H     9    30       P1  7948  0.46
      L1  H    12    31       P1  7948  0.45
      P1  H  7989  7998       L1    16  0.50

> <Gold.Chemscore.Hbond.Weighted>
-8.2587

> <Gold.Chemscore.Metal.Weighted>
-0.0000

> <Gold.Chemscore.Lipo.Weighted>
-7.5282

> <Gold.Chemscore.Internal_Hbond.Weighted>
0.0000

> <Gold.Chemscore.DEClash.Weighted>
0.0060

> <Gold.Chemscore.DEInternal.Weighted>
0.4142

> <Gold.Chemscore.Rot.Weighted>
3.9233

> <Gold.Chemscore.Internal.Correction.Weighted>
   9.000000E+99

> <Gold.Protein.RotatedTorsions>
[ 6907 6896 6895 6894 ] final  -57.01 input  -60.11 | X-H torsion
[ 7974 7965 7964 7962 ] final  -87.13 input  175.53 | X-H torsion
[ 8008 7997 7996 7995 ] final -102.67 input   59.86 | X-H torsion
[ 10167 10162 10161 10158 ] final   -4.86 input  -65.29 | X-H torsion
[ 10718 10713 10712 10709 ] final  121.46 input   66.30 | X-H torsion
[ 10763 10752 10751 10750 ] final   75.99 input  -60.55 | X-H torsion
[ 11005 11000 10999 10996 ] final  -52.67 input  -57.11 | X-H torsion

> <Gold.Protein.ActiveResidues>
 VAL166  LYS551  ARG553  GLY616  TRP617  ASP618  TYR619  PRO620  LYS621  CYS622 
 ASP623  PHE694  ASN695  SER759  ASP760  ASP761  ALA762  ILE779  LEU786  VAL792 
 PHE793  MET794  SER795  GLU796  ALA797  LYS798  CYS799  TRP800  GLU811  SER814 

> <Gold.Protein.RotatedAtoms>
  150.8120  134.7281  159.6696 H   0  0  0  0  0  0  0  0  0  0  0  0  # atno 6907 bound_to 6896
  152.4240  134.5899  159.9981 H   0  0  0  0  0  0  0  0  0  0  0  0  # atno 6908 bound_to 6896
  151.6106  133.3310  159.3103 H   0  0  0  0  0  0  0  0  0  0  0  0  # atno 6909 bound_to 6896
  145.4707  140.9559  143.1919 H   0  0  0  0  0  0  0  0  0  0  0  0  # atno 7974 bound_to 7965
  154.8600  140.0427  157.1659 H   0  0  0  0  0  0  0  0  0  0  0  0  # atno 8008 bound_to 7997
  154.8850  140.2978  155.5383 H   0  0  0  0  0  0  0  0  0  0  0  0  # atno 8009 bound_to 7997
  156.2998  140.2404  156.3858 H   0  0  0  0  0  0  0  0  0  0  0  0  # atno 8010 bound_to 7997
  140.6943  143.6375  150.8466 H   0  0  0  0  0  0  0  0  0  0  0  0  # atno 10167 bound_to 10162
  157.5816  131.1074  150.8176 H   0  0  0  0  0  0  0  0  0  0  0  0  # atno 10718 bound_to 10713
  153.0694  135.4968  154.8271 H   0  0  0  0  0  0  0  0  0  0  0  0  # atno 10763 bound_to 10752
  154.7000  135.3000  154.9357 H   0  0  0  0  0  0  0  0  0  0  0  0  # atno 10764 bound_to 10752
  154.0084  135.6757  153.4816 H   0  0  0  0  0  0  0  0  0  0  0  0  # atno 10765 bound_to 10752
  141.0936  133.6628  156.4059 H   0  0  0  0  0  0  0  0  0  0  0  0  # atno 11005 bound_to 11000
  144.7947  139.6258  143.7098 LP  0  0  0  0  0  0  0  0  0  0  0  0  # atno 17320 bound_to 7965
  146.2398  139.5979  142.9499 LP  0  0  0  0  0  0  0  0  0  0  0  0  # atno 17321 bound_to 7965
  140.0091  143.5662  152.2846 LP  0  0  0  0  0  0  0  0  0  0  0  0  # atno 17342 bound_to 10162
  139.6379  144.7652  151.2399 LP  0  0  0  0  0  0  0  0  0  0  0  0  # atno 17343 bound_to 10162
  156.8621  130.5117  149.5303 LP  0  0  0  0  0  0  0  0  0  0  0  0  # atno 17370 bound_to 10713
  156.0862  130.5860  150.9652 LP  0  0  0  0  0  0  0  0  0  0  0  0  # atno 17371 bound_to 10713
  140.5192  134.6320  157.5312 LP  0  0  0  0  0  0  0  0  0  0  0  0  # atno 17394 bound_to 11000
  139.9768  134.7202  155.9935 LP  0  0  0  0  0  0  0  0  0  0  0  0  # atno 17395 bound_to 11000

$$$$
