AV-unprocessed.smi:1554|AV-procd|sdf|6261|dock9
  -GOLD-   22720 6443D 1   1.00000     0.00000
 Structure written by MMmdl.
 49 51  0  0  0  0  0  0  0  0  3 V2000
  152.2491  143.5403  160.5312 C   0  0  0  0  0  0  0  0  0  0  0  0
  152.0234  142.6157  159.3471 C   0  0  0  0  0  0  0  0  0  0  0  0
  151.1472  143.0357  158.3209 C   0  0  0  0  0  0  0  0  0  0  0  0
  150.9600  142.1677  157.2519 C   0  0  0  0  0  0  0  0  0  0  0  0
  150.1753  142.2850  156.1025 N   0  3  0  0  0  0  0  0  0  0  0  0
  150.3175  141.1667  155.3381 C   0  0  0  0  0  0  0  0  0  0  0  0
  151.1772  140.3342  155.9866 N   0  0  0  0  0  0  0  0  0  0  0  0
  151.6745  139.0045  155.6089 C   0  0  0  0  0  0  0  0  0  0  0  0
  150.8583  138.3609  154.4705 C   0  0  1  0  0  0  0  0  0  0  0  0
  151.4733  137.1448  154.0919 O   0  0  0  0  0  0  0  0  0  0  0  0
  149.4062  138.0745  154.9017 C   0  0  0  0  0  0  0  0  0  0  0  0
  148.4197  138.3598  153.8244 N   0  3  1  0  0  0  0  0  0  0  0  0
  147.0677  137.8144  154.0979 C   0  0  0  0  0  0  0  0  0  0  0  0
  146.3043  138.6983  155.1002 C   0  0  0  0  0  0  0  0  0  0  0  0
  146.2275  140.0258  154.5954 O   0  0  0  0  0  0  0  0  0  0  0  0
  147.5094  140.6204  154.4247 C   0  0  2  0  0  0  0  0  0  0  0  0
  147.3051  142.0605  153.9417 C   0  0  0  0  0  0  0  0  0  0  0  0
  148.3302  139.7862  153.4167 C   0  0  0  0  0  0  0  0  0  0  0  0
  151.6087  140.9198  157.1815 C   0  0  0  0  0  0  0  0  0  0  0  0
  152.4776  140.4913  158.1817 C   0  0  0  0  0  0  0  0  0  0  0  0
  152.6813  141.3600  159.2776 C   0  0  0  0  0  0  0  0  0  0  0  0
  153.6233  140.9202  160.3854 C   0  0  0  0  0  0  0  0  0  0  0  0
  151.6492  144.4471  160.4495 H   0  0  0  0  0  0  0  0  0  0  0  0
  153.2966  143.8372  160.5897 H   0  0  0  0  0  0  0  0  0  0  0  0
  151.9761  143.0448  161.4633 H   0  0  0  0  0  0  0  0  0  0  0  0
  150.6446  143.9910  158.3664 H   0  0  0  0  0  0  0  0  0  0  0  0
  149.8333  140.9750  154.3910 H   0  0  0  0  0  0  0  0  0  0  0  0
  152.7186  139.1164  155.3131 H   0  0  0  0  0  0  0  0  0  0  0  0
  151.6714  138.3727  156.4981 H   0  0  0  0  0  0  0  0  0  0  0  0
  150.8736  139.0280  153.6098 H   0  0  0  0  0  0  0  0  0  0  0  0
  151.0738  136.8426  153.2902 H   0  0  0  0  0  0  0  0  0  0  0  0
  149.3365  137.0248  155.1914 H   0  0  0  0  0  0  0  0  0  0  0  0
  149.1588  138.6475  155.7951 H   0  0  0  0  0  0  0  0  0  0  0  0
  146.5158  137.7779  153.1579 H   0  0  0  0  0  0  0  0  0  0  0  0
  147.1299  136.7856  154.4542 H   0  0  0  0  0  0  0  0  0  0  0  0
  145.2925  138.3174  155.2396 H   0  0  0  0  0  0  0  0  0  0  0  0
  146.7829  138.6920  156.0806 H   0  0  0  0  0  0  0  0  0  0  0  0
  148.0172  140.6556  155.3893 H   0  0  0  0  0  0  0  0  0  0  0  0
  148.2603  142.5689  153.8078 H   0  0  0  0  0  0  0  0  0  0  0  0
  146.7216  142.6345  154.6620 H   0  0  0  0  0  0  0  0  0  0  0  0
  146.7759  142.0865  152.9886 H   0  0  0  0  0  0  0  0  0  0  0  0
  149.3192  140.2197  153.2759 H   0  0  0  0  0  0  0  0  0  0  0  0
  147.8444  139.8227  152.4405 H   0  0  0  0  0  0  0  0  0  0  0  0
  152.9781  139.5358  158.1283 H   0  0  0  0  0  0  0  0  0  0  0  0
  154.0737  139.9518  160.1658 H   0  0  0  0  0  0  0  0  0  0  0  0
  153.0872  140.8317  161.3305 H   0  0  0  0  0  0  0  0  0  0  0  0
  154.4313  141.6413  160.5106 H   0  0  0  0  0  0  0  0  0  0  0  0
  148.7629  137.8504  153.0219 H   0  0  0  0  0  0  0  0  0  0  0  0
  149.5866  143.0701  155.8544 H   0  0  0  0  0  0  0  0  0  0  0  0
  1  2  1  0  0  0  0
  1 23  1  0  0  0  0
  1 24  1  0  0  0  0
  1 25  1  0  0  0  0
  2 21  1  0  0  0  0
  2  3  2  0  0  0  0
  3  4  1  0  0  0  0
  3 26  1  0  0  0  0
  4 19  2  0  0  0  0
  4  5  1  0  0  0  0
  5  6  2  0  0  0  0
  5 49  1  0  0  0  0
  6  7  1  0  0  0  0
  6 27  1  0  0  0  0
  7  8  1  0  0  0  0
  7 19  1  0  0  0  0
  8  9  1  0  0  0  0
  8 28  1  0  0  0  0
  8 29  1  0  0  0  0
  9 10  1  0  0  0  0
  9 11  1  0  0  0  0
  9 30  1  0  0  0  0
 10 31  1  0  0  0  0
 11 12  1  0  0  0  0
 11 32  1  0  0  0  0
 11 33  1  0  0  0  0
 12 18  1  0  0  0  0
 12 13  1  0  0  0  0
 12 48  1  0  0  0  0
 13 14  1  0  0  0  0
 13 34  1  0  0  0  0
 13 35  1  0  0  0  0
 14 15  1  0  0  0  0
 14 36  1  0  0  0  0
 14 37  1  0  0  0  0
 15 16  1  0  0  0  0
 16 17  1  0  0  0  0
 16 18  1  0  0  0  0
 16 38  1  0  0  0  0
 17 39  1  0  0  0  0
 17 40  1  0  0  0  0
 17 41  1  0  0  0  0
 18 42  1  0  0  0  0
 18 43  1  0  0  0  0
 19 20  1  0  0  0  0
 20 21  2  0  0  0  0
 20 44  1  0  0  0  0
 21 22  1  0  0  0  0
 22 45  1  0  0  0  0
 22 46  1  0  0  0  0
 22 47  1  0  0  0  0
M  CHG  1   5   1
M  CHG  1  12   1
M  END
> <s_m_source_file>
AV-unprocessed.smi

> <i_m_source_file_index>
1554

> <i_lp_mmshare_version>
43012

> <i_f3d_flags>
0

> <s_epik_input>
W0NIM11jKFtjSF0xKWMoW0NIM10pW2NIXWMoYzEyKW4oW2NIXW4yKVtDSDJdW0NASF0oW09IXSlbQ0gyXU4zW0NIMl1bQ0gyXU9bQ0BASF0oW0NIM10pW0NIMl0z

> <s_epik_cmdline>
J2VwaWtfcHl0aG9uJywgJy1waCcsICc3LjAnLCAnLXRuJywgJzgnLCAnLW1hJywgJzIwMCcsICctbWV0YWxfYmluZGluZycsICctaW1hZScsICc8aW5maWxlLm1hZT4nLCAnLW9tYWUnLCAnPG91dGZpbGUubWFlPic=

> <r_epik_Ionization_Penalty>
1.8848

> <r_epik_Ionization_Penalty_Charging>
1.88479

> <r_epik_Ionization_Penalty_Neutral>
1.42224e-05

> <r_epik_State_Penalty>
1.94551

> <r_epik_Charging_Adjusted_Penalty>
3.8303

> <i_epik_Tot_Q>
2

> <i_epik_Tot_abs_Q>
2

> <r_epik_Metal_State_Penalty>
5.95849

> <b_epik_Metal_Only>
0

> <s_lp_Force_Field>
OPLS_2005

> <r_lp_Energy>
31.3767

> <b_lp_Chiralities_Consistent>
1

> <s_lp_Variant>
AV-unprocessed.smi:1554-22

> <Gold.Version>
5.8.1

> <Gold.Id.Protein>
6NUR|6NUR_protein|mol2

> <Gold.PLP.Fitness>
58.0403

> <Gold.PLP.PLP>
-42.0858

> <Gold.PLP.part.hbond>
-3.8627

> <Gold.PLP.part.metal>
0.0000

> <Gold.PLP.part.buried>
-1.5568

> <Gold.PLP.part.nonpolar>
-36.3964

> <Gold.PLP.part.repulsive>
0.2079

> <Gold.PLP.ligand.clash>
0.0000

> <Gold.PLP.ligand.torsion>
0.7789

> <Gold.PLP.Chemscore.Hbond>
5.8288

> <Gold.PLP.Chemscore.CHOScore>
0.0000

> <Gold.PLP.Chemscore.Metal>
0.0000

> <Gold.Chemscore.Hbonds>
donor molecule, donor type, donor heavy atom, donor atom, acceptor molecule, acceptor atom, score
      L1  H     5    49       P1  8028  2.00
      L1  H    10    31       P1  7949  1.00
      L1  H    12    48       P1  7948  2.00
      P1  H 10752 10763       L1    10  0.76

> <Gold.PLP.Chemscore.Internal.Correction>
0.0260

> <Gold.Rescore>
     Score         DG    S(hbond)    S(metal)    S(lipo)     H(rot)  DE(clash)    DE(int)     intcor
     20.90     -23.08       2.99        0.00     111.14       2.11       1.47       0.70       ----

> <Gold.Chemscore.Fitness>
20.9043

> <Gold.Chemscore.DG>
-23.0764

> <Gold.Chemscore.ZeroCoef>
-5.4800

> <Gold.Chemscore.Hbond>
2.9939

> <Gold.Chemscore.Metal>
0.0000

> <Gold.Chemscore.Lipo>
111.1446

> <Gold.Chemscore.Internal_Hbond>
0.0000

> <Gold.Chemscore.DEClash>
1.4728

> <Gold.Chemscore.DEInternal>
0.6994

> <Gold.Chemscore.Rot>
2.1122

> <Gold.Chemscore.Internal.Correction>
   9.000000E+99

> <Gold.Chemscore.Hbonds>
donor molecule, donor type, donor heavy atom, donor atom, acceptor molecule, acceptor atom, score
      L1  H     5    49       P1  8028  1.00
      L1  H    10    31       P1  7949  0.32
      L1  H    12    48       P1  7948  0.96
      P1  H 10752 10763       L1    10  0.15

> <Gold.Chemscore.Hbond.Weighted>
-9.9998

> <Gold.Chemscore.Metal.Weighted>
-0.0000

> <Gold.Chemscore.Lipo.Weighted>
-13.0039

> <Gold.Chemscore.Internal_Hbond.Weighted>
0.0000

> <Gold.Chemscore.DEClash.Weighted>
1.4728

> <Gold.Chemscore.DEInternal.Weighted>
0.6994

> <Gold.Chemscore.Rot.Weighted>
5.4073

> <Gold.Chemscore.Internal.Correction.Weighted>
   9.000000E+99

> <Gold.Protein.RotatedTorsions>
[ 6907 6896 6895 6894 ] final   17.76 input  -60.11 | X-H torsion
[ 7974 7965 7964 7962 ] final   42.00 input  175.53 | X-H torsion
[ 8008 7997 7996 7995 ] final  -16.63 input   59.86 | X-H torsion
[ 10167 10162 10161 10158 ] final  114.97 input  -65.29 | X-H torsion
[ 10718 10713 10712 10709 ] final   -8.78 input   66.30 | X-H torsion
[ 10763 10752 10751 10750 ] final   39.31 input  -60.55 | X-H torsion
[ 11005 11000 10999 10996 ] final  -90.53 input  -57.11 | X-H torsion

> <Gold.Protein.ActiveResidues>
 VAL166  LYS551  ARG553  GLY616  TRP617  ASP618  TYR619  PRO620  LYS621  CYS622 
 ASP623  PHE694  ASN695  SER759  ASP760  ASP761  ALA762  ILE779  LEU786  VAL792 
 PHE793  MET794  SER795  GLU796  ALA797  LYS798  CYS799  TRP800  GLU811  SER814 

> <Gold.Protein.RotatedAtoms>
  151.8547  135.0545  160.0462 H   0  0  0  0  0  0  0  0  0  0  0  0  # atno 6907 bound_to 6896
  152.2709  133.5377  159.5447 H   0  0  0  0  0  0  0  0  0  0  0  0  # atno 6908 bound_to 6896
  150.7151  134.0615  159.3875 H   0  0  0  0  0  0  0  0  0  0  0  0  # atno 6909 bound_to 6896
  146.0776  139.5350  142.9557 H   0  0  0  0  0  0  0  0  0  0  0  0  # atno 7974 bound_to 7965
  154.5038  140.2164  155.9292 H   0  0  0  0  0  0  0  0  0  0  0  0  # atno 8008 bound_to 7997
  156.1468  140.3169  155.8550 H   0  0  0  0  0  0  0  0  0  0  0  0  # atno 8009 bound_to 7997
  155.4016  140.0484  157.3027 H   0  0  0  0  0  0  0  0  0  0  0  0  # atno 8010 bound_to 7997
  139.6351  144.7119  151.2352 H   0  0  0  0  0  0  0  0  0  0  0  0  # atno 10167 bound_to 10162
  156.6975  130.5083  149.5926 H   0  0  0  0  0  0  0  0  0  0  0  0  # atno 10718 bound_to 10713
  152.9971  135.6224  154.2445 H   0  0  0  0  0  0  0  0  0  0  0  0  # atno 10763 bound_to 10752
  154.2185  135.2797  155.2935 H   0  0  0  0  0  0  0  0  0  0  0  0  # atno 10764 bound_to 10752
  154.5548  135.5722  153.7013 H   0  0  0  0  0  0  0  0  0  0  0  0  # atno 10765 bound_to 10752
  141.1564  133.7698  156.9751 H   0  0  0  0  0  0  0  0  0  0  0  0  # atno 11005 bound_to 11000
  145.6276  141.0310  143.1880 LP  0  0  0  0  0  0  0  0  0  0  0  0  # atno 17320 bound_to 7965
  144.7272  139.7838  143.7360 LP  0  0  0  0  0  0  0  0  0  0  0  0  # atno 17321 bound_to 7965
  140.7460  143.6411  150.8334 LP  0  0  0  0  0  0  0  0  0  0  0  0  # atno 17342 bound_to 10162
  140.0041  143.5712  152.2864 LP  0  0  0  0  0  0  0  0  0  0  0  0  # atno 17343 bound_to 10162
  156.1752  130.6463  151.0886 LP  0  0  0  0  0  0  0  0  0  0  0  0  # atno 17370 bound_to 10713
  157.6985  131.0785  150.6893 LP  0  0  0  0  0  0  0  0  0  0  0  0  # atno 17371 bound_to 10713
  140.1103  134.9481  157.2056 LP  0  0  0  0  0  0  0  0  0  0  0  0  # atno 17394 bound_to 11000
  140.3202  134.2925  155.7248 LP  0  0  0  0  0  0  0  0  0  0  0  0  # atno 17395 bound_to 11000

$$$$
