#       Name:                AV-unprocessed.smi:244
#       Creating user name   scv26
#       Creation time:       Thu Mar 26 20:50:04 2020


#       File generated by GOLD software.
#

@<TRIPOS>MOLECULE
AV-unprocessed.smi:244
    67    71     1
SMALL
NO_CHARGES


@<TRIPOS>ATOM
      1 ****        -2.2716   0.9482  -4.5260 C.3            1 S1                 0.0000
      2 ****        -3.0669   1.0915  -3.2876 N.4            1 S1                 1.0000
      3 ****        -4.4042   0.4575  -3.4005 C.3            1 S1                 0.0000
      4 ****        -5.2460   0.7170  -2.1410 C.3            1 S1                 0.0000
      5 ****        -4.5056   0.2258  -0.8914 C.3            1 S1                 0.0000
      6 ****        -5.2756   0.5230   0.2680 O.3            1 S1                 0.0000
      7 ****        -4.6592   0.0254   1.4511 C.3            1 S1                 0.0000
      8 ****        -3.2823   0.6857   1.6248 C.3            1 S1                 0.0000
      9 ****        -2.4599   0.4716   0.4356 N.3            1 S1                 0.0000
     10 ****        -1.1851   0.9012   0.5817 C.ar           1 S1                 0.0000
     11 ****        -0.9331   2.1725   0.9914 N.ar           1 S1                 0.0000
     12 ****         0.3294   2.5949   1.1153 C.ar           1 S1                 0.0000
     13 ****         1.4605   1.9270   0.8764 N.ar           1 S1                 0.0000
     14 ****         1.2076   0.6534   0.4588 C.ar           1 S1                 0.0000
     15 ****        -0.0761   0.0667   0.2837 C.ar           1 S1                 0.0000
     16 ****         0.0511  -1.2402  -0.1682 N.2            1 S1                 0.0000
     17 ****         1.3414  -1.4187  -0.2527 C.2            1 S1                 0.0000
     18 ****         2.1110  -0.3367   0.1138 N.pl3          1 S1                 0.0000
     19 ****         3.5643  -0.2629   0.1183 C.3            1 S1                 0.0000
     20 ****         4.2140  -0.7028   1.4542 C.3            1 S1                 0.0000
     21 ****         3.7811   0.1947   2.4618 O.3            1 S1                 0.0000
     22 ****         3.8101  -2.1341   1.8711 C.3            1 S1                 0.0000
     23 ****         4.6230  -2.6401   3.0760 C.3            1 S1                 0.0000
     24 ****         6.0159  -2.5461   2.8039 O.3            1 S1                 0.0000
     25 ****         6.4456  -1.2065   2.5959 C.3            1 S1                 0.0000
     26 ****         5.7503  -0.6187   1.3554 C.3            1 S1                 0.0000
     27 ****        -3.1276   0.9157  -0.7914 C.3            1 S1                 0.0000
     28 ****        -2.3240   0.6352  -2.0853 C.3            1 S1                 0.0000
     29 ****        -2.0468  -0.1000  -4.7277 H              1 S1                 0.0000
     30 ****        -1.3292   1.4907  -4.4439 H              1 S1                 0.0000
     31 ****        -2.8135   1.3529  -5.3813 H              1 S1                 0.0000
     32 ****        -4.9240   0.8535  -4.2738 H              1 S1                 0.0000
     33 ****        -4.2875  -0.6158  -3.5597 H              1 S1                 0.0000
     34 ****        -5.4576   1.7835  -2.0516 H              1 S1                 0.0000
     35 ****        -6.2098   0.2142  -2.2272 H              1 S1                 0.0000
     36 ****        -4.3766  -0.8562  -0.9638 H              1 S1                 0.0000
     37 ****        -5.2959   0.2519   2.3064 H              1 S1                 0.0000
     38 ****        -4.5670  -1.0607   1.4008 H              1 S1                 0.0000
     39 ****        -3.4142   1.7545   1.7999 H              1 S1                 0.0000
     40 ****        -2.7812   0.2742   2.5023 H              1 S1                 0.0000
     41 ****         0.4509   3.6135   1.4535 H              1 S1                 0.0000
     42 ****         1.7719  -2.3541  -0.5798 H              1 S1                 0.0000
     43 ****         3.9321  -0.8864  -0.6976 H              1 S1                 0.0000
     44 ****         3.8575   0.7588  -0.1280 H              1 S1                 0.0000
     45 ****         4.1865  -0.0519   3.2791 H              1 S1                 0.0000
     46 ****         2.7462  -2.1866   2.1041 H              1 S1                 0.0000
     47 ****         3.9748  -2.8118   1.0325 H              1 S1                 0.0000
     48 ****         4.3786  -2.0785   3.9788 H              1 S1                 0.0000
     49 ****         4.3761  -3.6824   3.2786 H              1 S1                 0.0000
     50 ****         6.2449  -0.6050   3.4837 H              1 S1                 0.0000
     51 ****         7.5261  -1.2041   2.4523 H              1 S1                 0.0000
     52 ****         6.0862  -1.1742   0.4787 H              1 S1                 0.0000
     53 ****         6.0685   0.4132   1.2016 H              1 S1                 0.0000
     54 ****        -3.2827   1.9932  -0.7107 H              1 S1                 0.0000
     55 ****        -2.1028  -0.4298  -2.1735 H              1 S1                 0.0000
     56 ****        -1.3682   1.1599  -2.0605 H              1 S1                 0.0000
     57 ****        -3.2287   2.0811  -3.1652 H              1 S1                 0.0000
     58 ****        -6.1792   0.1052   0.1729 LP             1 S1                 0.0000
     59 ****        -5.3738   1.5151   0.3463 LP             1 S1                 0.0000
     60 ****        -2.3618  -0.5176   0.3266 LP             1 S1                 0.0000
     61 ****        -1.6908   2.7910   1.1998 LP             1 S1                 0.0000
     62 ****         2.3766   2.3116   0.9893 LP             1 S1                 0.0000
     63 ****        -0.6766  -1.8927  -0.3797 LP             1 S1                 0.0000
     64 ****         2.7862   0.1467   2.5511 LP             1 S1                 0.0000
     65 ****         4.0494   1.1273   2.2204 LP             1 S1                 0.0000
     66 ****         6.2177  -3.0781   1.9816 LP             1 S1                 0.0000
     67 ****         6.5196  -2.9268   3.5793 LP             1 S1                 0.0000
@<TRIPOS>BOND
    1    1    2 1     
    2    1   29 1     
    3    1   30 1     
    4    1   31 1     
    5    2   28 1     
    6    2    3 1     
    7    2   57 1     
    8    3    4 1     
    9    3   32 1     
   10    3   33 1     
   11    4    5 1     
   12    4   34 1     
   13    4   35 1     
   14    5   27 1     
   15    5    6 1     
   16    5   36 1     
   17    6    7 1     
   18    7    8 1     
   19    7   37 1     
   20    7   38 1     
   21    8    9 1     
   22    8   39 1     
   23    8   40 1     
   24    9   10 1     
   25    9   27 1     
   26   10   15 ar    
   27   10   11 ar    
   28   11   12 ar    
   29   12   13 ar    
   30   12   41 1     
   31   13   14 ar    
   32   14   18 1     
   33   14   15 ar    
   34   15   16 1     
   35   16   17 2     
   36   17   18 1     
   37   17   42 1     
   38   18   19 1     
   39   19   20 1     
   40   19   43 1     
   41   19   44 1     
   42   20   26 1     
   43   20   21 1     
   44   20   22 1     
   45   21   45 1     
   46   22   23 1     
   47   22   46 1     
   48   22   47 1     
   49   23   24 1     
   50   23   48 1     
   51   23   49 1     
   52   24   25 1     
   53   25   26 1     
   54   25   50 1     
   55   25   51 1     
   56   26   52 1     
   57   26   53 1     
   58   27   28 1     
   59   27   54 1     
   60   28   55 1     
   61   28   56 1     
   62    6   58 1     
   63    6   59 1     
   64    9   60 1     
   65   11   61 1     
   66   13   62 1     
   67   16   63 1     
   68   21   64 1     
   69   21   65 1     
   70   24   66 1     
   71   24   67 1     
@<TRIPOS>SUBSTRUCTURE
      1 S1             1
@<TRIPOS>SET
LONE_PAIRS      STATIC     ATOMS    <user>   **** ""
10 58 59 60 61 62 63 64 65 66 67
DONOR_HYDROGENS      STATIC     ATOMS    <user>   **** ""
2 57 45
ATOM$BLUE        STATIC     ATOMS    COLORGROUP SYSTEM
10 58 59 60 61 62 63 64 65 66 67
ATOM$RED        STATIC     ATOMS    COLORGROUP SYSTEM
2 57 45
