AV-unprocessed.smi:1585|AV-procd|sdf|6372|dock3
  -GOLD-   22720 7 03D 1   1.00000     0.00000
 Structure written by MMmdl.
 42 43  0  0  0  0  0  0  0  0  3 V2000
  151.4793  142.0565  158.8192 C   0  0  0  0  0  0  0  0  0  0  0  0
  151.1640  141.1827  157.6537 C   0  0  0  0  0  0  0  0  0  0  0  0
  150.7179  141.4449  156.3894 C   0  0  0  0  0  0  0  0  0  0  0  0
  150.6265  140.1533  155.8027 C   0  0  0  0  0  0  0  0  0  0  0  0
  150.2376  139.8818  154.5472 N   0  5  0  0  0  0  0  0  0  0  0  0
  149.1031  140.4270  154.0535 C   0  0  0  0  0  0  0  0  0  0  0  0
  148.8063  141.6237  154.0540 O   0  0  0  0  0  0  0  0  0  0  0  0
  148.2566  139.5280  153.5328 N   0  0  0  0  0  0  0  0  0  0  0  0
  146.9474  139.8178  152.9580 C   0  0  0  0  0  0  0  0  0  0  0  0
  146.3695  138.5999  152.2069 C   0  0  1  0  0  0  0  0  0  0  0  0
  147.3463  138.1267  151.2999 O   0  0  0  0  0  0  0  0  0  0  0  0
  146.0499  137.4372  153.1672 C   0  0  0  0  0  0  0  0  0  0  0  0
  146.0921  136.1164  152.4886 N   0  3  0  0  0  0  0  0  0  0  0  0
  146.0397  134.9843  153.4496 C   0  0  0  0  0  0  0  0  0  0  0  0
  146.2343  133.6371  152.7334 C   0  0  0  0  0  0  0  0  0  0  0  0
  145.1984  133.4526  151.6171 C   0  0  0  0  0  0  0  0  0  0  0  0
  145.2472  134.6473  150.6558 C   0  0  0  0  0  0  0  0  0  0  0  0
  145.0722  135.9735  151.4148 C   0  0  0  0  0  0  0  0  0  0  0  0
  151.0013  139.1934  156.6317 N   0  0  0  0  0  0  0  0  0  0  0  0
  151.3424  139.8449  157.8231 O   0  0  0  0  0  0  0  0  0  0  0  0
  152.5289  142.3508  158.8067 H   0  0  0  0  0  0  0  0  0  0  0  0
  151.2825  141.5396  159.7591 H   0  0  0  0  0  0  0  0  0  0  0  0
  150.8728  142.9621  158.7991 H   0  0  0  0  0  0  0  0  0  0  0  0
  150.4894  142.4060  155.9539 H   0  0  0  0  0  0  0  0  0  0  0  0
  148.5454  138.5606  153.5483 H   0  0  0  0  0  0  0  0  0  0  0  0
  146.2550  140.2014  153.7098 H   0  0  0  0  0  0  0  0  0  0  0  0
  147.1101  140.6357  152.2556 H   0  0  0  0  0  0  0  0  0  0  0  0
  145.4768  138.8970  151.6565 H   0  0  0  0  0  0  0  0  0  0  0  0
  147.8623  137.4652  151.7388 H   0  0  0  0  0  0  0  0  0  0  0  0
  146.7707  137.4595  153.9865 H   0  0  0  0  0  0  0  0  0  0  0  0
  145.0688  137.5723  153.6252 H   0  0  0  0  0  0  0  0  0  0  0  0
  146.8213  135.1027  154.2012 H   0  0  0  0  0  0  0  0  0  0  0  0
  145.0851  134.9975  153.9781 H   0  0  0  0  0  0  0  0  0  0  0  0
  147.2393  133.5880  152.3121 H   0  0  0  0  0  0  0  0  0  0  0  0
  146.1593  132.8190  153.4505 H   0  0  0  0  0  0  0  0  0  0  0  0
  145.3869  132.5248  151.0764 H   0  0  0  0  0  0  0  0  0  0  0  0
  144.2005  133.3659  152.0496 H   0  0  0  0  0  0  0  0  0  0  0  0
  146.1998  134.6525  150.1245 H   0  0  0  0  0  0  0  0  0  0  0  0
  144.4703  134.5464  149.8972 H   0  0  0  0  0  0  0  0  0  0  0  0
  144.0735  136.0242  151.8514 H   0  0  0  0  0  0  0  0  0  0  0  0
  145.1470  136.7980  150.7064 H   0  0  0  0  0  0  0  0  0  0  0  0
  146.9984  136.0649  152.0444 H   0  0  0  0  0  0  0  0  0  0  0  0
  1  2  1  0  0  0  0
  1 21  1  0  0  0  0
  1 22  1  0  0  0  0
  1 23  1  0  0  0  0
  2 20  1  0  0  0  0
  2  3  2  0  0  0  0
  3  4  1  0  0  0  0
  3 24  1  0  0  0  0
  4  5  1  0  0  0  0
  4 19  2  0  0  0  0
  5  6  1  0  0  0  0
  6  7  2  0  0  0  0
  6  8  1  0  0  0  0
  8  9  1  0  0  0  0
  8 25  1  0  0  0  0
  9 10  1  0  0  0  0
  9 26  1  0  0  0  0
  9 27  1  0  0  0  0
 10 11  1  0  0  0  0
 10 12  1  0  0  0  0
 10 28  1  0  0  0  0
 11 29  1  0  0  0  0
 12 13  1  0  0  0  0
 12 30  1  0  0  0  0
 12 31  1  0  0  0  0
 13 18  1  0  0  0  0
 13 14  1  0  0  0  0
 13 42  1  0  0  0  0
 14 15  1  0  0  0  0
 14 32  1  0  0  0  0
 14 33  1  0  0  0  0
 15 16  1  0  0  0  0
 15 34  1  0  0  0  0
 15 35  1  0  0  0  0
 16 17  1  0  0  0  0
 16 36  1  0  0  0  0
 16 37  1  0  0  0  0
 17 18  1  0  0  0  0
 17 38  1  0  0  0  0
 17 39  1  0  0  0  0
 18 40  1  0  0  0  0
 18 41  1  0  0  0  0
 19 20  1  0  0  0  0
M  CHG  1   5  -1
M  CHG  1  13   1
M  END
> <s_m_source_file>
AV-unprocessed.smi

> <i_m_source_file_index>
1585

> <i_lp_mmshare_version>
43012

> <i_f3d_flags>
0

> <s_epik_input>
W0NIM11jMVtjSF1jKG5vMSlbTkhdQyg9TylbTkhdW0NIMl1bQ0BIXShbT0hdKVtDSDJdTjJbQ0gyXVtDSDJdW0NIMl1bQ0gyXVtDSDJdMg==

> <s_epik_cmdline>
J2VwaWtfcHl0aG9uJywgJy1waCcsICc3LjAnLCAnLXRuJywgJzgnLCAnLW1hJywgJzIwMCcsICctbWV0YWxfYmluZGluZycsICctaW1hZScsICc8aW5maWxlLm1hZT4nLCAnLW9tYWUnLCAnPG91dGZpbGUubWFlPic=

> <r_epik_Ionization_Penalty>
6.29903

> <r_epik_Ionization_Penalty_Charging>
6.29893

> <r_epik_Ionization_Penalty_Neutral>
0.000107719

> <r_epik_State_Penalty>
6.29786

> <r_epik_Charging_Adjusted_Penalty>
12.5968

> <i_epik_Tot_Q>
0

> <i_epik_Tot_abs_Q>
2

> <r_epik_Metal_State_Penalty>
2.22942

> <b_epik_Metal_Only>
1

> <s_lp_Force_Field>
OPLS_2005

> <r_lp_Energy>
6.33274

> <b_lp_Chiralities_Consistent>
1

> <s_lp_Variant>
AV-unprocessed.smi:1585-4

> <Gold.Version>
5.8.1

> <Gold.Id.Protein>
6NUR|6NUR_protein|mol2

> <Gold.PLP.Fitness>
49.2726

> <Gold.PLP.PLP>
-35.8511

> <Gold.PLP.part.hbond>
-6.7020

> <Gold.PLP.part.metal>
0.0000

> <Gold.PLP.part.buried>
-2.5599

> <Gold.PLP.part.nonpolar>
-26.8282

> <Gold.PLP.part.repulsive>
0.4055

> <Gold.PLP.ligand.clash>
0.0000

> <Gold.PLP.ligand.torsion>
1.2903

> <Gold.PLP.Chemscore.Hbond>
5.2920

> <Gold.PLP.Chemscore.CHOScore>
0.0000

> <Gold.PLP.Chemscore.Metal>
0.0000

> <Gold.Chemscore.Hbonds>
donor molecule, donor type, donor heavy atom, donor atom, acceptor molecule, acceptor atom, score
      L1  H    11    29       P1  7948  1.00
      L1  H    13    42       P1  7948  2.00
      P1  H  7954  7966       L1    11  0.55
      P1  H  7989  7998       L1     5  1.00
      P1  H  8011  8017       L1     7  0.45

> <Gold.PLP.Chemscore.Internal.Correction>
0.1261

> <Gold.Rescore>
     Score         DG    S(hbond)    S(metal)    S(lipo)     H(rot)  DE(clash)    DE(int)     intcor
     13.73     -15.12       2.59        0.00      61.90       2.45       0.04       1.36       ----

> <Gold.Chemscore.Fitness>
13.7274

> <Gold.Chemscore.DG>
-15.1203

> <Gold.Chemscore.ZeroCoef>
-5.4800

> <Gold.Chemscore.Hbond>
2.5927

> <Gold.Chemscore.Metal>
0.0000

> <Gold.Chemscore.Lipo>
61.8987

> <Gold.Chemscore.Internal_Hbond>
0.0000

> <Gold.Chemscore.DEClash>
0.0365

> <Gold.Chemscore.DEInternal>
1.3564

> <Gold.Chemscore.Rot>
2.4459

> <Gold.Chemscore.Internal.Correction>
   9.000000E+99

> <Gold.Chemscore.Hbonds>
donor molecule, donor type, donor heavy atom, donor atom, acceptor molecule, acceptor atom, score
      L1  H    11    29       P1  7948  0.97
      L1  H    13    42       P1  7948  0.98
      P1  H  7954  7966       L1    11  0.03
      P1  H  7989  7998       L1     5  0.09
      P1  H  8011  8017       L1     7  0.22

> <Gold.Chemscore.Hbond.Weighted>
-8.6597

> <Gold.Chemscore.Metal.Weighted>
-0.0000

> <Gold.Chemscore.Lipo.Weighted>
-7.2422

> <Gold.Chemscore.Internal_Hbond.Weighted>
0.0000

> <Gold.Chemscore.DEClash.Weighted>
0.0365

> <Gold.Chemscore.DEInternal.Weighted>
1.3564

> <Gold.Chemscore.Rot.Weighted>
6.2615

> <Gold.Chemscore.Internal.Correction.Weighted>
   9.000000E+99

> <Gold.Protein.RotatedTorsions>
[ 6907 6896 6895 6894 ] final  169.37 input  -60.11 | X-H torsion
[ 7974 7965 7964 7962 ] final -151.20 input  175.53 | X-H torsion
[ 8008 7997 7996 7995 ] final  -44.46 input   59.86 | X-H torsion
[ 10167 10162 10161 10158 ] final   84.65 input  -65.29 | X-H torsion
[ 10718 10713 10712 10709 ] final  -10.01 input   66.30 | X-H torsion
[ 10763 10752 10751 10750 ] final  -55.46 input  -60.55 | X-H torsion
[ 11005 11000 10999 10996 ] final  -67.58 input  -57.11 | X-H torsion

> <Gold.Protein.ActiveResidues>
 VAL166  LYS551  ARG553  GLY616  TRP617  ASP618  TYR619  PRO620  LYS621  CYS622 
 ASP623  PHE694  ASN695  SER759  ASP760  ASP761  ALA762  ILE779  LEU786  VAL792 
 PHE793  MET794  SER795  GLU796  ALA797  LYS798  CYS799  TRP800  GLU811  SER814 

> <Gold.Protein.RotatedAtoms>
  151.8330  133.3411  159.3619 H   0  0  0  0  0  0  0  0  0  0  0  0  # atno 6907 bound_to 6896
  150.7258  134.5464  159.5782 H   0  0  0  0  0  0  0  0  0  0  0  0  # atno 6908 bound_to 6896
  152.2922  134.7709  160.0426 H   0  0  0  0  0  0  0  0  0  0  0  0  # atno 6909 bound_to 6896
  144.7864  140.4830  143.5803 H   0  0  0  0  0  0  0  0  0  0  0  0  # atno 7974 bound_to 7965
  154.3997  140.1421  156.3687 H   0  0  0  0  0  0  0  0  0  0  0  0  # atno 8008 bound_to 7997
  155.8113  140.3472  155.5438 H   0  0  0  0  0  0  0  0  0  0  0  0  # atno 8009 bound_to 7997
  155.8383  140.0923  157.1740 H   0  0  0  0  0  0  0  0  0  0  0  0  # atno 8010 bound_to 7997
  139.9058  144.6302  150.8589 H   0  0  0  0  0  0  0  0  0  0  0  0  # atno 10167 bound_to 10162
  156.6798  130.5033  149.5975 H   0  0  0  0  0  0  0  0  0  0  0  0  # atno 10718 bound_to 10713
  154.1912  135.6427  153.5060 H   0  0  0  0  0  0  0  0  0  0  0  0  # atno 10763 bound_to 10752
  153.0034  135.5429  154.6413 H   0  0  0  0  0  0  0  0  0  0  0  0  # atno 10764 bound_to 10752
  154.5803  135.2924  155.0713 H   0  0  0  0  0  0  0  0  0  0  0  0  # atno 10765 bound_to 10752
  141.1511  133.6722  156.6315 H   0  0  0  0  0  0  0  0  0  0  0  0  # atno 11005 bound_to 11000
  145.5912  139.1496  143.3181 LP  0  0  0  0  0  0  0  0  0  0  0  0  # atno 17320 bound_to 7965
  146.2097  140.6037  142.9065 LP  0  0  0  0  0  0  0  0  0  0  0  0  # atno 17321 bound_to 7965
  140.7696  143.3402  151.2223 LP  0  0  0  0  0  0  0  0  0  0  0  0  # atno 17342 bound_to 10162
  139.6985  143.9572  152.2894 LP  0  0  0  0  0  0  0  0  0  0  0  0  # atno 17343 bound_to 10162
  156.1876  130.6539  151.1024 LP  0  0  0  0  0  0  0  0  0  0  0  0  # atno 17370 bound_to 10713
  157.7048  131.0761  150.6704 LP  0  0  0  0  0  0  0  0  0  0  0  0  # atno 17371 bound_to 10713
  140.3463  134.7806  157.4434 LP  0  0  0  0  0  0  0  0  0  0  0  0  # atno 17394 bound_to 11000
  140.0897  134.5618  155.8457 LP  0  0  0  0  0  0  0  0  0  0  0  0  # atno 17395 bound_to 11000

$$$$
