AV-unprocessed.smi:1125|AV-procd|sdf|4835|dock3
  -GOLD-   22720 3393D 1   1.00000     0.00000
 Structure written by MMmdl.
 46 47  0  0  0  0  0  0  0  0  2 V2000
  146.9518  139.3496  153.5915 C   0  0  0  0  0  0  0  0  0  0  0  0
  148.3844  139.6288  153.8272 N   0  3  2  0  0  0  0  0  0  0  0  0
  149.1487  138.4021  154.1650 C   0  0  0  0  0  0  0  0  0  0  0  0
  150.6542  138.7005  154.2834 C   0  0  0  0  0  0  0  0  0  0  0  0
  150.9386  139.8260  155.2968 C   0  0  2  0  0  0  0  0  0  0  0  0
  150.6681  139.3933  156.6649 N   0  0  0  0  0  0  0  0  0  0  0  0
  151.5703  139.2765  157.6522 C   0  0  0  0  0  0  0  0  0  0  0  0
  152.7723  139.4912  157.4999 O   0  0  0  0  0  0  0  0  0  0  0  0
  151.0334  138.8368  159.0183 C   0  0  0  0  0  0  0  0  0  0  0  0
  150.1701  137.6135  158.8834 C   0  0  0  0  0  0  0  0  0  0  0  0
  150.2365  136.6620  157.8975 C   0  0  0  0  0  0  0  0  0  0  0  0
  149.0684  135.3936  158.1409 S   0  0  0  0  0  0  0  0  0  0  0  0
  148.5101  136.2139  159.6032 C   0  0  0  0  0  0  0  0  0  0  0  0
  147.4299  135.7048  160.5265 C   0  0  0  0  0  0  0  0  0  0  0  0
  147.0040  134.2883  160.0934 C   0  0  0  0  0  0  0  0  0  0  0  0
  146.1788  136.6082  160.4783 C   0  0  0  0  0  0  0  0  0  0  0  0
  147.9426  135.6965  161.9797 C   0  0  0  0  0  0  0  0  0  0  0  0
  149.1754  137.3513  159.8318 N   0  0  0  0  0  0  0  0  0  0  0  0
  150.0855  141.0611  154.9571 C   0  0  0  0  0  0  0  0  0  0  0  0
  148.5922  140.7095  154.8233 C   0  0  0  0  0  0  0  0  0  0  0  0
  146.4723  138.9733  154.4961 H   0  0  0  0  0  0  0  0  0  0  0  0
  146.8299  138.6049  152.8042 H   0  0  0  0  0  0  0  0  0  0  0  0
  146.4292  140.2536  153.2772 H   0  0  0  0  0  0  0  0  0  0  0  0
  148.7712  137.9804  155.0979 H   0  0  0  0  0  0  0  0  0  0  0  0
  148.9893  137.6492  153.3921 H   0  0  0  0  0  0  0  0  0  0  0  0
  151.1957  137.7939  154.5561 H   0  0  0  0  0  0  0  0  0  0  0  0
  151.0362  138.9961  153.3055 H   0  0  0  0  0  0  0  0  0  0  0  0
  151.9905  140.1094  155.2281 H   0  0  0  0  0  0  0  0  0  0  0  0
  149.7043  139.1996  156.8971 H   0  0  0  0  0  0  0  0  0  0  0  0
  151.8762  138.6443  159.6834 H   0  0  0  0  0  0  0  0  0  0  0  0
  150.4692  139.6559  159.4657 H   0  0  0  0  0  0  0  0  0  0  0  0
  150.9061  136.6250  157.0509 H   0  0  0  0  0  0  0  0  0  0  0  0
  146.2110  133.8980  160.7324 H   0  0  0  0  0  0  0  0  0  0  0  0
  147.8375  133.5868  160.1453 H   0  0  0  0  0  0  0  0  0  0  0  0
  146.6342  134.2818  159.0674 H   0  0  0  0  0  0  0  0  0  0  0  0
  145.7471  136.6471  159.4775 H   0  0  0  0  0  0  0  0  0  0  0  0
  146.4090  137.6304  160.7818 H   0  0  0  0  0  0  0  0  0  0  0  0
  145.4003  136.2421  161.1486 H   0  0  0  0  0  0  0  0  0  0  0  0
  147.1743  135.3484  162.6707 H   0  0  0  0  0  0  0  0  0  0  0  0
  148.2457  136.6945  162.2987 H   0  0  0  0  0  0  0  0  0  0  0  0
  148.8046  135.0388  162.0962 H   0  0  0  0  0  0  0  0  0  0  0  0
  150.2208  141.8346  155.7145 H   0  0  0  0  0  0  0  0  0  0  0  0
  150.4363  141.4920  154.0184 H   0  0  0  0  0  0  0  0  0  0  0  0
  148.0374  141.5979  154.5188 H   0  0  0  0  0  0  0  0  0  0  0  0
  148.1861  140.4010  155.7880 H   0  0  0  0  0  0  0  0  0  0  0  0
  148.7572  139.9685  152.9520 H   0  0  0  0  0  0  0  0  0  0  0  0
  1  2  1  0  0  0  0
  1 21  1  0  0  0  0
  1 22  1  0  0  0  0
  1 23  1  0  0  0  0
  2 20  1  0  0  0  0
  2  3  1  0  0  0  0
  2 46  1  0  0  0  0
  3  4  1  0  0  0  0
  3 24  1  0  0  0  0
  3 25  1  0  0  0  0
  4  5  1  0  0  0  0
  4 26  1  0  0  0  0
  4 27  1  0  0  0  0
  5  6  1  0  0  0  0
  5 19  1  0  0  0  0
  5 28  1  0  0  0  0
  6  7  1  0  0  0  0
  6 29  1  0  0  0  0
  7  8  2  0  0  0  0
  7  9  1  0  0  0  0
  9 10  1  0  0  0  0
  9 30  1  0  0  0  0
  9 31  1  0  0  0  0
 10 18  1  0  0  0  0
 10 11  2  0  0  0  0
 11 12  1  0  0  0  0
 11 32  1  0  0  0  0
 12 13  1  0  0  0  0
 13 14  1  0  0  0  0
 13 18  2  0  0  0  0
 14 15  1  0  0  0  0
 14 16  1  0  0  0  0
 14 17  1  0  0  0  0
 15 33  1  0  0  0  0
 15 34  1  0  0  0  0
 15 35  1  0  0  0  0
 16 36  1  0  0  0  0
 16 37  1  0  0  0  0
 16 38  1  0  0  0  0
 17 39  1  0  0  0  0
 17 40  1  0  0  0  0
 17 41  1  0  0  0  0
 19 20  1  0  0  0  0
 19 42  1  0  0  0  0
 19 43  1  0  0  0  0
 20 44  1  0  0  0  0
 20 45  1  0  0  0  0
M  CHG  1   2   1
M  END
> <s_m_source_file>
AV-unprocessed.smi

> <i_m_source_file_index>
1125

> <i_lp_mmshare_version>
43012

> <i_f3d_flags>
0

> <s_epik_input>
W0NIM11OMVtDSDJdW0NIMl1bQ0hdKFtDSDJdW0NIMl0xKVtOSF1DKD1PKVtDSDJdYzJbY0hdc2MobjIpQyhbQ0gzXSkoW0NIM10pW0NIM10=

> <s_epik_cmdline>
J2VwaWtfcHl0aG9uJywgJy1waCcsICc3LjAnLCAnLXRuJywgJzgnLCAnLW1hJywgJzIwMCcsICctbWV0YWxfYmluZGluZycsICctaW1hZScsICc8aW5maWxlLm1hZT4nLCAnLW9tYWUnLCAnPG91dGZpbGUubWFlPic=

> <r_epik_Ionization_Penalty>
0.00829478

> <r_epik_Ionization_Penalty_Charging>
0.0082618

> <r_epik_Ionization_Penalty_Neutral>
3.29858e-05

> <r_epik_State_Penalty>
0.00621662

> <r_epik_Charging_Adjusted_Penalty>
0.0144784

> <i_epik_Tot_Q>
1

> <i_epik_Tot_abs_Q>
1

> <r_epik_Metal_State_Penalty>
0.00621672

> <b_epik_Metal_Only>
0

> <s_lp_Force_Field>
OPLS_2005

> <r_lp_Energy>
6.26884

> <b_lp_Chiralities_Consistent>
1

> <s_lp_Variant>
AV-unprocessed.smi:1125-2

> <Gold.Version>
5.8.1

> <Gold.Id.Protein>
6NUR|6NUR_protein|mol2

> <Gold.PLP.Fitness>
34.2884

> <Gold.PLP.PLP>
-28.9737

> <Gold.PLP.part.hbond>
-3.5088

> <Gold.PLP.part.metal>
0.0000

> <Gold.PLP.part.buried>
-1.3191

> <Gold.PLP.part.nonpolar>
-24.4457

> <Gold.PLP.part.repulsive>
0.1097

> <Gold.PLP.ligand.clash>
0.0000

> <Gold.PLP.ligand.torsion>
0.6460

> <Gold.PLP.Chemscore.Hbond>
2.1966

> <Gold.PLP.Chemscore.CHOScore>
0.0000

> <Gold.PLP.Chemscore.Metal>
0.0000

> <Gold.Chemscore.Hbonds>
donor molecule, donor type, donor heavy atom, donor atom, acceptor molecule, acceptor atom, score
      L1  H     2    46       P1  7957  1.00
      P1  H  6931  6943       L1    18  0.16
      P1  H  7997  8008       L1     8  1.00

> <Gold.PLP.Chemscore.Internal.Correction>
0.0170

> <Gold.Rescore>
     Score         DG    S(hbond)    S(metal)    S(lipo)     H(rot)  DE(clash)    DE(int)     intcor
     17.97     -19.02       2.21        0.00      83.25       1.40       0.58       0.47       ----

> <Gold.Chemscore.Fitness>
17.9679

> <Gold.Chemscore.DG>
-19.0222

> <Gold.Chemscore.ZeroCoef>
-5.4800

> <Gold.Chemscore.Hbond>
2.2137

> <Gold.Chemscore.Metal>
0.0000

> <Gold.Chemscore.Lipo>
83.2501

> <Gold.Chemscore.Internal_Hbond>
0.0000

> <Gold.Chemscore.DEClash>
0.5833

> <Gold.Chemscore.DEInternal>
0.4710

> <Gold.Chemscore.Rot>
1.4030

> <Gold.Chemscore.Internal.Correction>
   9.000000E+99

> <Gold.Chemscore.Hbonds>
donor molecule, donor type, donor heavy atom, donor atom, acceptor molecule, acceptor atom, score
      L1  H     2    46       P1  7957  0.97
      P1  H  6931  6943       L1    18  0.16
      P1  H  7997  8008       L1     8  1.00

> <Gold.Chemscore.Hbond.Weighted>
-7.3937

> <Gold.Chemscore.Metal.Weighted>
-0.0000

> <Gold.Chemscore.Lipo.Weighted>
-9.7403

> <Gold.Chemscore.Internal_Hbond.Weighted>
0.0000

> <Gold.Chemscore.DEClash.Weighted>
0.5833

> <Gold.Chemscore.DEInternal.Weighted>
0.4710

> <Gold.Chemscore.Rot.Weighted>
3.5917

> <Gold.Chemscore.Internal.Correction.Weighted>
   9.000000E+99

> <Gold.Protein.RotatedTorsions>
[ 6907 6896 6895 6894 ] final -137.27 input  -60.11 | X-H torsion
[ 7974 7965 7964 7962 ] final -136.22 input  175.53 | X-H torsion
[ 8008 7997 7996 7995 ] final  -75.39 input   59.86 | X-H torsion
[ 10167 10162 10161 10158 ] final -134.28 input  -65.29 | X-H torsion
[ 10718 10713 10712 10709 ] final  -12.49 input   66.30 | X-H torsion
[ 10763 10752 10751 10750 ] final   23.38 input  -60.55 | X-H torsion
[ 11005 11000 10999 10996 ] final  111.67 input  -57.11 | X-H torsion

> <Gold.Protein.ActiveResidues>
 VAL166  LYS551  ARG553  GLY616  TRP617  ASP618  TYR619  PRO620  LYS621  CYS622 
 ASP623  PHE694  ASN695  SER759  ASP760  ASP761  ALA762  ILE779  LEU786  VAL792 
 PHE793  MET794  SER795  GLU796  ALA797  LYS798  CYS799  TRP800  GLU811  SER814 

> <Gold.Protein.RotatedAtoms>
  151.0204  133.5882  159.2671 H   0  0  0  0  0  0  0  0  0  0  0  0  # atno 6907 bound_to 6896
  151.3001  135.0765  159.9245 H   0  0  0  0  0  0  0  0  0  0  0  0  # atno 6908 bound_to 6896
  152.5322  133.9887  159.7895 H   0  0  0  0  0  0  0  0  0  0  0  0  # atno 6909 bound_to 6896
  144.8945  140.6688  143.5124 H   0  0  0  0  0  0  0  0  0  0  0  0  # atno 7974 bound_to 7965
  154.5413  140.0745  156.8514 H   0  0  0  0  0  0  0  0  0  0  0  0  # atno 8008 bound_to 7997
  155.3176  140.3394  155.4224 H   0  0  0  0  0  0  0  0  0  0  0  0  # atno 8009 bound_to 7997
  156.1877  140.1674  156.8140 H   0  0  0  0  0  0  0  0  0  0  0  0  # atno 8010 bound_to 7997
  139.8896  143.6738  152.2614 H   0  0  0  0  0  0  0  0  0  0  0  0  # atno 10167 bound_to 10162
  156.6439  130.4935  149.6085 H   0  0  0  0  0  0  0  0  0  0  0  0  # atno 10718 bound_to 10713
  153.0843  135.6628  153.9981 H   0  0  0  0  0  0  0  0  0  0  0  0  # atno 10763 bound_to 10752
  153.9595  135.2975  155.3435 H   0  0  0  0  0  0  0  0  0  0  0  0  # atno 10764 bound_to 10752
  154.7248  135.5149  153.8941 H   0  0  0  0  0  0  0  0  0  0  0  0  # atno 10765 bound_to 10752
  139.8909  134.9513  156.6468 H   0  0  0  0  0  0  0  0  0  0  0  0  # atno 11005 bound_to 11000
  145.3724  139.1655  143.4325 LP  0  0  0  0  0  0  0  0  0  0  0  0  # atno 17320 bound_to 7965
  146.3073  140.3797  142.8682 LP  0  0  0  0  0  0  0  0  0  0  0  0  # atno 17321 bound_to 7965
  139.7121  144.7618  151.1094 LP  0  0  0  0  0  0  0  0  0  0  0  0  # atno 17342 bound_to 10162
  140.7729  143.5317  150.9416 LP  0  0  0  0  0  0  0  0  0  0  0  0  # atno 17343 bound_to 10162
  156.2137  130.6695  151.1297 LP  0  0  0  0  0  0  0  0  0  0  0  0  # atno 17370 bound_to 10713
  157.7162  131.0708  150.6316 LP  0  0  0  0  0  0  0  0  0  0  0  0  # atno 17371 bound_to 10713
  140.7551  133.8865  155.8376 LP  0  0  0  0  0  0  0  0  0  0  0  0  # atno 17394 bound_to 11000
  140.9968  134.1204  157.4355 LP  0  0  0  0  0  0  0  0  0  0  0  0  # atno 17395 bound_to 11000

$$$$
