#       Name:                AV-unprocessed.smi:1354
#       Creating user name   scv26
#       Creation time:       Fri Mar 27 05:12:35 2020


#       File generated by GOLD software.
#

@<TRIPOS>MOLECULE
AV-unprocessed.smi:1354
    44    46     1
SMALL
NO_CHARGES


@<TRIPOS>ATOM
      1 ****        -0.2222   2.8939   0.6624 O.3            1 S1                 0.0000
      2 ****        -0.9520   3.3837  -0.4428 C.3            1 S1                 0.0000
      3 ****        -0.5635   2.6476  -1.7370 C.3            1 S1                 0.0000
      4 ****        -1.0463   1.2249  -1.7819 C.2            1 S1                 0.0000
      5 ****        -2.3494   0.9380  -1.7900 N.2            1 S1                 0.0000
      6 ****        -2.3606  -0.4420  -1.8130 C.ar           1 S1                 0.0000
      7 ****        -3.4426  -1.3513  -1.8103 C.ar           1 S1                 0.0000
      8 ****        -3.2067  -2.7414  -1.8312 C.ar           1 S1                 0.0000
      9 ****        -1.8887  -3.2407  -1.8576 C.ar           1 S1                 0.0000
     10 ****        -0.7969  -2.3515  -1.8653 C.ar           1 S1                 0.0000
     11 ****        -1.0374  -0.9642  -1.8430 C.ar           1 S1                 0.0000
     12 ****        -0.2094   0.1555  -1.8414 N.pl3          1 S1                 0.0000
     13 ****         1.2475   0.1320  -1.8844 C.3            1 S1                 0.0000
     14 ****         1.8742   0.2714  -0.4904 C.3            1 S1                 0.0000
     15 ****         1.2701  -0.6756   0.3804 O.3            1 S1                 0.0000
     16 ****         1.5499  -0.6072   1.7275 C.ar           1 S1                 0.0000
     17 ****         2.5371   0.2430   2.2869 C.ar           1 S1                 0.0000
     18 ****         2.7643   0.2544   3.6768 C.ar           1 S1                 0.0000
     19 ****         2.0121  -0.5812   4.5225 C.ar           1 S1                 0.0000
     20 ****         1.0320  -1.4302   3.9764 C.ar           1 S1                 0.0000
     21 ****         0.8028  -1.4436   2.5864 C.ar           1 S1                 0.0000
     22 ****        -0.4103  -2.4898   1.9388 Cl             1 S1                 0.0000
     23 ****        -0.4985   3.3611   1.4361 H              1 S1                 0.0000
     24 ****        -2.0212   3.3006  -0.2461 H              1 S1                 0.0000
     25 ****        -0.7290   4.4460  -0.5441 H              1 S1                 0.0000
     26 ****        -1.0058   3.1694  -2.5863 H              1 S1                 0.0000
     27 ****         0.5136   2.7057  -1.8831 H              1 S1                 0.0000
     28 ****        -4.4558  -0.9782  -1.7884 H              1 S1                 0.0000
     29 ****        -4.0406  -3.4277  -1.8254 H              1 S1                 0.0000
     30 ****        -1.7157  -4.3068  -1.8708 H              1 S1                 0.0000
     31 ****         0.2130  -2.7328  -1.8808 H              1 S1                 0.0000
     32 ****         1.5614  -0.8130  -2.3280 H              1 S1                 0.0000
     33 ****         1.6090   0.9084  -2.5582 H              1 S1                 0.0000
     34 ****         2.9498   0.1001  -0.5486 H              1 S1                 0.0000
     35 ****         1.7190   1.2849  -0.1223 H              1 S1                 0.0000
     36 ****         3.1361   0.8943   1.6689 H              1 S1                 0.0000
     37 ****         3.5181   0.9056   4.0943 H              1 S1                 0.0000
     38 ****         2.1869  -0.5716   5.5883 H              1 S1                 0.0000
     39 ****         0.4544  -2.0716   4.6257 H              1 S1                 0.0000
     40 ****         0.7557   3.0394   0.5119 LP             1 S1                 0.0000
     41 ****        -0.3999   1.9165   0.7773 LP             1 S1                 0.0000
     42 ****        -3.1263   1.5676  -1.7815 LP             1 S1                 0.0000
     43 ****         1.5492  -1.5834   0.0674 LP             1 S1                 0.0000
     44 ****         0.2800  -0.5782   0.2800 LP             1 S1                 0.0000
@<TRIPOS>BOND
    1    1    2 1     
    2    1   23 1     
    3    2    3 1     
    4    2   24 1     
    5    2   25 1     
    6    3    4 1     
    7    3   26 1     
    8    3   27 1     
    9    4   12 1     
   10    4    5 2     
   11    5    6 1     
   12    6   11 ar    
   13    6    7 ar    
   14    7    8 ar    
   15    7   28 1     
   16    8    9 ar    
   17    8   29 1     
   18    9   10 ar    
   19    9   30 1     
   20   10   11 ar    
   21   10   31 1     
   22   11   12 1     
   23   12   13 1     
   24   13   14 1     
   25   13   32 1     
   26   13   33 1     
   27   14   15 1     
   28   14   34 1     
   29   14   35 1     
   30   15   16 1     
   31   16   21 ar    
   32   16   17 ar    
   33   17   18 ar    
   34   17   36 1     
   35   18   19 ar    
   36   18   37 1     
   37   19   20 ar    
   38   19   38 1     
   39   20   21 ar    
   40   20   39 1     
   41   21   22 1     
   42    1   40 1     
   43    1   41 1     
   44    5   42 1     
   45   15   43 1     
   46   15   44 1     
@<TRIPOS>SUBSTRUCTURE
      1 S1             1
@<TRIPOS>SET
LONE_PAIRS      STATIC     ATOMS    <user>   **** ""
5 40 41 42 43 44
DONOR_HYDROGENS      STATIC     ATOMS    <user>   **** ""
1 23
ATOM$BLUE        STATIC     ATOMS    COLORGROUP SYSTEM
5 40 41 42 43 44
ATOM$RED        STATIC     ATOMS    COLORGROUP SYSTEM
1 23
