#       Name:                AV-unprocessed.smi:3031
#       Creating user name   scv26
#       Creation time:       Fri Mar 27 16:50:05 2020


#       File generated by GOLD software.
#

@<TRIPOS>MOLECULE
AV-unprocessed.smi:3031
    53    54     1
SMALL
NO_CHARGES


@<TRIPOS>ATOM
      1 ****        -6.8584   2.3692  -2.0945 C.3            1 S1                 0.0000
      2 ****        -5.7310   1.4364  -1.7582 C.2            1 S1                 0.0000
      3 ****        -5.7943   0.0306  -1.5410 C.2            1 S1                 0.0000
      4 ****        -4.6150  -0.5009  -1.2634 N.2            1 S1                 0.0000
      5 ****        -3.7600   0.5436  -1.2900 N.pl3          1 S1                 0.0000
      6 ****        -2.3473   0.3324  -1.0280 C.3            1 S1                 0.0000
      7 ****        -1.9010   0.8684   0.3546 C.3            1 S1                 0.0000
      8 ****        -2.7816   0.3442   1.5024 C.3            1 S1                 0.0000
      9 ****        -0.5012   0.5378   0.6410 N.3            1 S1                 0.0000
     10 ****         0.4852   1.1125  -0.2743 C.3            1 S1                 0.0000
     11 ****         1.9203   0.7939   0.1773 C.3            1 S1                 0.0000
     12 ****         2.7957   1.5560  -0.6292 O.3            1 S1                 0.0000
     13 ****         2.2843  -0.6968   0.0072 C.3            1 S1                 0.0000
     14 ****         3.6301  -1.0188   0.5465 N.4            1 S1                 1.0000
     15 ****         3.6690  -1.1251   2.0265 C.3            1 S1                 0.0000
     16 ****         5.1011  -1.4168   2.5061 C.3            1 S1                 0.0000
     17 ****         5.5777  -2.6070   1.8907 O.3            1 S1                 0.0000
     18 ****         5.6293  -2.4890   0.4747 C.3            1 S1                 0.0000
     19 ****         4.2155  -2.2312  -0.0739 C.3            1 S1                 0.0000
     20 ****        -4.4060   1.7239  -1.5904 C.2            1 S1                 0.0000
     21 ****        -7.8251   1.9569  -1.8047 H              1 S1                 0.0000
     22 ****        -6.9034   2.5741  -3.1642 H              1 S1                 0.0000
     23 ****        -6.7537   3.3283  -1.5871 H              1 S1                 0.0000
     24 ****        -6.6585  -0.6160  -1.5775 H              1 S1                 0.0000
     25 ****        -2.1305  -0.7344  -1.1064 H              1 S1                 0.0000
     26 ****        -1.7966   0.8220  -1.8310 H              1 S1                 0.0000
     27 ****        -2.0045   1.9544   0.3417 H              1 S1                 0.0000
     28 ****        -3.8154   0.6752   1.4009 H              1 S1                 0.0000
     29 ****        -2.4255   0.7068   2.4672 H              1 S1                 0.0000
     30 ****        -2.7828  -0.7457   1.5363 H              1 S1                 0.0000
     31 ****        -0.3928  -0.4709   0.6718 H              1 S1                 0.0000
     32 ****         0.3383   0.7397  -1.2879 H              1 S1                 0.0000
     33 ****         0.3505   2.1945  -0.3147 H              1 S1                 0.0000
     34 ****         2.0460   1.1162   1.2108 H              1 S1                 0.0000
     35 ****         2.6195   1.3594  -1.5368 H              1 S1                 0.0000
     36 ****         1.5466  -1.3357   0.4949 H              1 S1                 0.0000
     37 ****         2.2431  -0.9459  -1.0545 H              1 S1                 0.0000
     38 ****         3.3171  -0.2030   2.4872 H              1 S1                 0.0000
     39 ****         2.9992  -1.9214   2.3550 H              1 S1                 0.0000
     40 ****         5.7667  -0.5827   2.2785 H              1 S1                 0.0000
     41 ****         5.1152  -1.5490   3.5881 H              1 S1                 0.0000
     42 ****         6.3117  -1.6871   0.1883 H              1 S1                 0.0000
     43 ****         6.0312  -3.4128   0.0582 H              1 S1                 0.0000
     44 ****         3.5739  -3.0910   0.1256 H              1 S1                 0.0000
     45 ****         4.2614  -2.1086  -1.1567 H              1 S1                 0.0000
     46 ****        -3.8742   2.6616  -1.6569 H              1 S1                 0.0000
     47 ****         4.2316  -0.2494   0.2875 H              1 S1                 0.0000
     48 ****        -4.4044  -1.4603  -1.0760 LP             1 S1                 0.0000
     49 ****        -0.3067   0.9588   1.5270 LP             1 S1                 0.0000
     50 ****         3.7432   1.3218  -0.4118 LP             1 S1                 0.0000
     51 ****         2.6461   2.5303  -0.4606 LP             1 S1                 0.0000
     52 ****         4.9665  -3.3615   2.1300 LP             1 S1                 0.0000
     53 ****         6.4971  -2.8015   2.2325 LP             1 S1                 0.0000
@<TRIPOS>BOND
    1    1    2 1     
    2    1   21 1     
    3    1   22 1     
    4    1   23 1     
    5    2   20 2     
    6    2    3 1     
    7    3    4 2     
    8    3   24 1     
    9    4    5 1     
   10    5    6 1     
   11    5   20 1     
   12    6    7 1     
   13    6   25 1     
   14    6   26 1     
   15    7    8 1     
   16    7    9 1     
   17    7   27 1     
   18    8   28 1     
   19    8   29 1     
   20    8   30 1     
   21    9   10 1     
   22    9   31 1     
   23   10   11 1     
   24   10   32 1     
   25   10   33 1     
   26   11   12 1     
   27   11   13 1     
   28   11   34 1     
   29   12   35 1     
   30   13   14 1     
   31   13   36 1     
   32   13   37 1     
   33   14   19 1     
   34   14   15 1     
   35   14   47 1     
   36   15   16 1     
   37   15   38 1     
   38   15   39 1     
   39   16   17 1     
   40   16   40 1     
   41   16   41 1     
   42   17   18 1     
   43   18   19 1     
   44   18   42 1     
   45   18   43 1     
   46   19   44 1     
   47   19   45 1     
   48   20   46 1     
   49    4   48 1     
   50    9   49 1     
   51   12   50 1     
   52   12   51 1     
   53   17   52 1     
   54   17   53 1     
@<TRIPOS>SUBSTRUCTURE
      1 S1             1
@<TRIPOS>SET
LONE_PAIRS      STATIC     ATOMS    <user>   **** ""
6 48 49 50 51 52 53
DONOR_HYDROGENS      STATIC     ATOMS    <user>   **** ""
3 31 35 47
ATOM$BLUE        STATIC     ATOMS    COLORGROUP SYSTEM
6 48 49 50 51 52 53
ATOM$RED        STATIC     ATOMS    COLORGROUP SYSTEM
3 31 35 47
