AV-unprocessed.smi:1897|AV-procd|sdf|7691|dock7
  -GOLD-   22720 9433D 1   1.00000     0.00000
 Structure written by MMmdl.
 39 41  0  0  0  0  0  0  0  0  2 V2000
  150.6562  141.6064  156.0403 C   0  0  0  0  0  0  0  0  0  0  0  0
  149.6736  140.5816  155.5861 C   0  0  0  0  0  0  0  0  0  0  0  0
  148.4464  140.4758  156.1093 N   0  0  0  0  0  0  0  0  0  0  0  0
  147.7146  139.4501  155.5290 N   0  0  0  0  0  0  0  0  0  0  0  0
  148.4150  138.8011  154.5872 C   0  0  0  0  0  0  0  0  0  0  0  0
  147.9179  137.7102  153.8149 N   0  0  0  0  0  0  0  0  0  0  0  0
  146.7528  137.0298  153.8688 C   0  0  0  0  0  0  0  0  0  0  0  0
  145.8871  137.3198  154.6925 O   0  0  0  0  0  0  0  0  0  0  0  0
  146.6004  136.0365  152.9775 N   0  0  0  0  0  0  0  0  0  0  0  0
  145.4329  135.1694  152.8603 C   0  0  1  0  0  0  0  0  0  0  0  0
  144.1154  135.9331  152.9176 C   0  0  0  0  0  0  0  0  0  0  0  0
  143.1391  134.9388  152.2871 C   0  0  0  0  0  0  0  0  0  0  0  0
  143.9120  134.2068  151.2574 N   0  3  2  0  0  0  0  0  0  0  0  0
  143.5286  132.7832  151.0939 C   0  0  0  0  0  0  0  0  0  0  0  0
  144.3744  132.1144  149.9942 C   0  0  0  0  0  0  0  0  0  0  0  0
  145.8894  132.3505  150.1678 C   0  0  0  0  0  0  0  0  0  0  0  0
  146.2151  133.1706  151.4260 C   0  0  0  0  0  0  0  0  0  0  0  0
  145.3616  134.4572  151.4990 C   0  0  2  0  0  0  0  0  0  0  0  0
  150.0395  139.4131  154.3226 S   0  0  0  0  0  0  0  0  0  0  0  0
  150.1456  142.5365  156.2917 H   0  0  0  0  0  0  0  0  0  0  0  0
  151.3815  141.8104  155.2524 H   0  0  0  0  0  0  0  0  0  0  0  0
  151.1878  141.2476  156.9216 H   0  0  0  0  0  0  0  0  0  0  0  0
  148.5401  137.4087  153.0788 H   0  0  0  0  0  0  0  0  0  0  0  0
  147.3601  135.8670  152.3331 H   0  0  0  0  0  0  0  0  0  0  0  0
  145.4251  134.4319  153.6657 H   0  0  0  0  0  0  0  0  0  0  0  0
  143.8323  136.2198  153.9310 H   0  0  0  0  0  0  0  0  0  0  0  0
  144.1707  136.8386  152.3109 H   0  0  0  0  0  0  0  0  0  0  0  0
  142.7896  134.2447  153.0534 H   0  0  0  0  0  0  0  0  0  0  0  0
  142.2644  135.4272  151.8569 H   0  0  0  0  0  0  0  0  0  0  0  0
  143.6583  132.2554  152.0404 H   0  0  0  0  0  0  0  0  0  0  0  0
  142.4696  132.7187  150.8420 H   0  0  0  0  0  0  0  0  0  0  0  0
  144.1646  131.0444  149.9751 H   0  0  0  0  0  0  0  0  0  0  0  0
  144.0655  132.4971  149.0206 H   0  0  0  0  0  0  0  0  0  0  0  0
  146.4174  131.3968  150.2015 H   0  0  0  0  0  0  0  0  0  0  0  0
  146.2717  132.8754  149.2915 H   0  0  0  0  0  0  0  0  0  0  0  0
  146.0418  132.5553  152.3100 H   0  0  0  0  0  0  0  0  0  0  0  0
  147.2760  133.4220  151.4383 H   0  0  0  0  0  0  0  0  0  0  0  0
  145.6833  135.1428  150.7132 H   0  0  0  0  0  0  0  0  0  0  0  0
  143.7087  134.6553  150.3754 H   0  0  0  0  0  0  0  0  0  0  0  0
  1  2  1  0  0  0  0
  1 20  1  0  0  0  0
  1 21  1  0  0  0  0
  1 22  1  0  0  0  0
  2 19  1  0  0  0  0
  2  3  2  0  0  0  0
  3  4  1  0  0  0  0
  4  5  2  0  0  0  0
  5  6  1  0  0  0  0
  5 19  1  0  0  0  0
  6  7  1  0  0  0  0
  6 23  1  0  0  0  0
  7  8  2  0  0  0  0
  7  9  1  0  0  0  0
  9 10  1  0  0  0  0
  9 24  1  0  0  0  0
 10 18  1  0  0  0  0
 10 11  1  0  0  0  0
 10 25  1  0  0  0  0
 11 12  1  0  0  0  0
 11 26  1  0  0  0  0
 11 27  1  0  0  0  0
 12 13  1  0  0  0  0
 12 28  1  0  0  0  0
 12 29  1  0  0  0  0
 13 18  1  0  0  0  0
 13 14  1  0  0  0  0
 13 39  1  0  0  0  0
 14 15  1  0  0  0  0
 14 30  1  0  0  0  0
 14 31  1  0  0  0  0
 15 16  1  0  0  0  0
 15 32  1  0  0  0  0
 15 33  1  0  0  0  0
 16 17  1  0  0  0  0
 16 34  1  0  0  0  0
 16 35  1  0  0  0  0
 17 18  1  0  0  0  0
 17 36  1  0  0  0  0
 17 37  1  0  0  0  0
 18 38  1  0  0  0  0
M  CHG  1  13   1
M  END
> <s_m_source_file>
AV-unprocessed.smi

> <i_m_source_file_index>
1897

> <i_lp_mmshare_version>
43012

> <i_f3d_flags>
0

> <s_epik_input>
W0NIM11jMW5uYyhzMSlbTkhdQyg9TylbTkhdW0NASF0oW0NIMl1bQ0gyXTIpW0NAQEhdKE4yMylbQ0gyXVtDSDJdW0NIMl1bQ0gyXTM=

> <s_epik_cmdline>
J2VwaWtfcHl0aG9uJywgJy1waCcsICc3LjAnLCAnLXRuJywgJzgnLCAnLW1hJywgJzIwMCcsICctbWV0YWxfYmluZGluZycsICctaW1hZScsICc8aW5maWxlLm1hZT4nLCAnLW9tYWUnLCAnPG91dGZpbGUubWFlPic=

> <r_lp_tautomer_probability>
1

> <r_epik_Ionization_Penalty>
0.00228891

> <r_epik_Ionization_Penalty_Charging>
0.00107044

> <r_epik_Ionization_Penalty_Neutral>
0.00121847

> <r_epik_State_Penalty>
-0

> <r_epik_Charging_Adjusted_Penalty>
0.00107044

> <i_epik_Tot_Q>
1

> <i_epik_Tot_abs_Q>
1

> <r_epik_Metal_State_Penalty>
0.304057

> <b_epik_Metal_Only>
0

> <s_lp_Force_Field>
OPLS_2005

> <r_lp_Energy>
41.04

> <b_lp_Chiralities_Consistent>
1

> <s_lp_Variant>
AV-unprocessed.smi:1897-8

> <Gold.Version>
5.8.1

> <Gold.Id.Protein>
6NUR|6NUR_protein|mol2

> <Gold.PLP.Fitness>
34.4590

> <Gold.PLP.PLP>
-28.9176

> <Gold.PLP.part.hbond>
-2.0000

> <Gold.PLP.part.metal>
0.0000

> <Gold.PLP.part.buried>
-4.3010

> <Gold.PLP.part.nonpolar>
-23.2697

> <Gold.PLP.part.repulsive>
0.1071

> <Gold.PLP.ligand.clash>
0.0000

> <Gold.PLP.ligand.torsion>
0.2213

> <Gold.PLP.Chemscore.Hbond>
1.9920

> <Gold.PLP.Chemscore.CHOScore>
0.0000

> <Gold.PLP.Chemscore.Metal>
0.0000

> <Gold.Chemscore.Hbonds>
donor molecule, donor type, donor heavy atom, donor atom, acceptor molecule, acceptor atom, score
      L1  H     6    23       P1  7948  1.00
      L1  H     9    24       P1  7948  0.98

> <Gold.PLP.Chemscore.Internal.Correction>
0.0080

> <Gold.Rescore>
     Score         DG    S(hbond)    S(metal)    S(lipo)     H(rot)  DE(clash)    DE(int)     intcor
     14.73     -17.59       1.86        0.00      72.26       1.00       0.08       2.79       ----

> <Gold.Chemscore.Fitness>
14.7302

> <Gold.Chemscore.DG>
-17.5914

> <Gold.Chemscore.ZeroCoef>
-5.4800

> <Gold.Chemscore.Hbond>
1.8615

> <Gold.Chemscore.Metal>
0.0000

> <Gold.Chemscore.Lipo>
72.2551

> <Gold.Chemscore.Internal_Hbond>
0.0000

> <Gold.Chemscore.DEClash>
0.0756

> <Gold.Chemscore.DEInternal>
2.7856

> <Gold.Chemscore.Rot>
1.0000

> <Gold.Chemscore.Internal.Correction>
   9.000000E+99

> <Gold.Chemscore.Hbonds>
donor molecule, donor type, donor heavy atom, donor atom, acceptor molecule, acceptor atom, score
      L1  H     6    23       P1  7948  0.94
      L1  H     9    24       P1  7948  0.93

> <Gold.Chemscore.Hbond.Weighted>
-6.2176

> <Gold.Chemscore.Metal.Weighted>
-0.0000

> <Gold.Chemscore.Lipo.Weighted>
-8.4538

> <Gold.Chemscore.Internal_Hbond.Weighted>
0.0000

> <Gold.Chemscore.DEClash.Weighted>
0.0756

> <Gold.Chemscore.DEInternal.Weighted>
2.7856

> <Gold.Chemscore.Rot.Weighted>
2.5600

> <Gold.Chemscore.Internal.Correction.Weighted>
   9.000000E+99

> <Gold.Protein.RotatedTorsions>
[ 6907 6896 6895 6894 ] final   99.19 input  -60.11 | X-H torsion
[ 7974 7965 7964 7962 ] final  -36.55 input  175.53 | X-H torsion
[ 8008 7997 7996 7995 ] final  -61.06 input   59.86 | X-H torsion
[ 10167 10162 10161 10158 ] final  174.55 input  -65.29 | X-H torsion
[ 10718 10713 10712 10709 ] final   53.48 input   66.30 | X-H torsion
[ 10763 10752 10751 10750 ] final -100.95 input  -60.55 | X-H torsion
[ 11005 11000 10999 10996 ] final   45.00 input  -57.11 | X-H torsion

> <Gold.Protein.ActiveResidues>
 VAL166  LYS551  ARG553  GLY616  TRP617  ASP618  TYR619  PRO620  LYS621  CYS622 
 ASP623  PHE694  ASN695  SER759  ASP760  ASP761  ALA762  ILE779  LEU786  VAL792 
 PHE793  MET794  SER795  GLU796  ALA797  LYS798  CYS799  TRP800  GLU811  SER814 

> <Gold.Protein.RotatedAtoms>
  152.5396  134.0466  159.8090 H   0  0  0  0  0  0  0  0  0  0  0  0  # atno 6907 bound_to 6896
  151.0614  133.5534  159.2641 H   0  0  0  0  0  0  0  0  0  0  0  0  # atno 6908 bound_to 6896
  151.2431  135.0604  159.9086 H   0  0  0  0  0  0  0  0  0  0  0  0  # atno 6909 bound_to 6896
  146.0651  140.6292  142.8978 H   0  0  0  0  0  0  0  0  0  0  0  0  # atno 7974 bound_to 7965
  154.4429  140.1026  156.6371 H   0  0  0  0  0  0  0  0  0  0  0  0  # atno 8008 bound_to 7997
  155.5542  140.3486  155.4457 H   0  0  0  0  0  0  0  0  0  0  0  0  # atno 8009 bound_to 7997
  156.0507  140.1303  157.0043 H   0  0  0  0  0  0  0  0  0  0  0  0  # atno 8010 bound_to 7997
  139.5146  144.3133  152.0271 H   0  0  0  0  0  0  0  0  0  0  0  0  # atno 10167 bound_to 10162
  157.5170  130.8539  149.8509 H   0  0  0  0  0  0  0  0  0  0  0  0  # atno 10718 bound_to 10713
  154.7619  135.4916  153.9481 H   0  0  0  0  0  0  0  0  0  0  0  0  # atno 10763 bound_to 10752
  153.1262  135.6743  153.9261 H   0  0  0  0  0  0  0  0  0  0  0  0  # atno 10764 bound_to 10752
  153.8978  135.3113  155.3427 H   0  0  0  0  0  0  0  0  0  0  0  0  # atno 10765 bound_to 10752
  140.1499  134.4474  155.8389 H   0  0  0  0  0  0  0  0  0  0  0  0  # atno 11005 bound_to 11000
  144.7198  140.4334  143.7017 LP  0  0  0  0  0  0  0  0  0  0  0  0  # atno 17320 bound_to 7965
  145.6491  139.1562  143.2872 LP  0  0  0  0  0  0  0  0  0  0  0  0  # atno 17321 bound_to 7965
  140.2577  144.4101  150.6197 LP  0  0  0  0  0  0  0  0  0  0  0  0  # atno 17342 bound_to 10162
  140.6179  143.2174  151.6753 LP  0  0  0  0  0  0  0  0  0  0  0  0  # atno 17343 bound_to 10162
  156.0327  130.3760  150.1643 LP  0  0  0  0  0  0  0  0  0  0  0  0  # atno 17370 bound_to 10713
  156.9832  130.9870  151.3432 LP  0  0  0  0  0  0  0  0  0  0  0  0  # atno 17371 bound_to 10713
  141.2197  133.6868  156.7403 LP  0  0  0  0  0  0  0  0  0  0  0  0  # atno 17394 bound_to 11000
  140.2617  134.8461  157.3765 LP  0  0  0  0  0  0  0  0  0  0  0  0  # atno 17395 bound_to 11000

$$$$
