#       Name:                AV-unprocessed.smi:1564
#       Creating user name   scv26
#       Creation time:       Fri Mar 27 06:49:27 2020


#       File generated by GOLD software.
#

@<TRIPOS>MOLECULE
AV-unprocessed.smi:1564
    48    49     1
SMALL
NO_CHARGES


@<TRIPOS>ATOM
      1 ****        -7.5816   3.7311  -0.0068 C.3            1 S1                 0.0000
      2 ****        -6.2981   4.2984  -0.2442 O.3            1 S1                 0.0000
      3 ****        -5.2037   3.4582  -0.2638 C.ar           1 S1                 0.0000
      4 ****        -3.9308   4.0154  -0.4957 C.ar           1 S1                 0.0000
      5 ****        -2.8083   3.1659  -0.5176 C.ar           1 S1                 0.0000
      6 ****        -2.9943   1.7800  -0.2974 C.ar           1 S1                 0.0000
      7 ****        -1.9486   0.8172  -0.3116 N.am           1 S1                 0.0000
      8 ****        -0.6284   1.0112  -0.1495 C.2            1 S1                 0.0000
      9 ****        -0.0874   2.0937   0.0740 O.2            1 S1                 0.0000
     10 ****         0.0479  -0.1424  -0.2408 N.am           1 S1                 0.0000
     11 ****         1.4944  -0.2654  -0.0948 C.3            1 S1                 0.0000
     12 ****         1.9941  -0.1639   1.3471 C.3            1 S1                 0.0000
     13 ****         3.2536  -1.0450   1.3824 C.3            1 S1                 0.0000
     14 ****         3.3432  -1.7362   0.0705 N.4            1 S1                 1.0000
     15 ****         3.9326  -3.1040   0.1150 C.3            1 S1                 0.0000
     16 ****         5.3584  -3.0747   0.6970 C.3            1 S1                 0.0000
     17 ****         3.9580  -3.7580  -1.2794 C.3            1 S1                 0.0000
     18 ****         1.9967  -1.6381  -0.5293 C.3            1 S1                 0.0000
     19 ****        -4.3115   1.3212  -0.0877 C.ar           1 S1                 0.0000
     20 ****        -5.3917   2.1301  -0.0651 N.ar           1 S1                 0.0000
     21 ****        -8.3336   4.5198  -0.0274 H              1 S1                 0.0000
     22 ****        -7.6313   3.2526   0.9724 H              1 S1                 0.0000
     23 ****        -7.8448   3.0032  -0.7756 H              1 S1                 0.0000
     24 ****        -3.8173   5.0769  -0.6595 H              1 S1                 0.0000
     25 ****        -1.8379   3.5931  -0.7158 H              1 S1                 0.0000
     26 ****        -2.2483  -0.1420  -0.4079 H              1 S1                 0.0000
     27 ****        -0.4721  -0.9889  -0.4206 H              1 S1                 0.0000
     28 ****         1.9909   0.4940  -0.7028 H              1 S1                 0.0000
     29 ****         2.1982   0.8671   1.6385 H              1 S1                 0.0000
     30 ****         1.2502  -0.5617   2.0393 H              1 S1                 0.0000
     31 ****         4.1530  -0.4500   1.5437 H              1 S1                 0.0000
     32 ****         3.1759  -1.7606   2.2024 H              1 S1                 0.0000
     33 ****         3.3114  -3.7218   0.7653 H              1 S1                 0.0000
     34 ****         5.8004  -4.0716   0.7003 H              1 S1                 0.0000
     35 ****         5.3735  -2.7195   1.7274 H              1 S1                 0.0000
     36 ****         6.0120  -2.4274   0.1112 H              1 S1                 0.0000
     37 ****         4.4470  -4.7321  -1.2447 H              1 S1                 0.0000
     38 ****         4.5019  -3.1426  -1.9968 H              1 S1                 0.0000
     39 ****         2.9544  -3.9245  -1.6707 H              1 S1                 0.0000
     40 ****         1.3559  -2.4276  -0.1316 H              1 S1                 0.0000
     41 ****         2.0260  -1.7319  -1.6153 H              1 S1                 0.0000
     42 ****        -4.5071   0.2709   0.0718 H              1 S1                 0.0000
     43 ****         3.9463  -1.1682  -0.5075 H              1 S1                 0.0000
     44 ****        -6.1373   4.9768   0.4727 LP             1 S1                 0.0000
     45 ****        -6.3363   4.7551  -1.1329 LP             1 S1                 0.0000
     46 ****        -0.6408   2.9232   0.1487 LP             1 S1                 0.0000
     47 ****         0.9056   2.1437   0.1810 LP             1 S1                 0.0000
     48 ****        -6.3068   1.7596   0.0941 LP             1 S1                 0.0000
@<TRIPOS>BOND
    1    1    2 1     
    2    1   21 1     
    3    1   22 1     
    4    1   23 1     
    5    2    3 1     
    6    3   20 ar    
    7    3    4 ar    
    8    4    5 ar    
    9    4   24 1     
   10    5    6 ar    
   11    5   25 1     
   12    6    7 1     
   13    6   19 ar    
   14    7    8 am    
   15    7   26 1     
   16    8    9 2     
   17    8   10 am    
   18   10   11 1     
   19   10   27 1     
   20   11   18 1     
   21   11   12 1     
   22   11   28 1     
   23   12   13 1     
   24   12   29 1     
   25   12   30 1     
   26   13   14 1     
   27   13   31 1     
   28   13   32 1     
   29   14   15 1     
   30   14   18 1     
   31   14   43 1     
   32   15   16 1     
   33   15   17 1     
   34   15   33 1     
   35   16   34 1     
   36   16   35 1     
   37   16   36 1     
   38   17   37 1     
   39   17   38 1     
   40   17   39 1     
   41   18   40 1     
   42   18   41 1     
   43   19   20 ar    
   44   19   42 1     
   45    2   44 1     
   46    2   45 1     
   47    9   46 1     
   48    9   47 1     
   49   20   48 1     
@<TRIPOS>SUBSTRUCTURE
      1 S1             1
@<TRIPOS>SET
LONE_PAIRS      STATIC     ATOMS    <user>   **** ""
5 44 45 46 47 48
DONOR_HYDROGENS      STATIC     ATOMS    <user>   **** ""
3 26 27 43
ATOM$BLUE        STATIC     ATOMS    COLORGROUP SYSTEM
5 44 45 46 47 48
ATOM$RED        STATIC     ATOMS    COLORGROUP SYSTEM
3 26 27 43
