AV-unprocessed.smi:224|AV-procd|sdf|1708|dock7
  -GOLD-   2262020173D 1   1.00000     0.00000
 Structure written by MMmdl.
 56 59  0  0  0  0  0  0  0  0  2 V2000
  151.8421  144.9857  159.1521 C   0  0  0  0  0  0  0  0  0  0  0  0
  150.7344  144.4379  158.2428 C   0  0  1  0  0  0  0  0  0  0  0  0
  151.1390  144.6134  156.8999 O   0  0  0  0  0  0  0  0  0  0  0  0
  150.4615  142.9430  158.4933 C   0  0  0  0  0  0  0  0  0  0  0  0
  149.4166  142.4130  157.5725 N   0  3  2  0  0  0  0  0  0  0  0  0
  148.0842  142.3864  158.2398 C   0  0  0  0  0  0  0  0  0  0  0  0
  146.9752  141.8982  157.2992 C   0  0  0  0  0  0  0  0  0  0  0  0
  147.3196  140.5920  156.7565 N   0  0  0  0  0  0  0  0  0  0  0  0
  146.9586  139.5128  157.5010 C   0  0  0  0  0  0  0  0  0  0  0  0
  145.6589  139.3459  157.8650 N   0  0  0  0  0  0  0  0  0  0  0  0
  145.2876  138.2838  158.5855 C   0  0  0  0  0  0  0  0  0  0  0  0
  146.0415  137.2849  159.0463 N   0  0  0  0  0  0  0  0  0  0  0  0
  147.3494  137.4512  158.6994 C   0  0  0  0  0  0  0  0  0  0  0  0
  147.8883  138.5242  157.9338 C   0  0  0  0  0  0  0  0  0  0  0  0
  149.2608  138.3569  157.7907 N   0  0  0  0  0  0  0  0  0  0  0  0
  149.5166  137.2470  158.4277 C   0  0  0  0  0  0  0  0  0  0  0  0
  148.4270  136.6396  159.0095 N   0  0  0  0  0  0  0  0  0  0  0  0
  148.4282  135.4052  159.7798 C   0  0  0  0  0  0  0  0  0  0  0  0
  147.6835  135.5241  161.1298 C   0  0  1  0  0  0  0  0  0  0  0  0
  147.9364  136.8042  161.6834 O   0  0  0  0  0  0  0  0  0  0  0  0
  146.1733  135.3289  161.0294 C   0  0  0  0  0  0  0  0  0  0  0  0
  145.8224  134.7032  162.3718 C   0  0  0  0  0  0  0  0  0  0  0  0
  146.9079  133.8194  162.5926 O   0  0  0  0  0  0  0  0  0  0  0  0
  148.1056  134.4569  162.1596 C   0  0  0  0  0  0  0  0  0  0  0  0
  148.5977  140.5808  156.0514 C   0  0  0  0  0  0  0  0  0  0  0  0
  149.7682  141.1132  156.9159 C   0  0  1  0  0  0  0  0  0  0  0  0
  151.0111  141.2252  156.0085 C   0  0  0  0  0  0  0  0  0  0  0  0
  151.5665  144.8923  160.2028 H   0  0  0  0  0  0  0  0  0  0  0  0
  152.0267  146.0423  158.9547 H   0  0  0  0  0  0  0  0  0  0  0  0
  152.7811  144.4504  159.0058 H   0  0  0  0  0  0  0  0  0  0  0  0
  149.8301  145.0239  158.4062 H   0  0  0  0  0  0  0  0  0  0  0  0
  150.3782  144.5503  156.3421 H   0  0  0  0  0  0  0  0  0  0  0  0
  151.4023  142.4046  158.4072 H   0  0  0  0  0  0  0  0  0  0  0  0
  150.1457  142.7862  159.5261 H   0  0  0  0  0  0  0  0  0  0  0  0
  148.1295  141.7329  159.1130 H   0  0  0  0  0  0  0  0  0  0  0  0
  147.8285  143.3804  158.6062 H   0  0  0  0  0  0  0  0  0  0  0  0
  146.0240  141.8830  157.8294 H   0  0  0  0  0  0  0  0  0  0  0  0
  146.8531  142.5982  156.4718 H   0  0  0  0  0  0  0  0  0  0  0  0
  144.2366  138.2264  158.8278 H   0  0  0  0  0  0  0  0  0  0  0  0
  150.5153  136.8408  158.4988 H   0  0  0  0  0  0  0  0  0  0  0  0
  147.9763  134.6215  159.1702 H   0  0  0  0  0  0  0  0  0  0  0  0
  149.4637  135.1041  159.9446 H   0  0  0  0  0  0  0  0  0  0  0  0
  147.5496  136.8393  162.5450 H   0  0  0  0  0  0  0  0  0  0  0  0
  145.6215  136.2467  160.8216 H   0  0  0  0  0  0  0  0  0  0  0  0
  145.9369  134.6132  160.2414 H   0  0  0  0  0  0  0  0  0  0  0  0
  145.7910  135.4556  163.1613 H   0  0  0  0  0  0  0  0  0  0  0  0
  144.8688  134.1750  162.3562 H   0  0  0  0  0  0  0  0  0  0  0  0
  148.7718  133.7070  161.7317 H   0  0  0  0  0  0  0  0  0  0  0  0
  148.6171  134.8940  163.0186 H   0  0  0  0  0  0  0  0  0  0  0  0
  148.8186  139.5807  155.6752 H   0  0  0  0  0  0  0  0  0  0  0  0
  148.4840  141.2102  155.1677 H   0  0  0  0  0  0  0  0  0  0  0  0
  149.9782  140.3901  157.7050 H   0  0  0  0  0  0  0  0  0  0  0  0
  151.1626  140.3022  155.4479 H   0  0  0  0  0  0  0  0  0  0  0  0
  151.9334  141.3963  156.5605 H   0  0  0  0  0  0  0  0  0  0  0  0
  150.8992  142.0321  155.2834 H   0  0  0  0  0  0  0  0  0  0  0  0
  149.3449  143.0807  156.8179 H   0  0  0  0  0  0  0  0  0  0  0  0
  1  2  1  0  0  0  0
  1 28  1  0  0  0  0
  1 29  1  0  0  0  0
  1 30  1  0  0  0  0
  2  3  1  0  0  0  0
  2  4  1  0  0  0  0
  2 31  1  0  0  0  0
  3 32  1  0  0  0  0
  4  5  1  0  0  0  0
  4 33  1  0  0  0  0
  4 34  1  0  0  0  0
  5 26  1  0  0  0  0
  5  6  1  0  0  0  0
  5 56  1  0  0  0  0
  6  7  1  0  0  0  0
  6 35  1  0  0  0  0
  6 36  1  0  0  0  0
  7  8  1  0  0  0  0
  7 37  1  0  0  0  0
  7 38  1  0  0  0  0
  8  9  1  0  0  0  0
  8 25  1  0  0  0  0
  9 14  1  0  0  0  0
  9 10  2  0  0  0  0
 10 11  1  0  0  0  0
 11 12  2  0  0  0  0
 11 39  1  0  0  0  0
 12 13  1  0  0  0  0
 13 17  1  0  0  0  0
 13 14  2  0  0  0  0
 14 15  1  0  0  0  0
 15 16  2  0  0  0  0
 16 17  1  0  0  0  0
 16 40  1  0  0  0  0
 17 18  1  0  0  0  0
 18 19  1  0  0  0  0
 18 41  1  0  0  0  0
 18 42  1  0  0  0  0
 19 24  1  0  0  0  0
 19 20  1  0  0  0  0
 19 21  1  0  0  0  0
 20 43  1  0  0  0  0
 21 22  1  0  0  0  0
 21 44  1  0  0  0  0
 21 45  1  0  0  0  0
 22 23  1  0  0  0  0
 22 46  1  0  0  0  0
 22 47  1  0  0  0  0
 23 24  1  0  0  0  0
 24 48  1  0  0  0  0
 24 49  1  0  0  0  0
 25 26  1  0  0  0  0
 25 50  1  0  0  0  0
 25 51  1  0  0  0  0
 26 27  1  0  0  0  0
 26 52  1  0  0  0  0
 27 53  1  0  0  0  0
 27 54  1  0  0  0  0
 27 55  1  0  0  0  0
M  CHG  1   5   1
M  END
> <s_m_source_file>
AV-unprocessed.smi

> <i_m_source_file_index>
224

> <i_lp_mmshare_version>
43012

> <i_f3d_flags>
0

> <s_epik_input>
W0NIM11bQ0BIXShbT0hdKVtDSDJdTjFbQ0gyXVtDSDJdTihbQ0gyXVtDQEhdMVtDSDNdKWMobltjSF1uMiljKGMyMyluW2NIXW4zW0NIMl1bQ0BAXTQoW09IXSlbQ0gyXVtDSDJdT1tDSDJdNA==

> <s_epik_cmdline>
J2VwaWtfcHl0aG9uJywgJy1waCcsICc3LjAnLCAnLXRuJywgJzgnLCAnLW1hJywgJzIwMCcsICctbWV0YWxfYmluZGluZycsICctaW1hZScsICc8aW5maWxlLm1hZT4nLCAnLW9tYWUnLCAnPG91dGZpbGUubWFlPic=

> <r_lp_tautomer_probability>
1

> <r_epik_Ionization_Penalty>
0.00516958

> <r_epik_Ionization_Penalty_Charging>
0.00509693

> <r_epik_Ionization_Penalty_Neutral>
7.26542e-05

> <r_epik_State_Penalty>
-0

> <r_epik_Charging_Adjusted_Penalty>
0.00509693

> <i_epik_Tot_Q>
1

> <i_epik_Tot_abs_Q>
1

> <r_epik_Metal_State_Penalty>
-0

> <b_epik_Metal_Only>
0

> <s_lp_Force_Field>
OPLS_2005

> <r_lp_Energy>
48.4109

> <b_lp_Chiralities_Consistent>
1

> <s_lp_Variant>
AV-unprocessed.smi:224-2

> <Gold.Version>
5.8.1

> <Gold.Id.Protein>
6NUR|6NUR_protein|mol2

> <Gold.PLP.Fitness>
48.9017

> <Gold.PLP.PLP>
-36.8531

> <Gold.PLP.part.hbond>
-4.3001

> <Gold.PLP.part.metal>
0.0000

> <Gold.PLP.part.buried>
-3.7759

> <Gold.PLP.part.nonpolar>
-27.9897

> <Gold.PLP.part.repulsive>
0.0804

> <Gold.PLP.ligand.clash>
0.0000

> <Gold.PLP.ligand.torsion>
1.3042

> <Gold.PLP.Chemscore.Hbond>
4.7120

> <Gold.PLP.Chemscore.CHOScore>
0.0000

> <Gold.PLP.Chemscore.Metal>
0.0000

> <Gold.Chemscore.Hbonds>
donor molecule, donor type, donor heavy atom, donor atom, acceptor molecule, acceptor atom, score
      L1  H     3    32       P1  8028  1.00
      L1  H     5    56       P1  8028  1.89
      P1  H  6931  6943       L1    20  0.80

> <Gold.PLP.Chemscore.Internal.Correction>
0.5210

> <Gold.Rescore>
     Score         DG    S(hbond)    S(metal)    S(lipo)     H(rot)  DE(clash)    DE(int)     intcor
     10.30     -16.14       2.77        0.00      85.52       3.36       0.69       5.15       ----

> <Gold.Chemscore.Fitness>
10.3041

> <Gold.Chemscore.DG>
-16.1367

> <Gold.Chemscore.ZeroCoef>
-5.4800

> <Gold.Chemscore.Hbond>
2.7711

> <Gold.Chemscore.Metal>
0.0000

> <Gold.Chemscore.Lipo>
85.5194

> <Gold.Chemscore.Internal_Hbond>
0.0000

> <Gold.Chemscore.DEClash>
0.6857

> <Gold.Chemscore.DEInternal>
5.1468

> <Gold.Chemscore.Rot>
3.3611

> <Gold.Chemscore.Internal.Correction>
   9.000000E+99

> <Gold.Chemscore.Hbonds>
donor molecule, donor type, donor heavy atom, donor atom, acceptor molecule, acceptor atom, score
      L1  H     3    32       P1  8028  0.98
      L1  H     5    56       P1  8028  0.89
      P1  H  6931  6943       L1    20  0.12

> <Gold.Chemscore.Hbond.Weighted>
-9.2554

> <Gold.Chemscore.Metal.Weighted>
-0.0000

> <Gold.Chemscore.Lipo.Weighted>
-10.0058

> <Gold.Chemscore.Internal_Hbond.Weighted>
0.0000

> <Gold.Chemscore.DEClash.Weighted>
0.6857

> <Gold.Chemscore.DEInternal.Weighted>
5.1468

> <Gold.Chemscore.Rot.Weighted>
8.6045

> <Gold.Chemscore.Internal.Correction.Weighted>
   9.000000E+99

> <Gold.Protein.RotatedTorsions>
[ 6907 6896 6895 6894 ] final  -19.05 input  -60.11 | X-H torsion
[ 7974 7965 7964 7962 ] final  158.11 input  175.53 | X-H torsion
[ 8008 7997 7996 7995 ] final  -40.91 input   59.86 | X-H torsion
[ 10167 10162 10161 10158 ] final   46.14 input  -65.29 | X-H torsion
[ 10718 10713 10712 10709 ] final   -2.85 input   66.30 | X-H torsion
[ 10763 10752 10751 10750 ] final  -67.84 input  -60.55 | X-H torsion
[ 11005 11000 10999 10996 ] final  -45.11 input  -57.11 | X-H torsion

> <Gold.Protein.ActiveResidues>
 VAL166  LYS551  ARG553  GLY616  TRP617  ASP618  TYR619  PRO620  LYS621  CYS622 
 ASP623  PHE694  ASN695  SER759  ASP760  ASP761  ALA762  ILE779  LEU786  VAL792 
 PHE793  MET794  SER795  GLU796  ALA797  LYS798  CYS799  TRP800  GLU811  SER814 

> <Gold.Protein.RotatedAtoms>
  151.2690  135.0678  159.9126 H   0  0  0  0  0  0  0  0  0  0  0  0  # atno 6907 bound_to 6896
  152.5354  134.0151  159.7966 H   0  0  0  0  0  0  0  0  0  0  0  0  # atno 6908 bound_to 6896
  151.0386  133.5676  159.2684 H   0  0  0  0  0  0  0  0  0  0  0  0  # atno 6909 bound_to 6896
  144.7864  139.7433  143.6239 H   0  0  0  0  0  0  0  0  0  0  0  0  # atno 7974 bound_to 7965
  154.4008  140.1513  156.3104 H   0  0  0  0  0  0  0  0  0  0  0  0  # atno 8008 bound_to 7997
  155.8620  140.3453  155.5741 H   0  0  0  0  0  0  0  0  0  0  0  0  # atno 8009 bound_to 7997
  155.7869  140.0851  157.2020 H   0  0  0  0  0  0  0  0  0  0  0  0  # atno 8010 bound_to 7997
  140.3170  144.2752  150.6189 H   0  0  0  0  0  0  0  0  0  0  0  0  # atno 10167 bound_to 10162
  156.7847  130.5342  149.5745 H   0  0  0  0  0  0  0  0  0  0  0  0  # atno 10718 bound_to 10713
  154.3804  135.6075  153.5787 H   0  0  0  0  0  0  0  0  0  0  0  0  # atno 10763 bound_to 10752
  152.9788  135.5859  154.4417 H   0  0  0  0  0  0  0  0  0  0  0  0  # atno 10764 bound_to 10752
  154.4185  135.2845  155.1968 H   0  0  0  0  0  0  0  0  0  0  0  0  # atno 10765 bound_to 10752
  141.0494  133.6748  156.2967 H   0  0  0  0  0  0  0  0  0  0  0  0  # atno 11005 bound_to 11000
  146.2098  139.5447  142.9688 LP  0  0  0  0  0  0  0  0  0  0  0  0  # atno 17320 bound_to 7965
  145.5909  141.0369  143.2070 LP  0  0  0  0  0  0  0  0  0  0  0  0  # atno 17321 bound_to 7965
  140.5518  143.2205  151.7915 LP  0  0  0  0  0  0  0  0  0  0  0  0  # atno 17342 bound_to 10162
  139.4882  144.4467  151.9702 LP  0  0  0  0  0  0  0  0  0  0  0  0  # atno 17343 bound_to 10162
  156.1196  130.6100  151.0173 LP  0  0  0  0  0  0  0  0  0  0  0  0  # atno 17370 bound_to 10713
  157.6629  131.0877  150.7796 LP  0  0  0  0  0  0  0  0  0  0  0  0  # atno 17371 bound_to 10713
  140.6084  134.5483  157.5529 LP  0  0  0  0  0  0  0  0  0  0  0  0  # atno 17394 bound_to 11000
  139.9338  134.7914  156.0858 LP  0  0  0  0  0  0  0  0  0  0  0  0  # atno 17395 bound_to 11000

$$$$
