AV-unprocessed.smi:21|AV-procd|sdf|165|dock1
  -GOLD-   2262015403D 1   1.00000     0.00000
 Structure written by MMmdl.
 61 64  0  0  0  0  0  0  0  0  1 V2000
  153.2145  143.3275  162.5594 C   0  0  0  0  0  0  0  0  0  0  0  0
  152.4618  142.4590  161.7273 O   0  0  0  0  0  0  0  0  0  0  0  0
  153.0092  142.3092  160.4243 C   0  0  1  0  0  0  0  0  0  0  0  0
  152.4043  141.1044  159.6835 C   0  0  0  0  0  0  0  0  0  0  0  0
  151.9755  141.6764  158.3274 C   0  0  1  0  0  0  0  0  0  0  0  0
  150.8848  140.8461  157.6147 C   0  0  0  0  0  0  0  0  0  0  0  0
  151.4098  139.6278  156.9967 N   0  0  0  0  0  0  0  0  0  0  0  0
  151.9621  139.7366  155.6471 C   0  0  0  0  0  0  0  0  0  0  0  0
  150.9720  138.4066  157.4207 C   0  0  0  0  0  0  0  0  0  0  0  0
  150.5149  138.2892  158.6980 N   0  0  0  0  0  0  0  0  0  0  0  0
  150.0706  137.1201  159.1662 C   0  0  0  0  0  0  0  0  0  0  0  0
  149.9869  135.9492  158.5363 N   0  0  0  0  0  0  0  0  0  0  0  0
  150.4293  136.0511  157.2515 C   0  0  0  0  0  0  0  0  0  0  0  0
  150.9340  137.2246  156.6169 C   0  0  0  0  0  0  0  0  0  0  0  0
  151.2686  136.9222  155.3007 N   0  0  0  0  0  0  0  0  0  0  0  0
  150.9959  135.6539  155.1710 C   0  0  0  0  0  0  0  0  0  0  0  0
  150.4781  135.0540  156.2940 N   0  0  0  0  0  0  0  0  0  0  0  0
  150.0774  133.6658  156.4373 C   0  0  0  0  0  0  0  0  0  0  0  0
  151.0071  132.6925  155.6685 C   0  0  1  0  0  0  0  0  0  0  0  0
  152.3512  132.4981  156.4084 C   0  0  0  0  0  0  0  0  0  0  0  0
  152.1514  131.9820  157.7079 O   0  0  0  0  0  0  0  0  0  0  0  0
  150.3315  131.3354  155.3287 C   0  0  1  0  0  0  0  0  0  0  0  0
  149.2394  131.3597  154.2690 C   0  0  0  0  0  0  0  0  0  0  0  0
  149.2021  129.8995  153.8402 C   0  0  0  0  0  0  0  0  0  0  0  0
  150.5732  129.5327  153.8034 O   0  0  0  0  0  0  0  0  0  0  0  0
  151.2743  130.2258  154.8334 C   0  0  0  0  0  0  0  0  0  0  0  0
  151.5917  143.0450  158.6299 N   0  0  0  0  0  0  0  0  0  0  0  0
  151.4770  143.9015  157.4572 C   0  0  0  0  0  0  0  0  0  0  0  0
  152.6141  143.5088  159.5515 C   0  0  0  0  0  0  0  0  0  0  0  0
  154.0976  142.2432  160.4714 H   0  0  0  0  0  0  0  0  0  0  0  0
  152.8637  141.7077  157.6944 H   0  0  0  0  0  0  0  0  0  0  0  0
  152.7375  143.3985  163.5368 H   0  0  0  0  0  0  0  0  0  0  0  0
  153.2643  144.3319  162.1370 H   0  0  0  0  0  0  0  0  0  0  0  0
  154.2306  142.9617  162.7103 H   0  0  0  0  0  0  0  0  0  0  0  0
  153.1066  140.2761  159.5851 H   0  0  0  0  0  0  0  0  0  0  0  0
  151.5345  140.7418  160.2280 H   0  0  0  0  0  0  0  0  0  0  0  0
  150.0581  140.6488  158.2933 H   0  0  0  0  0  0  0  0  0  0  0  0
  150.4501  141.4419  156.8119 H   0  0  0  0  0  0  0  0  0  0  0  0
  152.7691  139.0176  155.5012 H   0  0  0  0  0  0  0  0  0  0  0  0
  152.3688  140.7298  155.4603 H   0  0  0  0  0  0  0  0  0  0  0  0
  151.1906  139.5507  154.8989 H   0  0  0  0  0  0  0  0  0  0  0  0
  149.7334  137.1247  160.1924 H   0  0  0  0  0  0  0  0  0  0  0  0
  151.1559  135.1219  154.2445 H   0  0  0  0  0  0  0  0  0  0  0  0
  150.0647  133.4254  157.5004 H   0  0  0  0  0  0  0  0  0  0  0  0
  149.0468  133.5877  156.0932 H   0  0  0  0  0  0  0  0  0  0  0  0
  151.2396  133.1649  154.7125 H   0  0  0  0  0  0  0  0  0  0  0  0
  152.9912  131.7919  155.8805 H   0  0  0  0  0  0  0  0  0  0  0  0
  152.9000  133.4380  156.4726 H   0  0  0  0  0  0  0  0  0  0  0  0
  151.2938  131.5866  157.7465 H   0  0  0  0  0  0  0  0  0  0  0  0
  149.8733  130.9452  156.2386 H   0  0  0  0  0  0  0  0  0  0  0  0
  148.2806  131.7125  154.6501 H   0  0  0  0  0  0  0  0  0  0  0  0
  149.5162  131.9759  153.4144 H   0  0  0  0  0  0  0  0  0  0  0  0
  148.6817  129.2896  154.5805 H   0  0  0  0  0  0  0  0  0  0  0  0
  148.7212  129.7545  152.8727 H   0  0  0  0  0  0  0  0  0  0  0  0
  152.2123  130.6049  154.4302 H   0  0  0  0  0  0  0  0  0  0  0  0
  151.5236  129.5401  155.6441 H   0  0  0  0  0  0  0  0  0  0  0  0
  151.2392  144.9240  157.7522 H   0  0  0  0  0  0  0  0  0  0  0  0
  150.6807  143.5572  156.7977 H   0  0  0  0  0  0  0  0  0  0  0  0
  152.4070  143.9205  156.8877 H   0  0  0  0  0  0  0  0  0  0  0  0
  152.2643  144.3587  160.1385 H   0  0  0  0  0  0  0  0  0  0  0  0
  153.4929  143.8385  158.9943 H   0  0  0  0  0  0  0  0  0  0  0  0
  1  2  1  0  0  0  0
  1 32  1  0  0  0  0
  1 33  1  0  0  0  0
  1 34  1  0  0  0  0
  2  3  1  0  0  0  0
  3 30  1  0  0  0  0
  3 29  1  0  0  0  0
  3  4  1  0  0  0  0
  4  5  1  0  0  0  0
  4 35  1  0  0  0  0
  4 36  1  0  0  0  0
  5 31  1  0  0  0  0
  5  6  1  0  0  0  0
  5 27  1  0  0  0  0
  6  7  1  0  0  0  0
  6 37  1  0  0  0  0
  6 38  1  0  0  0  0
  7  8  1  0  0  0  0
  7  9  1  0  0  0  0
  8 39  1  0  0  0  0
  8 40  1  0  0  0  0
  8 41  1  0  0  0  0
  9 14  1  0  0  0  0
  9 10  2  0  0  0  0
 10 11  1  0  0  0  0
 11 12  2  0  0  0  0
 11 42  1  0  0  0  0
 12 13  1  0  0  0  0
 13 17  1  0  0  0  0
 13 14  2  0  0  0  0
 14 15  1  0  0  0  0
 15 16  2  0  0  0  0
 16 17  1  0  0  0  0
 16 43  1  0  0  0  0
 17 18  1  0  0  0  0
 18 19  1  0  0  0  0
 18 44  1  0  0  0  0
 18 45  1  0  0  0  0
 19 20  1  0  0  0  0
 19 22  1  0  0  0  0
 19 46  1  0  0  0  0
 20 21  1  0  0  0  0
 20 47  1  0  0  0  0
 20 48  1  0  0  0  0
 21 49  1  0  0  0  0
 22 26  1  0  0  0  0
 22 23  1  0  0  0  0
 22 50  1  0  0  0  0
 23 24  1  0  0  0  0
 23 51  1  0  0  0  0
 23 52  1  0  0  0  0
 24 25  1  0  0  0  0
 24 53  1  0  0  0  0
 24 54  1  0  0  0  0
 25 26  1  0  0  0  0
 26 55  1  0  0  0  0
 26 56  1  0  0  0  0
 27 28  1  0  0  0  0
 27 29  1  0  0  0  0
 28 57  1  0  0  0  0
 28 58  1  0  0  0  0
 28 59  1  0  0  0  0
 29 60  1  0  0  0  0
 29 61  1  0  0  0  0
M  END
> <s_m_source_file>
AV-unprocessed.smi

> <i_m_source_file_index>
21

> <i_lp_mmshare_version>
43012

> <i_f3d_flags>
0

> <s_epik_input>
W0NIM11PW0NASF0xW0NIMl1bQ0BIXShOKFtDSDNdKVtDSDJdMSlbQ0gyXU4oW0NIM10pYyhuW2NIXW4yKWMoYzIzKW5bY0hdbjNbQ0gyXVtDQEhdKFtDSDJdW09IXSlbQ0BASF00W0NIMl1bQ0gyXU9bQ0gyXTQ=

> <s_epik_cmdline>
J2VwaWtfcHl0aG9uJywgJy1waCcsICc3LjAnLCAnLXRuJywgJzgnLCAnLW1hJywgJzIwMCcsICctbWV0YWxfYmluZGluZycsICctaW1hZScsICc8aW5maWxlLm1hZT4nLCAnLW9tYWUnLCAnPG91dGZpbGUubWFlPic=

> <r_lp_tautomer_probability>
1

> <r_epik_Ionization_Penalty>
2.17574

> <r_epik_Ionization_Penalty_Charging>
0

> <r_epik_Ionization_Penalty_Neutral>
2.17574

> <r_epik_State_Penalty>
2.31336

> <r_epik_Charging_Adjusted_Penalty>
2.31336

> <i_epik_Tot_Q>
0

> <i_epik_Tot_abs_Q>
0

> <r_epik_Metal_State_Penalty>
2.31025

> <b_epik_Metal_Only>
0

> <s_lp_Force_Field>
OPLS_2005

> <r_lp_Energy>
71.9314

> <b_lp_Chiralities_Consistent>
1

> <s_lp_Variant>
AV-unprocessed.smi:21-45

> <Gold.Version>
5.8.1

> <Gold.Id.Protein>
6NUR|6NUR_protein|mol2

> <Gold.PLP.Fitness>
53.2231

> <Gold.PLP.PLP>
-47.8983

> <Gold.PLP.part.hbond>
-3.1379

> <Gold.PLP.part.metal>
0.0000

> <Gold.PLP.part.buried>
-4.9457

> <Gold.PLP.part.nonpolar>
-40.7884

> <Gold.PLP.part.repulsive>
0.3581

> <Gold.PLP.ligand.clash>
0.0000

> <Gold.PLP.ligand.torsion>
1.3623

> <Gold.PLP.Chemscore.Hbond>
2.3448

> <Gold.PLP.Chemscore.CHOScore>
0.0000

> <Gold.PLP.Chemscore.Metal>
0.0000

> <Gold.Chemscore.Hbonds>
donor molecule, donor type, donor heavy atom, donor atom, acceptor molecule, acceptor atom, score
      P1  H  6896  6908       L1    21  0.60
      P1  H  6896  6909       L1    12  1.00
      L1  C    16    43       P1  7949  0.15

> <Gold.PLP.Chemscore.Internal.Correction>
1.0152

> <Gold.Rescore>
     Score         DG    S(hbond)    S(metal)    S(lipo)     H(rot)  DE(clash)    DE(int)     intcor
     14.00     -16.63       1.78        0.00     110.05       3.00       0.07       2.55       ----

> <Gold.Chemscore.Fitness>
14.0038

> <Gold.Chemscore.DG>
-16.6276

> <Gold.Chemscore.ZeroCoef>
-5.4800

> <Gold.Chemscore.Hbond>
1.7842

> <Gold.Chemscore.Metal>
0.0000

> <Gold.Chemscore.Lipo>
110.0542

> <Gold.Chemscore.Internal_Hbond>
0.0000

> <Gold.Chemscore.DEClash>
0.0736

> <Gold.Chemscore.DEInternal>
2.5502

> <Gold.Chemscore.Rot>
3.0031

> <Gold.Chemscore.Internal.Correction>
   9.000000E+99

> <Gold.Chemscore.Hbonds>
donor molecule, donor type, donor heavy atom, donor atom, acceptor molecule, acceptor atom, score
      P1  H  6896  6908       L1    21  0.06
      P1  H  6896  6909       L1    12  0.67

> <Gold.Chemscore.Hbond.Weighted>
-5.9593

> <Gold.Chemscore.Metal.Weighted>
-0.0000

> <Gold.Chemscore.Lipo.Weighted>
-12.8763

> <Gold.Chemscore.Internal_Hbond.Weighted>
0.0000

> <Gold.Chemscore.DEClash.Weighted>
0.0736

> <Gold.Chemscore.DEInternal.Weighted>
2.5502

> <Gold.Chemscore.Rot.Weighted>
7.6880

> <Gold.Chemscore.Internal.Correction.Weighted>
   9.000000E+99

> <Gold.Protein.RotatedTorsions>
[ 6907 6896 6895 6894 ] final   53.13 input  -60.11 | X-H torsion
[ 7974 7965 7964 7962 ] final  -33.56 input  175.53 | X-H torsion
[ 8008 7997 7996 7995 ] final -161.85 input   59.86 | X-H torsion
[ 10167 10162 10161 10158 ] final   28.84 input  -65.29 | X-H torsion
[ 10718 10713 10712 10709 ] final -163.80 input   66.30 | X-H torsion
[ 10763 10752 10751 10750 ] final -152.31 input  -60.55 | X-H torsion
[ 11005 11000 10999 10996 ] final  -58.15 input  -57.11 | X-H torsion

> <Gold.Protein.ActiveResidues>
 VAL166  LYS551  ARG553  GLY616  TRP617  ASP618  TYR619  PRO620  LYS621  CYS622 
 ASP623  PHE694  ASN695  SER759  ASP760  ASP761  ALA762  ILE779  LEU786  VAL792 
 PHE793  MET794  SER795  GLU796  ALA797  LYS798  CYS799  TRP800  GLU811  SER814 

> <Gold.Protein.RotatedAtoms>
  152.3305  134.7265  160.0290 H   0  0  0  0  0  0  0  0  0  0  0  0  # atno 6907 bound_to 6896
  151.7683  133.3334  159.3445 H   0  0  0  0  0  0  0  0  0  0  0  0  # atno 6908 bound_to 6896
  150.7420  134.5974  159.6063 H   0  0  0  0  0  0  0  0  0  0  0  0  # atno 6909 bound_to 6896
  146.0900  140.5932  142.8869 H   0  0  0  0  0  0  0  0  0  0  0  0  # atno 7974 bound_to 7965
  155.7982  140.0888  157.1971 H   0  0  0  0  0  0  0  0  0  0  0  0  # atno 8008 bound_to 7997
  154.3983  140.1477  156.3302 H   0  0  0  0  0  0  0  0  0  0  0  0  # atno 8009 bound_to 7997
  155.8489  140.3435  155.5683 H   0  0  0  0  0  0  0  0  0  0  0  0  # atno 8010 bound_to 7997
  140.4817  144.0605  150.6267 H   0  0  0  0  0  0  0  0  0  0  0  0  # atno 10167 bound_to 10162
  156.6299  130.8925  151.2975 H   0  0  0  0  0  0  0  0  0  0  0  0  # atno 10718 bound_to 10713
  154.8002  135.3239  154.7569 H   0  0  0  0  0  0  0  0  0  0  0  0  # atno 10763 bound_to 10752
  153.8238  135.6885  153.4828 H   0  0  0  0  0  0  0  0  0  0  0  0  # atno 10764 bound_to 10752
  153.1714  135.4621  154.9851 H   0  0  0  0  0  0  0  0  0  0  0  0  # atno 10765 bound_to 10752
  141.1195  133.6611  156.4877 H   0  0  0  0  0  0  0  0  0  0  0  0  # atno 11005 bound_to 11000
  144.7353  140.4791  143.6908 LP  0  0  0  0  0  0  0  0  0  0  0  0  # atno 17320 bound_to 7965
  145.6056  139.1508  143.3104 LP  0  0  0  0  0  0  0  0  0  0  0  0  # atno 17321 bound_to 7965
  140.3849  143.2783  152.0128 LP  0  0  0  0  0  0  0  0  0  0  0  0  # atno 17342 bound_to 10162
  139.4835  144.6125  151.7408 LP  0  0  0  0  0  0  0  0  0  0  0  0  # atno 17343 bound_to 10162
  157.7203  130.9549  150.1412 LP  0  0  0  0  0  0  0  0  0  0  0  0  # atno 17370 bound_to 10713
  156.2243  130.3676  149.8519 LP  0  0  0  0  0  0  0  0  0  0  0  0  # atno 17371 bound_to 10713
  140.4549  134.6895  157.5057 LP  0  0  0  0  0  0  0  0  0  0  0  0  # atno 17394 bound_to 11000
  140.0141  134.6645  155.9335 LP  0  0  0  0  0  0  0  0  0  0  0  0  # atno 17395 bound_to 11000

$$$$
