AV-unprocessed.smi:1987|AV-procd|sdf|8054|dock8
  -GOLD-   2272010253D 1   1.00000     0.00000
 Structure written by MMmdl.
 37 39  0  0  0  0  0  0  0  0  2 V2000
  150.2169  140.0217  154.4920 O   0  0  0  0  0  0  0  0  0  0  0  0
  149.9305  138.8924  154.0965 C   0  0  0  0  0  0  0  0  0  0  0  0
  150.9845  137.7867  154.0989 C   0  0  0  0  0  0  0  0  0  0  0  0
  151.8623  137.9448  155.2438 N   0  0  0  0  0  0  0  0  0  0  0  0
  152.5088  139.0148  155.7109 C   0  0  0  0  0  0  0  0  0  0  0  0
  153.2610  138.7120  156.7581 N   0  0  0  0  0  0  0  0  0  0  0  0
  153.0358  137.3561  156.9272 N   0  0  0  0  0  0  0  0  0  0  0  0
  152.2068  136.8951  156.0318 N   0  0  0  0  0  0  0  0  0  0  0  0
  148.7309  138.5642  153.5935 N   0  0  0  0  0  0  0  0  0  0  0  0
  147.6646  139.5073  153.2801 C   0  0  0  0  0  0  0  0  0  0  0  0
  146.3811  138.7768  152.8353 C   0  0  2  0  0  0  0  0  0  0  0  0
  145.9003  137.6979  153.8031 C   0  0  0  0  0  0  0  0  0  0  0  0
  145.0279  136.7761  152.9395 C   0  0  0  0  0  0  0  0  0  0  0  0
  145.3757  137.0542  151.5260 N   0  3  2  0  0  0  0  0  0  0  0  0
  145.6024  135.8479  150.7028 C   0  0  0  0  0  0  0  0  0  0  0  0
  144.5816  134.7597  150.9370 C   0  0  0  0  0  0  0  0  0  0  0  0
  145.9772  134.6273  151.5084 C   0  0  0  0  0  0  0  0  0  0  0  0
  146.5080  138.0003  151.5232 C   0  0  0  0  0  0  0  0  0  0  0  0
  150.5059  136.8080  154.1516 H   0  0  0  0  0  0  0  0  0  0  0  0
  151.5721  137.8159  153.1799 H   0  0  0  0  0  0  0  0  0  0  0  0
  152.4436  140.0016  155.2767 H   0  0  0  0  0  0  0  0  0  0  0  0
  148.5844  137.6044  153.3146 H   0  0  0  0  0  0  0  0  0  0  0  0
  147.4700  140.0988  154.1751 H   0  0  0  0  0  0  0  0  0  0  0  0
  147.9948  140.2066  152.5100 H   0  0  0  0  0  0  0  0  0  0  0  0
  145.5770  139.5058  152.7198 H   0  0  0  0  0  0  0  0  0  0  0  0
  146.7516  137.1345  154.1884 H   0  0  0  0  0  0  0  0  0  0  0  0
  145.3603  138.1089  154.6568 H   0  0  0  0  0  0  0  0  0  0  0  0
  145.1867  135.7298  153.2052 H   0  0  0  0  0  0  0  0  0  0  0  0
  143.9694  136.9955  153.0828 H   0  0  0  0  0  0  0  0  0  0  0  0
  146.0213  136.0078  149.7105 H   0  0  0  0  0  0  0  0  0  0  0  0
  143.7683  134.9572  151.6336 H   0  0  0  0  0  0  0  0  0  0  0  0
  144.3257  134.1214  150.0936 H   0  0  0  0  0  0  0  0  0  0  0  0
  146.6401  133.9019  151.0408 H   0  0  0  0  0  0  0  0  0  0  0  0
  146.0928  134.7365  152.5853 H   0  0  0  0  0  0  0  0  0  0  0  0
  146.4781  138.6472  150.6457 H   0  0  0  0  0  0  0  0  0  0  0  0
  147.4503  137.4496  151.5053 H   0  0  0  0  0  0  0  0  0  0  0  0
  144.5876  137.5482  151.1320 H   0  0  0  0  0  0  0  0  0  0  0  0
  1  2  2  0  0  0  0
  2  3  1  0  0  0  0
  2  9  1  0  0  0  0
  3  4  1  0  0  0  0
  3 19  1  0  0  0  0
  3 20  1  0  0  0  0
  4  8  1  0  0  0  0
  4  5  1  0  0  0  0
  5  6  2  0  0  0  0
  5 21  1  0  0  0  0
  6  7  1  0  0  0  0
  7  8  2  0  0  0  0
  9 10  1  0  0  0  0
  9 22  1  0  0  0  0
 10 11  1  0  0  0  0
 10 23  1  0  0  0  0
 10 24  1  0  0  0  0
 11 18  1  0  0  0  0
 11 12  1  0  0  0  0
 11 25  1  0  0  0  0
 12 13  1  0  0  0  0
 12 26  1  0  0  0  0
 12 27  1  0  0  0  0
 13 14  1  0  0  0  0
 13 28  1  0  0  0  0
 13 29  1  0  0  0  0
 14 15  1  0  0  0  0
 14 18  1  0  0  0  0
 14 37  1  0  0  0  0
 15 17  1  0  0  0  0
 15 16  1  0  0  0  0
 15 30  1  0  0  0  0
 16 17  1  0  0  0  0
 16 31  1  0  0  0  0
 16 32  1  0  0  0  0
 17 33  1  0  0  0  0
 17 34  1  0  0  0  0
 18 35  1  0  0  0  0
 18 36  1  0  0  0  0
M  CHG  1  14   1
M  END
> <s_m_source_file>
AV-unprocessed.smi

> <i_m_source_file_index>
1987

> <i_lp_mmshare_version>
43012

> <i_f3d_flags>
0

> <s_epik_input>
bjFubltjSF1uMVtDSDJdQyg9TylbTkhdW0NIMl1bQ0BASF0yW0NIMl1bQ0gyXU4oW0NIMl0yKVtDSF0zW0NIMl1bQ0gyXTM=

> <s_epik_cmdline>
J2VwaWtfcHl0aG9uJywgJy1waCcsICc3LjAnLCAnLXRuJywgJzgnLCAnLW1hJywgJzIwMCcsICctbWV0YWxfYmluZGluZycsICctaW1hZScsICc8aW5maWxlLm1hZT4nLCAnLW9tYWUnLCAnPG91dGZpbGUubWFlPic=

> <r_lp_tautomer_probability>
1

> <r_epik_Ionization_Penalty>
0.000242849

> <r_epik_Ionization_Penalty_Charging>
0.000241326

> <r_epik_Ionization_Penalty_Neutral>
1.52322e-06

> <r_epik_State_Penalty>
-0

> <r_epik_Charging_Adjusted_Penalty>
0.000241326

> <i_epik_Tot_Q>
1

> <i_epik_Tot_abs_Q>
1

> <r_epik_Metal_State_Penalty>
-0

> <b_epik_Metal_Only>
0

> <s_lp_Force_Field>
OPLS_2005

> <r_lp_Energy>
37.5939

> <b_lp_Chiralities_Consistent>
1

> <s_lp_Variant>
AV-unprocessed.smi:1987-1

> <Gold.Version>
5.8.1

> <Gold.Id.Protein>
6NUR|6NUR_protein|mol2

> <Gold.PLP.Fitness>
44.4105

> <Gold.PLP.PLP>
-30.9372

> <Gold.PLP.part.hbond>
-6.0000

> <Gold.PLP.part.metal>
0.0000

> <Gold.PLP.part.buried>
1.4990

> <Gold.PLP.part.nonpolar>
-27.3407

> <Gold.PLP.part.repulsive>
0.1992

> <Gold.PLP.ligand.clash>
0.0000

> <Gold.PLP.ligand.torsion>
1.1893

> <Gold.PLP.Chemscore.Hbond>
4.8560

> <Gold.PLP.Chemscore.CHOScore>
0.0000

> <Gold.PLP.Chemscore.Metal>
0.0000

> <Gold.Chemscore.Hbonds>
donor molecule, donor type, donor heavy atom, donor atom, acceptor molecule, acceptor atom, score
      L1  H     9    22       P1  7948  0.86
      L1  H    14    37       P1 10171  1.00
      P1  H  7989  7998       L1     1  1.00
      P1  H  7997  8010       L1     6  0.95
      P1  H 10752 10763       L1     8  1.00

> <Gold.PLP.Chemscore.Internal.Correction>
1.2839

> <Gold.Rescore>
     Score         DG    S(hbond)    S(metal)    S(lipo)     H(rot)  DE(clash)    DE(int)     intcor
     15.51     -19.06       4.17        0.00      54.43       2.62       0.55       3.00       ----

> <Gold.Chemscore.Fitness>
15.5110

> <Gold.Chemscore.DG>
-19.0602

> <Gold.Chemscore.ZeroCoef>
-5.4800

> <Gold.Chemscore.Hbond>
4.1709

> <Gold.Chemscore.Metal>
0.0000

> <Gold.Chemscore.Lipo>
54.4277

> <Gold.Chemscore.Internal_Hbond>
0.0000

> <Gold.Chemscore.DEClash>
0.5487

> <Gold.Chemscore.DEInternal>
3.0005

> <Gold.Chemscore.Rot>
2.6244

> <Gold.Chemscore.Internal.Correction>
   9.000000E+99

> <Gold.Chemscore.Hbonds>
donor molecule, donor type, donor heavy atom, donor atom, acceptor molecule, acceptor atom, score
      L1  H     9    22       P1  7948  0.80
      L1  H    14    37       P1 10171  0.94
      P1  H  7989  7998       L1     1  0.87
      P1  H  7997  8010       L1     6  0.21
      P1  H 10752 10763       L1     8  0.49

> <Gold.Chemscore.Hbond.Weighted>
-13.9308

> <Gold.Chemscore.Metal.Weighted>
-0.0000

> <Gold.Chemscore.Lipo.Weighted>
-6.3680

> <Gold.Chemscore.Internal_Hbond.Weighted>
0.0000

> <Gold.Chemscore.DEClash.Weighted>
0.5487

> <Gold.Chemscore.DEInternal.Weighted>
3.0005

> <Gold.Chemscore.Rot.Weighted>
6.7186

> <Gold.Chemscore.Internal.Correction.Weighted>
   9.000000E+99

> <Gold.Protein.RotatedTorsions>
[ 6907 6896 6895 6894 ] final  148.85 input  -60.11 | X-H torsion
[ 7974 7965 7964 7962 ] final -142.88 input  175.53 | X-H torsion
[ 8008 7997 7996 7995 ] final   57.47 input   59.86 | X-H torsion
[ 10167 10162 10161 10158 ] final   17.82 input  -65.29 | X-H torsion
[ 10718 10713 10712 10709 ] final -116.60 input   66.30 | X-H torsion
[ 10763 10752 10751 10750 ] final   81.53 input  -60.55 | X-H torsion
[ 11005 11000 10999 10996 ] final -151.38 input  -57.11 | X-H torsion

> <Gold.Protein.ActiveResidues>
 VAL166  LYS551  ARG553  GLY616  TRP617  ASP618  TYR619  PRO620  LYS621  CYS622 
 ASP623  PHE694  ASN695  SER759  ASP760  ASP761  ALA762  ILE779  LEU786  VAL792 
 PHE793  MET794  SER795  GLU796  ALA797  LYS798  CYS799  TRP800  GLU811  SER814 

> <Gold.Protein.RotatedAtoms>
  152.1360  133.4435  159.4743 H   0  0  0  0  0  0  0  0  0  0  0  0  # atno 6907 bound_to 6896
  150.6882  134.2364  159.4464 H   0  0  0  0  0  0  0  0  0  0  0  0  # atno 6908 bound_to 6896
  152.0251  134.9800  160.0622 H   0  0  0  0  0  0  0  0  0  0  0  0  # atno 6909 bound_to 6896
  144.8410  140.5903  143.5452 H   0  0  0  0  0  0  0  0  0  0  0  0  # atno 7974 bound_to 7965
  155.5343  140.3483  155.4433 H   0  0  0  0  0  0  0  0  0  0  0  0  # atno 8008 bound_to 7997
  156.0696  140.1360  156.9871 H   0  0  0  0  0  0  0  0  0  0  0  0  # atno 8009 bound_to 7997
  154.4521  140.0968  156.6624 H   0  0  0  0  0  0  0  0  0  0  0  0  # atno 8010 bound_to 7997
  140.5698  143.9182  150.6704 H   0  0  0  0  0  0  0  0  0  0  0  0  # atno 10167 bound_to 10162
  156.0975  130.6144  150.9057 H   0  0  0  0  0  0  0  0  0  0  0  0  # atno 10718 bound_to 10713
  153.1125  135.4762  154.9059 H   0  0  0  0  0  0  0  0  0  0  0  0  # atno 10763 bound_to 10752
  154.7495  135.3102  154.8586 H   0  0  0  0  0  0  0  0  0  0  0  0  # atno 10764 bound_to 10752
  153.9171  135.6859  153.4802 H   0  0  0  0  0  0  0  0  0  0  0  0  # atno 10765 bound_to 10752
  140.7302  134.3629  157.5168 H   0  0  0  0  0  0  0  0  0  0  0  0  # atno 11005 bound_to 11000
  145.4693  139.1505  143.3823 LP  0  0  0  0  0  0  0  0  0  0  0  0  # atno 17320 bound_to 7965
  146.2703  140.4826  142.8817 LP  0  0  0  0  0  0  0  0  0  0  0  0  # atno 17321 bound_to 7965
  140.2654  143.3494  152.1285 LP  0  0  0  0  0  0  0  0  0  0  0  0  # atno 17342 bound_to 10162
  139.5112  144.6896  151.5795 LP  0  0  0  0  0  0  0  0  0  0  0  0  # atno 17343 bound_to 10162
  157.6139  131.0934  150.8745 LP  0  0  0  0  0  0  0  0  0  0  0  0  # atno 17370 bound_to 10713
  156.8880  130.5203  149.5287 LP  0  0  0  0  0  0  0  0  0  0  0  0  # atno 17371 bound_to 10713
  139.8828  134.9013  156.2808 LP  0  0  0  0  0  0  0  0  0  0  0  0  # atno 17394 bound_to 11000
  140.9927  133.7199  156.0839 LP  0  0  0  0  0  0  0  0  0  0  0  0  # atno 17395 bound_to 11000

$$$$
