AV-unprocessed.smi:1570|AV-procd|sdf|6325|dock8
  -GOLD-   22720 6533D 1   1.00000     0.00000
 Structure written by MMmdl.
 52 54  0  0  0  0  0  0  0  0  2 V2000
  149.4562  130.1484  156.3229 C   0  0  0  0  0  0  0  0  0  0  0  0
  148.1212  130.7025  155.8101 C   0  0  0  0  0  0  0  0  0  0  0  0
  148.3050  131.9825  155.1311 N   0  0  0  0  0  0  0  0  0  0  0  0
  148.9121  133.0827  155.6343 C   0  0  0  0  0  0  0  0  0  0  0  0
  149.4192  133.1849  156.7515 O   0  0  0  0  0  0  0  0  0  0  0  0
  148.8850  134.0488  154.6859 N   0  0  0  0  0  0  0  0  0  0  0  0
  149.4435  135.3940  154.8041 C   0  0  0  0  0  0  0  0  0  0  0  0
  148.3347  136.4606  154.9173 C   0  0  1  0  0  0  0  0  0  0  0  0
  147.5628  136.1717  156.0667 O   0  0  0  0  0  0  0  0  0  0  0  0
  148.9211  137.8766  155.0904 C   0  0  0  0  0  0  0  0  0  0  0  0
  150.0638  138.1395  154.1736 N   0  3  1  0  0  0  0  0  0  0  0  0
  149.9743  139.4434  153.4727 C   0  0  0  0  0  0  0  0  0  0  0  0
  150.3838  140.6069  154.3988 C   0  0  2  0  0  0  0  0  0  0  0  0
  150.3817  141.9530  153.6664 C   0  0  0  0  0  0  0  0  0  0  0  0
  151.7014  140.3692  154.8823 O   0  0  0  0  0  0  0  0  0  0  0  0
  151.8004  139.1782  155.6561 C   0  0  2  0  0  0  0  0  0  0  0  0
  153.2373  139.0678  156.1774 C   0  0  0  0  0  0  0  0  0  0  0  0
  151.4098  137.9689  154.7795 C   0  0  0  0  0  0  0  0  0  0  0  0
  148.2696  133.5429  153.5322 C   0  0  0  0  0  0  0  0  0  0  0  0
  148.0240  134.1314  152.2793 C   0  0  0  0  0  0  0  0  0  0  0  0
  147.3825  133.3321  151.3041 C   0  0  0  0  0  0  0  0  0  0  0  0
  147.0094  131.9937  151.5919 C   0  0  0  0  0  0  0  0  0  0  0  0
  147.2693  131.4257  152.8611 C   0  0  0  0  0  0  0  0  0  0  0  0
  147.9059  132.2420  153.8121 C   0  0  0  0  0  0  0  0  0  0  0  0
  149.3108  129.1926  156.8263 H   0  0  0  0  0  0  0  0  0  0  0  0
  149.9202  130.8318  157.0347 H   0  0  0  0  0  0  0  0  0  0  0  0
  150.1579  129.9889  155.5035 H   0  0  0  0  0  0  0  0  0  0  0  0
  147.6572  129.9896  155.1277 H   0  0  0  0  0  0  0  0  0  0  0  0
  147.4245  130.8207  156.6418 H   0  0  0  0  0  0  0  0  0  0  0  0
  150.1472  135.4554  155.6354 H   0  0  0  0  0  0  0  0  0  0  0  0
  150.0407  135.5768  153.9093 H   0  0  0  0  0  0  0  0  0  0  0  0
  147.6934  136.4233  154.0374 H   0  0  0  0  0  0  0  0  0  0  0  0
  148.1436  136.0778  156.8065 H   0  0  0  0  0  0  0  0  0  0  0  0
  148.1275  138.6027  154.9066 H   0  0  0  0  0  0  0  0  0  0  0  0
  149.2341  138.0316  156.1229 H   0  0  0  0  0  0  0  0  0  0  0  0
  150.6415  139.4122  152.6101 H   0  0  0  0  0  0  0  0  0  0  0  0
  148.9701  139.5952  153.0752 H   0  0  0  0  0  0  0  0  0  0  0  0
  149.6964  140.6746  155.2437 H   0  0  0  0  0  0  0  0  0  0  0  0
  149.3895  142.1889  153.2812 H   0  0  0  0  0  0  0  0  0  0  0  0
  151.0751  141.9462  152.8250 H   0  0  0  0  0  0  0  0  0  0  0  0
  150.6782  142.7609  154.3356 H   0  0  0  0  0  0  0  0  0  0  0  0
  151.1342  139.2542  156.5161 H   0  0  0  0  0  0  0  0  0  0  0  0
  153.3650  138.1751  156.7902 H   0  0  0  0  0  0  0  0  0  0  0  0
  153.4968  139.9311  156.7909 H   0  0  0  0  0  0  0  0  0  0  0  0
  153.9537  139.0157  155.3569 H   0  0  0  0  0  0  0  0  0  0  0  0
  151.4728  137.0444  155.3516 H   0  0  0  0  0  0  0  0  0  0  0  0
  152.1294  137.8679  153.9658 H   0  0  0  0  0  0  0  0  0  0  0  0
  148.3145  135.1486  152.0628 H   0  0  0  0  0  0  0  0  0  0  0  0
  147.1768  133.7451  150.3274 H   0  0  0  0  0  0  0  0  0  0  0  0
  146.5229  131.4002  150.8317 H   0  0  0  0  0  0  0  0  0  0  0  0
  146.9921  130.4059  153.0838 H   0  0  0  0  0  0  0  0  0  0  0  0
  149.9814  137.4344  153.4545 H   0  0  0  0  0  0  0  0  0  0  0  0
  1  2  1  0  0  0  0
  1 25  1  0  0  0  0
  1 26  1  0  0  0  0
  1 27  1  0  0  0  0
  2  3  1  0  0  0  0
  2 28  1  0  0  0  0
  2 29  1  0  0  0  0
  3 24  1  0  0  0  0
  3  4  1  0  0  0  0
  4  5  2  0  0  0  0
  4  6  1  0  0  0  0
  6  7  1  0  0  0  0
  6 19  1  0  0  0  0
  7  8  1  0  0  0  0
  7 30  1  0  0  0  0
  7 31  1  0  0  0  0
  8  9  1  0  0  0  0
  8 10  1  0  0  0  0
  8 32  1  0  0  0  0
  9 33  1  0  0  0  0
 10 11  1  0  0  0  0
 10 34  1  0  0  0  0
 10 35  1  0  0  0  0
 11 18  1  0  0  0  0
 11 12  1  0  0  0  0
 11 52  1  0  0  0  0
 12 13  1  0  0  0  0
 12 36  1  0  0  0  0
 12 37  1  0  0  0  0
 13 14  1  0  0  0  0
 13 15  1  0  0  0  0
 13 38  1  0  0  0  0
 14 39  1  0  0  0  0
 14 40  1  0  0  0  0
 14 41  1  0  0  0  0
 15 16  1  0  0  0  0
 16 17  1  0  0  0  0
 16 18  1  0  0  0  0
 16 42  1  0  0  0  0
 17 43  1  0  0  0  0
 17 44  1  0  0  0  0
 17 45  1  0  0  0  0
 18 46  1  0  0  0  0
 18 47  1  0  0  0  0
 19 24  2  0  0  0  0
 19 20  1  0  0  0  0
 20 21  2  0  0  0  0
 20 48  1  0  0  0  0
 21 22  1  0  0  0  0
 21 49  1  0  0  0  0
 22 23  2  0  0  0  0
 22 50  1  0  0  0  0
 23 24  1  0  0  0  0
 23 51  1  0  0  0  0
M  CHG  1  11   1
M  END
> <s_m_source_file>
AV-unprocessed.smi

> <i_m_source_file_index>
1570

> <i_lp_mmshare_version>
43012

> <i_f3d_flags>
0

> <s_epik_input>
W2NIXTFbY0hdW2NIXVtjSF1jKGMxMiluKFtDSDJdW0NIM10pYyg9TyluMltDSDJdW0NASF0oW09IXSlbQ0gyXU4zW0NIMl1bQ0BASF0oW0NIM10pT1tDQEBIXShbQ0gzXSlbQ0gyXTM=

> <s_epik_cmdline>
J2VwaWtfcHl0aG9uJywgJy1waCcsICc3LjAnLCAnLXRuJywgJzgnLCAnLW1hJywgJzIwMCcsICctbWV0YWxfYmluZGluZycsICctaW1hZScsICc8aW5maWxlLm1hZT4nLCAnLW9tYWUnLCAnPG91dGZpbGUubWFlPic=

> <r_epik_Ionization_Penalty>
0.706332

> <r_epik_Ionization_Penalty_Charging>
0.706318

> <r_epik_Ionization_Penalty_Neutral>
1.42224e-05

> <r_epik_State_Penalty>
0.729493

> <r_epik_Charging_Adjusted_Penalty>
1.43581

> <i_epik_Tot_Q>
1

> <i_epik_Tot_abs_Q>
1

> <r_epik_Metal_State_Penalty>
0.729493

> <b_epik_Metal_Only>
0

> <s_lp_Force_Field>
OPLS_2005

> <r_lp_Energy>
54.0737

> <b_lp_Chiralities_Consistent>
1

> <s_lp_Variant>
AV-unprocessed.smi:1570-14

> <Gold.Version>
5.8.1

> <Gold.Id.Protein>
6NUR|6NUR_protein|mol2

> <Gold.PLP.Fitness>
51.7477

> <Gold.PLP.PLP>
-44.4766

> <Gold.PLP.part.hbond>
-2.0000

> <Gold.PLP.part.metal>
0.0000

> <Gold.PLP.part.buried>
0.0236

> <Gold.PLP.part.nonpolar>
-42.5928

> <Gold.PLP.part.repulsive>
0.0955

> <Gold.PLP.ligand.clash>
0.0000

> <Gold.PLP.ligand.torsion>
0.9028

> <Gold.PLP.Chemscore.Hbond>
3.0000

> <Gold.PLP.Chemscore.CHOScore>
0.0000

> <Gold.PLP.Chemscore.Metal>
0.0000

> <Gold.Chemscore.Hbonds>
donor molecule, donor type, donor heavy atom, donor atom, acceptor molecule, acceptor atom, score
      L1  H    11    52       P1  7948  1.14

> <Gold.PLP.Chemscore.Internal.Correction>
0.0766

> <Gold.Rescore>
     Score         DG    S(hbond)    S(metal)    S(lipo)     H(rot)  DE(clash)    DE(int)     intcor
     15.83     -17.74       1.93        0.00      96.22       2.13       0.81       1.11       ----

> <Gold.Chemscore.Fitness>
15.8252

> <Gold.Chemscore.DG>
-17.7446

> <Gold.Chemscore.ZeroCoef>
-5.4800

> <Gold.Chemscore.Hbond>
1.9342

> <Gold.Chemscore.Metal>
0.0000

> <Gold.Chemscore.Lipo>
96.2225

> <Gold.Chemscore.Internal_Hbond>
0.0000

> <Gold.Chemscore.DEClash>
0.8111

> <Gold.Chemscore.DEInternal>
1.1084

> <Gold.Chemscore.Rot>
2.1303

> <Gold.Chemscore.Internal.Correction>
   9.000000E+99

> <Gold.Chemscore.Hbonds>
donor molecule, donor type, donor heavy atom, donor atom, acceptor molecule, acceptor atom, score
      L1  H    11    52       P1  7948  0.25

> <Gold.Chemscore.Hbond.Weighted>
-6.4601

> <Gold.Chemscore.Metal.Weighted>
-0.0000

> <Gold.Chemscore.Lipo.Weighted>
-11.2580

> <Gold.Chemscore.Internal_Hbond.Weighted>
0.0000

> <Gold.Chemscore.DEClash.Weighted>
0.8111

> <Gold.Chemscore.DEInternal.Weighted>
1.1084

> <Gold.Chemscore.Rot.Weighted>
5.4535

> <Gold.Chemscore.Internal.Correction.Weighted>
   9.000000E+99

> <Gold.Protein.RotatedTorsions>
[ 6907 6896 6895 6894 ] final   33.38 input  -60.11 | X-H torsion
[ 7974 7965 7964 7962 ] final   -2.61 input  175.53 | X-H torsion
[ 8008 7997 7996 7995 ] final  -78.36 input   59.86 | X-H torsion
[ 10167 10162 10161 10158 ] final  -47.62 input  -65.29 | X-H torsion
[ 10718 10713 10712 10709 ] final  -18.23 input   66.30 | X-H torsion
[ 10763 10752 10751 10750 ] final  169.03 input  -60.55 | X-H torsion
[ 11005 11000 10999 10996 ] final  -22.37 input  -57.11 | X-H torsion

> <Gold.Protein.ActiveResidues>
 VAL166  LYS551  ARG553  GLY616  TRP617  ASP618  TYR619  PRO620  LYS621  CYS622 
 ASP623  PHE694  ASN695  SER759  ASP760  ASP761  ALA762  ILE779  LEU786  VAL792 
 PHE793  MET794  SER795  GLU796  ALA797  LYS798  CYS799  TRP800  GLU811  SER814 

> <Gold.Protein.RotatedAtoms>
  152.0876  134.9429  160.0572 H   0  0  0  0  0  0  0  0  0  0  0  0  # atno 6907 bound_to 6896
  152.0693  133.4094  159.4460 H   0  0  0  0  0  0  0  0  0  0  0  0  # atno 6908 bound_to 6896
  150.6836  134.3030  159.4758 H   0  0  0  0  0  0  0  0  0  0  0  0  # atno 6909 bound_to 6896
  146.2402  140.1597  142.8333 H   0  0  0  0  0  0  0  0  0  0  0  0  # atno 7974 bound_to 7965
  154.5682  140.0695  156.8924 H   0  0  0  0  0  0  0  0  0  0  0  0  # atno 8008 bound_to 7997
  155.2684  140.3363  155.4249 H   0  0  0  0  0  0  0  0  0  0  0  0  # atno 8009 bound_to 7997
  156.2097  140.1754  156.7707 H   0  0  0  0  0  0  0  0  0  0  0  0  # atno 8010 bound_to 7997
  140.6767  143.2776  151.3953 H   0  0  0  0  0  0  0  0  0  0  0  0  # atno 10167 bound_to 10162
  156.5625  130.4729  149.6400 H   0  0  0  0  0  0  0  0  0  0  0  0  # atno 10718 bound_to 10713
  154.3773  135.2753  155.2232 H   0  0  0  0  0  0  0  0  0  0  0  0  # atno 10763 bound_to 10752
  154.4354  135.5967  153.6098 H   0  0  0  0  0  0  0  0  0  0  0  0  # atno 10764 bound_to 10752
  152.9836  135.6005  154.4011 H   0  0  0  0  0  0  0  0  0  0  0  0  # atno 10765 bound_to 10752
  140.8651  133.7760  156.0120 H   0  0  0  0  0  0  0  0  0  0  0  0  # atno 11005 bound_to 11000
  145.0100  140.8705  143.5230 LP  0  0  0  0  0  0  0  0  0  0  0  0  # atno 17320 bound_to 7965
  145.1629  139.2448  143.5382 LP  0  0  0  0  0  0  0  0  0  0  0  0  # atno 17321 bound_to 7965
  139.6064  144.1189  152.2253 LP  0  0  0  0  0  0  0  0  0  0  0  0  # atno 17342 bound_to 10162
  140.0589  144.5872  150.7278 LP  0  0  0  0  0  0  0  0  0  0  0  0  # atno 17343 bound_to 10162
  156.2786  130.7058  151.1876 LP  0  0  0  0  0  0  0  0  0  0  0  0  # atno 17370 bound_to 10713
  157.7365  131.0561  150.5407 LP  0  0  0  0  0  0  0  0  0  0  0  0  # atno 17371 bound_to 10713
  140.8638  134.2808  157.5222 LP  0  0  0  0  0  0  0  0  0  0  0  0  # atno 17394 bound_to 11000
  139.8709  134.9532  156.4138 LP  0  0  0  0  0  0  0  0  0  0  0  0  # atno 17395 bound_to 11000

$$$$
