#       Name:                AV-unprocessed.smi:1643
#       Creating user name   scv26
#       Creation time:       Fri Mar 27 07:26:43 2020


#       File generated by GOLD software.
#

@<TRIPOS>MOLECULE
AV-unprocessed.smi:1643
    59    61     1
SMALL
NO_CHARGES


@<TRIPOS>ATOM
      1 ****        -4.9498  -3.9860  -0.1288 C.3            1 S1                 0.0000
      2 ****        -3.9266  -4.4088   0.9289 C.2            1 S1                 0.0000
      3 ****        -4.3423  -4.7068   2.0485 O.2            1 S1                 0.0000
      4 ****        -2.6114  -4.4523   0.6013 N.am           1 S1                 0.0000
      5 ****        -1.6048  -4.9587   1.5461 C.3            1 S1                 0.0000
      6 ****        -0.8416  -3.8196   2.2600 C.3            1 S1                 0.0000
      7 ****        -1.0107  -2.4093   1.6498 C.3            1 S1                 0.0000
      8 ****        -0.4800  -2.2459   0.2642 N.4            1 S1                 1.0000
      9 ****        -0.9224  -0.9762  -0.3746 C.3            1 S1                 0.0000
     10 ****        -0.3185   0.2841   0.2797 C.3            1 S1                 0.0000
     11 ****        -0.9153   1.4074  -0.3355 O.3            1 S1                 0.0000
     12 ****         1.2158   0.3581   0.1251 C.3            1 S1                 0.0000
     13 ****         1.8000   1.5670   0.7247 N.pl3          1 S1                 0.0000
     14 ****         2.2084   1.7926   2.0037 C.2            1 S1                 0.0000
     15 ****         2.6908   3.0646   2.0636 N.pl3          1 S1                 1.0000
     16 ****         2.5900   3.6613   0.8053 C.ar           1 S1                 0.0000
     17 ****         2.9447   4.9330   0.3711 C.ar           1 S1                 0.0000
     18 ****         2.7069   5.2401  -0.9875 C.ar           1 S1                 0.0000
     19 ****         3.0774   6.6239  -1.4936 C.3            1 S1                 0.0000
     20 ****         2.1331   4.2820  -1.8629 C.ar           1 S1                 0.0000
     21 ****         1.8790   4.6241  -3.3213 C.3            1 S1                 0.0000
     22 ****         1.7822   2.9928  -1.4024 C.ar           1 S1                 0.0000
     23 ****         2.0205   2.7065  -0.0598 C.ar           1 S1                 0.0000
     24 ****        -0.6451  -3.4189  -0.6429 C.3            1 S1                 0.0000
     25 ****        -2.0781  -4.0098  -0.7007 C.3            1 S1                 0.0000
     26 ****        -4.8010  -4.5328  -1.0605 H              1 S1                 0.0000
     27 ****        -4.8773  -2.9167  -0.3288 H              1 S1                 0.0000
     28 ****        -5.9638  -4.1924   0.2160 H              1 S1                 0.0000
     29 ****        -2.0415  -5.6269   2.2905 H              1 S1                 0.0000
     30 ****        -0.9070  -5.6005   1.0077 H              1 S1                 0.0000
     31 ****        -1.1929  -3.7747   3.2915 H              1 S1                 0.0000
     32 ****         0.2169  -4.0741   2.3246 H              1 S1                 0.0000
     33 ****        -2.0618  -2.1185   1.6829 H              1 S1                 0.0000
     34 ****        -0.4923  -1.7021   2.2967 H              1 S1                 0.0000
     35 ****        -0.6414  -0.9750  -1.4287 H              1 S1                 0.0000
     36 ****        -2.0126  -0.9304  -0.3536 H              1 S1                 0.0000
     37 ****        -0.5845   0.3307   1.3354 H              1 S1                 0.0000
     38 ****        -0.5989   2.1895   0.0908 H              1 S1                 0.0000
     39 ****         1.6810  -0.4948   0.6206 H              1 S1                 0.0000
     40 ****         1.5129   0.2984  -0.9223 H              1 S1                 0.0000
     41 ****         2.1627   1.0899   2.8234 H              1 S1                 0.0000
     42 ****         3.3815   5.6572   1.0433 H              1 S1                 0.0000
     43 ****         3.8331   6.5560  -2.2765 H              1 S1                 0.0000
     44 ****         3.4807   7.2461  -0.6941 H              1 S1                 0.0000
     45 ****         2.2019   7.1308  -1.8998 H              1 S1                 0.0000
     46 ****         1.4699   3.7725  -3.8657 H              1 S1                 0.0000
     47 ****         2.8057   4.9187  -3.8142 H              1 S1                 0.0000
     48 ****         1.1662   5.4451  -3.4025 H              1 S1                 0.0000
     49 ****         1.3405   2.2678  -2.0700 H              1 S1                 0.0000
     50 ****        -0.3342  -3.1460  -1.6519 H              1 S1                 0.0000
     51 ****         0.0776  -4.1801  -0.3515 H              1 S1                 0.0000
     52 ****        -2.0906  -4.8629  -1.3802 H              1 S1                 0.0000
     53 ****        -2.7178  -3.2520  -1.1526 H              1 S1                 0.0000
     54 ****         0.5210  -2.1570   0.3652 H              1 S1                 0.0000
     55 ****         3.0634   3.4917   2.9024 H              1 S1                 0.0000
     56 ****        -5.3221  -4.6685   2.2446 LP             1 S1                 0.0000
     57 ****        -3.7002  -4.9873   2.7620 LP             1 S1                 0.0000
     58 ****        -1.9096   1.3528  -0.2438 LP             1 S1                 0.0000
     59 ****        -0.6707   1.4299  -1.3049 LP             1 S1                 0.0000
@<TRIPOS>BOND
    1    1    2 1     
    2    1   26 1     
    3    1   27 1     
    4    1   28 1     
    5    2    3 2     
    6    2    4 am    
    7    4   25 1     
    8    4    5 1     
    9    5    6 1     
   10    5   29 1     
   11    5   30 1     
   12    6    7 1     
   13    6   31 1     
   14    6   32 1     
   15    7    8 1     
   16    7   33 1     
   17    7   34 1     
   18    8    9 1     
   19    8   24 1     
   20    8   54 1     
   21    9   10 1     
   22    9   35 1     
   23    9   36 1     
   24   10   11 1     
   25   10   12 1     
   26   10   37 1     
   27   11   38 1     
   28   12   13 1     
   29   12   39 1     
   30   12   40 1     
   31   13   23 1     
   32   13   14 1     
   33   14   15 2     
   34   14   41 1     
   35   15   16 1     
   36   15   55 1     
   37   16   23 ar    
   38   16   17 ar    
   39   17   18 ar    
   40   17   42 1     
   41   18   19 1     
   42   18   20 ar    
   43   19   43 1     
   44   19   44 1     
   45   19   45 1     
   46   20   21 1     
   47   20   22 ar    
   48   21   46 1     
   49   21   47 1     
   50   21   48 1     
   51   22   23 ar    
   52   22   49 1     
   53   24   25 1     
   54   24   50 1     
   55   24   51 1     
   56   25   52 1     
   57   25   53 1     
   58    3   56 1     
   59    3   57 1     
   60   11   58 1     
   61   11   59 1     
@<TRIPOS>SUBSTRUCTURE
      1 S1             1
@<TRIPOS>SET
LONE_PAIRS      STATIC     ATOMS    <user>   **** ""
4 56 57 58 59
DONOR_HYDROGENS      STATIC     ATOMS    <user>   **** ""
3 54 38 55
ATOM$BLUE        STATIC     ATOMS    COLORGROUP SYSTEM
4 56 57 58 59
ATOM$RED        STATIC     ATOMS    COLORGROUP SYSTEM
3 54 38 55
