AV-unprocessed.smi:2137|AV-procd|sdf|8706|dock10
  -GOLD-   2272011463D 1   1.00000     0.00000
 Structure written by MMmdl.
 50 51  0  0  0  0  0  0  0  0  2 V2000
  144.4559  133.4572  149.4685 C   0  0  0  0  0  0  0  0  0  0  0  0
  145.6110  132.7270  150.1673 C   0  0  2  0  0  0  0  0  0  0  0  0
  145.1193  131.4635  150.8931 C   0  0  0  0  0  0  0  0  0  0  0  0
  146.2880  130.7702  151.6043 C   0  0  0  0  0  0  0  0  0  0  0  0
  147.0135  131.7428  152.5479 C   0  0  0  0  0  0  0  0  0  0  0  0
  147.4804  132.9498  151.8179 N   0  3  2  0  0  0  0  0  0  0  0  0
  148.3015  133.8412  152.6755 C   0  0  0  0  0  0  0  0  0  0  0  0
  147.6034  134.1852  154.0054 C   0  0  0  0  0  0  0  0  0  0  0  0
  146.5695  135.3181  153.8762 C   0  0  0  0  0  0  0  0  0  0  0  0
  147.1881  136.6003  153.5589 N   0  0  0  0  0  0  0  0  0  0  0  0
  147.3451  137.6187  154.4186 C   0  0  0  0  0  0  0  0  0  0  0  0
  146.9885  137.5725  155.5954 O   0  0  0  0  0  0  0  0  0  0  0  0
  148.0097  138.8847  153.8694 C   0  0  0  0  0  0  0  0  0  0  0  0
  149.2714  139.1805  154.5592 N   0  0  0  0  0  0  0  0  0  0  0  0
  150.2977  138.2536  154.5243 C   0  0  0  0  0  0  0  0  0  0  0  0
  151.4889  138.4364  155.1342 C   0  0  0  0  0  0  0  0  0  0  0  0
  151.7633  139.6540  155.8867 C   0  0  0  0  0  0  0  0  0  0  0  0
  152.8356  139.8749  156.4512 O   0  0  0  0  0  0  0  0  0  0  0  0
  150.6960  140.5806  155.9169 N   0  0  0  0  0  0  0  0  0  0  0  0
  150.9251  141.8088  156.6496 C   0  0  0  0  0  0  0  0  0  0  0  0
  149.4547  140.3898  155.2660 C   0  0  0  0  0  0  0  0  0  0  0  0
  148.5549  141.2328  155.3009 O   0  0  0  0  0  0  0  0  0  0  0  0
  146.3517  133.6545  151.1517 C   0  0  0  0  0  0  0  0  0  0  0  0
  143.7055  133.7911  150.1859 H   0  0  0  0  0  0  0  0  0  0  0  0
  143.9604  132.8073  148.7469 H   0  0  0  0  0  0  0  0  0  0  0  0
  144.8140  134.3346  148.9291 H   0  0  0  0  0  0  0  0  0  0  0  0
  146.3193  132.4199  149.3961 H   0  0  0  0  0  0  0  0  0  0  0  0
  144.3506  131.7266  151.6213 H   0  0  0  0  0  0  0  0  0  0  0  0
  144.6556  130.7755  150.1850 H   0  0  0  0  0  0  0  0  0  0  0  0
  145.9238  129.9085  152.1649 H   0  0  0  0  0  0  0  0  0  0  0  0
  146.9905  130.3837  150.8646 H   0  0  0  0  0  0  0  0  0  0  0  0
  146.3530  132.0413  153.3637 H   0  0  0  0  0  0  0  0  0  0  0  0
  147.8645  131.2309  152.9991 H   0  0  0  0  0  0  0  0  0  0  0  0
  149.2786  133.3873  152.8474 H   0  0  0  0  0  0  0  0  0  0  0  0
  148.4865  134.7767  152.1456 H   0  0  0  0  0  0  0  0  0  0  0  0
  147.0980  133.2958  154.3836 H   0  0  0  0  0  0  0  0  0  0  0  0
  148.3358  134.4604  154.7637 H   0  0  0  0  0  0  0  0  0  0  0  0
  145.8553  135.0813  153.0871 H   0  0  0  0  0  0  0  0  0  0  0  0
  145.9896  135.4041  154.7968 H   0  0  0  0  0  0  0  0  0  0  0  0
  147.5008  136.7353  152.6078 H   0  0  0  0  0  0  0  0  0  0  0  0
  148.1993  138.7502  152.8031 H   0  0  0  0  0  0  0  0  0  0  0  0
  147.3134  139.7226  153.9343 H   0  0  0  0  0  0  0  0  0  0  0  0
  150.1404  137.3329  153.9812 H   0  0  0  0  0  0  0  0  0  0  0  0
  152.2487  137.6715  155.0651 H   0  0  0  0  0  0  0  0  0  0  0  0
  149.9977  142.3643  156.7869 H   0  0  0  0  0  0  0  0  0  0  0  0
  151.6430  142.3939  156.0726 H   0  0  0  0  0  0  0  0  0  0  0  0
  151.3225  141.5439  157.6311 H   0  0  0  0  0  0  0  0  0  0  0  0
  146.7221  134.5225  150.6073 H   0  0  0  0  0  0  0  0  0  0  0  0
  145.6611  134.0308  151.9087 H   0  0  0  0  0  0  0  0  0  0  0  0
  148.0914  132.6152  151.0867 H   0  0  0  0  0  0  0  0  0  0  0  0
  1  2  1  0  0  0  0
  1 24  1  0  0  0  0
  1 25  1  0  0  0  0
  1 26  1  0  0  0  0
  2 23  1  0  0  0  0
  2  3  1  0  0  0  0
  2 27  1  0  0  0  0
  3  4  1  0  0  0  0
  3 28  1  0  0  0  0
  3 29  1  0  0  0  0
  4  5  1  0  0  0  0
  4 30  1  0  0  0  0
  4 31  1  0  0  0  0
  5  6  1  0  0  0  0
  5 32  1  0  0  0  0
  5 33  1  0  0  0  0
  6  7  1  0  0  0  0
  6 23  1  0  0  0  0
  6 50  1  0  0  0  0
  7  8  1  0  0  0  0
  7 34  1  0  0  0  0
  7 35  1  0  0  0  0
  8  9  1  0  0  0  0
  8 36  1  0  0  0  0
  8 37  1  0  0  0  0
  9 10  1  0  0  0  0
  9 38  1  0  0  0  0
  9 39  1  0  0  0  0
 10 11  1  0  0  0  0
 10 40  1  0  0  0  0
 11 12  2  0  0  0  0
 11 13  1  0  0  0  0
 13 14  1  0  0  0  0
 13 41  1  0  0  0  0
 13 42  1  0  0  0  0
 14 21  1  0  0  0  0
 14 15  1  0  0  0  0
 15 16  2  0  0  0  0
 15 43  1  0  0  0  0
 16 17  1  0  0  0  0
 16 44  1  0  0  0  0
 17 18  2  0  0  0  0
 17 19  1  0  0  0  0
 19 20  1  0  0  0  0
 19 21  1  0  0  0  0
 20 45  1  0  0  0  0
 20 46  1  0  0  0  0
 20 47  1  0  0  0  0
 21 22  2  0  0  0  0
 23 48  1  0  0  0  0
 23 49  1  0  0  0  0
M  CHG  1   6   1
M  END
> <s_m_source_file>
AV-unprocessed.smi

> <i_m_source_file_index>
2137

> <i_lp_mmshare_version>
43012

> <i_f3d_flags>
0

> <s_epik_input>
W0NIM11bQ0BASF0xW0NIMl1bQ0gyXVtDSDJdTihbQ0gyXTEpW0NIMl1bQ0gyXVtDSDJdW05IXUMoPU8pW0NIMl1uMltjSF1bY0hdYyg9TyluKFtDSDNdKWMyPU8=

> <s_epik_cmdline>
J2VwaWtfcHl0aG9uJywgJy1waCcsICc3LjAnLCAnLXRuJywgJzgnLCAnLW1hJywgJzIwMCcsICctbWV0YWxfYmluZGluZycsICctaW1hZScsICc8aW5maWxlLm1hZT4nLCAnLW9tYWUnLCAnPG91dGZpbGUubWFlPic=

> <r_lp_tautomer_probability>
1

> <r_epik_Ionization_Penalty>
0.000384839

> <r_epik_Ionization_Penalty_Charging>
0.000384812

> <r_epik_Ionization_Penalty_Neutral>
2.6907e-08

> <r_epik_State_Penalty>
0.000235226

> <r_epik_Charging_Adjusted_Penalty>
0.000620038

> <i_epik_Tot_Q>
1

> <i_epik_Tot_abs_Q>
1

> <r_epik_Metal_State_Penalty>
-0

> <b_epik_Metal_Only>
0

> <s_lp_Force_Field>
OPLS_2005

> <r_lp_Energy>
29.3938

> <b_lp_Chiralities_Consistent>
1

> <s_lp_Variant>
AV-unprocessed.smi:2137-1

> <Gold.Version>
5.8.1

> <Gold.Id.Protein>
6NUR|6NUR_protein|mol2

> <Gold.PLP.Fitness>
51.6534

> <Gold.PLP.PLP>
-40.8348

> <Gold.PLP.part.hbond>
-2.9507

> <Gold.PLP.part.metal>
0.0000

> <Gold.PLP.part.buried>
-3.0554

> <Gold.PLP.part.nonpolar>
-35.0276

> <Gold.PLP.part.repulsive>
0.1441

> <Gold.PLP.ligand.clash>
0.0000

> <Gold.PLP.ligand.torsion>
0.2803

> <Gold.PLP.Chemscore.Hbond>
2.7040

> <Gold.PLP.Chemscore.CHOScore>
1.0699

> <Gold.PLP.Chemscore.Metal>
0.0000

> <Gold.Chemscore.Hbonds>
donor molecule, donor type, donor heavy atom, donor atom, acceptor molecule, acceptor atom, score
      L1  H     6    50       P1 10747  0.69
      L1  H    10    40       P1  7948  0.61
      P1  H  7997  8010       L1    18  0.99
      L1  C    15    43       P1  7948  0.76

> <Gold.PLP.Chemscore.Internal.Correction>
0.0574

> <Gold.Rescore>
     Score         DG    S(hbond)    S(metal)    S(lipo)     H(rot)  DE(clash)    DE(int)     intcor
     18.91     -19.23       2.84        0.00      86.28       2.27       0.05       0.27       ----

> <Gold.Chemscore.Fitness>
18.9141

> <Gold.Chemscore.DG>
-19.2277

> <Gold.Chemscore.ZeroCoef>
-5.4800

> <Gold.Chemscore.Hbond>
2.8373

> <Gold.Chemscore.Metal>
0.0000

> <Gold.Chemscore.Lipo>
86.2769

> <Gold.Chemscore.Internal_Hbond>
0.0000

> <Gold.Chemscore.DEClash>
0.0477

> <Gold.Chemscore.DEInternal>
0.2659

> <Gold.Chemscore.Rot>
2.2748

> <Gold.Chemscore.Internal.Correction>
   9.000000E+99

> <Gold.Chemscore.Hbonds>
donor molecule, donor type, donor heavy atom, donor atom, acceptor molecule, acceptor atom, score
      L1  H     6    50       P1 10747  0.66
      L1  H    10    40       P1  7948  0.60
      P1  H  7997  8010       L1    18  0.92

> <Gold.Chemscore.Hbond.Weighted>
-9.4767

> <Gold.Chemscore.Metal.Weighted>
-0.0000

> <Gold.Chemscore.Lipo.Weighted>
-10.0944

> <Gold.Chemscore.Internal_Hbond.Weighted>
0.0000

> <Gold.Chemscore.DEClash.Weighted>
0.0477

> <Gold.Chemscore.DEInternal.Weighted>
0.2659

> <Gold.Chemscore.Rot.Weighted>
5.8234

> <Gold.Chemscore.Internal.Correction.Weighted>
   9.000000E+99

> <Gold.Protein.RotatedTorsions>
[ 6907 6896 6895 6894 ] final   85.08 input  -60.11 | X-H torsion
[ 7974 7965 7964 7962 ] final  -77.33 input  175.53 | X-H torsion
[ 8008 7997 7996 7995 ] final   78.80 input   59.86 | X-H torsion
[ 10167 10162 10161 10158 ] final -150.40 input  -65.29 | X-H torsion
[ 10718 10713 10712 10709 ] final    9.22 input   66.30 | X-H torsion
[ 10763 10752 10751 10750 ] final -169.26 input  -60.55 | X-H torsion
[ 11005 11000 10999 10996 ] final  109.70 input  -57.11 | X-H torsion

> <Gold.Protein.ActiveResidues>
 VAL166  LYS551  ARG553  GLY616  TRP617  ASP618  TYR619  PRO620  LYS621  CYS622 
 ASP623  PHE694  ASN695  SER759  ASP760  ASP761  ALA762  ILE779  LEU786  VAL792 
 PHE793  MET794  SER795  GLU796  ALA797  LYS798  CYS799  TRP800  GLU811  SER814 

> <Gold.Protein.RotatedAtoms>
  152.5367  134.2641  159.8946 H   0  0  0  0  0  0  0  0  0  0  0  0  # atno 6907 bound_to 6896
  151.2600  133.4300  159.2623 H   0  0  0  0  0  0  0  0  0  0  0  0  # atno 6908 bound_to 6896
  151.0462  134.9656  159.8244 H   0  0  0  0  0  0  0  0  0  0  0  0  # atno 6909 bound_to 6896
  145.6011  140.9408  143.1240 H   0  0  0  0  0  0  0  0  0  0  0  0  # atno 7974 bound_to 7965
  155.8608  140.3454  155.5755 H   0  0  0  0  0  0  0  0  0  0  0  0  # atno 8008 bound_to 7997
  155.7935  140.0875  157.2015 H   0  0  0  0  0  0  0  0  0  0  0  0  # atno 8009 bound_to 7997
  154.4011  140.1478  156.3178 H   0  0  0  0  0  0  0  0  0  0  0  0  # atno 8010 bound_to 7997
  139.7358  143.8738  152.2548 H   0  0  0  0  0  0  0  0  0  0  0  0  # atno 10167 bound_to 10162
  156.9631  130.5940  149.5663 H   0  0  0  0  0  0  0  0  0  0  0  0  # atno 10718 bound_to 10713
  154.6542  135.2915  154.9948 H   0  0  0  0  0  0  0  0  0  0  0  0  # atno 10763 bound_to 10752
  154.1031  135.6574  153.4875 H   0  0  0  0  0  0  0  0  0  0  0  0  # atno 10764 bound_to 10752
  153.0393  135.5247  154.7464 H   0  0  0  0  0  0  0  0  0  0  0  0  # atno 10765 bound_to 10752
  139.8867  134.9465  156.6166 H   0  0  0  0  0  0  0  0  0  0  0  0  # atno 11005 bound_to 11000
  144.7309  139.7728  143.7347 LP  0  0  0  0  0  0  0  0  0  0  0  0  # atno 17320 bound_to 7965
  146.1575  139.4678  143.0009 LP  0  0  0  0  0  0  0  0  0  0  0  0  # atno 17321 bound_to 7965
  139.8674  144.7086  150.9027 LP  0  0  0  0  0  0  0  0  0  0  0  0  # atno 17342 bound_to 10162
  140.7778  143.3766  151.1552 LP  0  0  0  0  0  0  0  0  0  0  0  0  # atno 17343 bound_to 10162
  156.0314  130.5405  150.8542 LP  0  0  0  0  0  0  0  0  0  0  0  0  # atno 17370 bound_to 10713
  157.5644  131.0946  150.9512 LP  0  0  0  0  0  0  0  0  0  0  0  0  # atno 17371 bound_to 10713
  140.7771  133.8691  155.8538 LP  0  0  0  0  0  0  0  0  0  0  0  0  # atno 17394 bound_to 11000
  140.9792  134.1428  157.4509 LP  0  0  0  0  0  0  0  0  0  0  0  0  # atno 17395 bound_to 11000

$$$$
