#       Name:                AV-unprocessed.smi:366
#       Creating user name   scv26
#       Creation time:       Thu Mar 26 22:37:02 2020


#       File generated by GOLD software.
#

@<TRIPOS>MOLECULE
AV-unprocessed.smi:366
    58    59     1
SMALL
NO_CHARGES


@<TRIPOS>ATOM
      1 ****        -3.1511  -3.8207  -5.1545 C.3            1 S1                 0.0000
      2 ****        -2.8922  -2.5534  -4.3472 C.2            1 S1                 0.0000
      3 ****        -2.8611  -1.4585  -4.9083 O.2            1 S1                 0.0000
      4 ****        -2.7057  -2.7177  -3.0280 N.am           1 S1                 0.0000
      5 ****        -2.4300  -1.6458  -2.0688 C.3            1 S1                 0.0000
      6 ****        -0.9232  -1.3243  -2.1109 C.2            1 S1                 0.0000
      7 ****        -0.0889  -2.2283  -2.0393 O.2            1 S1                 0.0000
      8 ****        -0.5964  -0.0264  -2.2123 N.am           1 S1                 0.0000
      9 ****         0.7598   0.5090  -2.2757 C.3            1 S1                 0.0000
     10 ****         1.2700   1.0152  -0.9364 C.ar           1 S1                 0.0000
     11 ****         1.7344   2.3380  -0.7974 C.ar           1 S1                 0.0000
     12 ****         2.2080   2.7687   0.4564 C.ar           1 S1                 0.0000
     13 ****         2.2093   1.8620   1.5430 C.ar           1 S1                 0.0000
     14 ****         2.6829   2.2720   2.8082 N.3            1 S1                 0.0000
     15 ****         2.4291   1.3963   3.9508 C.3            1 S1                 0.0000
     16 ****         2.7529   2.1245   5.2660 C.3            1 S1                 0.0000
     17 ****         4.0924   2.6050   5.2299 O.3            1 S1                 0.0000
     18 ****         4.2902   3.5419   4.1763 C.3            1 S1                 0.0000
     19 ****         4.0166   2.8683   2.8205 C.3            1 S1                 0.0000
     20 ****         1.7586   0.5903   1.4054 N.ar           1 S1                 0.0000
     21 ****         1.3087   0.1818   0.2005 C.ar           1 S1                 0.0000
     22 ****        -2.8359  -2.1270  -0.6442 C.3            1 S1                 0.0000
     23 ****        -4.3168  -2.5504  -0.5798 C.3            1 S1                 0.0000
     24 ****        -2.5680  -1.0708   0.4480 C.3            1 S1                 0.0000
     25 ****        -2.2373  -4.4095  -5.2366 H              1 S1                 0.0000
     26 ****        -3.4927  -3.5762  -6.1606 H              1 S1                 0.0000
     27 ****        -3.9154  -4.4328  -4.6752 H              1 S1                 0.0000
     28 ****        -2.7421  -3.6565  -2.6584 H              1 S1                 0.0000
     29 ****        -3.0105  -0.7586  -2.3312 H              1 S1                 0.0000
     30 ****        -1.3498   0.6443  -2.2612 H              1 S1                 0.0000
     31 ****         1.4592  -0.2347  -2.6609 H              1 S1                 0.0000
     32 ****         0.7598   1.3257  -2.9981 H              1 S1                 0.0000
     33 ****         1.7264   3.0190  -1.6357 H              1 S1                 0.0000
     34 ****         2.5494   3.7865   0.5726 H              1 S1                 0.0000
     35 ****         1.3848   1.0812   3.9604 H              1 S1                 0.0000
     36 ****         3.0413   0.4978   3.8612 H              1 S1                 0.0000
     37 ****         2.0618   2.9525   5.4327 H              1 S1                 0.0000
     38 ****         2.6420   1.4428   6.1093 H              1 S1                 0.0000
     39 ****         3.6414   4.4076   4.3183 H              1 S1                 0.0000
     40 ****         5.3172   3.9050   4.2136 H              1 S1                 0.0000
     41 ****         4.7530   2.0845   2.6387 H              1 S1                 0.0000
     42 ****         4.1375   3.6057   2.0283 H              1 S1                 0.0000
     43 ****         0.9742  -0.8434   0.1467 H              1 S1                 0.0000
     44 ****        -2.2424  -3.0083  -0.3937 H              1 S1                 0.0000
     45 ****        -4.9752  -1.7264  -0.8564 H              1 S1                 0.0000
     46 ****        -4.5906  -2.8691   0.4263 H              1 S1                 0.0000
     47 ****        -4.5328  -3.3865  -1.2448 H              1 S1                 0.0000
     48 ****        -3.0895  -0.1381   0.2312 H              1 S1                 0.0000
     49 ****        -1.5074  -0.8437   0.5504 H              1 S1                 0.0000
     50 ****        -2.9081  -1.4203   1.4232 H              1 S1                 0.0000
     51 ****        -3.0058  -1.3985  -5.8960 LP             1 S1                 0.0000
     52 ****        -2.6911  -0.6288  -4.3766 LP             1 S1                 0.0000
     53 ****        -0.3876  -3.1787  -1.9532 LP             1 S1                 0.0000
     54 ****         0.8870  -2.0115  -2.0674 LP             1 S1                 0.0000
     55 ****         2.0492   3.0275   2.9747 LP             1 S1                 0.0000
     56 ****         4.7105   1.8306   5.0946 LP             1 S1                 0.0000
     57 ****         4.3005   3.0493   6.1013 LP             1 S1                 0.0000
     58 ****         1.7597  -0.0355   2.1853 LP             1 S1                 0.0000
@<TRIPOS>BOND
    1    1    2 1     
    2    1   25 1     
    3    1   26 1     
    4    1   27 1     
    5    2    3 2     
    6    2    4 am    
    7    4    5 1     
    8    4   28 1     
    9    5    6 1     
   10    5   22 1     
   11    5   29 1     
   12    6    7 2     
   13    6    8 am    
   14    8    9 1     
   15    8   30 1     
   16    9   10 1     
   17    9   31 1     
   18    9   32 1     
   19   10   21 ar    
   20   10   11 ar    
   21   11   12 ar    
   22   11   33 1     
   23   12   13 ar    
   24   12   34 1     
   25   13   14 1     
   26   13   20 ar    
   27   14   19 1     
   28   14   15 1     
   29   15   16 1     
   30   15   35 1     
   31   15   36 1     
   32   16   17 1     
   33   16   37 1     
   34   16   38 1     
   35   17   18 1     
   36   18   19 1     
   37   18   39 1     
   38   18   40 1     
   39   19   41 1     
   40   19   42 1     
   41   20   21 ar    
   42   21   43 1     
   43   22   23 1     
   44   22   24 1     
   45   22   44 1     
   46   23   45 1     
   47   23   46 1     
   48   23   47 1     
   49   24   48 1     
   50   24   49 1     
   51   24   50 1     
   52    3   51 1     
   53    3   52 1     
   54    7   53 1     
   55    7   54 1     
   56   14   55 1     
   57   17   56 1     
   58   17   57 1     
   59   20   58 1     
@<TRIPOS>SUBSTRUCTURE
      1 S1             1
@<TRIPOS>SET
LONE_PAIRS      STATIC     ATOMS    <user>   **** ""
8 51 52 53 54 55 56 57 58
DONOR_HYDROGENS      STATIC     ATOMS    <user>   **** ""
2 28 30
ATOM$BLUE        STATIC     ATOMS    COLORGROUP SYSTEM
8 51 52 53 54 55 56 57 58
ATOM$RED        STATIC     ATOMS    COLORGROUP SYSTEM
2 28 30
