AV-unprocessed.smi:3250|AV-procd|sdf|12429|dock9
  -GOLD-   2272018313D 1   1.00000     0.00000
 Structure written by MMmdl.
 38 39  0  0  0  0  0  0  0  0  1 V2000
  151.5679  145.7210  160.0299 C   0  0  0  0  0  0  0  0  0  0  0  0
  152.1595  144.5824  160.8727 C   0  0  0  0  0  0  0  0  0  0  0  0
  152.6005  143.4157  160.1105 N   0  0  0  0  0  0  0  0  0  0  0  0
  153.1467  142.3626  160.9630 C   0  0  0  0  0  0  0  0  0  0  0  0
  153.5711  141.1291  160.1484 C   0  0  0  0  0  0  0  0  0  0  0  0
  152.4632  140.6554  159.3906 O   0  0  0  0  0  0  0  0  0  0  0  0
  151.9407  141.6356  158.4969 C   0  0  1  0  0  0  0  0  0  0  0  0
  150.7613  141.0171  157.7350 C   0  0  0  0  0  0  0  0  0  0  0  0
  151.0370  140.9148  156.3099 N   0  0  0  0  0  0  0  0  0  0  0  0
  151.1943  139.7187  155.6362 C   0  0  0  0  0  0  0  0  0  0  0  0
  150.6433  139.6648  154.4214 N   0  0  0  0  0  0  0  0  0  0  0  0
  150.7854  138.5105  153.7346 C   0  0  0  0  0  0  0  0  0  0  0  0
  151.4814  137.4082  154.2695 C   0  0  0  0  0  0  0  0  0  0  0  0
  152.0199  137.5720  155.5616 C   0  0  0  0  0  0  0  0  0  0  0  0
  152.7096  136.5302  156.1465 O   0  0  0  0  0  0  0  0  0  0  0  0
  153.2257  136.7213  157.4590 C   0  0  0  0  0  0  0  0  0  0  0  0
  151.8719  138.7365  156.2416 N   0  0  0  0  0  0  0  0  0  0  0  0
  151.5048  142.8638  159.3205 C   0  0  0  0  0  0  0  0  0  0  0  0
  151.1727  146.5070  160.6734 H   0  0  0  0  0  0  0  0  0  0  0  0
  150.7496  145.3631  159.4043 H   0  0  0  0  0  0  0  0  0  0  0  0
  152.3144  146.1797  159.3821 H   0  0  0  0  0  0  0  0  0  0  0  0
  152.9843  144.9660  161.4750 H   0  0  0  0  0  0  0  0  0  0  0  0
  151.3919  144.2688  161.5814 H   0  0  0  0  0  0  0  0  0  0  0  0
  154.0120  142.7307  161.5129 H   0  0  0  0  0  0  0  0  0  0  0  0
  152.4052  142.0658  161.7065 H   0  0  0  0  0  0  0  0  0  0  0  0
  154.4001  141.3720  159.4819 H   0  0  0  0  0  0  0  0  0  0  0  0
  153.9145  140.3357  160.8121 H   0  0  0  0  0  0  0  0  0  0  0  0
  152.7156  141.9330  157.7875 H   0  0  0  0  0  0  0  0  0  0  0  0
  150.5275  140.0297  158.1347 H   0  0  0  0  0  0  0  0  0  0  0  0
  149.8738  141.6368  157.8694 H   0  0  0  0  0  0  0  0  0  0  0  0
  151.2189  141.7646  155.7959 H   0  0  0  0  0  0  0  0  0  0  0  0
  150.3409  138.4658  152.7513 H   0  0  0  0  0  0  0  0  0  0  0  0
  151.5949  136.4864  153.7185 H   0  0  0  0  0  0  0  0  0  0  0  0
  153.7346  135.8137  157.7826 H   0  0  0  0  0  0  0  0  0  0  0  0
  152.4284  136.9265  158.1747 H   0  0  0  0  0  0  0  0  0  0  0  0
  153.9507  137.5358  157.4881 H   0  0  0  0  0  0  0  0  0  0  0  0
  150.6801  142.5848  159.9786 H   0  0  0  0  0  0  0  0  0  0  0  0
  151.1181  143.6286  158.6456 H   0  0  0  0  0  0  0  0  0  0  0  0
  1  2  1  0  0  0  0
  1 19  1  0  0  0  0
  1 20  1  0  0  0  0
  1 21  1  0  0  0  0
  2  3  1  0  0  0  0
  2 22  1  0  0  0  0
  2 23  1  0  0  0  0
  3 18  1  0  0  0  0
  3  4  1  0  0  0  0
  4  5  1  0  0  0  0
  4 24  1  0  0  0  0
  4 25  1  0  0  0  0
  5  6  1  0  0  0  0
  5 26  1  0  0  0  0
  5 27  1  0  0  0  0
  6  7  1  0  0  0  0
  7  8  1  0  0  0  0
  7 18  1  0  0  0  0
  7 28  1  0  0  0  0
  8  9  1  0  0  0  0
  8 29  1  0  0  0  0
  8 30  1  0  0  0  0
  9 10  1  0  0  0  0
  9 31  1  0  0  0  0
 10 17  1  0  0  0  0
 10 11  2  0  0  0  0
 11 12  1  0  0  0  0
 12 13  2  0  0  0  0
 12 32  1  0  0  0  0
 13 14  1  0  0  0  0
 13 33  1  0  0  0  0
 14 15  1  0  0  0  0
 14 17  2  0  0  0  0
 15 16  1  0  0  0  0
 16 34  1  0  0  0  0
 16 35  1  0  0  0  0
 16 36  1  0  0  0  0
 18 37  1  0  0  0  0
 18 38  1  0  0  0  0
M  END
> <s_m_source_file>
AV-unprocessed.smi

> <i_m_source_file_index>
3250

> <i_lp_mmshare_version>
43012

> <i_f3d_flags>
0

> <s_epik_input>
W0NIM11bQ0gyXU4xW0NIMl1bQ0gyXU9bQ0BIXShbQ0gyXTEpW0NIMl1bTkhdYzJuW2NIXVtjSF1jKG4yKU9bQ0gzXQ==

> <s_epik_cmdline>
J2VwaWtfcHl0aG9uJywgJy1waCcsICc3LjAnLCAnLXRuJywgJzgnLCAnLW1hJywgJzIwMCcsICctbWV0YWxfYmluZGluZycsICctaW1hZScsICc8aW5maWxlLm1hZT4nLCAnLW9tYWUnLCAnPG91dGZpbGUubWFlPic=

> <r_lp_tautomer_probability>
1

> <r_epik_Ionization_Penalty>
0.832605

> <r_epik_Ionization_Penalty_Charging>
0

> <r_epik_Ionization_Penalty_Neutral>
0.832605

> <r_epik_State_Penalty>
0.927194

> <r_epik_Charging_Adjusted_Penalty>
0.927194

> <i_epik_Tot_Q>
0

> <i_epik_Tot_abs_Q>
0

> <r_epik_Metal_State_Penalty>
0.908632

> <b_epik_Metal_Only>
0

> <s_lp_Force_Field>
OPLS_2005

> <r_lp_Energy>
15.3419

> <b_lp_Chiralities_Consistent>
1

> <s_lp_Variant>
AV-unprocessed.smi:3250-5

> <Gold.Version>
5.8.1

> <Gold.Id.Protein>
6NUR|6NUR_protein|mol2

> <Gold.PLP.Fitness>
42.6330

> <Gold.PLP.PLP>
-33.1701

> <Gold.PLP.part.hbond>
-2.0000

> <Gold.PLP.part.metal>
0.0000

> <Gold.PLP.part.buried>
-5.2950

> <Gold.PLP.part.nonpolar>
-27.1080

> <Gold.PLP.part.repulsive>
0.2152

> <Gold.PLP.ligand.clash>
0.0000

> <Gold.PLP.ligand.torsion>
1.0754

> <Gold.PLP.Chemscore.Hbond>
2.0000

> <Gold.PLP.Chemscore.CHOScore>
1.8662

> <Gold.PLP.Chemscore.Metal>
0.0000

> <Gold.Chemscore.Hbonds>
donor molecule, donor type, donor heavy atom, donor atom, acceptor molecule, acceptor atom, score
      P1  H  7989  7998       L1    11  1.00
      P1  H 10752 10765       L1    15  0.99
      L1  C    12    32       P1  7948  0.36
      L1  C    12    32       P1  7949  0.02
      L1  C    12    32       P1  7957  0.87

> <Gold.PLP.Chemscore.Internal.Correction>
0.0151

> <Gold.Rescore>
     Score         DG    S(hbond)    S(metal)    S(lipo)     H(rot)  DE(clash)    DE(int)     intcor
     13.46     -14.61       0.93        0.00      87.84       1.67       0.12       1.04       ----

> <Gold.Chemscore.Fitness>
13.4585

> <Gold.Chemscore.DG>
-14.6139

> <Gold.Chemscore.ZeroCoef>
-5.4800

> <Gold.Chemscore.Hbond>
0.9343

> <Gold.Chemscore.Metal>
0.0000

> <Gold.Chemscore.Lipo>
87.8427

> <Gold.Chemscore.Internal_Hbond>
0.0000

> <Gold.Chemscore.DEClash>
0.1164

> <Gold.Chemscore.DEInternal>
1.0390

> <Gold.Chemscore.Rot>
1.6657

> <Gold.Chemscore.Internal.Correction>
   9.000000E+99

> <Gold.Chemscore.Hbonds>
donor molecule, donor type, donor heavy atom, donor atom, acceptor molecule, acceptor atom, score
      P1  H  7989  7998       L1    11  0.18
      P1  H 10752 10765       L1    15  0.70

> <Gold.Chemscore.Hbond.Weighted>
-3.1206

> <Gold.Chemscore.Metal.Weighted>
-0.0000

> <Gold.Chemscore.Lipo.Weighted>
-10.2776

> <Gold.Chemscore.Internal_Hbond.Weighted>
0.0000

> <Gold.Chemscore.DEClash.Weighted>
0.1164

> <Gold.Chemscore.DEInternal.Weighted>
1.0390

> <Gold.Chemscore.Rot.Weighted>
4.2642

> <Gold.Chemscore.Internal.Correction.Weighted>
   9.000000E+99

> <Gold.Protein.RotatedTorsions>
[ 6907 6896 6895 6894 ] final  136.04 input  -60.11 | X-H torsion
[ 7974 7965 7964 7962 ] final  138.13 input  175.53 | X-H torsion
[ 8008 7997 7996 7995 ] final -110.90 input   59.86 | X-H torsion
[ 10167 10162 10161 10158 ] final   71.21 input  -65.29 | X-H torsion
[ 10718 10713 10712 10709 ] final  -15.58 input   66.30 | X-H torsion
[ 10763 10752 10751 10750 ] final -148.58 input  -60.55 | X-H torsion
[ 11005 11000 10999 10996 ] final -132.33 input  -57.11 | X-H torsion

> <Gold.Protein.ActiveResidues>
 VAL166  LYS551  ARG553  GLY616  TRP617  ASP618  TYR619  PRO620  LYS621  CYS622 
 ASP623  PHE694  ASN695  SER759  ASP760  ASP761  ALA762  ILE779  LEU786  VAL792 
 PHE793  MET794  SER795  GLU796  ALA797  LYS798  CYS799  TRP800  GLU811  SER814 

> <Gold.Protein.RotatedAtoms>
  152.2938  133.5587  159.5573 H   0  0  0  0  0  0  0  0  0  0  0  0  # atno 6907 bound_to 6896
  150.7247  134.0391  159.3768 H   0  0  0  0  0  0  0  0  0  0  0  0  # atno 6908 bound_to 6896
  151.8295  135.0626  160.0486 H   0  0  0  0  0  0  0  0  0  0  0  0  # atno 6909 bound_to 6896
  144.9402  139.4940  143.5575 H   0  0  0  0  0  0  0  0  0  0  0  0  # atno 7974 bound_to 7965
  154.9815  140.0396  157.2280 H   0  0  0  0  0  0  0  0  0  0  0  0  # atno 8008 bound_to 7997
  154.7709  140.2801  155.6116 H   0  0  0  0  0  0  0  0  0  0  0  0  # atno 8009 bound_to 7997
  156.2921  140.2610  156.2512 H   0  0  0  0  0  0  0  0  0  0  0  0  # atno 8010 bound_to 7997
  140.0485  144.5331  150.7381 H   0  0  0  0  0  0  0  0  0  0  0  0  # atno 10167 bound_to 10162
  156.5997  130.4821  149.6245 H   0  0  0  0  0  0  0  0  0  0  0  0  # atno 10718 bound_to 10713
  154.8225  135.3331  154.6996 H   0  0  0  0  0  0  0  0  0  0  0  0  # atno 10763 bound_to 10752
  153.7627  135.6931  153.4926 H   0  0  0  0  0  0  0  0  0  0  0  0  # atno 10764 bound_to 10752
  153.2099  135.4486  155.0316 H   0  0  0  0  0  0  0  0  0  0  0  0  # atno 10765 bound_to 10752
  140.9179  134.1482  157.4337 H   0  0  0  0  0  0  0  0  0  0  0  0  # atno 11005 bound_to 11000
  146.3282  139.8415  142.8889 LP  0  0  0  0  0  0  0  0  0  0  0  0  # atno 17320 bound_to 7965
  145.3003  141.0192  143.3612 LP  0  0  0  0  0  0  0  0  0  0  0  0  # atno 17321 bound_to 7965
  140.7227  143.2605  151.4223 LP  0  0  0  0  0  0  0  0  0  0  0  0  # atno 17342 bound_to 10162
  139.5968  144.1380  152.2153 LP  0  0  0  0  0  0  0  0  0  0  0  0  # atno 17343 bound_to 10162
  156.2479  130.6890  151.1617 LP  0  0  0  0  0  0  0  0  0  0  0  0  # atno 17370 bound_to 10713
  157.7282  131.0633  150.5828 LP  0  0  0  0  0  0  0  0  0  0  0  0  # atno 17371 bound_to 10713
  139.8769  134.9960  156.5775 LP  0  0  0  0  0  0  0  0  0  0  0  0  # atno 17394 bound_to 11000
  140.8025  133.8493  155.8739 LP  0  0  0  0  0  0  0  0  0  0  0  0  # atno 17395 bound_to 11000

$$$$
