AV-unprocessed.smi:502|AV-procd|sdf|2745|dock5
  -GOLD-   2262023203D 1   1.00000     0.00000
 Structure written by MMmdl.
 49 51  0  0  0  0  0  0  0  0  2 V2000
  146.2712  133.9741  150.9652 C   0  0  0  0  0  0  0  0  0  0  0  0
  145.7346  134.6507  152.2219 C   0  0  0  0  0  0  0  0  0  0  0  0
  144.5960  134.4044  152.6191 O   0  0  0  0  0  0  0  0  0  0  0  0
  146.5659  135.5038  152.8389 N   0  0  0  0  0  0  0  0  0  0  0  0
  146.2409  136.2655  154.0392 C   0  0  0  0  0  0  0  0  0  0  0  0
  147.1566  135.8934  155.2172 C   0  0  0  0  0  0  0  0  0  0  0  0
  148.1468  136.9754  155.5049 C   0  0  0  0  0  0  0  0  0  0  0  0
  149.0382  137.4882  154.6099 N   0  3  0  0  0  0  0  0  0  0  0  0
  149.8136  138.4722  155.2239 C   0  0  0  0  0  0  0  0  0  0  0  0
  150.8394  139.2687  154.7242 C   0  0  0  0  0  0  0  0  0  0  0  0
  151.4280  140.1810  155.6248 C   0  0  0  0  0  0  0  0  0  0  0  0
  150.9929  140.2765  156.9627 C   0  0  0  0  0  0  0  0  0  0  0  0
  149.9517  139.4637  157.4575 C   0  0  0  0  0  0  0  0  0  0  0  0
  149.3767  138.5632  156.5609 C   0  0  0  0  0  0  0  0  0  0  0  0
  148.3534  137.6175  156.6921 N   0  0  0  0  0  0  0  0  0  0  0  0
  147.6925  137.4630  157.9957 C   0  0  0  0  0  0  0  0  0  0  0  0
  148.6956  137.2064  159.1283 C   0  0  0  0  0  0  0  0  0  0  0  0
  147.9902  137.2024  160.3606 O   0  0  0  0  0  0  0  0  0  0  0  0
  147.5599  135.9934  160.8678 C   0  0  0  0  0  0  0  0  0  0  0  0
  147.6575  134.7649  160.1648 C   0  0  0  0  0  0  0  0  0  0  0  0
  147.1967  133.5685  160.7462 C   0  0  0  0  0  0  0  0  0  0  0  0
  146.6342  133.5813  162.0347 C   0  0  0  0  0  0  0  0  0  0  0  0
  146.5320  134.7927  162.7418 C   0  0  0  0  0  0  0  0  0  0  0  0
  146.9914  135.9947  162.1634 C   0  0  0  0  0  0  0  0  0  0  0  0
  146.8738  137.2924  162.9408 C   0  0  0  0  0  0  0  0  0  0  0  0
  147.1713  133.4029  151.1935 H   0  0  0  0  0  0  0  0  0  0  0  0
  146.5165  134.7184  150.2073 H   0  0  0  0  0  0  0  0  0  0  0  0
  145.5313  133.2918  150.5456 H   0  0  0  0  0  0  0  0  0  0  0  0
  147.4831  135.6457  152.4404 H   0  0  0  0  0  0  0  0  0  0  0  0
  146.3466  137.3238  153.8032 H   0  0  0  0  0  0  0  0  0  0  0  0
  145.1938  136.1092  154.3042 H   0  0  0  0  0  0  0  0  0  0  0  0
  146.5648  135.7180  156.1165 H   0  0  0  0  0  0  0  0  0  0  0  0
  147.6852  134.9625  155.0118 H   0  0  0  0  0  0  0  0  0  0  0  0
  151.1743  139.1972  153.6999 H   0  0  0  0  0  0  0  0  0  0  0  0
  152.2294  140.8198  155.2828 H   0  0  0  0  0  0  0  0  0  0  0  0
  151.4678  140.9871  157.6239 H   0  0  0  0  0  0  0  0  0  0  0  0
  149.6264  139.5428  158.4842 H   0  0  0  0  0  0  0  0  0  0  0  0
  147.0994  138.3568  158.1930 H   0  0  0  0  0  0  0  0  0  0  0  0
  146.9890  136.6339  157.9250 H   0  0  0  0  0  0  0  0  0  0  0  0
  149.1913  136.2472  158.9749 H   0  0  0  0  0  0  0  0  0  0  0  0
  149.4591  137.9854  159.1370 H   0  0  0  0  0  0  0  0  0  0  0  0
  148.0826  134.7115  159.1742 H   0  0  0  0  0  0  0  0  0  0  0  0
  147.2753  132.6392  160.2016 H   0  0  0  0  0  0  0  0  0  0  0  0
  146.2817  132.6630  162.4807 H   0  0  0  0  0  0  0  0  0  0  0  0
  146.0990  134.7948  163.7314 H   0  0  0  0  0  0  0  0  0  0  0  0
  146.4347  137.1302  163.9257 H   0  0  0  0  0  0  0  0  0  0  0  0
  146.2443  138.0008  162.4019 H   0  0  0  0  0  0  0  0  0  0  0  0
  147.8578  137.7413  163.0789 H   0  0  0  0  0  0  0  0  0  0  0  0
  149.1080  137.1845  153.6470 H   0  0  0  0  0  0  0  0  0  0  0  0
  1  2  1  0  0  0  0
  1 26  1  0  0  0  0
  1 27  1  0  0  0  0
  1 28  1  0  0  0  0
  2  3  2  0  0  0  0
  2  4  1  0  0  0  0
  4  5  1  0  0  0  0
  4 29  1  0  0  0  0
  5  6  1  0  0  0  0
  5 30  1  0  0  0  0
  5 31  1  0  0  0  0
  6  7  1  0  0  0  0
  6 32  1  0  0  0  0
  6 33  1  0  0  0  0
  7 15  1  0  0  0  0
  7  8  2  0  0  0  0
  8  9  1  0  0  0  0
  8 49  1  0  0  0  0
  9 14  2  0  0  0  0
  9 10  1  0  0  0  0
 10 11  2  0  0  0  0
 10 34  1  0  0  0  0
 11 12  1  0  0  0  0
 11 35  1  0  0  0  0
 12 13  2  0  0  0  0
 12 36  1  0  0  0  0
 13 14  1  0  0  0  0
 13 37  1  0  0  0  0
 14 15  1  0  0  0  0
 15 16  1  0  0  0  0
 16 17  1  0  0  0  0
 16 38  1  0  0  0  0
 16 39  1  0  0  0  0
 17 18  1  0  0  0  0
 17 40  1  0  0  0  0
 17 41  1  0  0  0  0
 18 19  1  0  0  0  0
 19 24  1  0  0  0  0
 19 20  2  0  0  0  0
 20 21  1  0  0  0  0
 20 42  1  0  0  0  0
 21 22  2  0  0  0  0
 21 43  1  0  0  0  0
 22 23  1  0  0  0  0
 22 44  1  0  0  0  0
 23 24  2  0  0  0  0
 23 45  1  0  0  0  0
 24 25  1  0  0  0  0
 25 46  1  0  0  0  0
 25 47  1  0  0  0  0
 25 48  1  0  0  0  0
M  CHG  1   8   1
M  END
> <s_m_source_file>
AV-unprocessed.smi

> <i_m_source_file_index>
502

> <i_lp_mmshare_version>
43012

> <i_f3d_flags>
0

> <s_epik_input>
W0NIM11DKD1PKVtOSF1bQ0gyXVtDSDJdYyhuMSluKGMoYzEyKVtjSF1bY0hdW2NIXVtjSF0yKVtDSDJdW0NIMl1PYzNbY0hdW2NIXVtjSF1bY0hdYzNbQ0gzXQ==

> <s_epik_cmdline>
J2VwaWtfcHl0aG9uJywgJy1waCcsICc3LjAnLCAnLXRuJywgJzgnLCAnLW1hJywgJzIwMCcsICctbWV0YWxfYmluZGluZycsICctaW1hZScsICc8aW5maWxlLm1hZT4nLCAnLW9tYWUnLCAnPG91dGZpbGUubWFlPic=

> <r_lp_tautomer_probability>
1

> <r_epik_Ionization_Penalty>
1.10789

> <r_epik_Ionization_Penalty_Charging>
1.10789

> <r_epik_Ionization_Penalty_Neutral>
3.05925e-07

> <r_epik_State_Penalty>
1.16562

> <r_epik_Charging_Adjusted_Penalty>
2.27351

> <i_epik_Tot_Q>
1

> <i_epik_Tot_abs_Q>
1

> <r_epik_Metal_State_Penalty>
1.2518

> <b_epik_Metal_Only>
0

> <s_lp_Force_Field>
OPLS_2005

> <r_lp_Energy>
20.1677

> <b_lp_Chiralities_Consistent>
1

> <s_lp_Variant>
AV-unprocessed.smi:502-2

> <Gold.Version>
5.8.1

> <Gold.Id.Protein>
6NUR|6NUR_protein|mol2

> <Gold.PLP.Fitness>
52.7143

> <Gold.PLP.PLP>
-41.3162

> <Gold.PLP.part.hbond>
-4.0000

> <Gold.PLP.part.metal>
0.0000

> <Gold.PLP.part.buried>
-2.3526

> <Gold.PLP.part.nonpolar>
-35.0803

> <Gold.PLP.part.repulsive>
0.0799

> <Gold.PLP.ligand.clash>
0.0000

> <Gold.PLP.ligand.torsion>
0.6746

> <Gold.PLP.Chemscore.Hbond>
4.2114

> <Gold.PLP.Chemscore.CHOScore>
0.0000

> <Gold.PLP.Chemscore.Metal>
0.0000

> <Gold.Chemscore.Hbonds>
donor molecule, donor type, donor heavy atom, donor atom, acceptor molecule, acceptor atom, score
      L1  H     4    29       P1  7948  1.00
      L1  H     8    49       P1  7948  2.00
      P1  H  6931  6943       L1    18  0.53
      P1  H  6934  6947       L1    18  0.70

> <Gold.PLP.Chemscore.Internal.Correction>
0.1130

> <Gold.Rescore>
     Score         DG    S(hbond)    S(metal)    S(lipo)     H(rot)  DE(clash)    DE(int)     intcor
     20.08     -20.75       2.81        0.00      97.92       2.18       0.14       0.53       ----

> <Gold.Chemscore.Fitness>
20.0813

> <Gold.Chemscore.DG>
-20.7517

> <Gold.Chemscore.ZeroCoef>
-5.4800

> <Gold.Chemscore.Hbond>
2.8126

> <Gold.Chemscore.Metal>
0.0000

> <Gold.Chemscore.Lipo>
97.9214

> <Gold.Chemscore.Internal_Hbond>
0.0000

> <Gold.Chemscore.DEClash>
0.1373

> <Gold.Chemscore.DEInternal>
0.5331

> <Gold.Chemscore.Rot>
2.1793

> <Gold.Chemscore.Internal.Correction>
   9.000000E+99

> <Gold.Chemscore.Hbonds>
donor molecule, donor type, donor heavy atom, donor atom, acceptor molecule, acceptor atom, score
      L1  H     4    29       P1  7948  1.00
      L1  H     8    49       P1  7948  0.95
      P1  H  6931  6943       L1    18  0.30
      P1  H  6934  6947       L1    18  0.61

> <Gold.Chemscore.Hbond.Weighted>
-9.3940

> <Gold.Chemscore.Metal.Weighted>
-0.0000

> <Gold.Chemscore.Lipo.Weighted>
-11.4568

> <Gold.Chemscore.Internal_Hbond.Weighted>
0.0000

> <Gold.Chemscore.DEClash.Weighted>
0.1373

> <Gold.Chemscore.DEInternal.Weighted>
0.5331

> <Gold.Chemscore.Rot.Weighted>
5.5791

> <Gold.Chemscore.Internal.Correction.Weighted>
   9.000000E+99

> <Gold.Protein.RotatedTorsions>
[ 6907 6896 6895 6894 ] final  -13.57 input  -60.11 | X-H torsion
[ 7974 7965 7964 7962 ] final   58.65 input  175.53 | X-H torsion
[ 8008 7997 7996 7995 ] final   67.04 input   59.86 | X-H torsion
[ 10167 10162 10161 10158 ] final -140.93 input  -65.29 | X-H torsion
[ 10718 10713 10712 10709 ] final  -51.62 input   66.30 | X-H torsion
[ 10763 10752 10751 10750 ] final -179.63 input  -60.55 | X-H torsion
[ 11005 11000 10999 10996 ] final   33.45 input  -57.11 | X-H torsion

> <Gold.Protein.ActiveResidues>
 VAL166  LYS551  ARG553  GLY616  TRP617  ASP618  TYR619  PRO620  LYS621  CYS622 
 ASP623  PHE694  ASN695  SER759  ASP760  ASP761  ALA762  ILE779  LEU786  VAL792 
 PHE793  MET794  SER795  GLU796  ALA797  LYS798  CYS799  TRP800  GLU811  SER814 

> <Gold.Protein.RotatedAtoms>
  151.3529  135.0888  159.9408 H   0  0  0  0  0  0  0  0  0  0  0  0  # atno 6907 bound_to 6896
  152.5182  133.9335  159.7602 H   0  0  0  0  0  0  0  0  0  0  0  0  # atno 6908 bound_to 6896
  150.9713  133.6287  159.2767 H   0  0  0  0  0  0  0  0  0  0  0  0  # atno 6909 bound_to 6896
  145.9159  139.3690  143.0507 H   0  0  0  0  0  0  0  0  0  0  0  0  # atno 7974 bound_to 7965
  155.6867  140.3496  155.4877 H   0  0  0  0  0  0  0  0  0  0  0  0  # atno 8008 bound_to 7997
  155.9560  140.1128  157.0959 H   0  0  0  0  0  0  0  0  0  0  0  0  # atno 8009 bound_to 7997
  154.4132  140.1185  156.5101 H   0  0  0  0  0  0  0  0  0  0  0  0  # atno 8010 bound_to 7997
  139.8234  143.7543  152.2666 H   0  0  0  0  0  0  0  0  0  0  0  0  # atno 10167 bound_to 10162
  156.1694  130.4149  149.9670 H   0  0  0  0  0  0  0  0  0  0  0  0  # atno 10718 bound_to 10713
  154.5327  135.2801  155.1166 H   0  0  0  0  0  0  0  0  0  0  0  0  # atno 10763 bound_to 10752
  154.2680  135.6309  153.5303 H   0  0  0  0  0  0  0  0  0  0  0  0  # atno 10764 bound_to 10752
  152.9960  135.5621  154.5844 H   0  0  0  0  0  0  0  0  0  0  0  0  # atno 10765 bound_to 10752
  140.2630  134.3170  155.7852 H   0  0  0  0  0  0  0  0  0  0  0  0  # atno 11005 bound_to 11000
  145.8612  140.9474  143.0699 LP  0  0  0  0  0  0  0  0  0  0  0  0  # atno 17320 bound_to 7965
  144.6748  140.0533  143.7478 LP  0  0  0  0  0  0  0  0  0  0  0  0  # atno 17321 bound_to 7965
  139.7729  144.7471  151.0199 LP  0  0  0  0  0  0  0  0  0  0  0  0  # atno 17342 bound_to 10162
  140.7812  143.4626  151.0257 LP  0  0  0  0  0  0  0  0  0  0  0  0  # atno 17343 bound_to 10162
  156.7475  130.9103  151.3635 LP  0  0  0  0  0  0  0  0  0  0  0  0  # atno 17370 bound_to 10713
  157.6792  130.9123  150.0224 LP  0  0  0  0  0  0  0  0  0  0  0  0  # atno 17371 bound_to 10713
  141.2188  133.7421  156.9216 LP  0  0  0  0  0  0  0  0  0  0  0  0  # atno 17394 bound_to 11000
  140.1446  134.9270  157.2513 LP  0  0  0  0  0  0  0  0  0  0  0  0  # atno 17395 bound_to 11000

$$$$
