AV-unprocessed.smi:2024|AV-procd|sdf|8195|dock1
  -GOLD-   2272010453D 1   1.00000     0.00000
 Structure written by MMmdl.
 43 44  0  0  0  0  0  0  0  0  3 V2000
  145.4107  132.2272  152.4830 C   0  0  0  0  0  0  0  0  0  0  0  0
  146.3184  133.1255  151.7778 N   0  0  0  0  0  0  0  0  0  0  0  0
  145.9211  134.5305  151.8644 C   0  0  0  0  0  0  0  0  0  0  0  0
  146.1409  135.1165  153.2750 C   0  0  0  0  0  0  0  0  0  0  0  0
  147.5673  134.9792  153.6872 N   0  3  0  0  0  0  0  0  0  0  0  0
  147.9602  135.7064  154.9476 C   0  0  0  0  0  0  0  0  0  0  0  0
  149.4980  135.6518  155.1302 C   0  0  0  0  0  0  0  0  0  0  0  0
  147.6014  137.2074  154.8065 C   0  0  0  0  0  0  0  0  0  0  0  0
  147.2618  135.0885  156.1966 C   0  0  0  0  0  0  0  0  0  0  0  0
  147.3774  135.9186  157.3947 N   0  0  0  0  0  0  0  0  0  0  0  0
  148.2400  135.7431  158.4060 C   0  0  0  0  0  0  0  0  0  0  0  0
  149.0457  134.8100  158.3752 O   0  0  0  0  0  0  0  0  0  0  0  0
  148.1061  136.6548  159.3946 N   0  5  0  0  0  0  0  0  0  0  0  0
  147.7985  136.2549  160.6390 C   0  0  0  0  0  0  0  0  0  0  0  0
  147.8411  137.0697  161.6991 N   0  0  0  0  0  0  0  0  0  0  0  0
  147.4792  136.4447  162.8940 C   0  0  0  0  0  0  0  0  0  0  0  0
  147.1443  135.1259  162.7382 C   0  0  0  0  0  0  0  0  0  0  0  0
  147.2722  134.6266  161.0758 S   0  0  0  0  0  0  0  0  0  0  0  0
  147.9593  133.5429  153.6136 C   0  0  0  0  0  0  0  0  0  0  0  0
  147.7120  132.9823  152.1973 C   0  0  0  0  0  0  0  0  0  0  0  0
  144.3991  132.3280  152.0886 H   0  0  0  0  0  0  0  0  0  0  0  0
  145.3749  132.4216  153.5542 H   0  0  0  0  0  0  0  0  0  0  0  0
  145.7184  131.1911  152.3388 H   0  0  0  0  0  0  0  0  0  0  0  0
  146.5029  135.1010  151.1391 H   0  0  0  0  0  0  0  0  0  0  0  0
  144.8762  134.6329  151.5691 H   0  0  0  0  0  0  0  0  0  0  0  0
  145.8415  136.1616  153.2365 H   0  0  0  0  0  0  0  0  0  0  0  0
  145.4809  134.6322  153.9941 H   0  0  0  0  0  0  0  0  0  0  0  0
  149.8356  136.3328  155.9125 H   0  0  0  0  0  0  0  0  0  0  0  0
  150.0181  135.9352  154.2144 H   0  0  0  0  0  0  0  0  0  0  0  0
  149.8465  134.6622  155.4247 H   0  0  0  0  0  0  0  0  0  0  0  0
  148.0568  137.8083  155.5943 H   0  0  0  0  0  0  0  0  0  0  0  0
  146.5286  137.3862  154.8743 H   0  0  0  0  0  0  0  0  0  0  0  0
  147.9519  137.6131  153.8568 H   0  0  0  0  0  0  0  0  0  0  0  0
  146.2114  134.8766  155.9975 H   0  0  0  0  0  0  0  0  0  0  0  0
  147.7133  134.1298  156.4492 H   0  0  0  0  0  0  0  0  0  0  0  0
  146.7422  136.6998  157.4684 H   0  0  0  0  0  0  0  0  0  0  0  0
  147.4879  137.0157  163.8105 H   0  0  0  0  0  0  0  0  0  0  0  0
  146.8304  134.4221  163.4940 H   0  0  0  0  0  0  0  0  0  0  0  0
  149.0184  133.4129  153.8250 H   0  0  0  0  0  0  0  0  0  0  0  0
  147.4198  132.9565  154.3569 H   0  0  0  0  0  0  0  0  0  0  0  0
  148.0017  131.9320  152.1488 H   0  0  0  0  0  0  0  0  0  0  0  0
  148.3448  133.5093  151.4820 H   0  0  0  0  0  0  0  0  0  0  0  0
  148.0966  135.4339  152.9573 H   0  0  0  0  0  0  0  0  0  0  0  0
  1  2  1  0  0  0  0
  1 21  1  0  0  0  0
  1 22  1  0  0  0  0
  1 23  1  0  0  0  0
  2 20  1  0  0  0  0
  2  3  1  0  0  0  0
  3  4  1  0  0  0  0
  3 24  1  0  0  0  0
  3 25  1  0  0  0  0
  4  5  1  0  0  0  0
  4 26  1  0  0  0  0
  4 27  1  0  0  0  0
  5  6  1  0  0  0  0
  5 19  1  0  0  0  0
  5 43  1  0  0  0  0
  6  7  1  0  0  0  0
  6  8  1  0  0  0  0
  6  9  1  0  0  0  0
  7 28  1  0  0  0  0
  7 29  1  0  0  0  0
  7 30  1  0  0  0  0
  8 31  1  0  0  0  0
  8 32  1  0  0  0  0
  8 33  1  0  0  0  0
  9 10  1  0  0  0  0
  9 34  1  0  0  0  0
  9 35  1  0  0  0  0
 10 11  1  0  0  0  0
 10 36  1  0  0  0  0
 11 12  2  0  0  0  0
 11 13  1  0  0  0  0
 13 14  1  0  0  0  0
 14 18  1  0  0  0  0
 14 15  2  0  0  0  0
 15 16  1  0  0  0  0
 16 17  2  0  0  0  0
 16 37  1  0  0  0  0
 17 18  1  0  0  0  0
 17 38  1  0  0  0  0
 19 20  1  0  0  0  0
 19 39  1  0  0  0  0
 19 40  1  0  0  0  0
 20 41  1  0  0  0  0
 20 42  1  0  0  0  0
M  CHG  1   5   1
M  CHG  1  13  -1
M  END
> <s_m_source_file>
AV-unprocessed.smi

> <i_m_source_file_index>
2024

> <i_lp_mmshare_version>
43012

> <i_f3d_flags>
0

> <s_epik_input>
W0NIM11OMVtDSDJdW0NIMl1OKFtDSDJdW0NIMl0xKUMoW0NIM10pKFtDSDNdKVtDSDJdW05IXUMoPU8pW05IXWMybltjSF1bY0hdczI=

> <s_epik_cmdline>
J2VwaWtfcHl0aG9uJywgJy1waCcsICc3LjAnLCAnLXRuJywgJzgnLCAnLW1hJywgJzIwMCcsICctbWV0YWxfYmluZGluZycsICctaW1hZScsICc8aW5maWxlLm1hZT4nLCAnLW9tYWUnLCAnPG91dGZpbGUubWFlPic=

> <r_epik_Ionization_Penalty>
6.29536

> <r_epik_Ionization_Penalty_Charging>
5.46232

> <r_epik_Ionization_Penalty_Neutral>
0.833035

> <r_epik_State_Penalty>
6.42136

> <r_epik_Charging_Adjusted_Penalty>
11.8837

> <i_epik_Tot_Q>
0

> <i_epik_Tot_abs_Q>
2

> <r_epik_Metal_State_Penalty>
2.42657

> <b_epik_Metal_Only>
1

> <s_lp_Force_Field>
OPLS_2005

> <r_lp_Energy>
16.4996

> <b_lp_Chiralities_Consistent>
1

> <s_lp_Variant>
AV-unprocessed.smi:2024-5

> <Gold.Version>
5.8.1

> <Gold.Id.Protein>
6NUR|6NUR_protein|mol2

> <Gold.PLP.Fitness>
42.5684

> <Gold.PLP.PLP>
-30.2020

> <Gold.PLP.part.hbond>
-4.0000

> <Gold.PLP.part.metal>
0.0000

> <Gold.PLP.part.buried>
-2.2180

> <Gold.PLP.part.nonpolar>
-23.8714

> <Gold.PLP.part.repulsive>
0.1471

> <Gold.PLP.ligand.clash>
0.0000

> <Gold.PLP.ligand.torsion>
0.8870

> <Gold.PLP.Chemscore.Hbond>
4.6750

> <Gold.PLP.Chemscore.CHOScore>
0.0000

> <Gold.PLP.Chemscore.Metal>
0.0000

> <Gold.Chemscore.Hbonds>
donor molecule, donor type, donor heavy atom, donor atom, acceptor molecule, acceptor atom, score
      L1  H     5    43       P1  7948  2.00
      P1  H  6896  6908       L1    12  1.00
      P1  H  6931  6943       L1    15  1.00
      P1  H  6934  6947       L1    15  0.41

> <Gold.PLP.Chemscore.Internal.Correction>
0.1154

> <Gold.Rescore>
     Score         DG    S(hbond)    S(metal)    S(lipo)     H(rot)  DE(clash)    DE(int)     intcor
     17.90     -18.86       3.10        0.00      60.17       1.57       0.03       0.93       ----

> <Gold.Chemscore.Fitness>
17.9014

> <Gold.Chemscore.DG>
-18.8604

> <Gold.Chemscore.ZeroCoef>
-5.4800

> <Gold.Chemscore.Hbond>
3.0999

> <Gold.Chemscore.Metal>
0.0000

> <Gold.Chemscore.Lipo>
60.1732

> <Gold.Chemscore.Internal_Hbond>
0.0000

> <Gold.Chemscore.DEClash>
0.0270

> <Gold.Chemscore.DEInternal>
0.9321

> <Gold.Chemscore.Rot>
1.5678

> <Gold.Chemscore.Internal.Correction>
   9.000000E+99

> <Gold.Chemscore.Hbonds>
donor molecule, donor type, donor heavy atom, donor atom, acceptor molecule, acceptor atom, score
      L1  H     5    43       P1  7948  0.98
      P1  H  6896  6908       L1    12  0.98
      P1  H  6931  6943       L1    15  0.84
      P1  H  6934  6947       L1    15  0.21

> <Gold.Chemscore.Hbond.Weighted>
-10.3538

> <Gold.Chemscore.Metal.Weighted>
-0.0000

> <Gold.Chemscore.Lipo.Weighted>
-7.0403

> <Gold.Chemscore.Internal_Hbond.Weighted>
0.0000

> <Gold.Chemscore.DEClash.Weighted>
0.0270

> <Gold.Chemscore.DEInternal.Weighted>
0.9321

> <Gold.Chemscore.Rot.Weighted>
4.0136

> <Gold.Chemscore.Internal.Correction.Weighted>
   9.000000E+99

> <Gold.Protein.RotatedTorsions>
[ 6907 6896 6895 6894 ] final  151.38 input  -60.11 | X-H torsion
[ 7974 7965 7964 7962 ] final   65.92 input  175.53 | X-H torsion
[ 8008 7997 7996 7995 ] final  120.68 input   59.86 | X-H torsion
[ 10167 10162 10161 10158 ] final   -4.41 input  -65.29 | X-H torsion
[ 10718 10713 10712 10709 ] final  -29.21 input   66.30 | X-H torsion
[ 10763 10752 10751 10750 ] final -162.82 input  -60.55 | X-H torsion
[ 11005 11000 10999 10996 ] final  -76.50 input  -57.11 | X-H torsion

> <Gold.Protein.ActiveResidues>
 VAL166  LYS551  ARG553  GLY616  TRP617  ASP618  TYR619  PRO620  LYS621  CYS622 
 ASP623  PHE694  ASN695  SER759  ASP760  ASP761  ALA762  ILE779  LEU786  VAL792 
 PHE793  MET794  SER795  GLU796  ALA797  LYS798  CYS799  TRP800  GLU811  SER814 

> <Gold.Protein.RotatedAtoms>
  152.1014  133.4251  159.4588 H   0  0  0  0  0  0  0  0  0  0  0  0  # atno 6907 bound_to 6896
  150.6864  134.2756  159.4615 H   0  0  0  0  0  0  0  0  0  0  0  0  # atno 6908 bound_to 6896
  152.0617  134.9590  160.0625 H   0  0  0  0  0  0  0  0  0  0  0  0  # atno 6909 bound_to 6896
  145.8327  139.3148  143.0978 H   0  0  0  0  0  0  0  0  0  0  0  0  # atno 7974 bound_to 7965
  156.2653  140.2825  156.1189 H   0  0  0  0  0  0  0  0  0  0  0  0  # atno 8008 bound_to 7997
  155.1177  140.0392  157.2759 H   0  0  0  0  0  0  0  0  0  0  0  0  # atno 8009 bound_to 7997
  154.6694  140.2584  155.7029 H   0  0  0  0  0  0  0  0  0  0  0  0  # atno 8010 bound_to 7997
  140.6926  143.6427  150.8421 H   0  0  0  0  0  0  0  0  0  0  0  0  # atno 10167 bound_to 10162
  156.4154  130.4416  149.7222 H   0  0  0  0  0  0  0  0  0  0  0  0  # atno 10718 bound_to 10713
  154.7179  135.3019  154.9094 H   0  0  0  0  0  0  0  0  0  0  0  0  # atno 10763 bound_to 10752
  153.9976  135.6711  153.4761 H   0  0  0  0  0  0  0  0  0  0  0  0  # atno 10764 bound_to 10752
  153.0809  135.5009  154.8416 H   0  0  0  0  0  0  0  0  0  0  0  0  # atno 10765 bound_to 10752
  141.1654  133.6986  156.7678 H   0  0  0  0  0  0  0  0  0  0  0  0  # atno 11005 bound_to 11000
  145.9553  140.8877  143.0238 LP  0  0  0  0  0  0  0  0  0  0  0  0  # atno 17320 bound_to 7965
  144.6738  140.1736  143.7412 LP  0  0  0  0  0  0  0  0  0  0  0  0  # atno 17321 bound_to 7965
  140.0142  143.5610  152.2827 LP  0  0  0  0  0  0  0  0  0  0  0  0  # atno 17342 bound_to 10162
  139.6345  144.7648  151.2466 LP  0  0  0  0  0  0  0  0  0  0  0  0  # atno 17343 bound_to 10162
  156.4184  130.7756  151.2773 LP  0  0  0  0  0  0  0  0  0  0  0  0  # atno 17370 bound_to 10713
  157.7508  131.0190  150.3650 LP  0  0  0  0  0  0  0  0  0  0  0  0  # atno 17371 bound_to 10713
  140.2486  134.8558  157.3645 LP  0  0  0  0  0  0  0  0  0  0  0  0  # atno 17394 bound_to 11000
  140.1725  134.4591  155.7823 LP  0  0  0  0  0  0  0  0  0  0  0  0  # atno 17395 bound_to 11000

$$$$
