AV-unprocessed.smi:223|AV-procd|sdf|1703|dock2
  -GOLD-   2262020163D 1   1.00000     0.00000
 Structure written by MMmdl.
 47 50  0  0  0  0  0  0  0  0  1 V2000
  151.5503  145.0405  159.6394 C   0  0  0  0  0  0  0  0  0  0  0  0
  151.8267  143.5674  159.9631 C   0  0  2  0  0  0  0  0  0  0  0  0
  152.3156  143.4389  161.3465 C   0  0  0  0  0  0  0  0  0  0  0  0
  152.7001  143.3383  162.4332 N   0  0  0  0  0  0  0  0  0  0  0  0
  152.7963  142.9497  158.9346 C   0  0  0  0  0  0  0  0  0  0  0  0
  153.0506  141.5243  159.1455 N   0  0  0  0  0  0  0  0  0  0  0  0
  152.5285  140.6617  158.2329 C   0  0  0  0  0  0  0  0  0  0  0  0
  153.3575  139.8060  157.5758 N   0  0  0  0  0  0  0  0  0  0  0  0
  152.8759  138.9669  156.6552 C   0  0  0  0  0  0  0  0  0  0  0  0
  151.6165  138.8142  156.2444 N   0  0  0  0  0  0  0  0  0  0  0  0
  150.7749  139.6587  156.9058 C   0  0  0  0  0  0  0  0  0  0  0  0
  151.1427  140.6062  157.9042 C   0  0  0  0  0  0  0  0  0  0  0  0
  150.0106  141.2785  158.3501 N   0  0  0  0  0  0  0  0  0  0  0  0
  149.0360  140.7696  157.6479 C   0  0  0  0  0  0  0  0  0  0  0  0
  149.4037  139.7820  156.7627 N   0  0  0  0  0  0  0  0  0  0  0  0
  148.5268  139.0465  155.8635 C   0  0  0  0  0  0  0  0  0  0  0  0
  148.3801  139.6993  154.4686 C   0  0  1  0  0  0  0  0  0  0  0  0
  149.2168  139.0161  153.5505 O   0  0  0  0  0  0  0  0  0  0  0  0
  146.9526  139.6538  153.9385 C   0  0  0  0  0  0  0  0  0  0  0  0
  146.8918  140.8772  153.0340 C   0  0  0  0  0  0  0  0  0  0  0  0
  147.6302  141.8457  153.7591 O   0  0  0  0  0  0  0  0  0  0  0  0
  148.7201  141.2036  154.4153 C   0  0  0  0  0  0  0  0  0  0  0  0
  154.3234  141.1674  159.7673 C   0  0  0  0  0  0  0  0  0  0  0  0
  154.4707  139.8098  160.4175 C   0  0  0  0  0  0  0  0  0  0  0  0
  154.3873  141.0529  161.2721 C   0  0  0  0  0  0  0  0  0  0  0  0
  150.8458  145.4710  160.3516 H   0  0  0  0  0  0  0  0  0  0  0  0
  151.1216  145.1515  158.6430 H   0  0  0  0  0  0  0  0  0  0  0  0
  152.4661  145.6312  159.6783 H   0  0  0  0  0  0  0  0  0  0  0  0
  150.8766  143.0346  159.9231 H   0  0  0  0  0  0  0  0  0  0  0  0
  152.3667  143.0533  157.9377 H   0  0  0  0  0  0  0  0  0  0  0  0
  153.7224  143.5204  158.9073 H   0  0  0  0  0  0  0  0  0  0  0  0
  153.6042  138.3280  156.1779 H   0  0  0  0  0  0  0  0  0  0  0  0
  148.0131  141.0981  157.7619 H   0  0  0  0  0  0  0  0  0  0  0  0
  148.9113  138.0304  155.7670 H   0  0  0  0  0  0  0  0  0  0  0  0
  147.5493  138.9571  156.3388 H   0  0  0  0  0  0  0  0  0  0  0  0
  149.3020  139.5459  152.7725 H   0  0  0  0  0  0  0  0  0  0  0  0
  146.7033  138.7253  153.4228 H   0  0  0  0  0  0  0  0  0  0  0  0
  146.2406  139.7818  154.7551 H   0  0  0  0  0  0  0  0  0  0  0  0
  147.3806  140.6833  152.0781 H   0  0  0  0  0  0  0  0  0  0  0  0
  145.8720  141.2103  152.8402 H   0  0  0  0  0  0  0  0  0  0  0  0
  148.8157  141.6415  155.4081 H   0  0  0  0  0  0  0  0  0  0  0  0
  149.6512  141.3995  153.8817 H   0  0  0  0  0  0  0  0  0  0  0  0
  155.2149  141.5578  159.2796 H   0  0  0  0  0  0  0  0  0  0  0  0
  153.6081  139.1461  160.4116 H   0  0  0  0  0  0  0  0  0  0  0  0
  155.4376  139.3183  160.3350 H   0  0  0  0  0  0  0  0  0  0  0  0
  155.2988  141.3890  161.7619 H   0  0  0  0  0  0  0  0  0  0  0  0
  153.4693  141.2121  161.8345 H   0  0  0  0  0  0  0  0  0  0  0  0
  1  2  1  0  0  0  0
  1 26  1  0  0  0  0
  1 27  1  0  0  0  0
  1 28  1  0  0  0  0
  2  3  1  0  0  0  0
  2  5  1  0  0  0  0
  2 29  1  0  0  0  0
  3  4  3  0  0  0  0
  5  6  1  0  0  0  0
  5 30  1  0  0  0  0
  5 31  1  0  0  0  0
  6  7  1  0  0  0  0
  6 23  1  0  0  0  0
  7 12  1  0  0  0  0
  7  8  2  0  0  0  0
  8  9  1  0  0  0  0
  9 10  2  0  0  0  0
  9 32  1  0  0  0  0
 10 11  1  0  0  0  0
 11 15  1  0  0  0  0
 11 12  2  0  0  0  0
 12 13  1  0  0  0  0
 13 14  2  0  0  0  0
 14 15  1  0  0  0  0
 14 33  1  0  0  0  0
 15 16  1  0  0  0  0
 16 17  1  0  0  0  0
 16 34  1  0  0  0  0
 16 35  1  0  0  0  0
 17 22  1  0  0  0  0
 17 18  1  0  0  0  0
 17 19  1  0  0  0  0
 18 36  1  0  0  0  0
 19 20  1  0  0  0  0
 19 37  1  0  0  0  0
 19 38  1  0  0  0  0
 20 21  1  0  0  0  0
 20 39  1  0  0  0  0
 20 40  1  0  0  0  0
 21 22  1  0  0  0  0
 22 41  1  0  0  0  0
 22 42  1  0  0  0  0
 23 25  1  0  0  0  0
 23 24  1  0  0  0  0
 23 43  1  0  0  0  0
 24 25  1  0  0  0  0
 24 44  1  0  0  0  0
 24 45  1  0  0  0  0
 25 46  1  0  0  0  0
 25 47  1  0  0  0  0
M  END
> <s_m_source_file>
AV-unprocessed.smi

> <i_m_source_file_index>
223

> <i_lp_mmshare_version>
43012

> <i_f3d_flags>
0

> <s_epik_input>
TiNDW0NAQEhdKFtDSDNdKVtDSDJdTihbQ0hdMVtDSDJdW0NIMl0xKWMobltjSF1uMiljKGMyMyluW2NIXW4zW0NIMl1bQ0BAXTQoW09IXSlbQ0gyXVtDSDJdT1tDSDJdNA==

> <s_epik_cmdline>
J2VwaWtfcHl0aG9uJywgJy1waCcsICc3LjAnLCAnLXRuJywgJzgnLCAnLW1hJywgJzIwMCcsICctbWV0YWxfYmluZGluZycsICctaW1hZScsICc8aW5maWxlLm1hZT4nLCAnLW9tYWUnLCAnPG91dGZpbGUubWFlPic=

> <r_lp_tautomer_probability>
1

> <r_epik_Ionization_Penalty>
0.000756152

> <r_epik_Ionization_Penalty_Charging>
0

> <r_epik_Ionization_Penalty_Neutral>
0.000756152

> <r_epik_State_Penalty>
0.00038036

> <r_epik_Charging_Adjusted_Penalty>
0.00038036

> <i_epik_Tot_Q>
0

> <i_epik_Tot_abs_Q>
0

> <r_epik_Metal_State_Penalty>
-0

> <b_epik_Metal_Only>
0

> <s_lp_Force_Field>
OPLS_2005

> <r_lp_Energy>
37.204

> <b_lp_Chiralities_Consistent>
1

> <s_lp_Variant>
AV-unprocessed.smi:223-1

> <Gold.Version>
5.8.1

> <Gold.Id.Protein>
6NUR|6NUR_protein|mol2

> <Gold.PLP.Fitness>
47.3773

> <Gold.PLP.PLP>
-44.7708

> <Gold.PLP.part.hbond>
-2.8630

> <Gold.PLP.part.metal>
0.0000

> <Gold.PLP.part.buried>
-4.6271

> <Gold.PLP.part.nonpolar>
-36.2604

> <Gold.PLP.part.repulsive>
0.3471

> <Gold.PLP.ligand.clash>
0.0000

> <Gold.PLP.ligand.torsion>
2.3716

> <Gold.PLP.Chemscore.Hbond>
2.0000

> <Gold.PLP.Chemscore.CHOScore>
0.0000

> <Gold.PLP.Chemscore.Metal>
0.0000

> <Gold.Chemscore.Hbonds>
donor molecule, donor type, donor heavy atom, donor atom, acceptor molecule, acceptor atom, score
      L1  H    18    36       P1  7957  1.00
      P1  H  7997  8008       L1     8  0.68

> <Gold.PLP.Chemscore.Internal.Correction>
1.3497

> <Gold.Rescore>
     Score         DG    S(hbond)    S(metal)    S(lipo)     H(rot)  DE(clash)    DE(int)     intcor
     11.91     -14.42       1.63        0.00      89.29       2.72       0.15       2.35       ----

> <Gold.Chemscore.Fitness>
11.9111

> <Gold.Chemscore.DG>
-14.4169

> <Gold.Chemscore.ZeroCoef>
-5.4800

> <Gold.Chemscore.Hbond>
1.6306

> <Gold.Chemscore.Metal>
0.0000

> <Gold.Chemscore.Lipo>
89.2869

> <Gold.Chemscore.Internal_Hbond>
0.0000

> <Gold.Chemscore.DEClash>
0.1534

> <Gold.Chemscore.DEInternal>
2.3523

> <Gold.Chemscore.Rot>
2.7171

> <Gold.Chemscore.Internal.Correction>
   9.000000E+99

> <Gold.Chemscore.Hbonds>
donor molecule, donor type, donor heavy atom, donor atom, acceptor molecule, acceptor atom, score
      L1  H    18    36       P1  7957  1.00
      P1  H  7997  8008       L1     8  0.26

> <Gold.Chemscore.Hbond.Weighted>
-5.4461

> <Gold.Chemscore.Metal.Weighted>
-0.0000

> <Gold.Chemscore.Lipo.Weighted>
-10.4466

> <Gold.Chemscore.Internal_Hbond.Weighted>
0.0000

> <Gold.Chemscore.DEClash.Weighted>
0.1534

> <Gold.Chemscore.DEInternal.Weighted>
2.3523

> <Gold.Chemscore.Rot.Weighted>
6.9558

> <Gold.Chemscore.Internal.Correction.Weighted>
   9.000000E+99

> <Gold.Protein.RotatedTorsions>
[ 6907 6896 6895 6894 ] final   89.83 input  -60.11 | X-H torsion
[ 7974 7965 7964 7962 ] final   60.54 input  175.53 | X-H torsion
[ 8008 7997 7996 7995 ] final  -95.84 input   59.86 | X-H torsion
[ 10167 10162 10161 10158 ] final  167.36 input  -65.29 | X-H torsion
[ 10718 10713 10712 10709 ] final   46.93 input   66.30 | X-H torsion
[ 10763 10752 10751 10750 ] final -145.78 input  -60.55 | X-H torsion
[ 11005 11000 10999 10996 ] final   70.32 input  -57.11 | X-H torsion

> <Gold.Protein.ActiveResidues>
 VAL166  LYS551  ARG553  GLY616  TRP617  ASP618  TYR619  PRO620  LYS621  CYS622 
 ASP623  PHE694  ASN695  SER759  ASP760  ASP761  ALA762  ILE779  LEU786  VAL792 
 PHE793  MET794  SER795  GLU796  ALA797  LYS798  CYS799  TRP800  GLU811  SER814 

> <Gold.Protein.RotatedAtoms>
  152.5440  134.1905  159.8671 H   0  0  0  0  0  0  0  0  0  0  0  0  # atno 6907 bound_to 6896
  151.1901  133.4665  159.2602 H   0  0  0  0  0  0  0  0  0  0  0  0  # atno 6908 bound_to 6896
  151.1092  135.0029  159.8541 H   0  0  0  0  0  0  0  0  0  0  0  0  # atno 6909 bound_to 6896
  145.8949  139.3538  143.0627 H   0  0  0  0  0  0  0  0  0  0  0  0  # atno 7974 bound_to 7965
  154.7666  140.0476  157.1017 H   0  0  0  0  0  0  0  0  0  0  0  0  # atno 8008 bound_to 7997
  154.9872  140.3109  155.4902 H   0  0  0  0  0  0  0  0  0  0  0  0  # atno 8009 bound_to 7997
  156.2914  140.2225  156.4975 H   0  0  0  0  0  0  0  0  0  0  0  0  # atno 8010 bound_to 7997
  139.4944  144.3930  151.9496 H   0  0  0  0  0  0  0  0  0  0  0  0  # atno 10167 bound_to 10162
  157.4532  130.8151  149.7810 H   0  0  0  0  0  0  0  0  0  0  0  0  # atno 10718 bound_to 10713
  154.8367  135.3404  154.6558 H   0  0  0  0  0  0  0  0  0  0  0  0  # atno 10763 bound_to 10752
  153.7172  135.6960  153.5026 H   0  0  0  0  0  0  0  0  0  0  0  0  # atno 10764 bound_to 10752
  153.2408  135.4385  155.0649 H   0  0  0  0  0  0  0  0  0  0  0  0  # atno 10765 bound_to 10752
  139.9604  134.7070  156.0658 H   0  0  0  0  0  0  0  0  0  0  0  0  # atno 11005 bound_to 11000
  145.8863  140.9332  143.0575 LP  0  0  0  0  0  0  0  0  0  0  0  0  # atno 17320 bound_to 7965
  144.6732  140.0846  143.7468 LP  0  0  0  0  0  0  0  0  0  0  0  0  # atno 17321 bound_to 7965
  140.3367  144.3252  150.5975 LP  0  0  0  0  0  0  0  0  0  0  0  0  # atno 17342 bound_to 10162
  140.5600  143.2193  151.7782 LP  0  0  0  0  0  0  0  0  0  0  0  0  # atno 17343 bound_to 10162
  155.9996  130.3888  150.2658 LP  0  0  0  0  0  0  0  0  0  0  0  0  # atno 17370 bound_to 10713
  157.0831  131.0149  151.3149 LP  0  0  0  0  0  0  0  0  0  0  0  0  # atno 17371 bound_to 10713
  141.1281  133.6594  156.3390 LP  0  0  0  0  0  0  0  0  0  0  0  0  # atno 17394 bound_to 11000
  140.5513  134.6025  157.5408 LP  0  0  0  0  0  0  0  0  0  0  0  0  # atno 17395 bound_to 11000

$$$$
