AV-unprocessed.smi:276|AV-procd|sdf|2074|dock1
  -GOLD-   2262021333D 1   1.00000     0.00000
 Structure written by MMmdl.
 57 61  0  0  0  0  0  0  0  0  1 V2000
  152.5544  141.8040  160.3583 C   0  0  0  0  0  0  0  0  0  0  0  0
  152.7310  141.2813  159.0536 O   0  0  0  0  0  0  0  0  0  0  0  0
  151.5133  141.1956  158.3306 C   0  0  2  0  0  0  0  0  0  0  0  0
  151.6768  140.8553  156.8436 C   0  0  0  0  0  0  0  0  0  0  0  0
  150.5771  141.8903  156.5320 C   0  0  1  0  0  0  0  0  0  0  0  0
  149.2479  141.2638  156.4800 N   0  0  0  0  0  0  0  0  0  0  0  0
  149.2147  139.8711  156.0445 C   0  0  0  0  0  0  0  0  0  0  0  0
  148.3014  141.9648  155.8185 C   0  0  0  0  0  0  0  0  0  0  0  0
  148.3739  141.9743  154.4644 N   0  0  0  0  0  0  0  0  0  0  0  0
  147.4615  142.6422  153.7521 C   0  0  0  0  0  0  0  0  0  0  0  0
  146.4229  143.3589  154.1873 N   0  0  0  0  0  0  0  0  0  0  0  0
  146.3602  143.3658  155.5497 C   0  0  0  0  0  0  0  0  0  0  0  0
  147.2518  142.7017  156.4378 C   0  0  0  0  0  0  0  0  0  0  0  0
  146.8740  142.9397  157.7540 N   0  0  0  0  0  0  0  0  0  0  0  0
  145.8200  143.7018  157.6500 C   0  0  0  0  0  0  0  0  0  0  0  0
  145.4481  144.0150  156.3623 N   0  0  0  0  0  0  0  0  0  0  0  0
  144.3306  144.8488  155.9581 C   0  0  0  0  0  0  0  0  0  0  0  0
  144.7605  146.1208  155.1947 C   0  0  1  0  0  0  0  0  0  0  0  0
  144.8102  145.7833  153.8230 O   0  0  0  0  0  0  0  0  0  0  0  0
  143.8240  147.3371  155.3800 C   0  0  2  0  0  0  0  0  0  0  0  0
  143.6254  147.7548  156.8410 C   0  0  0  0  0  0  0  0  0  0  0  0
  142.2737  148.4281  156.8000 C   0  0  0  0  0  0  0  0  0  0  0  0
  141.5227  147.5312  155.8252 C   0  0  0  0  0  0  0  0  0  0  0  0
  142.5045  147.0533  154.9118 O   0  0  0  0  0  0  0  0  0  0  0  0
  150.9559  142.5587  157.8823 C   0  0  0  0  0  0  0  0  0  0  0  0
  151.8719  143.7970  157.8827 C   0  0  0  0  0  0  0  0  0  0  0  0
  151.2072  144.2219  159.1950 C   0  0  0  0  0  0  0  0  0  0  0  0
  150.0051  143.3686  158.7841 C   0  0  0  0  0  0  0  0  0  0  0  0
  153.5186  141.8584  160.8632 H   0  0  0  0  0  0  0  0  0  0  0  0
  151.8982  141.1694  160.9550 H   0  0  0  0  0  0  0  0  0  0  0  0
  152.1341  142.8099  160.3260 H   0  0  0  0  0  0  0  0  0  0  0  0
  150.7524  140.5887  158.8262 H   0  0  0  0  0  0  0  0  0  0  0  0
  152.6506  141.1540  156.4517 H   0  0  0  0  0  0  0  0  0  0  0  0
  151.4588  139.8167  156.5965 H   0  0  0  0  0  0  0  0  0  0  0  0
  150.8174  142.4988  155.6599 H   0  0  0  0  0  0  0  0  0  0  0  0
  148.2005  139.5406  155.8129 H   0  0  0  0  0  0  0  0  0  0  0  0
  149.5948  139.2142  156.8258 H   0  0  0  0  0  0  0  0  0  0  0  0
  149.8281  139.7322  155.1534 H   0  0  0  0  0  0  0  0  0  0  0  0
  147.5807  142.5960  152.6798 H   0  0  0  0  0  0  0  0  0  0  0  0
  145.2887  144.0674  158.5164 H   0  0  0  0  0  0  0  0  0  0  0  0
  143.6682  144.2434  155.3379 H   0  0  0  0  0  0  0  0  0  0  0  0
  143.7628  145.1190  156.8497 H   0  0  0  0  0  0  0  0  0  0  0  0
  145.7702  146.4009  155.4962 H   0  0  0  0  0  0  0  0  0  0  0  0
  143.9631  145.4541  153.5644 H   0  0  0  0  0  0  0  0  0  0  0  0
  144.1992  148.1913  154.8138 H   0  0  0  0  0  0  0  0  0  0  0  0
  143.5811  146.8783  157.4892 H   0  0  0  0  0  0  0  0  0  0  0  0
  144.4163  148.4097  157.2077 H   0  0  0  0  0  0  0  0  0  0  0  0
  141.7946  148.4926  157.7773 H   0  0  0  0  0  0  0  0  0  0  0  0
  142.3670  149.4359  156.3933 H   0  0  0  0  0  0  0  0  0  0  0  0
  141.0924  146.6758  156.3475 H   0  0  0  0  0  0  0  0  0  0  0  0
  140.7180  148.0552  155.3089 H   0  0  0  0  0  0  0  0  0  0  0  0
  152.9410  143.5948  157.9541 H   0  0  0  0  0  0  0  0  0  0  0  0
  151.6517  144.4821  157.0622 H   0  0  0  0  0  0  0  0  0  0  0  0
  151.7205  143.8328  160.0760 H   0  0  0  0  0  0  0  0  0  0  0  0
  151.0032  145.2893  159.2807 H   0  0  0  0  0  0  0  0  0  0  0  0
  149.2709  143.9605  158.2372 H   0  0  0  0  0  0  0  0  0  0  0  0
  149.5454  142.8029  159.5949 H   0  0  0  0  0  0  0  0  0  0  0  0
  1  2  1  0  0  0  0
  1 29  1  0  0  0  0
  1 30  1  0  0  0  0
  1 31  1  0  0  0  0
  2  3  1  0  0  0  0
  3 25  1  0  0  0  0
  3  4  1  0  0  0  0
  3 32  1  0  0  0  0
  4  5  1  0  0  0  0
  4 33  1  0  0  0  0
  4 34  1  0  0  0  0
  5  6  1  0  0  0  0
  5 25  1  0  0  0  0
  5 35  1  0  0  0  0
  6  7  1  0  0  0  0
  6  8  1  0  0  0  0
  7 36  1  0  0  0  0
  7 37  1  0  0  0  0
  7 38  1  0  0  0  0
  8 13  1  0  0  0  0
  8  9  2  0  0  0  0
  9 10  1  0  0  0  0
 10 11  2  0  0  0  0
 10 39  1  0  0  0  0
 11 12  1  0  0  0  0
 12 16  1  0  0  0  0
 12 13  2  0  0  0  0
 13 14  1  0  0  0  0
 14 15  2  0  0  0  0
 15 16  1  0  0  0  0
 15 40  1  0  0  0  0
 16 17  1  0  0  0  0
 17 18  1  0  0  0  0
 17 41  1  0  0  0  0
 17 42  1  0  0  0  0
 18 19  1  0  0  0  0
 18 20  1  0  0  0  0
 18 43  1  0  0  0  0
 19 44  1  0  0  0  0
 20 24  1  0  0  0  0
 20 21  1  0  0  0  0
 20 45  1  0  0  0  0
 21 22  1  0  0  0  0
 21 46  1  0  0  0  0
 21 47  1  0  0  0  0
 22 23  1  0  0  0  0
 22 48  1  0  0  0  0
 22 49  1  0  0  0  0
 23 24  1  0  0  0  0
 23 50  1  0  0  0  0
 23 51  1  0  0  0  0
 25 28  1  0  0  0  0
 25 26  1  0  0  0  0
 26 27  1  0  0  0  0
 26 52  1  0  0  0  0
 26 53  1  0  0  0  0
 27 28  1  0  0  0  0
 27 54  1  0  0  0  0
 27 55  1  0  0  0  0
 28 56  1  0  0  0  0
 28 57  1  0  0  0  0
M  END
> <s_m_source_file>
AV-unprocessed.smi

> <i_m_source_file_index>
276

> <i_lp_mmshare_version>
43012

> <i_f3d_flags>
0

> <s_epik_input>
W0NIMl0xW0NIMl1bQ0gyXUMxMltDQEhdKE9bQ0gzXSlbQ0gyXVtDQEhdMk4oW0NIM10pYyhuW2NIXW4zKWMoYzM0KW5bY0hdbjRbQ0gyXVtDQEhdKFtPSF0pW0NAQEhdNVtDSDJdW0NIMl1bQ0gyXU81

> <s_epik_cmdline>
J2VwaWtfcHl0aG9uJywgJy1waCcsICc3LjAnLCAnLXRuJywgJzgnLCAnLW1hJywgJzIwMCcsICctbWV0YWxfYmluZGluZycsICctaW1hZScsICc8aW5maWxlLm1hZT4nLCAnLW9tYWUnLCAnPG91dGZpbGUubWFlPic=

> <r_lp_tautomer_probability>
1

> <r_epik_Ionization_Penalty>
0.00204117

> <r_epik_Ionization_Penalty_Charging>
0

> <r_epik_Ionization_Penalty_Neutral>
0.00204117

> <r_epik_State_Penalty>
0.00127401

> <r_epik_Charging_Adjusted_Penalty>
0.00127401

> <i_epik_Tot_Q>
0

> <i_epik_Tot_abs_Q>
0

> <r_epik_Metal_State_Penalty>
-0

> <b_epik_Metal_Only>
0

> <s_lp_Force_Field>
OPLS_2005

> <r_lp_Energy>
56.3497

> <b_lp_Chiralities_Consistent>
1

> <s_lp_Variant>
AV-unprocessed.smi:276-5

> <Gold.Version>
5.8.1

> <Gold.Id.Protein>
6NUR|6NUR_protein|mol2

> <Gold.PLP.Fitness>
50.1581

> <Gold.PLP.PLP>
-46.6609

> <Gold.PLP.part.hbond>
-2.0000

> <Gold.PLP.part.metal>
0.0000

> <Gold.PLP.part.buried>
-10.0101

> <Gold.PLP.part.nonpolar>
-35.9179

> <Gold.PLP.part.repulsive>
0.6010

> <Gold.PLP.ligand.clash>
0.0000

> <Gold.PLP.ligand.torsion>
1.5947

> <Gold.PLP.Chemscore.Hbond>
1.0000

> <Gold.PLP.Chemscore.CHOScore>
0.9984

> <Gold.PLP.Chemscore.Metal>
0.0000

> <Gold.PLP.Chemscore.Internal.Correction>
0.6914

> <Gold.Rescore>
     Score         DG    S(hbond)    S(metal)    S(lipo)     H(rot)  DE(clash)    DE(int)     intcor
      9.49     -14.24       1.19        0.00     100.23       2.72       2.19       2.55       ----

> <Gold.Chemscore.Fitness>
9.4934

> <Gold.Chemscore.DG>
-14.2384

> <Gold.Chemscore.ZeroCoef>
-5.4800

> <Gold.Chemscore.Hbond>
1.1939

> <Gold.Chemscore.Metal>
0.0000

> <Gold.Chemscore.Lipo>
100.2281

> <Gold.Chemscore.Internal_Hbond>
0.0000

> <Gold.Chemscore.DEClash>
2.1905

> <Gold.Chemscore.DEInternal>
2.5545

> <Gold.Chemscore.Rot>
2.7172

> <Gold.Chemscore.Internal.Correction>
   9.000000E+99

> <Gold.Chemscore.Hbond.Weighted>
-3.9877

> <Gold.Chemscore.Metal.Weighted>
-0.0000

> <Gold.Chemscore.Lipo.Weighted>
-11.7267

> <Gold.Chemscore.Internal_Hbond.Weighted>
0.0000

> <Gold.Chemscore.DEClash.Weighted>
2.1905

> <Gold.Chemscore.DEInternal.Weighted>
2.5545

> <Gold.Chemscore.Rot.Weighted>
6.9560

> <Gold.Chemscore.Internal.Correction.Weighted>
   9.000000E+99

> <Gold.Protein.RotatedTorsions>
[ 6907 6896 6895 6894 ] final -116.96 input  -60.11 | X-H torsion
[ 7974 7965 7964 7962 ] final   30.97 input  175.53 | X-H torsion
[ 8008 7997 7996 7995 ] final  153.98 input   59.86 | X-H torsion
[ 10167 10162 10161 10158 ] final  -13.79 input  -65.29 | X-H torsion
[ 10718 10713 10712 10709 ] final  105.63 input   66.30 | X-H torsion
[ 10763 10752 10751 10750 ] final   -2.39 input  -60.55 | X-H torsion
[ 11005 11000 10999 10996 ] final   99.57 input  -57.11 | X-H torsion

> <Gold.Protein.ActiveResidues>
 VAL166  LYS551  ARG553  GLY616  TRP617  ASP618  TYR619  PRO620  LYS621  CYS622 
 ASP623  PHE694  ASN695  SER759  ASP760  ASP761  ALA762  ILE779  LEU786  VAL792 
 PHE793  MET794  SER795  GLU796  ALA797  LYS798  CYS799  TRP800  GLU811  SER814 

> <Gold.Protein.RotatedAtoms>
  150.8098  133.8443  159.3187 H   0  0  0  0  0  0  0  0  0  0  0  0  # atno 6907 bound_to 6896
  151.6231  135.1028  160.0115 H   0  0  0  0  0  0  0  0  0  0  0  0  # atno 6908 bound_to 6896
  152.4190  133.7044  159.6499 H   0  0  0  0  0  0  0  0  0  0  0  0  # atno 6909 bound_to 6896
  146.1579  139.6718  142.9054 H   0  0  0  0  0  0  0  0  0  0  0  0  # atno 7974 bound_to 7965
  156.2554  140.1979  156.6576 H   0  0  0  0  0  0  0  0  0  0  0  0  # atno 8008 bound_to 7997
  154.6489  140.0574  156.9958 H   0  0  0  0  0  0  0  0  0  0  0  0  # atno 8009 bound_to 7997
  155.1448  140.3246  155.4447 H   0  0  0  0  0  0  0  0  0  0  0  0  # atno 8010 bound_to 7997
  140.7189  143.5389  150.9432 H   0  0  0  0  0  0  0  0  0  0  0  0  # atno 10167 bound_to 10162
  157.6698  131.0832  150.5885 H   0  0  0  0  0  0  0  0  0  0  0  0  # atno 10718 bound_to 10713
  153.3574  135.6988  153.6739 H   0  0  0  0  0  0  0  0  0  0  0  0  # atno 10763 bound_to 10752
  153.5441  135.3567  155.2732 H   0  0  0  0  0  0  0  0  0  0  0  0  # atno 10764 bound_to 10752
  154.8663  135.4211  154.2824 H   0  0  0  0  0  0  0  0  0  0  0  0  # atno 10765 bound_to 10752
  139.8771  134.9101  156.4626 H   0  0  0  0  0  0  0  0  0  0  0  0  # atno 11005 bound_to 11000
  145.4662  141.0434  143.2724 LP  0  0  0  0  0  0  0  0  0  0  0  0  # atno 17320 bound_to 7965
  144.7988  139.6182  143.7081 LP  0  0  0  0  0  0  0  0  0  0  0  0  # atno 17321 bound_to 7965
  139.9111  143.6719  152.3115 LP  0  0  0  0  0  0  0  0  0  0  0  0  # atno 17342 bound_to 10162
  139.7102  144.7621  151.1125 LP  0  0  0  0  0  0  0  0  0  0  0  0  # atno 17343 bound_to 10162
  156.6185  130.4399  149.5831 LP  0  0  0  0  0  0  0  0  0  0  0  0  # atno 17370 bound_to 10713
  156.2374  130.6831  151.1523 LP  0  0  0  0  0  0  0  0  0  0  0  0  # atno 17371 bound_to 10713
  140.8853  133.7888  155.9511 LP  0  0  0  0  0  0  0  0  0  0  0  0  # atno 17394 bound_to 11000
  140.8811  134.2610  157.5143 LP  0  0  0  0  0  0  0  0  0  0  0  0  # atno 17395 bound_to 11000

$$$$
