#       Name:                AV-unprocessed.smi:2663
#       Creating user name   scv26
#       Creation time:       Fri Mar 27 14:34:02 2020


#       File generated by GOLD software.
#

@<TRIPOS>MOLECULE
AV-unprocessed.smi:2663
    45    46     1
SMALL
NO_CHARGES


@<TRIPOS>ATOM
      1 ****        -0.0924  -0.8303   2.2065 C.3            1 S1                 0.0000
      2 ****         0.5440  -0.1330   0.9761 C.3            1 S1                 0.0000
      3 ****         2.0907  -0.1263   1.1539 C.3            1 S1                 0.0000
      4 ****         2.5049   0.7193   2.2088 O.3            1 S1                 0.0000
      5 ****         0.2014  -0.8680  -0.2520 N.am           1 S1                 0.0000
      6 ****         0.4261  -2.1512  -0.5805 C.2            1 S1                 0.0000
      7 ****         1.0055  -2.9085   0.2004 O.2            1 S1                 0.0000
      8 ****        -0.0438  -2.4788  -1.8056 N.pl3          1 S1                -1.0000
      9 ****         0.0875  -3.7353  -2.2620 C.2            1 S1                 0.0000
     10 ****         1.0762  -4.0992  -3.0943 N.2            1 S1                 0.0000
     11 ****         1.0273  -5.4416  -3.4457 N.2            1 S1                 0.0000
     12 ****        -0.0076  -6.0562  -2.8734 C.2            1 S1                 0.0000
     13 ****        -1.0189  -5.0507  -1.8577 S.3            1 S1                 0.0000
     14 ****        -0.0288   1.3217   0.8239 C.3            1 S1                 0.0000
     15 ****        -1.5725   1.3645   0.6518 C.3            1 S1                 0.0000
     16 ****        -2.1113   2.8010   0.5581 C.3            1 S1                 0.0000
     17 ****        -1.4397   3.5746  -0.5829 C.3            1 S1                 0.0000
     18 ****         0.0846   3.5652  -0.4169 C.3            1 S1                 0.0000
     19 ****         0.6284   2.1302  -0.3274 C.3            1 S1                 0.0000
     20 ****        -0.0368  -0.1978   3.0928 H              1 S1                 0.0000
     21 ****         0.4127  -1.7638   2.4543 H              1 S1                 0.0000
     22 ****        -1.1408  -1.0776   2.0417 H              1 S1                 0.0000
     23 ****         2.4667  -1.1256   1.3720 H              1 S1                 0.0000
     24 ****         2.5936   0.1856   0.2385 H              1 S1                 0.0000
     25 ****         2.1108   0.4089   3.0096 H              1 S1                 0.0000
     26 ****        -0.2785  -0.3229  -0.9530 H              1 S1                 0.0000
     27 ****        -0.1787  -7.1070  -3.0529 H              1 S1                 0.0000
     28 ****         0.1901   1.8576   1.7486 H              1 S1                 0.0000
     29 ****        -1.8690   0.8171  -0.2438 H              1 S1                 0.0000
     30 ****        -2.0693   0.8758   1.4885 H              1 S1                 0.0000
     31 ****        -3.1910   2.7825   0.4072 H              1 S1                 0.0000
     32 ****        -1.9399   3.3188   1.5027 H              1 S1                 0.0000
     33 ****        -1.7084   3.1262  -1.5403 H              1 S1                 0.0000
     34 ****        -1.8073   4.6009  -0.6057 H              1 S1                 0.0000
     35 ****         0.5519   4.0868  -1.2526 H              1 S1                 0.0000
     36 ****         0.3585   4.1165   0.4835 H              1 S1                 0.0000
     37 ****         1.7067   2.1924  -0.1901 H              1 S1                 0.0000
     38 ****         0.4681   1.6265  -1.2814 H              1 S1                 0.0000
     39 ****         2.2082   1.6569   2.0271 LP             1 S1                 0.0000
     40 ****         3.5012   0.6950   2.2906 LP             1 S1                 0.0000
     41 ****         1.3140  -2.5696   1.0893 LP             1 S1                 0.0000
     42 ****         1.1673  -3.8617  -0.0549 LP             1 S1                 0.0000
     43 ****        -0.4892  -1.7853  -2.3720 LP             1 S1                 0.0000
     44 ****         1.7766  -3.4677  -3.4272 LP             1 S1                 0.0000
     45 ****         1.6849  -5.8901  -4.0511 LP             1 S1                 0.0000
@<TRIPOS>BOND
    1    1    2 1     
    2    1   20 1     
    3    1   21 1     
    4    1   22 1     
    5    2    3 1     
    6    2    5 1     
    7    2   14 1     
    8    3    4 1     
    9    3   23 1     
   10    3   24 1     
   11    4   25 1     
   12    5    6 am    
   13    5   26 1     
   14    6    7 2     
   15    6    8 1     
   16    8    9 1     
   17    9   13 1     
   18    9   10 2     
   19   10   11 1     
   20   11   12 2     
   21   12   13 1     
   22   12   27 1     
   23   14   19 1     
   24   14   15 1     
   25   14   28 1     
   26   15   16 1     
   27   15   29 1     
   28   15   30 1     
   29   16   17 1     
   30   16   31 1     
   31   16   32 1     
   32   17   18 1     
   33   17   33 1     
   34   17   34 1     
   35   18   19 1     
   36   18   35 1     
   37   18   36 1     
   38   19   37 1     
   39   19   38 1     
   40    4   39 1     
   41    4   40 1     
   42    7   41 1     
   43    7   42 1     
   44    8   43 1     
   45   10   44 1     
   46   11   45 1     
@<TRIPOS>SUBSTRUCTURE
      1 S1             1
@<TRIPOS>SET
LONE_PAIRS      STATIC     ATOMS    <user>   **** ""
7 39 40 41 42 43 44 45
DONOR_HYDROGENS      STATIC     ATOMS    <user>   **** ""
2 25 26
ATOM$BLUE        STATIC     ATOMS    COLORGROUP SYSTEM
7 39 40 41 42 43 44 45
ATOM$RED        STATIC     ATOMS    COLORGROUP SYSTEM
2 25 26
