AV-unprocessed.smi:2761|AV-procd|sdf|10633|dock1
  -GOLD-   2272015 83D 1   1.00000     0.00000
 Structure written by MMmdl.
 27 28  0  0  0  0  0  0  0  0  1 V2000
  151.6657  140.6728  156.7690 O   0  0  0  0  0  0  0  0  0  0  0  0
  151.1153  141.7663  156.9172 C   0  0  0  0  0  0  0  0  0  0  0  0
  149.9904  142.1601  156.2811 N   0  0  0  0  0  0  0  0  0  0  0  0
  149.2365  141.4571  155.3349 C   0  0  0  0  0  0  0  0  0  0  0  0
  147.8206  141.6618  155.5253 C   0  0  0  0  0  0  0  0  0  0  0  0
  146.9768  141.0382  154.6749 C   0  0  0  0  0  0  0  0  0  0  0  0
  147.4827  140.1882  153.5976 C   0  0  0  0  0  0  0  0  0  0  0  0
  146.7764  139.5928  152.7876 O   0  0  0  0  0  0  0  0  0  0  0  0
  148.8394  140.1101  153.5666 N   0  0  0  0  0  0  0  0  0  0  0  0
  149.7671  140.7182  154.4040 N   0  0  0  0  0  0  0  0  0  0  0  0
  151.6977  142.7887  157.9045 C   0  0  1  0  0  0  0  0  0  0  0  0
  150.6926  143.8967  158.2977 C   0  0  0  0  0  0  0  0  0  0  0  0
  151.3008  144.7692  159.2411 O   0  0  0  0  0  0  0  0  0  0  0  0
  151.6914  144.0708  160.4148 C   0  0  0  0  0  0  0  0  0  0  0  0
  152.7011  142.9774  160.0307 C   0  0  0  0  0  0  0  0  0  0  0  0
  152.0983  142.1011  159.0877 O   0  0  0  0  0  0  0  0  0  0  0  0
  149.6636  143.0837  156.5251 H   0  0  0  0  0  0  0  0  0  0  0  0
  147.4116  142.2832  156.3090 H   0  0  0  0  0  0  0  0  0  0  0  0
  145.9106  141.1681  154.7896 H   0  0  0  0  0  0  0  0  0  0  0  0
  149.2641  139.5406  152.8486 H   0  0  0  0  0  0  0  0  0  0  0  0
  152.5745  143.2383  157.4351 H   0  0  0  0  0  0  0  0  0  0  0  0
  150.4045  144.4841  157.4253 H   0  0  0  0  0  0  0  0  0  0  0  0
  149.7785  143.4728  158.7175 H   0  0  0  0  0  0  0  0  0  0  0  0
  152.1419  144.7741  161.1151 H   0  0  0  0  0  0  0  0  0  0  0  0
  150.8179  143.6402  160.9071 H   0  0  0  0  0  0  0  0  0  0  0  0
  153.6095  143.4142  159.6133 H   0  0  0  0  0  0  0  0  0  0  0  0
  152.9939  142.4054  160.9112 H   0  0  0  0  0  0  0  0  0  0  0  0
  1  2  2  0  0  0  0
  2  3  1  0  0  0  0
  2 11  1  0  0  0  0
  3 17  1  0  0  0  0
  3  4  1  0  0  0  0
  4  5  1  0  0  0  0
  4 10  2  0  0  0  0
  5  6  2  0  0  0  0
  5 18  1  0  0  0  0
  6  7  1  0  0  0  0
  6 19  1  0  0  0  0
  7  8  2  0  0  0  0
  7  9  1  0  0  0  0
  9 10  1  0  0  0  0
  9 20  1  0  0  0  0
 11 16  1  0  0  0  0
 11 12  1  0  0  0  0
 11 21  1  0  0  0  0
 12 13  1  0  0  0  0
 12 22  1  0  0  0  0
 12 23  1  0  0  0  0
 13 14  1  0  0  0  0
 14 15  1  0  0  0  0
 14 24  1  0  0  0  0
 14 25  1  0  0  0  0
 15 16  1  0  0  0  0
 15 26  1  0  0  0  0
 15 27  1  0  0  0  0
M  END
> <s_m_source_file>
AV-unprocessed.smi

> <i_m_source_file_index>
2761

> <i_lp_mmshare_version>
43012

> <i_f3d_flags>
0

> <s_epik_input>
TzFbQ0gyXVtDSDJdT1tDSDJdW0NASF0xQyg9TylbTkhdYzJbY0hdW2NIXWMoW09IXSlubjI=

> <s_epik_cmdline>
J2VwaWtfcHl0aG9uJywgJy1waCcsICc3LjAnLCAnLXRuJywgJzgnLCAnLW1hJywgJzIwMCcsICctbWV0YWxfYmluZGluZycsICctaW1hZScsICc8aW5maWxlLm1hZT4nLCAnLW9tYWUnLCAnPG91dGZpbGUubWFlPic=

> <r_lp_tautomer_probability>
1

> <r_epik_Ionization_Penalty>
0.000593199

> <r_epik_Ionization_Penalty_Charging>
0.000590119

> <r_epik_Ionization_Penalty_Neutral>
3.08036e-06

> <r_epik_State_Penalty>
-0

> <r_epik_Charging_Adjusted_Penalty>
0.000590119

> <i_epik_Tot_Q>
0

> <i_epik_Tot_abs_Q>
0

> <r_epik_Metal_State_Penalty>
0.240077

> <b_epik_Metal_Only>
0

> <s_lp_Force_Field>
OPLS_2005

> <r_lp_Energy>
26.3126

> <b_lp_Chiralities_Consistent>
1

> <s_lp_Variant>
AV-unprocessed.smi:2761-2

> <Gold.Version>
5.8.1

> <Gold.Id.Protein>
6NUR|6NUR_protein|mol2

> <Gold.PLP.Fitness>
31.6802

> <Gold.PLP.PLP>
-27.0165

> <Gold.PLP.part.hbond>
-2.7070

> <Gold.PLP.part.metal>
0.0000

> <Gold.PLP.part.buried>
-5.2451

> <Gold.PLP.part.nonpolar>
-19.4495

> <Gold.PLP.part.repulsive>
0.7577

> <Gold.PLP.ligand.clash>
0.0000

> <Gold.PLP.ligand.torsion>
0.7648

> <Gold.PLP.Chemscore.Hbond>
2.0640

> <Gold.PLP.Chemscore.CHOScore>
0.0000

> <Gold.PLP.Chemscore.Metal>
0.0000

> <Gold.Chemscore.Hbonds>
donor molecule, donor type, donor heavy atom, donor atom, acceptor molecule, acceptor atom, score
      L1  H     3    17       P1  8028  0.82
      L1  H     9    20       P1  7957  0.54
      P1  H  7989  7998       L1    10  0.64

> <Gold.PLP.Chemscore.Internal.Correction>
0.0012

> <Gold.Rescore>
     Score         DG    S(hbond)    S(metal)    S(lipo)     H(rot)  DE(clash)    DE(int)     intcor
     15.37     -16.11       2.14        0.00      51.58       1.00       0.07       0.68       ----

> <Gold.Chemscore.Fitness>
15.3653

> <Gold.Chemscore.DG>
-16.1129

> <Gold.Chemscore.ZeroCoef>
-5.4800

> <Gold.Chemscore.Hbond>
2.1433

> <Gold.Chemscore.Metal>
0.0000

> <Gold.Chemscore.Lipo>
51.5756

> <Gold.Chemscore.Internal_Hbond>
0.0000

> <Gold.Chemscore.DEClash>
0.0650

> <Gold.Chemscore.DEInternal>
0.6826

> <Gold.Chemscore.Rot>
1.0000

> <Gold.Chemscore.Internal.Correction>
   9.000000E+99

> <Gold.Chemscore.Hbonds>
donor molecule, donor type, donor heavy atom, donor atom, acceptor molecule, acceptor atom, score
      L1  H     3    17       P1  8028  0.76
      L1  H     9    20       P1  7957  0.54
      P1  H  7989  7998       L1    10  0.49

> <Gold.Chemscore.Hbond.Weighted>
-7.1586

> <Gold.Chemscore.Metal.Weighted>
-0.0000

> <Gold.Chemscore.Lipo.Weighted>
-6.0343

> <Gold.Chemscore.Internal_Hbond.Weighted>
0.0000

> <Gold.Chemscore.DEClash.Weighted>
0.0650

> <Gold.Chemscore.DEInternal.Weighted>
0.6826

> <Gold.Chemscore.Rot.Weighted>
2.5600

> <Gold.Chemscore.Internal.Correction.Weighted>
   9.000000E+99

> <Gold.Protein.RotatedTorsions>
[ 6907 6896 6895 6894 ] final   58.33 input  -60.11 | X-H torsion
[ 7974 7965 7964 7962 ] final  -34.10 input  175.53 | X-H torsion
[ 8008 7997 7996 7995 ] final  -61.65 input   59.86 | X-H torsion
[ 10167 10162 10161 10158 ] final   22.55 input  -65.29 | X-H torsion
[ 10718 10713 10712 10709 ] final -107.87 input   66.30 | X-H torsion
[ 10763 10752 10751 10750 ] final  -87.18 input  -60.55 | X-H torsion
[ 11005 11000 10999 10996 ] final -110.41 input  -57.11 | X-H torsion

> <Gold.Protein.ActiveResidues>
 VAL166  LYS551  ARG553  GLY616  TRP617  ASP618  TYR619  PRO620  LYS621  CYS622 
 ASP623  PHE694  ASN695  SER759  ASP760  ASP761  ALA762  ILE779  LEU786  VAL792 
 PHE793  MET794  SER795  GLU796  ALA797  LYS798  CYS799  TRP800  GLU811  SER814 

> <Gold.Protein.RotatedAtoms>
  152.3814  134.6584  160.0141 H   0  0  0  0  0  0  0  0  0  0  0  0  # atno 6907 bound_to 6896
  151.6846  133.3306  159.3236 H   0  0  0  0  0  0  0  0  0  0  0  0  # atno 6908 bound_to 6896
  150.7750  134.6687  159.6424 H   0  0  0  0  0  0  0  0  0  0  0  0  # atno 6909 bound_to 6896
  146.0857  140.5997  142.8888 H   0  0  0  0  0  0  0  0  0  0  0  0  # atno 7974 bound_to 7965
  154.4459  140.1013  156.6464 H   0  0  0  0  0  0  0  0  0  0  0  0  # atno 8008 bound_to 7997
  155.5445  140.3484  155.4436 H   0  0  0  0  0  0  0  0  0  0  0  0  # atno 8009 bound_to 7997
  156.0573  140.1318  156.9971 H   0  0  0  0  0  0  0  0  0  0  0  0  # atno 8010 bound_to 7997
  140.5339  143.9794  150.6481 H   0  0  0  0  0  0  0  0  0  0  0  0  # atno 10167 bound_to 10162
  156.0457  130.5684  150.7881 H   0  0  0  0  0  0  0  0  0  0  0  0  # atno 10718 bound_to 10713
  154.6308  135.5422  153.7678 H   0  0  0  0  0  0  0  0  0  0  0  0  # atno 10763 bound_to 10752
  153.0283  135.6435  154.1304 H   0  0  0  0  0  0  0  0  0  0  0  0  # atno 10764 bound_to 10752
  154.1234  135.2919  155.3183 H   0  0  0  0  0  0  0  0  0  0  0  0  # atno 10765 bound_to 10752
  141.0793  133.9247  157.2323 H   0  0  0  0  0  0  0  0  0  0  0  0  # atno 11005 bound_to 11000
  144.7324  140.4710  143.6928 LP  0  0  0  0  0  0  0  0  0  0  0  0  # atno 17320 bound_to 7965
  145.6135  139.1516  143.3063 LP  0  0  0  0  0  0  0  0  0  0  0  0  # atno 17321 bound_to 7965
  140.3176  143.3157  152.0816 LP  0  0  0  0  0  0  0  0  0  0  0  0  # atno 17342 bound_to 10162
  139.4964  144.6595  151.6497 LP  0  0  0  0  0  0  0  0  0  0  0  0  # atno 17343 bound_to 10162
  157.5330  131.0937  150.9930 LP  0  0  0  0  0  0  0  0  0  0  0  0  # atno 17370 bound_to 10713
  157.0232  130.5682  149.5334 LP  0  0  0  0  0  0  0  0  0  0  0  0  # atno 17371 bound_to 10713
  139.9606  135.0155  156.9251 LP  0  0  0  0  0  0  0  0  0  0  0  0  # atno 17394 bound_to 11000
  140.5504  134.0633  155.7367 LP  0  0  0  0  0  0  0  0  0  0  0  0  # atno 17395 bound_to 11000

$$$$
