AV-unprocessed.smi:2091|AV-procd|sdf|8541|dock5
  -GOLD-   2272011263D 1   1.00000     0.00000
 Structure written by MMmdl.
 35 36  0  0  0  0  0  0  0  0  2 V2000
  149.9607  141.2701  157.9526 O   0  0  0  0  0  0  0  0  0  0  0  0
  150.4243  142.0145  157.0875 C   0  0  0  0  0  0  0  0  0  0  0  0
  151.4641  143.0835  157.4488 C   0  0  0  0  0  0  0  0  0  0  0  0
  152.2016  142.7726  158.6840 N   0  0  0  0  0  0  0  0  0  0  0  0
  152.8687  141.5369  158.7549 C   0  0  0  0  0  0  0  0  0  0  0  0
  153.5686  141.1688  159.8449 C   0  0  0  0  0  0  0  0  0  0  0  0
  153.6252  142.0905  160.9727 C   0  0  0  0  0  0  0  0  0  0  0  0
  154.2648  141.7735  161.9738 O   0  0  0  0  0  0  0  0  0  0  0  0
  152.9563  143.2751  160.8583 N   0  5  0  0  0  0  0  0  0  0  0  0
  152.2457  143.6349  159.7443 C   0  0  0  0  0  0  0  0  0  0  0  0
  151.6469  144.7082  159.6629 O   0  0  0  0  0  0  0  0  0  0  0  0
  150.0892  141.9332  155.7900 N   0  0  0  0  0  0  0  0  0  0  0  0
  149.1371  140.9805  155.2149 C   0  0  1  0  0  0  0  0  0  0  0  0
  148.2875  141.7433  154.1725 C   0  0  0  0  0  0  0  0  0  0  0  0
  146.9315  141.0813  153.8713 C   0  0  0  0  0  0  0  0  0  0  0  0
  147.0173  139.7024  153.1997 C   0  0  0  0  0  0  0  0  0  0  0  0
  147.7184  138.6377  154.0605 C   0  0  0  0  0  0  0  0  0  0  0  0
  149.1680  138.7842  154.0406 N   0  0  0  0  0  0  0  0  0  0  0  0
  149.8796  139.8193  154.5127 C   0  0  0  0  0  0  0  0  0  0  0  0
  151.1036  139.8421  154.3820 O   0  0  0  0  0  0  0  0  0  0  0  0
  152.1520  143.1824  156.6082 H   0  0  0  0  0  0  0  0  0  0  0  0
  150.9796  144.0580  157.5377 H   0  0  0  0  0  0  0  0  0  0  0  0
  152.7715  140.9108  157.8803 H   0  0  0  0  0  0  0  0  0  0  0  0
  154.0730  140.2147  159.8843 H   0  0  0  0  0  0  0  0  0  0  0  0
  150.5289  142.5780  155.1498 H   0  0  0  0  0  0  0  0  0  0  0  0
  148.4977  140.5924  156.0098 H   0  0  0  0  0  0  0  0  0  0  0  0
  148.0745  142.7438  154.5520 H   0  0  0  0  0  0  0  0  0  0  0  0
  148.8471  141.8963  153.2480 H   0  0  0  0  0  0  0  0  0  0  0  0
  146.3562  141.0000  154.7943 H   0  0  0  0  0  0  0  0  0  0  0  0
  146.3583  141.7453  153.2236 H   0  0  0  0  0  0  0  0  0  0  0  0
  146.0014  139.3642  152.9927 H   0  0  0  0  0  0  0  0  0  0  0  0
  147.5077  139.7849  152.2288 H   0  0  0  0  0  0  0  0  0  0  0  0
  147.3459  138.6489  155.0858 H   0  0  0  0  0  0  0  0  0  0  0  0
  147.4908  137.6488  153.6623 H   0  0  0  0  0  0  0  0  0  0  0  0
  149.6846  138.0379  153.5982 H   0  0  0  0  0  0  0  0  0  0  0  0
  1  2  2  0  0  0  0
  2  3  1  0  0  0  0
  2 12  1  0  0  0  0
  3  4  1  0  0  0  0
  3 21  1  0  0  0  0
  3 22  1  0  0  0  0
  4 10  1  0  0  0  0
  4  5  1  0  0  0  0
  5  6  2  0  0  0  0
  5 23  1  0  0  0  0
  6  7  1  0  0  0  0
  6 24  1  0  0  0  0
  7  8  2  0  0  0  0
  7  9  1  0  0  0  0
  9 10  1  0  0  0  0
 10 11  2  0  0  0  0
 12 13  1  0  0  0  0
 12 25  1  0  0  0  0
 13 19  1  0  0  0  0
 13 14  1  0  0  0  0
 13 26  1  0  0  0  0
 14 15  1  0  0  0  0
 14 27  1  0  0  0  0
 14 28  1  0  0  0  0
 15 16  1  0  0  0  0
 15 29  1  0  0  0  0
 15 30  1  0  0  0  0
 16 17  1  0  0  0  0
 16 31  1  0  0  0  0
 16 32  1  0  0  0  0
 17 18  1  0  0  0  0
 17 33  1  0  0  0  0
 17 34  1  0  0  0  0
 18 19  1  0  0  0  0
 18 35  1  0  0  0  0
 19 20  2  0  0  0  0
M  CHG  1   9  -1
M  END
> <s_m_source_file>
AV-unprocessed.smi

> <i_m_source_file_index>
2091

> <i_lp_mmshare_version>
43012

> <i_f3d_flags>
0

> <s_epik_input>
Tz1jMVtuSF1jKD1PKVtjSF1bY0hdbjFbQ0gyXUMoPU8pW05IXVtDQEBIXTJbQ0gyXVtDSDJdW0NIMl1bQ0gyXVtOSF1DMj1P

> <s_epik_cmdline>
J2VwaWtfcHl0aG9uJywgJy1waCcsICc3LjAnLCAnLXRuJywgJzgnLCAnLW1hJywgJzIwMCcsICctbWV0YWxfYmluZGluZycsICctaW1hZScsICc8aW5maWxlLm1hZT4nLCAnLW9tYWUnLCAnPG91dGZpbGUubWFlPic=

> <r_lp_tautomer_probability>
0.999537

> <r_epik_Ionization_Penalty>
3.03155

> <r_epik_Ionization_Penalty_Charging>
2.38195e-08

> <r_epik_Ionization_Penalty_Neutral>
3.03155

> <r_epik_State_Penalty>
3.03052

> <r_epik_Charging_Adjusted_Penalty>
3.03052

> <i_epik_Tot_Q>
-1

> <i_epik_Tot_abs_Q>
1

> <r_epik_Metal_State_Penalty>
0.455936

> <b_epik_Metal_Only>
1

> <s_lp_Force_Field>
OPLS_2005

> <r_lp_Energy>
21.0556

> <b_lp_Chiralities_Consistent>
1

> <s_lp_Variant>
AV-unprocessed.smi:2091-4

> <Gold.Version>
5.8.1

> <Gold.Id.Protein>
6NUR|6NUR_protein|mol2

> <Gold.PLP.Fitness>
41.8517

> <Gold.PLP.PLP>
-40.0655

> <Gold.PLP.part.hbond>
-3.1039

> <Gold.PLP.part.metal>
0.0000

> <Gold.PLP.part.buried>
-5.4828

> <Gold.PLP.part.nonpolar>
-31.7673

> <Gold.PLP.part.repulsive>
0.4737

> <Gold.PLP.ligand.clash>
0.0000

> <Gold.PLP.ligand.torsion>
0.6079

> <Gold.PLP.Chemscore.Hbond>
1.0000

> <Gold.PLP.Chemscore.CHOScore>
0.0000

> <Gold.PLP.Chemscore.Metal>
0.0000

> <Gold.Chemscore.Hbonds>
donor molecule, donor type, donor heavy atom, donor atom, acceptor molecule, acceptor atom, score
      P1  H  7989  7998       L1    20  0.81

> <Gold.PLP.Chemscore.Internal.Correction>
0.0021

> <Gold.Rescore>
     Score         DG    S(hbond)    S(metal)    S(lipo)     H(rot)  DE(clash)    DE(int)     intcor
     12.67     -13.43       1.85        0.00      55.64       1.85       0.22       0.54       ----

> <Gold.Chemscore.Fitness>
12.6725

> <Gold.Chemscore.DG>
-13.4341

> <Gold.Chemscore.ZeroCoef>
-5.4800

> <Gold.Chemscore.Hbond>
1.8516

> <Gold.Chemscore.Metal>
0.0000

> <Gold.Chemscore.Lipo>
55.6449

> <Gold.Chemscore.Internal_Hbond>
0.0000

> <Gold.Chemscore.DEClash>
0.2197

> <Gold.Chemscore.DEInternal>
0.5420

> <Gold.Chemscore.Rot>
1.8519

> <Gold.Chemscore.Internal.Correction>
   9.000000E+99

> <Gold.Chemscore.Hbonds>
donor molecule, donor type, donor heavy atom, donor atom, acceptor molecule, acceptor atom, score
      P1  H  7989  7998       L1    20  0.73

> <Gold.Chemscore.Hbond.Weighted>
-6.1845

> <Gold.Chemscore.Metal.Weighted>
-0.0000

> <Gold.Chemscore.Lipo.Weighted>
-6.5105

> <Gold.Chemscore.Internal_Hbond.Weighted>
0.0000

> <Gold.Chemscore.DEClash.Weighted>
0.2197

> <Gold.Chemscore.DEInternal.Weighted>
0.5420

> <Gold.Chemscore.Rot.Weighted>
4.7408

> <Gold.Chemscore.Internal.Correction.Weighted>
   9.000000E+99

> <Gold.Protein.RotatedTorsions>
[ 6907 6896 6895 6894 ] final   -2.87 input  -60.11 | X-H torsion
[ 7974 7965 7964 7962 ] final -162.40 input  175.53 | X-H torsion
[ 8008 7997 7996 7995 ] final  168.57 input   59.86 | X-H torsion
[ 10167 10162 10161 10158 ] final  100.53 input  -65.29 | X-H torsion
[ 10718 10713 10712 10709 ] final  160.91 input   66.30 | X-H torsion
[ 10763 10752 10751 10750 ] final  -41.29 input  -60.55 | X-H torsion
[ 11005 11000 10999 10996 ] final  -53.02 input  -57.11 | X-H torsion

> <Gold.Protein.ActiveResidues>
 VAL166  LYS551  ARG553  GLY616  TRP617  ASP618  TYR619  PRO620  LYS621  CYS622 
 ASP623  PHE694  ASN695  SER759  ASP760  ASP761  ALA762  ILE779  LEU786  VAL792 
 PHE793  MET794  SER795  GLU796  ALA797  LYS798  CYS799  TRP800  GLU811  SER814 

> <Gold.Protein.RotatedAtoms>
  151.5230  135.1067  159.9882 H   0  0  0  0  0  0  0  0  0  0  0  0  # atno 6907 bound_to 6896
  152.4612  133.7822  159.6867 H   0  0  0  0  0  0  0  0  0  0  0  0  # atno 6908 bound_to 6896
  150.8575  133.7628  159.3029 H   0  0  0  0  0  0  0  0  0  0  0  0  # atno 6909 bound_to 6896
  144.7359  140.3258  143.6162 H   0  0  0  0  0  0  0  0  0  0  0  0  # atno 7974 bound_to 7965
  156.1535  140.1587  156.8731 H   0  0  0  0  0  0  0  0  0  0  0  0  # atno 8008 bound_to 7997
  154.5093  140.0805  156.7994 H   0  0  0  0  0  0  0  0  0  0  0  0  # atno 8009 bound_to 7997
  155.3849  140.3407  155.4251 H   0  0  0  0  0  0  0  0  0  0  0  0  # atno 8010 bound_to 7997
  139.7518  144.6981  151.0420 H   0  0  0  0  0  0  0  0  0  0  0  0  # atno 10167 bound_to 10162
  157.1438  131.0547  151.2314 H   0  0  0  0  0  0  0  0  0  0  0  0  # atno 10718 bound_to 10713
  153.9600  135.6740  153.4745 H   0  0  0  0  0  0  0  0  0  0  0  0  # atno 10763 bound_to 10752
  153.0842  135.4907  154.8561 H   0  0  0  0  0  0  0  0  0  0  0  0  # atno 10764 bound_to 10752
  154.7278  135.3131  154.8902 H   0  0  0  0  0  0  0  0  0  0  0  0  # atno 10765 bound_to 10752
  141.0954  133.6625  156.4110 H   0  0  0  0  0  0  0  0  0  0  0  0  # atno 11005 bound_to 11000
  145.7522  139.1797  143.2315 LP  0  0  0  0  0  0  0  0  0  0  0  0  # atno 17320 bound_to 7965
  146.1052  140.7496  142.9530 LP  0  0  0  0  0  0  0  0  0  0  0  0  # atno 17321 bound_to 7965
  140.7798  143.4799  151.0032 LP  0  0  0  0  0  0  0  0  0  0  0  0  # atno 17342 bound_to 10162
  139.8487  143.7467  152.3178 LP  0  0  0  0  0  0  0  0  0  0  0  0  # atno 17343 bound_to 10162
  157.4283  130.7476  149.6969 LP  0  0  0  0  0  0  0  0  0  0  0  0  # atno 17370 bound_to 10713
  155.9783  130.4052  150.3655 LP  0  0  0  0  0  0  0  0  0  0  0  0  # atno 17371 bound_to 10713
  140.5152  134.6357  157.5298 LP  0  0  0  0  0  0  0  0  0  0  0  0  # atno 17394 bound_to 11000
  139.9790  134.7168  155.9895 LP  0  0  0  0  0  0  0  0  0  0  0  0  # atno 17395 bound_to 11000

$$$$
