#       Name:                AV-unprocessed.smi:3115
#       Creating user name   scv26
#       Creation time:       Fri Mar 27 17:24:17 2020


#       File generated by GOLD software.
#

@<TRIPOS>MOLECULE
AV-unprocessed.smi:3115
    37    38     1
SMALL
NO_CHARGES


@<TRIPOS>ATOM
      1 ****        -3.5401  -1.0297   2.2975 C.3            1 S1                 0.0000
      2 ****        -2.9222  -0.3422   1.0754 C.3            1 S1                 0.0000
      3 ****        -1.3824  -0.3162   1.1421 C.3            1 S1                 0.0000
      4 ****        -0.8439   0.4295   0.0112 N.3            1 S1                 0.0000
      5 ****         0.5558   0.3988  -0.0651 C.ar           1 S1                 0.0000
      6 ****         1.1669  -0.2315  -1.1698 C.ar           1 S1                 0.0000
      7 ****         2.5744  -0.2570  -1.2433 C.ar           1 S1                 0.0000
      8 ****         3.2757  -0.9287  -2.4053 C.3            1 S1                 0.0000
      9 ****         3.6932  -2.2789  -2.0873 N.3            1 S1                 0.0000
     10 ****         3.3168   0.3429  -0.2067 C.ar           1 S1                 0.0000
     11 ****         2.6161   0.9475   0.8549 C.ar           1 S1                 0.0000
     12 ****         1.2685   0.9793   0.9305 N.ar           1 S1                 0.0000
     13 ****        -1.4008   1.7729  -0.0834 C.3            1 S1                 0.0000
     14 ****        -2.9365   1.7015  -0.1232 C.3            1 S1                 0.0000
     15 ****        -3.4107   0.9967   1.0208 O.3            1 S1                 0.0000
     16 ****        -3.2047  -2.0640   2.3775 H              1 S1                 0.0000
     17 ****        -4.6283  -1.0372   2.2317 H              1 S1                 0.0000
     18 ****        -3.2656  -0.5162   3.2194 H              1 S1                 0.0000
     19 ****        -3.2415  -0.8750   0.1777 H              1 S1                 0.0000
     20 ****        -1.0576   0.1454   2.0758 H              1 S1                 0.0000
     21 ****        -0.9882  -1.3333   1.1306 H              1 S1                 0.0000
     22 ****         0.5678  -0.6872  -1.9450 H              1 S1                 0.0000
     23 ****         2.6211  -0.9506  -3.2770 H              1 S1                 0.0000
     24 ****         4.1533  -0.3434  -2.6811 H              1 S1                 0.0000
     25 ****         4.6888  -2.3702  -2.2298 H              1 S1                 0.0000
     26 ****         3.5212  -2.4628  -1.1090 H              1 S1                 0.0000
     27 ****         4.3968   0.3412  -0.2228 H              1 S1                 0.0000
     28 ****         3.1523   1.4177   1.6658 H              1 S1                 0.0000
     29 ****        -1.0810   2.3671   0.7739 H              1 S1                 0.0000
     30 ****        -1.0242   2.2681  -0.9792 H              1 S1                 0.0000
     31 ****        -3.3596   2.7061  -0.1225 H              1 S1                 0.0000
     32 ****        -3.2804   1.2104  -1.0349 H              1 S1                 0.0000
     33 ****        -1.1517  -0.0550  -0.8077 LP             1 S1                 0.0000
     34 ****         3.1863  -2.9129  -2.6714 LP             1 S1                 0.0000
     35 ****         0.8082   1.4198   1.7013 LP             1 S1                 0.0000
     36 ****        -3.1123   1.4812   1.8431 LP             1 S1                 0.0000
     37 ****        -4.4100   0.9730   0.9921 LP             1 S1                 0.0000
@<TRIPOS>BOND
    1    1    2 1     
    2    1   16 1     
    3    1   17 1     
    4    1   18 1     
    5    2   15 1     
    6    2    3 1     
    7    2   19 1     
    8    3    4 1     
    9    3   20 1     
   10    3   21 1     
   11    4    5 1     
   12    4   13 1     
   13    5   12 ar    
   14    5    6 ar    
   15    6    7 ar    
   16    6   22 1     
   17    7    8 1     
   18    7   10 ar    
   19    8    9 1     
   20    8   23 1     
   21    8   24 1     
   22    9   25 1     
   23    9   26 1     
   24   10   11 ar    
   25   10   27 1     
   26   11   12 ar    
   27   11   28 1     
   28   13   14 1     
   29   13   29 1     
   30   13   30 1     
   31   14   15 1     
   32   14   31 1     
   33   14   32 1     
   34    4   33 1     
   35    9   34 1     
   36   12   35 1     
   37   15   36 1     
   38   15   37 1     
@<TRIPOS>SUBSTRUCTURE
      1 S1             1
@<TRIPOS>SET
LONE_PAIRS      STATIC     ATOMS    <user>   **** ""
5 33 34 35 36 37
DONOR_HYDROGENS      STATIC     ATOMS    <user>   **** ""
2 25 26
ATOM$BLUE        STATIC     ATOMS    COLORGROUP SYSTEM
5 33 34 35 36 37
ATOM$RED        STATIC     ATOMS    COLORGROUP SYSTEM
2 25 26
