AV-unprocessed.smi:3249|AV-procd|sdf|12418|dock3
  -GOLD-   2272018303D 1   1.00000     0.00000
 Structure written by MMmdl.
 44 45  0  0  0  0  0  0  0  0  2 V2000
  140.5521  137.1344  153.5347 C   0  0  0  0  0  0  0  0  0  0  0  0
  141.9394  136.5671  153.4465 C   0  0  0  0  0  0  0  0  0  0  0  0
  142.4366  135.3744  154.0432 C   0  0  0  0  0  0  0  0  0  0  0  0
  143.7153  135.1626  153.7787 N   0  0  0  0  0  0  0  0  0  0  0  0
  144.0775  136.1982  152.9912 N   0  0  0  0  0  0  0  0  0  0  0  0
  145.4577  136.3052  152.5298 C   0  0  1  0  0  0  0  0  0  0  0  0
  145.5870  135.6846  151.1259 C   0  0  0  0  0  0  0  0  0  0  0  0
  145.9469  137.7750  152.6059 C   0  0  2  0  0  0  0  0  0  0  0  0
  146.1631  138.4018  151.2155 C   0  0  0  0  0  0  0  0  0  0  0  0
  147.2032  137.8442  153.3892 N   0  3  0  0  0  0  0  0  0  0  0  0
  147.7612  139.1993  153.5775 C   0  0  0  0  0  0  0  0  0  0  0  0
  148.9509  139.1685  154.5466 C   0  0  2  0  0  0  0  0  0  0  0  0
  149.4393  140.5858  154.9035 C   0  0  0  0  0  0  0  0  0  0  0  0
  150.6807  140.5179  155.8004 C   0  0  0  0  0  0  0  0  0  0  0  0
  151.7458  139.6345  155.1427 C   0  0  0  0  0  0  0  0  0  0  0  0
  151.1482  138.2711  154.7609 C   0  0  0  0  0  0  0  0  0  0  0  0
  150.0147  138.4563  153.9179 O   0  0  0  0  0  0  0  0  0  0  0  0
  143.0242  137.0665  152.7834 C   0  0  0  0  0  0  0  0  0  0  0  0
  139.8562  136.4341  153.9971 H   0  0  0  0  0  0  0  0  0  0  0  0
  140.1535  137.3787  152.5499 H   0  0  0  0  0  0  0  0  0  0  0  0
  140.5290  138.0487  154.1279 H   0  0  0  0  0  0  0  0  0  0  0  0
  141.9105  134.6634  154.6636 H   0  0  0  0  0  0  0  0  0  0  0  0
  146.0757  135.7062  153.2018 H   0  0  0  0  0  0  0  0  0  0  0  0
  146.6291  135.5850  150.8238 H   0  0  0  0  0  0  0  0  0  0  0  0
  145.0767  136.2854  150.3724 H   0  0  0  0  0  0  0  0  0  0  0  0
  145.1544  134.6838  151.1013 H   0  0  0  0  0  0  0  0  0  0  0  0
  145.1850  138.3533  153.1318 H   0  0  0  0  0  0  0  0  0  0  0  0
  145.2351  138.4492  150.6467 H   0  0  0  0  0  0  0  0  0  0  0  0
  146.8840  137.8295  150.6308 H   0  0  0  0  0  0  0  0  0  0  0  0
  146.5335  139.4240  151.2883 H   0  0  0  0  0  0  0  0  0  0  0  0
  147.0035  137.4749  154.3084 H   0  0  0  0  0  0  0  0  0  0  0  0
  148.0651  139.6226  152.6198 H   0  0  0  0  0  0  0  0  0  0  0  0
  146.9802  139.8444  153.9822 H   0  0  0  0  0  0  0  0  0  0  0  0
  148.6534  138.6479  155.4591 H   0  0  0  0  0  0  0  0  0  0  0  0
  149.6785  141.1337  153.9908 H   0  0  0  0  0  0  0  0  0  0  0  0
  148.6487  141.1450  155.4052 H   0  0  0  0  0  0  0  0  0  0  0  0
  151.0748  141.5181  155.9827 H   0  0  0  0  0  0  0  0  0  0  0  0
  150.4097  140.1051  156.7729 H   0  0  0  0  0  0  0  0  0  0  0  0
  152.1290  140.1267  154.2478 H   0  0  0  0  0  0  0  0  0  0  0  0
  152.5943  139.5012  155.8145 H   0  0  0  0  0  0  0  0  0  0  0  0
  151.8888  137.6741  154.2284 H   0  0  0  0  0  0  0  0  0  0  0  0
  150.8650  137.7066  155.6507 H   0  0  0  0  0  0  0  0  0  0  0  0
  143.1323  137.9624  152.1897 H   0  0  0  0  0  0  0  0  0  0  0  0
  147.8971  137.2520  152.9554 H   0  0  0  0  0  0  0  0  0  0  0  0
  1  2  1  0  0  0  0
  1 19  1  0  0  0  0
  1 20  1  0  0  0  0
  1 21  1  0  0  0  0
  2 18  2  0  0  0  0
  2  3  1  0  0  0  0
  3  4  2  0  0  0  0
  3 22  1  0  0  0  0
  4  5  1  0  0  0  0
  5  6  1  0  0  0  0
  5 18  1  0  0  0  0
  6  7  1  0  0  0  0
  6  8  1  0  0  0  0
  6 23  1  0  0  0  0
  7 24  1  0  0  0  0
  7 25  1  0  0  0  0
  7 26  1  0  0  0  0
  8  9  1  0  0  0  0
  8 10  1  0  0  0  0
  8 27  1  0  0  0  0
  9 28  1  0  0  0  0
  9 29  1  0  0  0  0
  9 30  1  0  0  0  0
 10 11  1  0  0  0  0
 10 31  1  0  0  0  0
 10 44  1  0  0  0  0
 11 12  1  0  0  0  0
 11 32  1  0  0  0  0
 11 33  1  0  0  0  0
 12 17  1  0  0  0  0
 12 13  1  0  0  0  0
 12 34  1  0  0  0  0
 13 14  1  0  0  0  0
 13 35  1  0  0  0  0
 13 36  1  0  0  0  0
 14 15  1  0  0  0  0
 14 37  1  0  0  0  0
 14 38  1  0  0  0  0
 15 16  1  0  0  0  0
 15 39  1  0  0  0  0
 15 40  1  0  0  0  0
 16 17  1  0  0  0  0
 16 41  1  0  0  0  0
 16 42  1  0  0  0  0
 18 43  1  0  0  0  0
M  CHG  1  10   1
M  END
> <s_m_source_file>
AV-unprocessed.smi

> <i_m_source_file_index>
3249

> <i_lp_mmshare_version>
43012

> <i_f3d_flags>
0

> <s_epik_input>
W0NIM11jMVtjSF1ubihbY0hdMSlbQ0BIXShbQ0gzXSlbQ0BIXShbQ0gzXSlbTkhdW0NIMl1bQ0BASF0yW0NIMl1bQ0gyXVtDSDJdW0NIMl1PMg==

> <s_epik_cmdline>
J2VwaWtfcHl0aG9uJywgJy1waCcsICc3LjAnLCAnLXRuJywgJzgnLCAnLW1hJywgJzIwMCcsICctbWV0YWxfYmluZGluZycsICctaW1hZScsICc8aW5maWxlLm1hZT4nLCAnLW9tYWUnLCAnPG91dGZpbGUubWFlPic=

> <r_lp_tautomer_probability>
1

> <r_epik_Ionization_Penalty>
0.00659207

> <r_epik_Ionization_Penalty_Charging>
0.00656881

> <r_epik_Ionization_Penalty_Neutral>
2.32662e-05

> <r_epik_State_Penalty>
0.0048654

> <r_epik_Charging_Adjusted_Penalty>
0.0114342

> <i_epik_Tot_Q>
1

> <i_epik_Tot_abs_Q>
1

> <r_epik_Metal_State_Penalty>
-0

> <b_epik_Metal_Only>
0

> <s_lp_Force_Field>
OPLS_2005

> <r_lp_Energy>
17.4327

> <b_lp_Chiralities_Consistent>
1

> <s_lp_Variant>
AV-unprocessed.smi:3249-2

> <Gold.Version>
5.8.1

> <Gold.Id.Protein>
6NUR|6NUR_protein|mol2

> <Gold.PLP.Fitness>
43.2152

> <Gold.PLP.PLP>
-32.2669

> <Gold.PLP.part.hbond>
-1.0000

> <Gold.PLP.part.metal>
0.0000

> <Gold.PLP.part.buried>
0.8151

> <Gold.PLP.part.nonpolar>
-33.7515

> <Gold.PLP.part.repulsive>
0.4362

> <Gold.PLP.ligand.clash>
0.0000

> <Gold.PLP.ligand.torsion>
2.0796

> <Gold.PLP.Chemscore.Hbond>
2.0000

> <Gold.PLP.Chemscore.CHOScore>
3.0000

> <Gold.PLP.Chemscore.Metal>
0.0000

> <Gold.Chemscore.Hbonds>
donor molecule, donor type, donor heavy atom, donor atom, acceptor molecule, acceptor atom, score
      L1  H    10    44       P1  7948  2.00
      L1  C     3    22       P1 11000  0.87
      L1  C    18    43       P1 10171  0.97
      L1  C    18    43       P1 10175  1.00

> <Gold.PLP.Chemscore.Internal.Correction>
0.1075

> <Gold.Rescore>
     Score         DG    S(hbond)    S(metal)    S(lipo)     H(rot)  DE(clash)    DE(int)     intcor
     11.64     -15.12       1.00        0.00      87.41       1.53       1.49       1.99       ----

> <Gold.Chemscore.Fitness>
11.6439

> <Gold.Chemscore.DG>
-15.1217

> <Gold.Chemscore.ZeroCoef>
-5.4800

> <Gold.Chemscore.Hbond>
1.0000

> <Gold.Chemscore.Metal>
0.0000

> <Gold.Chemscore.Lipo>
87.4090

> <Gold.Chemscore.Internal_Hbond>
0.0000

> <Gold.Chemscore.DEClash>
1.4910

> <Gold.Chemscore.DEInternal>
1.9867

> <Gold.Chemscore.Rot>
1.5333

> <Gold.Chemscore.Internal.Correction>
   9.000000E+99

> <Gold.Chemscore.Hbonds>
donor molecule, donor type, donor heavy atom, donor atom, acceptor molecule, acceptor atom, score
      L1  H    10    44       P1  7948  1.00

> <Gold.Chemscore.Hbond.Weighted>
-3.3400

> <Gold.Chemscore.Metal.Weighted>
-0.0000

> <Gold.Chemscore.Lipo.Weighted>
-10.2268

> <Gold.Chemscore.Internal_Hbond.Weighted>
0.0000

> <Gold.Chemscore.DEClash.Weighted>
1.4910

> <Gold.Chemscore.DEInternal.Weighted>
1.9867

> <Gold.Chemscore.Rot.Weighted>
3.9252

> <Gold.Chemscore.Internal.Correction.Weighted>
   9.000000E+99

> <Gold.Protein.RotatedTorsions>
[ 6907 6896 6895 6894 ] final  103.98 input  -60.11 | X-H torsion
[ 7974 7965 7964 7962 ] final  -18.51 input  175.53 | X-H torsion
[ 8008 7997 7996 7995 ] final  -41.31 input   59.86 | X-H torsion
[ 10167 10162 10161 10158 ] final  -95.68 input  -65.29 | X-H torsion
[ 10718 10713 10712 10709 ] final   35.28 input   66.30 | X-H torsion
[ 10763 10752 10751 10750 ] final  -33.52 input  -60.55 | X-H torsion
[ 11005 11000 10999 10996 ] final  173.49 input  -57.11 | X-H torsion

> <Gold.Protein.ActiveResidues>
 VAL166  LYS551  ARG553  GLY616  TRP617  ASP618  TYR619  PRO620  LYS621  CYS622 
 ASP623  PHE694  ASN695  SER759  ASP760  ASP761  ALA762  ILE779  LEU786  VAL792 
 PHE793  MET794  SER795  GLU796  ALA797  LYS798  CYS799  TRP800  GLU811  SER814 

> <Gold.Protein.RotatedAtoms>
  152.5279  133.9745  159.7777 H   0  0  0  0  0  0  0  0  0  0  0  0  # atno 6907 bound_to 6896
  151.0011  133.6047  159.2702 H   0  0  0  0  0  0  0  0  0  0  0  0  # atno 6908 bound_to 6896
  151.3156  135.0812  159.9341 H   0  0  0  0  0  0  0  0  0  0  0  0  # atno 6909 bound_to 6896
  146.1889  140.3931  142.8466 H   0  0  0  0  0  0  0  0  0  0  0  0  # atno 7974 bound_to 7965
  154.4005  140.1503  156.3170 H   0  0  0  0  0  0  0  0  0  0  0  0  # atno 8008 bound_to 7997
  155.8564  140.3455  155.5706 H   0  0  0  0  0  0  0  0  0  0  0  0  # atno 8009 bound_to 7997
  155.7928  140.0859  157.1990 H   0  0  0  0  0  0  0  0  0  0  0  0  # atno 8010 bound_to 7997
  140.3016  143.3159  152.0242 H   0  0  0  0  0  0  0  0  0  0  0  0  # atno 10167 bound_to 10162
  157.3208  130.7447  149.6784 H   0  0  0  0  0  0  0  0  0  0  0  0  # atno 10718 bound_to 10713
  153.8315  135.6865  153.4814 H   0  0  0  0  0  0  0  0  0  0  0  0  # atno 10763 bound_to 10752
  153.1508  135.4619  154.9631 H   0  0  0  0  0  0  0  0  0  0  0  0  # atno 10764 bound_to 10752
  154.7884  135.3293  154.7778 H   0  0  0  0  0  0  0  0  0  0  0  0  # atno 10765 bound_to 10752
  140.3410  134.7276  157.4202 H   0  0  0  0  0  0  0  0  0  0  0  0  # atno 11005 bound_to 11000
  144.8448  140.6912  143.6206 LP  0  0  0  0  0  0  0  0  0  0  0  0  # atno 17320 bound_to 7965
  145.3855  139.1627  143.4257 LP  0  0  0  0  0  0  0  0  0  0  0  0  # atno 17321 bound_to 7965
  139.4913  144.6451  151.6795 LP  0  0  0  0  0  0  0  0  0  0  0  0  # atno 17342 bound_to 10162
  140.5646  144.0212  150.6186 LP  0  0  0  0  0  0  0  0  0  0  0  0  # atno 17343 bound_to 10162
  155.9685  130.4224  150.4513 LP  0  0  0  0  0  0  0  0  0  0  0  0  # atno 17370 bound_to 10713
  157.2528  131.0550  151.2369 LP  0  0  0  0  0  0  0  0  0  0  0  0  # atno 17371 bound_to 10713
  140.0781  134.5769  155.8570 LP  0  0  0  0  0  0  0  0  0  0  0  0  # atno 17394 bound_to 11000
  141.2038  133.6635  156.6085 LP  0  0  0  0  0  0  0  0  0  0  0  0  # atno 17395 bound_to 11000

$$$$
