AV-unprocessed.smi:213|AV-procd|sdf|1636|dock5
  -GOLD-   2262019593D 1   1.00000     0.00000
 Structure written by MMmdl.
 59 62  0  0  0  0  0  0  0  0  2 V2000
  144.0585  137.4131  153.3781 C   0  0  0  0  0  0  0  0  0  0  0  0
  145.5036  137.0007  153.0402 C   0  0  1  0  0  0  0  0  0  0  0  0
  145.6042  136.2848  151.6723 C   0  0  0  0  0  0  0  0  0  0  0  0
  145.2412  134.8473  151.7482 N   0  3  0  0  0  0  0  0  0  0  0  0
  143.8040  134.6109  151.4723 C   0  0  0  0  0  0  0  0  0  0  0  0
  143.4662  133.1171  151.6125 C   0  0  0  0  0  0  0  0  0  0  0  0
  144.2903  132.3577  150.7371 O   0  0  0  0  0  0  0  0  0  0  0  0
  145.6708  132.5047  151.0457 C   0  0  0  0  0  0  0  0  0  0  0  0
  146.0832  133.9781  150.8885 C   0  0  0  0  0  0  0  0  0  0  0  0
  146.4094  138.1551  153.1106 N   0  0  0  0  0  0  0  0  0  0  0  0
  146.5999  139.0087  151.9397 C   0  0  0  0  0  0  0  0  0  0  0  0
  147.3842  138.1966  154.0626 C   0  0  0  0  0  0  0  0  0  0  0  0
  147.7418  137.0507  154.7041 N   0  0  0  0  0  0  0  0  0  0  0  0
  148.7010  137.0596  155.6341 C   0  0  0  0  0  0  0  0  0  0  0  0
  149.4223  138.0893  156.0775 N   0  0  0  0  0  0  0  0  0  0  0  0
  149.0672  139.2455  155.4490 C   0  0  0  0  0  0  0  0  0  0  0  0
  148.0708  139.3894  154.4405 C   0  0  0  0  0  0  0  0  0  0  0  0
  147.9898  140.7234  154.0538 N   0  0  0  0  0  0  0  0  0  0  0  0
  148.8888  141.3276  154.7816 C   0  0  0  0  0  0  0  0  0  0  0  0
  149.5823  140.5136  155.6469 N   0  0  0  0  0  0  0  0  0  0  0  0
  150.6286  140.9133  156.5714 C   0  0  0  0  0  0  0  0  0  0  0  0
  150.6040  142.4247  156.8739 C   0  0  1  0  0  0  0  0  0  0  0  0
  149.3460  142.7700  157.4230 O   0  0  0  0  0  0  0  0  0  0  0  0
  151.7099  142.8369  157.8633 C   0  0  2  0  0  0  0  0  0  0  0  0
  151.5349  142.2873  159.2778 C   0  0  0  0  0  0  0  0  0  0  0  0
  152.4090  143.2199  160.0907 C   0  0  0  0  0  0  0  0  0  0  0  0
  152.3272  144.5397  159.3198 C   0  0  0  0  0  0  0  0  0  0  0  0
  151.6879  144.2410  158.0817 O   0  0  0  0  0  0  0  0  0  0  0  0
  143.4060  136.5426  153.4476 H   0  0  0  0  0  0  0  0  0  0  0  0
  143.6350  138.0792  152.6261 H   0  0  0  0  0  0  0  0  0  0  0  0
  144.0149  137.9262  154.3394 H   0  0  0  0  0  0  0  0  0  0  0  0
  145.7971  136.3077  153.8277 H   0  0  0  0  0  0  0  0  0  0  0  0
  144.9413  136.7854  150.9656 H   0  0  0  0  0  0  0  0  0  0  0  0
  146.6087  136.3744  151.2561 H   0  0  0  0  0  0  0  0  0  0  0  0
  143.1925  135.1899  152.1654 H   0  0  0  0  0  0  0  0  0  0  0  0
  143.5630  134.9559  150.4654 H   0  0  0  0  0  0  0  0  0  0  0  0
  143.6003  132.7813  152.6422 H   0  0  0  0  0  0  0  0  0  0  0  0
  142.4216  132.9420  151.3542 H   0  0  0  0  0  0  0  0  0  0  0  0
  145.8701  132.1497  152.0583 H   0  0  0  0  0  0  0  0  0  0  0  0
  146.2521  131.8782  150.3688 H   0  0  0  0  0  0  0  0  0  0  0  0
  145.9799  134.2830  149.8458 H   0  0  0  0  0  0  0  0  0  0  0  0
  147.1362  134.0845  151.1471 H   0  0  0  0  0  0  0  0  0  0  0  0
  147.6585  139.1567  151.7222 H   0  0  0  0  0  0  0  0  0  0  0  0
  146.1418  139.9835  152.1079 H   0  0  0  0  0  0  0  0  0  0  0  0
  146.1454  138.5782  151.0482 H   0  0  0  0  0  0  0  0  0  0  0  0
  148.9222  136.1052  156.0886 H   0  0  0  0  0  0  0  0  0  0  0  0
  149.0724  142.3895  154.7059 H   0  0  0  0  0  0  0  0  0  0  0  0
  150.5208  140.3365  157.4910 H   0  0  0  0  0  0  0  0  0  0  0  0
  151.5883  140.6299  156.1377 H   0  0  0  0  0  0  0  0  0  0  0  0
  150.7271  142.9809  155.9436 H   0  0  0  0  0  0  0  0  0  0  0  0
  148.8930  143.3260  156.8081 H   0  0  0  0  0  0  0  0  0  0  0  0
  152.6931  142.5597  157.4781 H   0  0  0  0  0  0  0  0  0  0  0  0
  150.4956  142.3787  159.5962 H   0  0  0  0  0  0  0  0  0  0  0  0
  151.8302  141.2418  159.3697 H   0  0  0  0  0  0  0  0  0  0  0  0
  152.0770  143.3119  161.1252 H   0  0  0  0  0  0  0  0  0  0  0  0
  153.4371  142.8559  160.0967 H   0  0  0  0  0  0  0  0  0  0  0  0
  151.7409  145.2849  159.8576 H   0  0  0  0  0  0  0  0  0  0  0  0
  153.3209  144.9530  159.1433 H   0  0  0  0  0  0  0  0  0  0  0  0
  145.3965  134.5609  152.7044 H   0  0  0  0  0  0  0  0  0  0  0  0
  1  2  1  0  0  0  0
  1 29  1  0  0  0  0
  1 30  1  0  0  0  0
  1 31  1  0  0  0  0
  2  3  1  0  0  0  0
  2 10  1  0  0  0  0
  2 32  1  0  0  0  0
  3  4  1  0  0  0  0
  3 33  1  0  0  0  0
  3 34  1  0  0  0  0
  4  9  1  0  0  0  0
  4  5  1  0  0  0  0
  4 59  1  0  0  0  0
  5  6  1  0  0  0  0
  5 35  1  0  0  0  0
  5 36  1  0  0  0  0
  6  7  1  0  0  0  0
  6 37  1  0  0  0  0
  6 38  1  0  0  0  0
  7  8  1  0  0  0  0
  8  9  1  0  0  0  0
  8 39  1  0  0  0  0
  8 40  1  0  0  0  0
  9 41  1  0  0  0  0
  9 42  1  0  0  0  0
 10 11  1  0  0  0  0
 10 12  1  0  0  0  0
 11 43  1  0  0  0  0
 11 44  1  0  0  0  0
 11 45  1  0  0  0  0
 12 17  1  0  0  0  0
 12 13  2  0  0  0  0
 13 14  1  0  0  0  0
 14 15  2  0  0  0  0
 14 46  1  0  0  0  0
 15 16  1  0  0  0  0
 16 20  1  0  0  0  0
 16 17  2  0  0  0  0
 17 18  1  0  0  0  0
 18 19  2  0  0  0  0
 19 20  1  0  0  0  0
 19 47  1  0  0  0  0
 20 21  1  0  0  0  0
 21 22  1  0  0  0  0
 21 48  1  0  0  0  0
 21 49  1  0  0  0  0
 22 23  1  0  0  0  0
 22 24  1  0  0  0  0
 22 50  1  0  0  0  0
 23 51  1  0  0  0  0
 24 28  1  0  0  0  0
 24 25  1  0  0  0  0
 24 52  1  0  0  0  0
 25 26  1  0  0  0  0
 25 53  1  0  0  0  0
 25 54  1  0  0  0  0
 26 27  1  0  0  0  0
 26 55  1  0  0  0  0
 26 56  1  0  0  0  0
 27 28  1  0  0  0  0
 27 57  1  0  0  0  0
 27 58  1  0  0  0  0
M  CHG  1   4   1
M  END
> <s_m_source_file>
AV-unprocessed.smi

> <i_m_source_file_index>
213

> <i_lp_mmshare_version>
43012

> <i_f3d_flags>
0

> <s_epik_input>
W0NIMl0xW0NIMl1PW0NIMl1bQ0gyXU4xW0NIMl1bQ0BASF0oW0NIM10pTihbQ0gzXSljKG5bY0hdbjIpYyhjMjMpbltjSF1uM1tDSDJdW0NASF0oW09IXSlbQ0BASF00W0NIMl1bQ0gyXVtDSDJdTzQ=

> <s_epik_cmdline>
J2VwaWtfcHl0aG9uJywgJy1waCcsICc3LjAnLCAnLXRuJywgJzgnLCAnLW1hJywgJzIwMCcsICctbWV0YWxfYmluZGluZycsICctaW1hZScsICc8aW5maWxlLm1hZT4nLCAnLW9tYWUnLCAnPG91dGZpbGUubWFlPic=

> <r_lp_tautomer_probability>
1

> <r_epik_Ionization_Penalty>
0.399679

> <r_epik_Ionization_Penalty_Charging>
0.399433

> <r_epik_Ionization_Penalty_Neutral>
0.000246213

> <r_epik_State_Penalty>
0.286032

> <r_epik_Charging_Adjusted_Penalty>
0.685465

> <i_epik_Tot_Q>
1

> <i_epik_Tot_abs_Q>
1

> <r_epik_Metal_State_Penalty>
0.286072

> <b_epik_Metal_Only>
0

> <s_lp_Force_Field>
OPLS_2005

> <r_lp_Energy>
43.5533

> <b_lp_Chiralities_Consistent>
1

> <s_lp_Variant>
AV-unprocessed.smi:213-4

> <Gold.Version>
5.8.1

> <Gold.Id.Protein>
6NUR|6NUR_protein|mol2

> <Gold.PLP.Fitness>
47.6069

> <Gold.PLP.PLP>
-44.3361

> <Gold.PLP.part.hbond>
-1.0000

> <Gold.PLP.part.metal>
0.0000

> <Gold.PLP.part.buried>
-6.3861

> <Gold.PLP.part.nonpolar>
-39.5057

> <Gold.PLP.part.repulsive>
0.6945

> <Gold.PLP.ligand.clash>
0.0000

> <Gold.PLP.ligand.torsion>
1.7331

> <Gold.PLP.Chemscore.Hbond>
1.0000

> <Gold.PLP.Chemscore.CHOScore>
1.0000

> <Gold.PLP.Chemscore.Metal>
0.0000

> <Gold.Chemscore.Hbonds>
donor molecule, donor type, donor heavy atom, donor atom, acceptor molecule, acceptor atom, score
      L1  H    23    51       P1  8028  1.00
      L1  C    19    47       P1  8028  1.00

> <Gold.PLP.Chemscore.Internal.Correction>
0.7370

> <Gold.Rescore>
     Score         DG    S(hbond)    S(metal)    S(lipo)     H(rot)  DE(clash)    DE(int)     intcor
     11.32     -14.24       0.81        0.00     113.48       2.83       0.51       2.41       ----

> <Gold.Chemscore.Fitness>
11.3213

> <Gold.Chemscore.DG>
-14.2404

> <Gold.Chemscore.ZeroCoef>
-5.4800

> <Gold.Chemscore.Hbond>
0.8132

> <Gold.Chemscore.Metal>
0.0000

> <Gold.Chemscore.Lipo>
113.4807

> <Gold.Chemscore.Internal_Hbond>
0.0000

> <Gold.Chemscore.DEClash>
0.5057

> <Gold.Chemscore.DEInternal>
2.4135

> <Gold.Chemscore.Rot>
2.8254

> <Gold.Chemscore.Internal.Correction>
   9.000000E+99

> <Gold.Chemscore.Hbonds>
donor molecule, donor type, donor heavy atom, donor atom, acceptor molecule, acceptor atom, score
      L1  H    23    51       P1  8028  0.75

> <Gold.Chemscore.Hbond.Weighted>
-2.7161

> <Gold.Chemscore.Metal.Weighted>
-0.0000

> <Gold.Chemscore.Lipo.Weighted>
-13.2772

> <Gold.Chemscore.Internal_Hbond.Weighted>
0.0000

> <Gold.Chemscore.DEClash.Weighted>
0.5057

> <Gold.Chemscore.DEInternal.Weighted>
2.4135

> <Gold.Chemscore.Rot.Weighted>
7.2330

> <Gold.Chemscore.Internal.Correction.Weighted>
   9.000000E+99

> <Gold.Protein.RotatedTorsions>
[ 6907 6896 6895 6894 ] final   58.24 input  -60.11 | X-H torsion
[ 7974 7965 7964 7962 ] final  -61.15 input  175.53 | X-H torsion
[ 8008 7997 7996 7995 ] final  -29.35 input   59.86 | X-H torsion
[ 10167 10162 10161 10158 ] final -175.57 input  -65.29 | X-H torsion
[ 10718 10713 10712 10709 ] final -174.81 input   66.30 | X-H torsion
[ 10763 10752 10751 10750 ] final   78.84 input  -60.55 | X-H torsion
[ 11005 11000 10999 10996 ] final  103.86 input  -57.11 | X-H torsion

> <Gold.Protein.ActiveResidues>
 VAL166  LYS551  ARG553  GLY616  TRP617  ASP618  TYR619  PRO620  LYS621  CYS622 
 ASP623  PHE694  ASN695  SER759  ASP760  ASP761  ALA762  ILE779  LEU786  VAL792 
 PHE793  MET794  SER795  GLU796  ALA797  LYS798  CYS799  TRP800  GLU811  SER814 

> <Gold.Protein.RotatedAtoms>
  152.3805  134.6597  160.0144 H   0  0  0  0  0  0  0  0  0  0  0  0  # atno 6907 bound_to 6896
  151.6862  133.3306  159.3239 H   0  0  0  0  0  0  0  0  0  0  0  0  # atno 6908 bound_to 6896
  150.7744  134.6674  159.6417 H   0  0  0  0  0  0  0  0  0  0  0  0  # atno 6909 bound_to 6896
  145.8070  140.8621  143.0202 H   0  0  0  0  0  0  0  0  0  0  0  0  # atno 7974 bound_to 7965
  154.4293  140.1820  156.1234 H   0  0  0  0  0  0  0  0  0  0  0  0  # atno 8008 bound_to 7997
  156.0125  140.3349  155.6930 H   0  0  0  0  0  0  0  0  0  0  0  0  # atno 8009 bound_to 7997
  155.6091  140.0648  157.2702 H   0  0  0  0  0  0  0  0  0  0  0  0  # atno 8010 bound_to 7997
  139.5574  144.1955  152.1182 H   0  0  0  0  0  0  0  0  0  0  0  0  # atno 10167 bound_to 10162
  156.7906  130.9516  151.3120 H   0  0  0  0  0  0  0  0  0  0  0  0  # atno 10718 bound_to 10713
  153.0905  135.4862  154.8681 H   0  0  0  0  0  0  0  0  0  0  0  0  # atno 10763 bound_to 10752
  154.7264  135.3050  154.8967 H   0  0  0  0  0  0  0  0  0  0  0  0  # atno 10764 bound_to 10752
  153.9615  135.6812  153.4798 H   0  0  0  0  0  0  0  0  0  0  0  0  # atno 10765 bound_to 10752
  139.8787  134.9279  156.5273 H   0  0  0  0  0  0  0  0  0  0  0  0  # atno 11005 bound_to 11000
  144.6762  140.0340  143.7482 LP  0  0  0  0  0  0  0  0  0  0  0  0  # atno 17320 bound_to 7965
  145.9818  139.2947  143.1037 LP  0  0  0  0  0  0  0  0  0  0  0  0  # atno 17321 bound_to 7965
  140.1462  144.5157  150.6714 LP  0  0  0  0  0  0  0  0  0  0  0  0  # atno 17342 bound_to 10162
  140.6849  143.2345  151.5288 LP  0  0  0  0  0  0  0  0  0  0  0  0  # atno 17343 bound_to 10162
  157.6602  130.8960  149.9815 LP  0  0  0  0  0  0  0  0  0  0  0  0  # atno 17370 bound_to 10713
  156.1162  130.3647  149.9965 LP  0  0  0  0  0  0  0  0  0  0  0  0  # atno 17371 bound_to 10713
  140.8406  133.8208  155.9072 LP  0  0  0  0  0  0  0  0  0  0  0  0  # atno 17394 bound_to 11000
  140.9240  134.2105  157.4908 LP  0  0  0  0  0  0  0  0  0  0  0  0  # atno 17395 bound_to 11000

$$$$
