AV-unprocessed.smi:2626|AV-procd|sdf|10237|dock2
  -GOLD-   2272014243D 1   1.00000     0.00000
 Structure written by MMmdl.
 27 28  0  0  0  0  0  0  0  0  1 V2000
  148.2695  141.9067  154.1141 C   0  0  0  0  0  0  0  0  0  0  0  0
  149.4264  141.2925  154.8745 C   0  0  0  0  0  0  0  0  0  0  0  0
  149.9617  140.0900  154.5836 C   0  0  0  0  0  0  0  0  0  0  0  0
  151.0842  139.5849  155.3844 C   0  0  0  0  0  0  0  0  0  0  0  0
  151.5917  138.4922  155.1424 O   0  0  0  0  0  0  0  0  0  0  0  0
  151.5502  140.3971  156.4315 N   0  0  0  0  0  0  0  0  0  0  0  0
  150.9875  141.5502  156.6601 C   0  0  0  0  0  0  0  0  0  0  0  0
  151.4038  142.3928  157.6790 N   0  0  0  0  0  0  0  0  0  0  0  0
  152.3574  141.8662  158.6502 C   0  0  0  0  0  0  0  0  0  0  0  0
  152.4473  142.7795  159.8847 C   0  0  0  0  0  0  0  0  0  0  0  0
  152.7900  144.0985  159.4774 O   0  0  0  0  0  0  0  0  0  0  0  0
  151.8128  144.6474  158.6017 C   0  0  0  0  0  0  0  0  0  0  0  0
  151.7084  143.7786  157.3370 C   0  0  0  0  0  0  0  0  0  0  0  0
  149.9245  142.0517  155.9182 N   0  0  0  0  0  0  0  0  0  0  0  0
  149.4968  142.9472  156.1045 H   0  0  0  0  0  0  0  0  0  0  0  0
  147.9331  141.2502  153.3110 H   0  0  0  0  0  0  0  0  0  0  0  0
  148.5671  142.8582  153.6727 H   0  0  0  0  0  0  0  0  0  0  0  0
  147.4267  142.0846  154.7827 H   0  0  0  0  0  0  0  0  0  0  0  0
  149.5729  139.4969  153.7688 H   0  0  0  0  0  0  0  0  0  0  0  0
  153.3379  141.7791  158.1796 H   0  0  0  0  0  0  0  0  0  0  0  0
  152.0608  140.8620  158.9570 H   0  0  0  0  0  0  0  0  0  0  0  0
  151.5031  142.7884  160.4315 H   0  0  0  0  0  0  0  0  0  0  0  0
  153.2097  142.4097  160.5702 H   0  0  0  0  0  0  0  0  0  0  0  0
  150.8489  144.7139  159.1088 H   0  0  0  0  0  0  0  0  0  0  0  0
  152.1043  145.6637  158.3361 H   0  0  0  0  0  0  0  0  0  0  0  0
  150.9351  144.1785  156.6791 H   0  0  0  0  0  0  0  0  0  0  0  0
  152.6477  143.8136  156.7827 H   0  0  0  0  0  0  0  0  0  0  0  0
  1 16  1  0  0  0  0
  1 17  1  0  0  0  0
  1 18  1  0  0  0  0
  1  2  1  0  0  0  0
  2  3  2  0  0  0  0
  2 14  1  0  0  0  0
  3  4  1  0  0  0  0
  3 19  1  0  0  0  0
  4  6  1  0  0  0  0
  4  5  2  0  0  0  0
  6  7  2  0  0  0  0
  7 14  1  0  0  0  0
  7  8  1  0  0  0  0
  8 13  1  0  0  0  0
  8  9  1  0  0  0  0
  9 10  1  0  0  0  0
  9 20  1  0  0  0  0
  9 21  1  0  0  0  0
 10 11  1  0  0  0  0
 10 22  1  0  0  0  0
 10 23  1  0  0  0  0
 11 12  1  0  0  0  0
 12 13  1  0  0  0  0
 12 24  1  0  0  0  0
 12 25  1  0  0  0  0
 13 26  1  0  0  0  0
 13 27  1  0  0  0  0
 14 15  1  0  0  0  0
M  END
> <s_m_source_file>
AV-unprocessed.smi

> <i_m_source_file_index>
2626

> <i_lp_mmshare_version>
43012

> <i_f3d_flags>
0

> <s_epik_input>
W0NIM11jMVtjSF1jKD1PKVtuSF1jKG4xKU4yW0NIMl1bQ0gyXU9bQ0gyXVtDSDJdMg==

> <s_epik_cmdline>
J2VwaWtfcHl0aG9uJywgJy1waCcsICc3LjAnLCAnLXRuJywgJzgnLCAnLW1hJywgJzIwMCcsICctbWV0YWxfYmluZGluZycsICctaW1hZScsICc8aW5maWxlLm1hZT4nLCAnLW9tYWUnLCAnPG91dGZpbGUubWFlPic=

> <r_lp_tautomer_probability>
0.108306

> <r_epik_Ionization_Penalty>
0.0767095

> <r_epik_Ionization_Penalty_Charging>
0.066018

> <r_epik_Ionization_Penalty_Neutral>
0.0106915

> <r_epik_State_Penalty>
1.70202

> <r_epik_Charging_Adjusted_Penalty>
1.76804

> <i_epik_Tot_Q>
0

> <i_epik_Tot_abs_Q>
0

> <r_epik_Metal_State_Penalty>
2.70096

> <b_epik_Metal_Only>
0

> <s_lp_Force_Field>
OPLS_2005

> <r_lp_Energy>
27.4859

> <b_lp_Chiralities_Consistent>
1

> <s_lp_Variant>
AV-unprocessed.smi:2626-2

> <Gold.Version>
5.8.1

> <Gold.Id.Protein>
6NUR|6NUR_protein|mol2

> <Gold.PLP.Fitness>
34.1400

> <Gold.PLP.PLP>
-31.2149

> <Gold.PLP.part.hbond>
-1.0000

> <Gold.PLP.part.metal>
0.0000

> <Gold.PLP.part.buried>
-3.5609

> <Gold.PLP.part.nonpolar>
-26.8056

> <Gold.PLP.part.repulsive>
0.2137

> <Gold.PLP.ligand.clash>
0.0000

> <Gold.PLP.ligand.torsion>
0.1540

> <Gold.PLP.Chemscore.Hbond>
0.9760

> <Gold.PLP.Chemscore.CHOScore>
0.0000

> <Gold.PLP.Chemscore.Metal>
0.0000

> <Gold.Chemscore.Hbonds>
donor molecule, donor type, donor heavy atom, donor atom, acceptor molecule, acceptor atom, score
      L1  H    14    15       P1  8028  1.00

> <Gold.PLP.Chemscore.Internal.Correction>
0.3051

> <Gold.Rescore>
     Score         DG    S(hbond)    S(metal)    S(lipo)     H(rot)  DE(clash)    DE(int)     intcor
     14.26     -14.46       1.00        0.00      70.23       1.00       0.05       0.15       ----

> <Gold.Chemscore.Fitness>
14.2554

> <Gold.Chemscore.DG>
-14.4607

> <Gold.Chemscore.ZeroCoef>
-5.4800

> <Gold.Chemscore.Hbond>
0.9950

> <Gold.Chemscore.Metal>
0.0000

> <Gold.Chemscore.Lipo>
70.2342

> <Gold.Chemscore.Internal_Hbond>
0.0000

> <Gold.Chemscore.DEClash>
0.0527

> <Gold.Chemscore.DEInternal>
0.1526

> <Gold.Chemscore.Rot>
1.0000

> <Gold.Chemscore.Internal.Correction>
   9.000000E+99

> <Gold.Chemscore.Hbonds>
donor molecule, donor type, donor heavy atom, donor atom, acceptor molecule, acceptor atom, score
      L1  H    14    15       P1  8028  0.98

> <Gold.Chemscore.Hbond.Weighted>
-3.3233

> <Gold.Chemscore.Metal.Weighted>
-0.0000

> <Gold.Chemscore.Lipo.Weighted>
-8.2174

> <Gold.Chemscore.Internal_Hbond.Weighted>
0.0000

> <Gold.Chemscore.DEClash.Weighted>
0.0527

> <Gold.Chemscore.DEInternal.Weighted>
0.1526

> <Gold.Chemscore.Rot.Weighted>
2.5600

> <Gold.Chemscore.Internal.Correction.Weighted>
   9.000000E+99

> <Gold.Protein.RotatedTorsions>
[ 6907 6896 6895 6894 ] final  -83.72 input  -60.11 | X-H torsion
[ 7974 7965 7964 7962 ] final   21.53 input  175.53 | X-H torsion
[ 8008 7997 7996 7995 ] final   73.37 input   59.86 | X-H torsion
[ 10167 10162 10161 10158 ] final   47.53 input  -65.29 | X-H torsion
[ 10718 10713 10712 10709 ] final -126.55 input   66.30 | X-H torsion
[ 10763 10752 10751 10750 ] final -135.39 input  -60.55 | X-H torsion
[ 11005 11000 10999 10996 ] final  -81.31 input  -57.11 | X-H torsion

> <Gold.Protein.ActiveResidues>
 VAL166  LYS551  ARG553  GLY616  TRP617  ASP618  TYR619  PRO620  LYS621  CYS622 
 ASP623  PHE694  ASN695  SER759  ASP760  ASP761  ALA762  ILE779  LEU786  VAL792 
 PHE793  MET794  SER795  GLU796  ALA797  LYS798  CYS799  TRP800  GLU811  SER814 

> <Gold.Protein.RotatedAtoms>
  150.6883  134.3469  159.4891 H   0  0  0  0  0  0  0  0  0  0  0  0  # atno 6907 bound_to 6896
  152.1315  134.9129  160.0567 H   0  0  0  0  0  0  0  0  0  0  0  0  # atno 6908 bound_to 6896
  152.0297  133.3897  159.4329 H   0  0  0  0  0  0  0  0  0  0  0  0  # atno 6909 bound_to 6896
  146.2067  139.8014  142.8720 H   0  0  0  0  0  0  0  0  0  0  0  0  # atno 7974 bound_to 7965
  155.7827  140.3481  155.5306 H   0  0  0  0  0  0  0  0  0  0  0  0  # atno 8008 bound_to 7997
  155.8712  140.0987  157.1569 H   0  0  0  0  0  0  0  0  0  0  0  0  # atno 8009 bound_to 7997
  154.4018  140.1340  156.4068 H   0  0  0  0  0  0  0  0  0  0  0  0  # atno 8010 bound_to 7997
  140.3026  144.2915  150.6216 H   0  0  0  0  0  0  0  0  0  0  0  0  # atno 10167 bound_to 10162
  156.1776  130.6710  151.0262 H   0  0  0  0  0  0  0  0  0  0  0  0  # atno 10718 bound_to 10713
  154.8703  135.3705  154.4891 H   0  0  0  0  0  0  0  0  0  0  0  0  # atno 10763 bound_to 10752
  153.5539  135.7024  153.5583 H   0  0  0  0  0  0  0  0  0  0  0  0  # atno 10764 bound_to 10752
  153.3690  135.4026  155.1738 H   0  0  0  0  0  0  0  0  0  0  0  0  # atno 10765 bound_to 10752
  141.1666  133.7191  156.8404 H   0  0  0  0  0  0  0  0  0  0  0  0  # atno 11005 bound_to 11000
  145.3293  141.0262  143.3456 LP  0  0  0  0  0  0  0  0  0  0  0  0  # atno 17320 bound_to 7965
  144.8810  139.4903  143.6723 LP  0  0  0  0  0  0  0  0  0  0  0  0  # atno 17321 bound_to 7965
  140.5637  143.2189  151.7720 LP  0  0  0  0  0  0  0  0  0  0  0  0  # atno 17342 bound_to 10162
  139.4911  144.4313  151.9869 LP  0  0  0  0  0  0  0  0  0  0  0  0  # atno 17343 bound_to 10162
  157.6846  131.0828  150.7278 LP  0  0  0  0  0  0  0  0  0  0  0  0  # atno 17370 bound_to 10713
  156.7335  130.4717  149.5494 LP  0  0  0  0  0  0  0  0  0  0  0  0  # atno 17371 bound_to 10713
  140.1987  134.8913  157.3144 LP  0  0  0  0  0  0  0  0  0  0  0  0  # atno 17394 bound_to 11000
  140.2211  134.4023  155.7565 LP  0  0  0  0  0  0  0  0  0  0  0  0  # atno 17395 bound_to 11000

$$$$
