AV-unprocessed.smi:3321|AV-procd|sdf|12769|dock3
  -GOLD-   2272019113D 1   1.00000     0.00000
 Structure written by MMmdl.
 41 42  0  0  0  0  0  0  0  0  2 V2000
  149.0760  137.4297  155.0499 C   0  0  0  0  0  0  0  0  0  0  0  0
  148.7321  138.8642  154.6172 C   0  0  2  0  0  0  0  0  0  0  0  0
  148.3689  138.8716  153.1804 N   0  3  0  0  0  0  0  0  0  0  0  0
  146.9388  139.1222  152.8993 C   0  0  0  0  0  0  0  0  0  0  0  0
  146.5159  138.4739  151.5733 C   0  0  0  0  0  0  0  0  0  0  0  0
  145.5935  137.3744  151.7816 N   0  0  0  0  0  0  0  0  0  0  0  0
  144.4453  137.3494  152.5454 C   0  0  0  0  0  0  0  0  0  0  0  0
  143.9134  136.0964  152.4374 C   0  0  0  0  0  0  0  0  0  0  0  0
  144.8216  135.4157  151.5793 C   0  0  0  0  0  0  0  0  0  0  0  0
  145.8274  136.1830  151.1904 N   0  0  0  0  0  0  0  0  0  0  0  0
  149.9194  139.8061  154.9110 C   0  0  0  0  0  0  0  0  0  0  0  0
  151.0320  139.4800  154.4929 O   0  0  0  0  0  0  0  0  0  0  0  0
  149.7230  140.9518  155.6109 N   0  0  0  0  0  0  0  0  0  0  0  0
  150.7545  141.9267  155.9907 C   0  0  0  0  0  0  0  0  0  0  0  0
  151.0225  141.7884  157.5000 C   0  0  0  0  0  0  0  0  0  0  0  0
  149.7223  141.9877  158.3037 C   0  0  0  0  0  0  0  0  0  0  0  0
  148.5695  141.1226  157.7570 C   0  0  0  0  0  0  0  0  0  0  0  0
  148.4327  141.2820  156.2311 C   0  0  0  0  0  0  0  0  0  0  0  0
  149.3369  137.3792  156.1078 H   0  0  0  0  0  0  0  0  0  0  0  0
  149.9197  137.0330  154.4833 H   0  0  0  0  0  0  0  0  0  0  0  0
  148.2290  136.7614  154.8923 H   0  0  0  0  0  0  0  0  0  0  0  0
  147.8432  139.1913  155.1551 H   0  0  0  0  0  0  0  0  0  0  0  0
  148.9252  139.5751  152.7154 H   0  0  0  0  0  0  0  0  0  0  0  0
  146.3366  138.7224  153.7162 H   0  0  0  0  0  0  0  0  0  0  0  0
  146.7561  140.1969  152.8618 H   0  0  0  0  0  0  0  0  0  0  0  0
  146.0378  139.2081  150.9230 H   0  0  0  0  0  0  0  0  0  0  0  0
  147.3892  138.0966  151.0393 H   0  0  0  0  0  0  0  0  0  0  0  0
  144.1047  138.2147  153.0949 H   0  0  0  0  0  0  0  0  0  0  0  0
  143.0130  135.7219  152.9013 H   0  0  0  0  0  0  0  0  0  0  0  0
  144.7801  134.3943  151.2304 H   0  0  0  0  0  0  0  0  0  0  0  0
  151.6807  141.8376  155.4269 H   0  0  0  0  0  0  0  0  0  0  0  0
  150.3929  142.9329  155.7733 H   0  0  0  0  0  0  0  0  0  0  0  0
  151.4370  140.8013  157.7096 H   0  0  0  0  0  0  0  0  0  0  0  0
  151.7718  142.5139  157.8181 H   0  0  0  0  0  0  0  0  0  0  0  0
  149.8926  141.7675  159.3578 H   0  0  0  0  0  0  0  0  0  0  0  0
  149.4316  143.0377  158.2520 H   0  0  0  0  0  0  0  0  0  0  0  0
  148.7542  140.0747  157.9972 H   0  0  0  0  0  0  0  0  0  0  0  0
  147.6344  141.3925  158.2485 H   0  0  0  0  0  0  0  0  0  0  0  0
  148.1599  142.3088  155.9827 H   0  0  0  0  0  0  0  0  0  0  0  0
  147.6119  140.6637  155.8656 H   0  0  0  0  0  0  0  0  0  0  0  0
  148.6021  137.9678  152.7948 H   0  0  0  0  0  0  0  0  0  0  0  0
  1  2  1  0  0  0  0
  1 19  1  0  0  0  0
  1 20  1  0  0  0  0
  1 21  1  0  0  0  0
  2  3  1  0  0  0  0
  2 11  1  0  0  0  0
  2 22  1  0  0  0  0
  3  4  1  0  0  0  0
  3 23  1  0  0  0  0
  3 41  1  0  0  0  0
  4  5  1  0  0  0  0
  4 24  1  0  0  0  0
  4 25  1  0  0  0  0
  5  6  1  0  0  0  0
  5 26  1  0  0  0  0
  5 27  1  0  0  0  0
  6 10  1  0  0  0  0
  6  7  1  0  0  0  0
  7  8  2  0  0  0  0
  7 28  1  0  0  0  0
  8  9  1  0  0  0  0
  8 29  1  0  0  0  0
  9 10  2  0  0  0  0
  9 30  1  0  0  0  0
 11 12  2  0  0  0  0
 11 13  1  0  0  0  0
 13 18  1  0  0  0  0
 13 14  1  0  0  0  0
 14 15  1  0  0  0  0
 14 31  1  0  0  0  0
 14 32  1  0  0  0  0
 15 16  1  0  0  0  0
 15 33  1  0  0  0  0
 15 34  1  0  0  0  0
 16 17  1  0  0  0  0
 16 35  1  0  0  0  0
 16 36  1  0  0  0  0
 17 18  1  0  0  0  0
 17 37  1  0  0  0  0
 17 38  1  0  0  0  0
 18 39  1  0  0  0  0
 18 40  1  0  0  0  0
M  CHG  1   3   1
M  END
> <s_m_source_file>
AV-unprocessed.smi

> <i_m_source_file_index>
3321

> <i_lp_mmshare_version>
43012

> <i_f3d_flags>
0

> <s_epik_input>
W0NIMl0xW0NIMl1bQ0gyXVtDSDJdW0NIMl1OMUMoPU8pW0NASF0oW0NIM10pW05IXVtDSDJdW0NIMl1uMltjSF1bY0hdW2NIXW4y

> <s_epik_cmdline>
J2VwaWtfcHl0aG9uJywgJy1waCcsICc3LjAnLCAnLXRuJywgJzgnLCAnLW1hJywgJzIwMCcsICctbWV0YWxfYmluZGluZycsICctaW1hZScsICc8aW5maWxlLm1hZT4nLCAnLW9tYWUnLCAnPG91dGZpbGUubWFlPic=

> <r_lp_tautomer_probability>
1

> <r_epik_Ionization_Penalty>
0.202061

> <r_epik_Ionization_Penalty_Charging>
0.202058

> <r_epik_Ionization_Penalty_Neutral>
2.46932e-06

> <r_epik_State_Penalty>
0.191938

> <r_epik_Charging_Adjusted_Penalty>
0.393996

> <i_epik_Tot_Q>
1

> <i_epik_Tot_abs_Q>
1

> <r_epik_Metal_State_Penalty>
0.192188

> <b_epik_Metal_Only>
0

> <s_lp_Force_Field>
OPLS_2005

> <r_lp_Energy>
26.3396

> <b_lp_Chiralities_Consistent>
1

> <s_lp_Variant>
AV-unprocessed.smi:3321-1

> <Gold.Version>
5.8.1

> <Gold.Id.Protein>
6NUR|6NUR_protein|mol2

> <Gold.PLP.Fitness>
42.9178

> <Gold.PLP.PLP>
-31.1188

> <Gold.PLP.part.hbond>
-3.0000

> <Gold.PLP.part.metal>
0.0000

> <Gold.PLP.part.buried>
-1.8584

> <Gold.PLP.part.nonpolar>
-26.9239

> <Gold.PLP.part.repulsive>
0.6373

> <Gold.PLP.ligand.clash>
0.0000

> <Gold.PLP.ligand.torsion>
1.4974

> <Gold.PLP.Chemscore.Hbond>
3.8800

> <Gold.PLP.Chemscore.CHOScore>
1.0000

> <Gold.PLP.Chemscore.Metal>
0.0000

> <Gold.Chemscore.Hbonds>
donor molecule, donor type, donor heavy atom, donor atom, acceptor molecule, acceptor atom, score
      L1  H     3    23       P1  7957  0.86
      L1  H     3    41       P1  7948  2.00
      P1  H  7989  7998       L1    12  1.00
      L1  C     7    28       P1 10175  1.00

> <Gold.PLP.Chemscore.Internal.Correction>
0.1538

> <Gold.Rescore>
     Score         DG    S(hbond)    S(metal)    S(lipo)     H(rot)  DE(clash)    DE(int)     intcor
     15.67     -17.36       2.86        0.00      59.17       1.79       0.29       1.40       ----

> <Gold.Chemscore.Fitness>
15.6687

> <Gold.Chemscore.DG>
-17.3608

> <Gold.Chemscore.ZeroCoef>
-5.4800

> <Gold.Chemscore.Hbond>
2.8585

> <Gold.Chemscore.Metal>
0.0000

> <Gold.Chemscore.Lipo>
59.1712

> <Gold.Chemscore.Internal_Hbond>
0.0000

> <Gold.Chemscore.DEClash>
0.2947

> <Gold.Chemscore.DEInternal>
1.3974

> <Gold.Chemscore.Rot>
1.7928

> <Gold.Chemscore.Internal.Correction>
   9.000000E+99

> <Gold.Chemscore.Hbonds>
donor molecule, donor type, donor heavy atom, donor atom, acceptor molecule, acceptor atom, score
      L1  H     3    23       P1  7957  0.85
      L1  H     3    41       P1  7948  0.98
      P1  H  7989  7998       L1    12  0.60

> <Gold.Chemscore.Hbond.Weighted>
-9.5472

> <Gold.Chemscore.Metal.Weighted>
-0.0000

> <Gold.Chemscore.Lipo.Weighted>
-6.9230

> <Gold.Chemscore.Internal_Hbond.Weighted>
0.0000

> <Gold.Chemscore.DEClash.Weighted>
0.2947

> <Gold.Chemscore.DEInternal.Weighted>
1.3974

> <Gold.Chemscore.Rot.Weighted>
4.5895

> <Gold.Chemscore.Internal.Correction.Weighted>
   9.000000E+99

> <Gold.Protein.RotatedTorsions>
[ 6907 6896 6895 6894 ] final  163.34 input  -60.11 | X-H torsion
[ 7974 7965 7964 7962 ] final  -17.05 input  175.53 | X-H torsion
[ 8008 7997 7996 7995 ] final -149.31 input   59.86 | X-H torsion
[ 10167 10162 10161 10158 ] final   52.89 input  -65.29 | X-H torsion
[ 10718 10713 10712 10709 ] final   14.60 input   66.30 | X-H torsion
[ 10763 10752 10751 10750 ] final  108.49 input  -60.55 | X-H torsion
[ 11005 11000 10999 10996 ] final  -49.94 input  -57.11 | X-H torsion

> <Gold.Protein.ActiveResidues>
 VAL166  LYS551  ARG553  GLY616  TRP617  ASP618  TYR619  PRO620  LYS621  CYS622 
 ASP623  PHE694  ASN695  SER759  ASP760  ASP761  ALA762  ILE779  LEU786  VAL792 
 PHE793  MET794  SER795  GLU796  ALA797  LYS798  CYS799  TRP800  GLU811  SER814 

> <Gold.Protein.RotatedAtoms>
  151.9267  133.3600  159.3915 H   0  0  0  0  0  0  0  0  0  0  0  0  # atno 6907 bound_to 6896
  150.7025  134.4580  159.5376 H   0  0  0  0  0  0  0  0  0  0  0  0  # atno 6908 bound_to 6896
  152.2213  134.8410  160.0536 H   0  0  0  0  0  0  0  0  0  0  0  0  # atno 6909 bound_to 6896
  146.1959  140.3724  142.8441 H   0  0  0  0  0  0  0  0  0  0  0  0  # atno 7974 bound_to 7965
  155.6055  140.0666  157.2721 H   0  0  0  0  0  0  0  0  0  0  0  0  # atno 8008 bound_to 7997
  154.4267  140.1810  156.1265 H   0  0  0  0  0  0  0  0  0  0  0  0  # atno 8009 bound_to 7997
  156.0126  140.3325  155.6959 H   0  0  0  0  0  0  0  0  0  0  0  0  # atno 8010 bound_to 7997
  140.2466  144.3525  150.6362 H   0  0  0  0  0  0  0  0  0  0  0  0  # atno 10167 bound_to 10162
  157.0415  130.6233  149.5752 H   0  0  0  0  0  0  0  0  0  0  0  0  # atno 10718 bound_to 10713
  153.4214  135.3810  155.2113 H   0  0  0  0  0  0  0  0  0  0  0  0  # atno 10763 bound_to 10752
  154.8745  135.3818  154.4380 H   0  0  0  0  0  0  0  0  0  0  0  0  # atno 10764 bound_to 10752
  153.4900  135.7088  153.5952 H   0  0  0  0  0  0  0  0  0  0  0  0  # atno 10765 bound_to 10752
  141.0788  133.6659  156.3659 H   0  0  0  0  0  0  0  0  0  0  0  0  # atno 11005 bound_to 11000
  144.8580  140.7098  143.6126 LP  0  0  0  0  0  0  0  0  0  0  0  0  # atno 17320 bound_to 7965
  145.3645  139.1673  143.4365 LP  0  0  0  0  0  0  0  0  0  0  0  0  # atno 17321 bound_to 7965
  140.6073  143.2168  151.6956 LP  0  0  0  0  0  0  0  0  0  0  0  0  # atno 17342 bound_to 10162
  139.5060  144.3698  152.0481 LP  0  0  0  0  0  0  0  0  0  0  0  0  # atno 17343 bound_to 10162
  156.0036  130.5120  150.7753 LP  0  0  0  0  0  0  0  0  0  0  0  0  # atno 17370 bound_to 10713
  157.5101  131.0925  151.0209 LP  0  0  0  0  0  0  0  0  0  0  0  0  # atno 17371 bound_to 10713
  140.5515  134.6023  157.5409 LP  0  0  0  0  0  0  0  0  0  0  0  0  # atno 17394 bound_to 11000
  139.9601  134.7468  156.0256 LP  0  0  0  0  0  0  0  0  0  0  0  0  # atno 17395 bound_to 11000

$$$$
