#       Name:                AV-unprocessed.smi:162
#       Creating user name   scv26
#       Creation time:       Thu Mar 26 19:09:54 2020


#       File generated by GOLD software.
#

@<TRIPOS>MOLECULE
AV-unprocessed.smi:162
    66    69     1
SMALL
NO_CHARGES


@<TRIPOS>ATOM
      1 ****        -2.3381  -1.6672   4.5028 C.3            1 S1                 0.0000
      2 ****        -3.0110  -1.9244   3.2802 O.3            1 S1                 0.0000
      3 ****        -2.3700  -1.3730   2.1382 C.3            1 S1                 0.0000
      4 ****        -2.5663   0.1561   2.0453 C.3            1 S1                 0.0000
      5 ****        -4.0400   0.5779   2.0065 C.3            1 S1                 0.0000
      6 ****        -4.0588   1.8765   1.1822 C.3            1 S1                 0.0000
      7 ****        -4.4729   3.0036   1.9417 O.3            1 S1                 0.0000
      8 ****        -5.8771   3.0723   2.1324 C.3            1 S1                 0.0000
      9 ****        -2.6021   2.0670   0.7447 C.3            1 S1                 0.0000
     10 ****        -1.9884   0.7501   0.8472 N.3            1 S1                 0.0000
     11 ****        -0.6373   0.6991   0.7714 C.ar           1 S1                 0.0000
     12 ****         0.1286   1.6044   1.4367 N.ar           1 S1                 0.0000
     13 ****         1.4617   1.5243   1.3796 C.ar           1 S1                 0.0000
     14 ****         2.2180   0.6325   0.7357 N.ar           1 S1                 0.0000
     15 ****         1.4513  -0.2775   0.0691 C.ar           1 S1                 0.0000
     16 ****         0.0297  -0.3144   0.0335 C.ar           1 S1                 0.0000
     17 ****        -0.4003  -1.3852  -0.7395 N.2            1 S1                 0.0000
     18 ****         0.7061  -1.9553  -1.1325 C.2            1 S1                 0.0000
     19 ****         1.8657  -1.3500  -0.7014 N.pl3          1 S1                 0.0000
     20 ****         3.2283  -1.7768  -0.9783 C.3            1 S1                 0.0000
     21 ****         3.8316  -1.2000  -2.2839 C.3            1 S1                 0.0000
     22 ****         5.1581  -1.6942  -2.3318 O.3            1 S1                 0.0000
     23 ****         3.0912  -1.6795  -3.5510 C.3            1 S1                 0.0000
     24 ****         3.6561  -1.0264  -4.8256 C.3            1 S1                 0.0000
     25 ****         3.6064   0.3912  -4.7090 O.3            1 S1                 0.0000
     26 ****         4.4052   0.8867  -3.6405 C.3            1 S1                 0.0000
     27 ****         3.8852   0.3432  -2.2972 C.3            1 S1                 0.0000
     28 ****        -2.0916   0.6370   2.9019 H              1 S1                 0.0000
     29 ****        -4.6859   1.7519   0.2976 H              1 S1                 0.0000
     30 ****        -2.8564  -2.1767   5.3148 H              1 S1                 0.0000
     31 ****        -2.3211  -0.6038   4.7401 H              1 S1                 0.0000
     32 ****        -1.3126  -2.0373   4.4773 H              1 S1                 0.0000
     33 ****        -1.3127  -1.6407   2.1477 H              1 S1                 0.0000
     34 ****        -2.7989  -1.8476   1.2550 H              1 S1                 0.0000
     35 ****        -4.6432  -0.1776   1.5012 H              1 S1                 0.0000
     36 ****        -4.4413   0.6993   3.0129 H              1 S1                 0.0000
     37 ****        -6.1214   3.9544   2.7239 H              1 S1                 0.0000
     38 ****        -6.2572   2.1989   2.6629 H              1 S1                 0.0000
     39 ****        -6.3989   3.1551   1.1783 H              1 S1                 0.0000
     40 ****        -2.5348   2.4575  -0.2711 H              1 S1                 0.0000
     41 ****        -2.1086   2.7769   1.4102 H              1 S1                 0.0000
     42 ****         1.9993   2.2810   1.9316 H              1 S1                 0.0000
     43 ****         0.7066  -2.8384  -1.7550 H              1 S1                 0.0000
     44 ****         3.8467  -1.4957  -0.1246 H              1 S1                 0.0000
     45 ****         3.2381  -2.8674  -1.0104 H              1 S1                 0.0000
     46 ****         5.6225  -1.3823  -1.5701 H              1 S1                 0.0000
     47 ****         3.1357  -2.7662  -3.6338 H              1 S1                 0.0000
     48 ****         2.0351  -1.4193  -3.4847 H              1 S1                 0.0000
     49 ****         4.6796  -1.3526  -5.0165 H              1 S1                 0.0000
     50 ****         3.0648  -1.3270  -5.6906 H              1 S1                 0.0000
     51 ****         5.4509   0.6182  -3.7974 H              1 S1                 0.0000
     52 ****         4.3570   1.9757  -3.6444 H              1 S1                 0.0000
     53 ****         2.8866   0.7501  -2.1382 H              1 S1                 0.0000
     54 ****         4.5013   0.7135  -1.4770 H              1 S1                 0.0000
     55 ****        -3.9314  -1.5380   3.3410 LP             1 S1                 0.0000
     56 ****        -3.0727  -2.9149   3.1581 LP             1 S1                 0.0000
     57 ****        -4.1772   3.8320   1.4659 LP             1 S1                 0.0000
     58 ****        -4.0334   2.9596   2.8389 LP             1 S1                 0.0000
     59 ****        -2.1991   0.2122   0.0310 LP             1 S1                 0.0000
     60 ****        -0.3058   2.3309   1.9693 LP             1 S1                 0.0000
     61 ****         3.2180   0.6318   0.7414 LP             1 S1                 0.0000
     62 ****        -1.3402  -1.6566  -0.9469 LP             1 S1                 0.0000
     63 ****         5.6107  -1.3654  -3.1607 LP             1 S1                 0.0000
     64 ****         5.1456  -2.6941  -2.3330 LP             1 S1                 0.0000
     65 ****         2.6576   0.6655  -4.5520 LP             1 S1                 0.0000
     66 ****         3.9325   0.7935  -5.5644 LP             1 S1                 0.0000
@<TRIPOS>BOND
    1    1    2 1     
    2    1   30 1     
    3    1   31 1     
    4    1   32 1     
    5    2    3 1     
    6    3    4 1     
    7    3   33 1     
    8    3   34 1     
    9    4   28 1     
   10    4   10 1     
   11    4    5 1     
   12    5    6 1     
   13    5   35 1     
   14    5   36 1     
   15    6   29 1     
   16    6    7 1     
   17    6    9 1     
   18    7    8 1     
   19    8   37 1     
   20    8   38 1     
   21    8   39 1     
   22    9   10 1     
   23    9   40 1     
   24    9   41 1     
   25   10   11 1     
   26   11   16 ar    
   27   11   12 ar    
   28   12   13 ar    
   29   13   14 ar    
   30   13   42 1     
   31   14   15 ar    
   32   15   19 1     
   33   15   16 ar    
   34   16   17 1     
   35   17   18 2     
   36   18   19 1     
   37   18   43 1     
   38   19   20 1     
   39   20   21 1     
   40   20   44 1     
   41   20   45 1     
   42   21   27 1     
   43   21   22 1     
   44   21   23 1     
   45   22   46 1     
   46   23   24 1     
   47   23   47 1     
   48   23   48 1     
   49   24   25 1     
   50   24   49 1     
   51   24   50 1     
   52   25   26 1     
   53   26   27 1     
   54   26   51 1     
   55   26   52 1     
   56   27   53 1     
   57   27   54 1     
   58    2   55 1     
   59    2   56 1     
   60    7   57 1     
   61    7   58 1     
   62   10   59 1     
   63   12   60 1     
   64   14   61 1     
   65   17   62 1     
   66   22   63 1     
   67   22   64 1     
   68   25   65 1     
   69   25   66 1     
@<TRIPOS>SUBSTRUCTURE
      1 S1             1
@<TRIPOS>SET
LONE_PAIRS      STATIC     ATOMS    <user>   **** ""
12 55 56 57 58 59 60 61 62 63 64 65 66
DONOR_HYDROGENS      STATIC     ATOMS    <user>   **** ""
1 46
ATOM$BLUE        STATIC     ATOMS    COLORGROUP SYSTEM
12 55 56 57 58 59 60 61 62 63 64 65 66
ATOM$RED        STATIC     ATOMS    COLORGROUP SYSTEM
1 46
