AV-unprocessed.smi:1762|AV-procd|sdf|7121|dock9
  -GOLD-   22720 8353D 1   1.00000     0.00000
 Structure written by MMmdl.
 52 53  0  0  0  0  0  0  0  0  3 V2000
  145.8873  138.4073  155.8038 C   0  0  0  0  0  0  0  0  0  0  0  0
  146.8870  139.0223  154.8189 C   0  0  2  0  0  0  0  0  0  0  0  0
  148.2923  139.1530  155.4297 C   0  0  0  0  0  0  0  0  0  0  0  0
  149.1977  139.8327  154.4716 N   0  3  2  0  0  0  0  0  0  0  0  0
  150.6563  139.8246  154.8044 C   0  0  1  0  0  0  0  0  0  0  0  0
  150.9857  140.3806  156.2138 C   0  0  0  0  0  0  0  0  0  0  0  0
  151.5701  139.6301  157.0026 O   0  0  0  0  0  0  0  0  0  0  0  0
  150.5628  141.6654  156.3850 N   0  5  0  0  0  0  0  0  0  0  0  0
  150.8056  142.4505  157.5964 C   0  0  0  0  0  0  0  0  0  0  0  0
  152.2319  142.2210  158.1534 C   0  0  0  0  0  0  0  0  0  0  0  0
  152.4015  142.4385  159.6561 C   0  0  0  0  0  0  0  0  0  0  0  0
  152.0391  143.6694  160.2487 C   0  0  0  0  0  0  0  0  0  0  0  0
  152.2429  143.8396  161.6316 C   0  0  0  0  0  0  0  0  0  0  0  0
  152.8056  142.7823  162.3707 C   0  0  0  0  0  0  0  0  0  0  0  0
  153.1491  141.5986  161.6891 C   0  0  0  0  0  0  0  0  0  0  0  0
  152.9629  141.4264  160.3634 N   0  0  0  0  0  0  0  0  0  0  0  0
  151.3525  138.4744  154.4365 C   0  0  0  0  0  0  0  0  0  0  0  0
  150.7423  137.2667  155.1772 C   0  0  0  0  0  0  0  0  0  0  0  0
  152.8700  138.5183  154.7014 C   0  0  0  0  0  0  0  0  0  0  0  0
  148.6593  141.1645  154.1029 C   0  0  0  0  0  0  0  0  0  0  0  0
  147.2312  141.0343  153.5400 C   0  0  1  0  0  0  0  0  0  0  0  0
  147.1848  140.4406  152.1204 C   0  0  0  0  0  0  0  0  0  0  0  0
  146.4027  140.3135  154.4536 O   0  0  0  0  0  0  0  0  0  0  0  0
  146.2105  137.4172  156.1263 H   0  0  0  0  0  0  0  0  0  0  0  0
  144.9031  138.3039  155.3466 H   0  0  0  0  0  0  0  0  0  0  0  0
  145.7773  139.0295  156.6916 H   0  0  0  0  0  0  0  0  0  0  0  0
  146.9301  138.3818  153.9379 H   0  0  0  0  0  0  0  0  0  0  0  0
  148.2383  139.7233  156.3554 H   0  0  0  0  0  0  0  0  0  0  0  0
  148.6732  138.1643  155.6826 H   0  0  0  0  0  0  0  0  0  0  0  0
  151.0974  140.5452  154.1132 H   0  0  0  0  0  0  0  0  0  0  0  0
  150.6620  143.5153  157.4115 H   0  0  0  0  0  0  0  0  0  0  0  0
  150.0888  142.2042  158.3810 H   0  0  0  0  0  0  0  0  0  0  0  0
  152.5298  141.1950  157.9348 H   0  0  0  0  0  0  0  0  0  0  0  0
  152.9434  142.8501  157.6166 H   0  0  0  0  0  0  0  0  0  0  0  0
  151.6172  144.4665  159.6546 H   0  0  0  0  0  0  0  0  0  0  0  0
  151.9775  144.7669  162.1169 H   0  0  0  0  0  0  0  0  0  0  0  0
  152.9761  142.8775  163.4330 H   0  0  0  0  0  0  0  0  0  0  0  0
  153.5903  140.7693  162.2221 H   0  0  0  0  0  0  0  0  0  0  0  0
  151.2261  138.2863  153.3702 H   0  0  0  0  0  0  0  0  0  0  0  0
  150.8057  137.3928  156.2584 H   0  0  0  0  0  0  0  0  0  0  0  0
  151.2644  136.3448  154.9201 H   0  0  0  0  0  0  0  0  0  0  0  0
  149.6937  137.1158  154.9212 H   0  0  0  0  0  0  0  0  0  0  0  0
  153.0821  138.7344  155.7490 H   0  0  0  0  0  0  0  0  0  0  0  0
  153.3677  139.2754  154.0955 H   0  0  0  0  0  0  0  0  0  0  0  0
  153.3372  137.5631  154.4600 H   0  0  0  0  0  0  0  0  0  0  0  0
  148.6456  141.8066  154.9849 H   0  0  0  0  0  0  0  0  0  0  0  0
  149.3055  141.6484  153.3694 H   0  0  0  0  0  0  0  0  0  0  0  0
  146.8084  142.0373  153.4753 H   0  0  0  0  0  0  0  0  0  0  0  0
  147.7211  141.0785  151.4176 H   0  0  0  0  0  0  0  0  0  0  0  0
  146.1568  140.3557  151.7680 H   0  0  0  0  0  0  0  0  0  0  0  0
  147.6393  139.4516  152.0695 H   0  0  0  0  0  0  0  0  0  0  0  0
  149.1396  139.2863  153.6248 H   0  0  0  0  0  0  0  0  0  0  0  0
  1  2  1  0  0  0  0
  1 24  1  0  0  0  0
  1 25  1  0  0  0  0
  1 26  1  0  0  0  0
  2 23  1  0  0  0  0
  2  3  1  0  0  0  0
  2 27  1  0  0  0  0
  3  4  1  0  0  0  0
  3 28  1  0  0  0  0
  3 29  1  0  0  0  0
  4  5  1  0  0  0  0
  4 20  1  0  0  0  0
  4 52  1  0  0  0  0
  5  6  1  0  0  0  0
  5 17  1  0  0  0  0
  5 30  1  0  0  0  0
  6  7  2  0  0  0  0
  6  8  1  0  0  0  0
  8  9  1  0  0  0  0
  9 10  1  0  0  0  0
  9 31  1  0  0  0  0
  9 32  1  0  0  0  0
 10 11  1  0  0  0  0
 10 33  1  0  0  0  0
 10 34  1  0  0  0  0
 11 16  1  0  0  0  0
 11 12  2  0  0  0  0
 12 13  1  0  0  0  0
 12 35  1  0  0  0  0
 13 14  2  0  0  0  0
 13 36  1  0  0  0  0
 14 15  1  0  0  0  0
 14 37  1  0  0  0  0
 15 16  2  0  0  0  0
 15 38  1  0  0  0  0
 17 18  1  0  0  0  0
 17 19  1  0  0  0  0
 17 39  1  0  0  0  0
 18 40  1  0  0  0  0
 18 41  1  0  0  0  0
 18 42  1  0  0  0  0
 19 43  1  0  0  0  0
 19 44  1  0  0  0  0
 19 45  1  0  0  0  0
 20 21  1  0  0  0  0
 20 46  1  0  0  0  0
 20 47  1  0  0  0  0
 21 22  1  0  0  0  0
 21 23  1  0  0  0  0
 21 48  1  0  0  0  0
 22 49  1  0  0  0  0
 22 50  1  0  0  0  0
 22 51  1  0  0  0  0
M  CHG  1   4   1
M  CHG  1   8  -1
M  END
> <s_m_source_file>
AV-unprocessed.smi

> <i_m_source_file_index>
1762

> <i_lp_mmshare_version>
43012

> <i_f3d_flags>
0

> <s_epik_input>
W0NIM11bQ0BASF0xW0NIMl1OKFtDSDJdW0NASF0oTzEpW0NIM10pW0NAQEhdKFtDSF0oW0NIM10pW0NIM10pQyg9TylbTkhdW0NIMl1bQ0gyXWMyW2NIXVtjSF1bY0hdW2NIXW4y

> <s_epik_cmdline>
J2VwaWtfcHl0aG9uJywgJy1waCcsICc3LjAnLCAnLXRuJywgJzgnLCAnLW1hJywgJzIwMCcsICctbWV0YWxfYmluZGluZycsICctaW1hZScsICc8aW5maWxlLm1hZT4nLCAnLW9tYWUnLCAnPG91dGZpbGUubWFlPic=

> <r_epik_Ionization_Penalty>
7.82966

> <r_epik_Ionization_Penalty_Charging>
7.7461

> <r_epik_Ionization_Penalty_Neutral>
0.0835571

> <r_epik_State_Penalty>
8.52273

> <r_epik_Charging_Adjusted_Penalty>
16.2688

> <i_epik_Tot_Q>
0

> <i_epik_Tot_abs_Q>
2

> <r_epik_Metal_State_Penalty>
4.47451

> <b_epik_Metal_Only>
1

> <s_lp_Force_Field>
OPLS_2005

> <r_lp_Energy>
25.1161

> <b_lp_Chiralities_Consistent>
1

> <s_lp_Variant>
AV-unprocessed.smi:1762-23

> <Gold.Version>
5.8.1

> <Gold.Id.Protein>
6NUR|6NUR_protein|mol2

> <Gold.PLP.Fitness>
43.6821

> <Gold.PLP.PLP>
-44.7439

> <Gold.PLP.part.hbond>
0.0000

> <Gold.PLP.part.metal>
0.0000

> <Gold.PLP.part.buried>
-3.1796

> <Gold.PLP.part.nonpolar>
-41.1129

> <Gold.PLP.part.repulsive>
0.2704

> <Gold.PLP.ligand.clash>
0.0000

> <Gold.PLP.ligand.torsion>
0.8938

> <Gold.PLP.Chemscore.Hbond>
0.0000

> <Gold.PLP.Chemscore.CHOScore>
0.0000

> <Gold.PLP.Chemscore.Metal>
0.0000

> <Gold.PLP.Chemscore.Internal.Correction>
0.7258

> <Gold.Rescore>
     Score         DG    S(hbond)    S(metal)    S(lipo)     H(rot)  DE(clash)    DE(int)     intcor
     12.56     -16.51       0.00        0.00     129.32       1.60       0.22       3.74       ----

> <Gold.Chemscore.Fitness>
12.5584

> <Gold.Chemscore.DG>
-16.5112

> <Gold.Chemscore.ZeroCoef>
-5.4800

> <Gold.Chemscore.Hbond>
0.0000

> <Gold.Chemscore.Metal>
0.0000

> <Gold.Chemscore.Lipo>
129.3178

> <Gold.Chemscore.Internal_Hbond>
0.0000

> <Gold.Chemscore.DEClash>
0.2161

> <Gold.Chemscore.DEInternal>
3.7367

> <Gold.Chemscore.Rot>
1.6012

> <Gold.Chemscore.Internal.Correction>
   9.000000E+99

> <Gold.Chemscore.Hbond.Weighted>
-0.0000

> <Gold.Chemscore.Metal.Weighted>
-0.0000

> <Gold.Chemscore.Lipo.Weighted>
-15.1302

> <Gold.Chemscore.Internal_Hbond.Weighted>
0.0000

> <Gold.Chemscore.DEClash.Weighted>
0.2161

> <Gold.Chemscore.DEInternal.Weighted>
3.7367

> <Gold.Chemscore.Rot.Weighted>
4.0990

> <Gold.Chemscore.Internal.Correction.Weighted>
   9.000000E+99

> <Gold.Protein.RotatedTorsions>
[ 6907 6896 6895 6894 ] final   79.65 input  -60.11 | X-H torsion
[ 7974 7965 7964 7962 ] final   84.32 input  175.53 | X-H torsion
[ 8008 7997 7996 7995 ] final   13.27 input   59.86 | X-H torsion
[ 10167 10162 10161 10158 ] final  174.07 input  -65.29 | X-H torsion
[ 10718 10713 10712 10709 ] final  132.46 input   66.30 | X-H torsion
[ 10763 10752 10751 10750 ] final  118.15 input  -60.55 | X-H torsion
[ 11005 11000 10999 10996 ] final   43.34 input  -57.11 | X-H torsion

> <Gold.Protein.ActiveResidues>
 VAL166  LYS551  ARG553  GLY616  TRP617  ASP618  TYR619  PRO620  LYS621  CYS622 
 ASP623  PHE694  ASN695  SER759  ASP760  ASP761  ALA762  ILE779  LEU786  VAL792 
 PHE793  MET794  SER795  GLU796  ALA797  LYS798  CYS799  TRP800  GLU811  SER814 

> <Gold.Protein.RotatedAtoms>
  152.5206  134.3479  159.9240 H   0  0  0  0  0  0  0  0  0  0  0  0  # atno 6907 bound_to 6896
  151.3429  133.3949  159.2680 H   0  0  0  0  0  0  0  0  0  0  0  0  # atno 6908 bound_to 6896
  150.9788  134.9166  159.7890 H   0  0  0  0  0  0  0  0  0  0  0  0  # atno 6909 bound_to 6896
  145.6003  139.2351  143.2249 H   0  0  0  0  0  0  0  0  0  0  0  0  # atno 7974 bound_to 7965
  154.8322  140.2901  155.5715 H   0  0  0  0  0  0  0  0  0  0  0  0  # atno 8008 bound_to 7997
  156.3006  140.2530  156.3180 H   0  0  0  0  0  0  0  0  0  0  0  0  # atno 8009 bound_to 7997
  154.9219  140.0385  157.1991 H   0  0  0  0  0  0  0  0  0  0  0  0  # atno 8010 bound_to 7997
  139.5129  144.3189  152.0222 H   0  0  0  0  0  0  0  0  0  0  0  0  # atno 10167 bound_to 10162
  157.4869  131.1088  150.9608 H   0  0  0  0  0  0  0  0  0  0  0  0  # atno 10718 bound_to 10713
  153.5633  135.3516  155.2808 H   0  0  0  0  0  0  0  0  0  0  0  0  # atno 10763 bound_to 10752
  154.8692  135.4142  154.2807 H   0  0  0  0  0  0  0  0  0  0  0  0  # atno 10764 bound_to 10752
  153.3557  135.7057  153.6822 H   0  0  0  0  0  0  0  0  0  0  0  0  # atno 10765 bound_to 10752
  140.1654  134.4288  155.8290 H   0  0  0  0  0  0  0  0  0  0  0  0  # atno 11005 bound_to 11000
  146.1581  140.6828  142.9290 LP  0  0  0  0  0  0  0  0  0  0  0  0  # atno 17320 bound_to 7965
  144.7313  140.4678  143.6936 LP  0  0  0  0  0  0  0  0  0  0  0  0  # atno 17321 bound_to 7965
  140.2631  144.4046  150.6178 LP  0  0  0  0  0  0  0  0  0  0  0  0  # atno 17342 bound_to 10162
  140.6143  143.2171  151.6824 LP  0  0  0  0  0  0  0  0  0  0  0  0  # atno 17343 bound_to 10162
  157.0323  130.5716  149.5345 LP  0  0  0  0  0  0  0  0  0  0  0  0  # atno 17370 bound_to 10713
  156.0152  130.5245  150.8111 LP  0  0  0  0  0  0  0  0  0  0  0  0  # atno 17371 bound_to 10713
  141.2213  133.6932  156.7669 LP  0  0  0  0  0  0  0  0  0  0  0  0  # atno 17394 bound_to 11000
  140.2440  134.8592  157.3601 LP  0  0  0  0  0  0  0  0  0  0  0  0  # atno 17395 bound_to 11000

$$$$
