AV-unprocessed.smi:3312|AV-procd|sdf|12728|dock4
  -GOLD-   2272019 73D 1   1.00000     0.00000
 Structure written by MMmdl.
 38 39  0  0  0  0  0  0  0  0  1 V2000
  148.5035  140.1401  154.2244 C   0  0  0  0  0  0  0  0  0  0  0  0
  149.6511  139.5488  154.9913 C   0  0  0  0  0  0  0  0  0  0  0  0
  150.3457  138.3337  154.7290 C   0  0  0  0  0  0  0  0  0  0  0  0
  151.3129  138.0957  155.5998 N   0  0  0  0  0  0  0  0  0  0  0  0
  151.2686  139.1445  156.4481 N   0  0  0  0  0  0  0  0  0  0  0  0
  152.2058  139.2198  157.5552 C   0  0  0  0  0  0  0  0  0  0  0  0
  151.7992  140.2668  158.6065 C   0  0  0  0  0  0  0  0  0  0  0  0
  152.6544  140.1572  159.7850 N   0  0  0  0  0  0  0  0  0  0  0  0
  153.5074  141.3418  159.9838 C   0  0  0  0  0  0  0  0  0  0  0  0
  152.8178  142.5562  160.6395 C   0  0  0  0  0  0  0  0  0  0  0  0
  152.4237  142.4655  161.8037 O   0  0  0  0  0  0  0  0  0  0  0  0
  152.6781  143.6977  159.9228 N   0  0  0  0  0  0  0  0  0  0  0  0
  151.9655  144.8776  160.4219 C   0  0  0  0  0  0  0  0  0  0  0  0
  150.7422  145.1214  159.5191 C   0  0  0  0  0  0  0  0  0  0  0  0
  151.1648  145.2860  158.1672 O   0  0  0  0  0  0  0  0  0  0  0  0
  151.8899  144.1653  157.6657 C   0  0  0  0  0  0  0  0  0  0  0  0
  153.1285  143.9190  158.5451 C   0  0  0  0  0  0  0  0  0  0  0  0
  150.2778  140.0386  156.1020 C   0  0  0  0  0  0  0  0  0  0  0  0
  148.4676  139.7690  153.1999 H   0  0  0  0  0  0  0  0  0  0  0  0
  148.5717  141.2268  154.1694 H   0  0  0  0  0  0  0  0  0  0  0  0
  147.5461  139.9003  154.6873 H   0  0  0  0  0  0  0  0  0  0  0  0
  150.1765  137.6211  153.9351 H   0  0  0  0  0  0  0  0  0  0  0  0
  152.2642  138.2340  158.0185 H   0  0  0  0  0  0  0  0  0  0  0  0
  153.2000  139.4375  157.1626 H   0  0  0  0  0  0  0  0  0  0  0  0
  151.8736  141.2699  158.1841 H   0  0  0  0  0  0  0  0  0  0  0  0
  150.7542  140.1123  158.8737 H   0  0  0  0  0  0  0  0  0  0  0  0
  153.2123  139.3199  159.6966 H   0  0  0  0  0  0  0  0  0  0  0  0
  154.3414  141.0521  160.6236 H   0  0  0  0  0  0  0  0  0  0  0  0
  153.9313  141.6250  159.0196 H   0  0  0  0  0  0  0  0  0  0  0  0
  151.6410  144.7746  161.4580 H   0  0  0  0  0  0  0  0  0  0  0  0
  152.6312  145.7416  160.3972 H   0  0  0  0  0  0  0  0  0  0  0  0
  150.0363  144.2923  159.5902 H   0  0  0  0  0  0  0  0  0  0  0  0
  150.2124  146.0202  159.8351 H   0  0  0  0  0  0  0  0  0  0  0  0
  151.2474  143.2836  157.6416 H   0  0  0  0  0  0  0  0  0  0  0  0
  152.1904  144.3709  156.6384 H   0  0  0  0  0  0  0  0  0  0  0  0
  153.7806  144.7932  158.5201 H   0  0  0  0  0  0  0  0  0  0  0  0
  153.7210  143.1037  158.1345 H   0  0  0  0  0  0  0  0  0  0  0  0
  150.1003  140.9391  156.6715 H   0  0  0  0  0  0  0  0  0  0  0  0
  1  2  1  0  0  0  0
  1 19  1  0  0  0  0
  1 20  1  0  0  0  0
  1 21  1  0  0  0  0
  2 18  2  0  0  0  0
  2  3  1  0  0  0  0
  3  4  2  0  0  0  0
  3 22  1  0  0  0  0
  4  5  1  0  0  0  0
  5  6  1  0  0  0  0
  5 18  1  0  0  0  0
  6  7  1  0  0  0  0
  6 23  1  0  0  0  0
  6 24  1  0  0  0  0
  7  8  1  0  0  0  0
  7 25  1  0  0  0  0
  7 26  1  0  0  0  0
  8  9  1  0  0  0  0
  8 27  1  0  0  0  0
  9 10  1  0  0  0  0
  9 28  1  0  0  0  0
  9 29  1  0  0  0  0
 10 11  2  0  0  0  0
 10 12  1  0  0  0  0
 12 17  1  0  0  0  0
 12 13  1  0  0  0  0
 13 14  1  0  0  0  0
 13 30  1  0  0  0  0
 13 31  1  0  0  0  0
 14 15  1  0  0  0  0
 14 32  1  0  0  0  0
 14 33  1  0  0  0  0
 15 16  1  0  0  0  0
 16 17  1  0  0  0  0
 16 34  1  0  0  0  0
 16 35  1  0  0  0  0
 17 36  1  0  0  0  0
 17 37  1  0  0  0  0
 18 38  1  0  0  0  0
M  END
> <s_m_source_file>
AV-unprocessed.smi

> <i_m_source_file_index>
3312

> <i_lp_mmshare_version>
43012

> <i_f3d_flags>
0

> <s_epik_input>
W0NIM11jMVtjSF1ubihbY0hdMSlbQ0gyXVtDSDJdW05IXVtDSDJdQyg9TylOMltDSDJdW0NIMl1PW0NIMl1bQ0gyXTI=

> <s_epik_cmdline>
J2VwaWtfcHl0aG9uJywgJy1waCcsICc3LjAnLCAnLXRuJywgJzgnLCAnLW1hJywgJzIwMCcsICctbWV0YWxfYmluZGluZycsICctaW1hZScsICc8aW5maWxlLm1hZT4nLCAnLW9tYWUnLCAnPG91dGZpbGUubWFlPic=

> <r_lp_tautomer_probability>
1

> <r_epik_Ionization_Penalty>
0.513825

> <r_epik_Ionization_Penalty_Charging>
0

> <r_epik_Ionization_Penalty_Neutral>
0.513825

> <r_epik_State_Penalty>
0.518565

> <r_epik_Charging_Adjusted_Penalty>
0.518565

> <i_epik_Tot_Q>
0

> <i_epik_Tot_abs_Q>
0

> <r_epik_Metal_State_Penalty>
0.515505

> <b_epik_Metal_Only>
0

> <s_lp_Force_Field>
OPLS_2005

> <r_lp_Energy>
26.2636

> <b_lp_Chiralities_Consistent>
1

> <s_lp_Variant>
AV-unprocessed.smi:3312-2

> <Gold.Version>
5.8.1

> <Gold.Id.Protein>
6NUR|6NUR_protein|mol2

> <Gold.PLP.Fitness>
45.1046

> <Gold.PLP.PLP>
-42.3838

> <Gold.PLP.part.hbond>
-1.8222

> <Gold.PLP.part.metal>
0.0000

> <Gold.PLP.part.buried>
-1.6573

> <Gold.PLP.part.nonpolar>
-40.2905

> <Gold.PLP.part.repulsive>
0.3336

> <Gold.PLP.ligand.clash>
0.0000

> <Gold.PLP.ligand.torsion>
0.6883

> <Gold.PLP.Chemscore.Hbond>
0.3370

> <Gold.PLP.Chemscore.CHOScore>
1.0211

> <Gold.PLP.Chemscore.Metal>
0.0000

> <Gold.Chemscore.Hbonds>
donor molecule, donor type, donor heavy atom, donor atom, acceptor molecule, acceptor atom, score
      L1  C     3    22       P1  7948  0.48

> <Gold.PLP.Chemscore.Internal.Correction>
0.0230

> <Gold.Rescore>
     Score         DG    S(hbond)    S(metal)    S(lipo)     H(rot)  DE(clash)    DE(int)     intcor
     12.37     -14.00       0.57        0.00      96.48       1.82       1.02       0.60       ----

> <Gold.Chemscore.Fitness>
12.3742

> <Gold.Chemscore.DG>
-13.9982

> <Gold.Chemscore.ZeroCoef>
-5.4800

> <Gold.Chemscore.Hbond>
0.5665

> <Gold.Chemscore.Metal>
0.0000

> <Gold.Chemscore.Lipo>
96.4817

> <Gold.Chemscore.Internal_Hbond>
0.0000

> <Gold.Chemscore.DEClash>
1.0201

> <Gold.Chemscore.DEInternal>
0.6039

> <Gold.Chemscore.Rot>
1.8213

> <Gold.Chemscore.Internal.Correction>
   9.000000E+99

> <Gold.Chemscore.Hbonds>
donor molecule, donor type, donor heavy atom, donor atom, acceptor molecule, acceptor atom, score
      P1  H  6933  6945       L1    11  0.01

> <Gold.Chemscore.Hbond.Weighted>
-1.8922

> <Gold.Chemscore.Metal.Weighted>
-0.0000

> <Gold.Chemscore.Lipo.Weighted>
-11.2884

> <Gold.Chemscore.Internal_Hbond.Weighted>
0.0000

> <Gold.Chemscore.DEClash.Weighted>
1.0201

> <Gold.Chemscore.DEInternal.Weighted>
0.6039

> <Gold.Chemscore.Rot.Weighted>
4.6624

> <Gold.Chemscore.Internal.Correction.Weighted>
   9.000000E+99

> <Gold.Protein.RotatedTorsions>
[ 6907 6896 6895 6894 ] final  -40.18 input  -60.11 | X-H torsion
[ 7974 7965 7964 7962 ] final  -93.67 input  175.53 | X-H torsion
[ 8008 7997 7996 7995 ] final  -24.01 input   59.86 | X-H torsion
[ 10167 10162 10161 10158 ] final -148.01 input  -65.29 | X-H torsion
[ 10718 10713 10712 10709 ] final -134.64 input   66.30 | X-H torsion
[ 10763 10752 10751 10750 ] final  -51.69 input  -60.55 | X-H torsion
[ 11005 11000 10999 10996 ] final   91.18 input  -57.11 | X-H torsion

> <Gold.Protein.ActiveResidues>
 VAL166  LYS551  ARG553  GLY616  TRP617  ASP618  TYR619  PRO620  LYS621  CYS622 
 ASP623  PHE694  ASN695  SER759  ASP760  ASP761  ALA762  ILE779  LEU786  VAL792 
 PHE793  MET794  SER795  GLU796  ALA797  LYS798  CYS799  TRP800  GLU811  SER814 

> <Gold.Protein.RotatedAtoms>
  150.9815  134.9169  159.7846 H   0  0  0  0  0  0  0  0  0  0  0  0  # atno 6907 bound_to 6896
  152.5223  134.3404  159.9225 H   0  0  0  0  0  0  0  0  0  0  0  0  # atno 6908 bound_to 6896
  151.3411  133.3921  159.2706 H   0  0  0  0  0  0  0  0  0  0  0  0  # atno 6909 bound_to 6896
  145.3835  140.9520  143.2380 H   0  0  0  0  0  0  0  0  0  0  0  0  # atno 7974 bound_to 7965
  154.4553  140.1965  156.0398 H   0  0  0  0  0  0  0  0  0  0  0  0  # atno 8008 bound_to 7997
  156.0733  140.3281  155.7575 H   0  0  0  0  0  0  0  0  0  0  0  0  # atno 8009 bound_to 7997
  155.5229  140.0571  157.2894 H   0  0  0  0  0  0  0  0  0  0  0  0  # atno 8010 bound_to 7997
  139.7570  143.8434  152.2599 H   0  0  0  0  0  0  0  0  0  0  0  0  # atno 10167 bound_to 10162
  156.2576  130.7190  151.1113 H   0  0  0  0  0  0  0  0  0  0  0  0  # atno 10718 bound_to 10713
  154.1306  135.6520  153.4921 H   0  0  0  0  0  0  0  0  0  0  0  0  # atno 10763 bound_to 10752
  153.0196  135.5292  154.7005 H   0  0  0  0  0  0  0  0  0  0  0  0  # atno 10764 bound_to 10752
  154.6238  135.2968  155.0266 H   0  0  0  0  0  0  0  0  0  0  0  0  # atno 10765 bound_to 10752
  139.8843  134.8659  156.3391 H   0  0  0  0  0  0  0  0  0  0  0  0  # atno 11005 bound_to 11000
  144.8491  139.5350  143.6865 LP  0  0  0  0  0  0  0  0  0  0  0  0  # atno 17320 bound_to 7965
  146.2831  139.6930  142.9215 LP  0  0  0  0  0  0  0  0  0  0  0  0  # atno 17321 bound_to 7965
  139.8428  144.7201  150.9309 LP  0  0  0  0  0  0  0  0  0  0  0  0  # atno 17342 bound_to 10162
  140.7803  143.3968  151.1217 LP  0  0  0  0  0  0  0  0  0  0  0  0  # atno 17343 bound_to 10162
  157.7238  131.0664  150.6020 LP  0  0  0  0  0  0  0  0  0  0  0  0  # atno 17370 bound_to 10713
  156.6105  130.4379  149.5861 LP  0  0  0  0  0  0  0  0  0  0  0  0  # atno 17371 bound_to 10713
  140.9671  133.7351  156.0482 LP  0  0  0  0  0  0  0  0  0  0  0  0  # atno 17394 bound_to 11000
  140.7918  134.3609  157.5462 LP  0  0  0  0  0  0  0  0  0  0  0  0  # atno 17395 bound_to 11000

$$$$
