AV-unprocessed.smi:1973|AV-procd|sdf|7978|dock2
  -GOLD-   2272010153D 1   1.00000     0.00000
 Structure written by MMmdl.
 48 50  0  0  0  0  0  0  0  0  2 V2000
  152.2582  142.4605  159.2060 C   0  0  0  0  0  0  0  0  0  0  0  0
  151.2446  142.3248  158.2261 O   0  0  0  0  0  0  0  0  0  0  0  0
  151.3070  141.0823  157.5459 C   0  0  0  0  0  0  0  0  0  0  0  0
  150.5829  141.1897  156.1939 C   0  0  0  0  0  0  0  0  0  0  0  0
  150.4334  139.8793  155.5506 N   0  0  0  0  0  0  0  0  0  0  0  0
  149.1225  139.4375  155.4756 N   0  0  0  0  0  0  0  0  0  0  0  0
  148.8522  138.2894  154.9435 C   0  0  0  0  0  0  0  0  0  0  0  0
  147.4565  137.7784  154.8469 C   0  0  0  0  0  0  0  0  0  0  0  0
  146.5396  138.2541  155.5183 O   0  0  0  0  0  0  0  0  0  0  0  0
  147.2726  136.7670  153.9808 N   0  0  0  0  0  0  0  0  0  0  0  0
  145.9954  136.1125  153.7305 C   0  0  0  0  0  0  0  0  0  0  0  0
  145.7906  135.8644  152.2273 C   0  0  2  0  0  0  0  0  0  0  0  0
  144.3277  135.8746  151.7885 C   0  0  0  0  0  0  0  0  0  0  0  0
  144.3230  135.0858  150.4733 C   0  0  0  0  0  0  0  0  0  0  0  0
  145.5663  134.2800  150.4523 N   0  3  2  0  0  0  0  0  0  0  0  0
  145.3620  132.8568  150.1086 C   0  0  0  0  0  0  0  0  0  0  0  0
  144.2034  132.6224  149.1690 C   0  0  0  0  0  0  0  0  0  0  0  0
  144.0677  132.2876  150.6385 C   0  0  0  0  0  0  0  0  0  0  0  0
  146.2597  134.4924  151.7393 C   0  0  0  0  0  0  0  0  0  0  0  0
  149.9106  137.4471  154.4134 C   0  0  0  0  0  0  0  0  0  0  0  0
  151.1843  137.8900  154.4957 C   0  0  0  0  0  0  0  0  0  0  0  0
  151.5188  139.1816  155.0973 C   0  0  0  0  0  0  0  0  0  0  0  0
  152.6722  139.6005  155.1882 O   0  0  0  0  0  0  0  0  0  0  0  0
  152.1666  143.4306  159.6944 H   0  0  0  0  0  0  0  0  0  0  0  0
  153.2507  142.4020  158.7573 H   0  0  0  0  0  0  0  0  0  0  0  0
  152.1732  141.6880  159.9713 H   0  0  0  0  0  0  0  0  0  0  0  0
  152.3447  140.7784  157.3989 H   0  0  0  0  0  0  0  0  0  0  0  0
  150.8280  140.3138  158.1540 H   0  0  0  0  0  0  0  0  0  0  0  0
  149.5921  141.6177  156.3561 H   0  0  0  0  0  0  0  0  0  0  0  0
  151.0977  141.9012  155.5462 H   0  0  0  0  0  0  0  0  0  0  0  0
  148.0731  136.4378  153.4605 H   0  0  0  0  0  0  0  0  0  0  0  0
  145.9514  135.1682  154.2762 H   0  0  0  0  0  0  0  0  0  0  0  0
  145.1932  136.7425  154.1175 H   0  0  0  0  0  0  0  0  0  0  0  0
  146.3210  136.6334  151.6624 H   0  0  0  0  0  0  0  0  0  0  0  0
  143.7131  135.3549  152.5251 H   0  0  0  0  0  0  0  0  0  0  0  0
  143.9278  136.8828  151.6759 H   0  0  0  0  0  0  0  0  0  0  0  0
  143.4262  134.4697  150.3903 H   0  0  0  0  0  0  0  0  0  0  0  0
  144.3387  135.7612  149.6175 H   0  0  0  0  0  0  0  0  0  0  0  0
  146.2557  132.2378  150.0496 H   0  0  0  0  0  0  0  0  0  0  0  0
  143.6575  133.4879  148.7977 H   0  0  0  0  0  0  0  0  0  0  0  0
  144.2808  131.7887  148.4740 H   0  0  0  0  0  0  0  0  0  0  0  0
  144.0562  131.2339  150.9096 H   0  0  0  0  0  0  0  0  0  0  0  0
  143.4312  132.9303  151.2444 H   0  0  0  0  0  0  0  0  0  0  0  0
  147.3423  134.4345  151.6212 H   0  0  0  0  0  0  0  0  0  0  0  0
  145.9576  133.7215  152.4509 H   0  0  0  0  0  0  0  0  0  0  0  0
  149.6932  136.4890  153.9638 H   0  0  0  0  0  0  0  0  0  0  0  0
  151.9814  137.2737  154.1062 H   0  0  0  0  0  0  0  0  0  0  0  0
  146.1533  134.6847  149.7369 H   0  0  0  0  0  0  0  0  0  0  0  0
  1  2  1  0  0  0  0
  1 24  1  0  0  0  0
  1 25  1  0  0  0  0
  1 26  1  0  0  0  0
  2  3  1  0  0  0  0
  3  4  1  0  0  0  0
  3 27  1  0  0  0  0
  3 28  1  0  0  0  0
  4  5  1  0  0  0  0
  4 29  1  0  0  0  0
  4 30  1  0  0  0  0
  5 22  1  0  0  0  0
  5  6  1  0  0  0  0
  6  7  2  0  0  0  0
  7  8  1  0  0  0  0
  7 20  1  0  0  0  0
  8  9  2  0  0  0  0
  8 10  1  0  0  0  0
 10 11  1  0  0  0  0
 10 31  1  0  0  0  0
 11 12  1  0  0  0  0
 11 32  1  0  0  0  0
 11 33  1  0  0  0  0
 12 19  1  0  0  0  0
 12 13  1  0  0  0  0
 12 34  1  0  0  0  0
 13 14  1  0  0  0  0
 13 35  1  0  0  0  0
 13 36  1  0  0  0  0
 14 15  1  0  0  0  0
 14 37  1  0  0  0  0
 14 38  1  0  0  0  0
 15 16  1  0  0  0  0
 15 19  1  0  0  0  0
 15 48  1  0  0  0  0
 16 18  1  0  0  0  0
 16 17  1  0  0  0  0
 16 39  1  0  0  0  0
 17 18  1  0  0  0  0
 17 40  1  0  0  0  0
 17 41  1  0  0  0  0
 18 42  1  0  0  0  0
 18 43  1  0  0  0  0
 19 44  1  0  0  0  0
 19 45  1  0  0  0  0
 20 21  2  0  0  0  0
 20 46  1  0  0  0  0
 21 22  1  0  0  0  0
 21 47  1  0  0  0  0
 22 23  2  0  0  0  0
M  CHG  1  15   1
M  END
> <s_m_source_file>
AV-unprocessed.smi

> <i_m_source_file_index>
1973

> <i_lp_mmshare_version>
43012

> <i_f3d_flags>
0

> <s_epik_input>
W0NIM11PW0NIMl1bQ0gyXW4xbmMoW2NIXVtjSF1jMT1PKUMoPU8pW05IXVtDSDJdW0NAQEhdMltDSDJdW0NIMl1OKFtDSDJdMilbQ0hdM1tDSDJdW0NIMl0z

> <s_epik_cmdline>
J2VwaWtfcHl0aG9uJywgJy1waCcsICc3LjAnLCAnLXRuJywgJzgnLCAnLW1hJywgJzIwMCcsICctbWV0YWxfYmluZGluZycsICctaW1hZScsICc8aW5maWxlLm1hZT4nLCAnLW9tYWUnLCAnPG91dGZpbGUubWFlPic=

> <r_lp_tautomer_probability>
1

> <r_epik_Ionization_Penalty>
0.000225706

> <r_epik_Ionization_Penalty_Charging>
0.000223776

> <r_epik_Ionization_Penalty_Neutral>
1.93004e-06

> <r_epik_State_Penalty>
-0

> <r_epik_Charging_Adjusted_Penalty>
0.000223776

> <i_epik_Tot_Q>
1

> <i_epik_Tot_abs_Q>
1

> <r_epik_Metal_State_Penalty>
-0

> <b_epik_Metal_Only>
0

> <s_lp_Force_Field>
OPLS_2005

> <r_lp_Energy>
60.0274

> <b_lp_Chiralities_Consistent>
1

> <s_lp_Variant>
AV-unprocessed.smi:1973-3

> <Gold.Version>
5.8.1

> <Gold.Id.Protein>
6NUR|6NUR_protein|mol2

> <Gold.PLP.Fitness>
47.7344

> <Gold.PLP.PLP>
-41.1022

> <Gold.PLP.part.hbond>
-4.0000

> <Gold.PLP.part.metal>
0.0000

> <Gold.PLP.part.buried>
-1.3144

> <Gold.PLP.part.nonpolar>
-35.8966

> <Gold.PLP.part.repulsive>
0.2078

> <Gold.PLP.ligand.clash>
0.0000

> <Gold.PLP.ligand.torsion>
1.4485

> <Gold.PLP.Chemscore.Hbond>
2.7262

> <Gold.PLP.Chemscore.CHOScore>
0.0000

> <Gold.PLP.Chemscore.Metal>
0.0000

> <Gold.Chemscore.Hbonds>
donor molecule, donor type, donor heavy atom, donor atom, acceptor molecule, acceptor atom, score
      L1  H    10    31       P1  7948  1.00
      L1  H    15    48       P1  7921  0.62
      P1  H  7997  8009       L1    23  1.00

> <Gold.PLP.Chemscore.Internal.Correction>
1.3507

> <Gold.Rescore>
     Score         DG    S(hbond)    S(metal)    S(lipo)     H(rot)  DE(clash)    DE(int)     intcor
     17.27     -19.46       2.37        0.00      95.02       1.97       0.56       1.63       ----

> <Gold.Chemscore.Fitness>
17.2746

> <Gold.Chemscore.DG>
-19.4625

> <Gold.Chemscore.ZeroCoef>
-5.4800

> <Gold.Chemscore.Hbond>
2.3685

> <Gold.Chemscore.Metal>
0.0000

> <Gold.Chemscore.Lipo>
95.0232

> <Gold.Chemscore.Internal_Hbond>
0.0000

> <Gold.Chemscore.DEClash>
0.5597

> <Gold.Chemscore.DEInternal>
1.6282

> <Gold.Chemscore.Rot>
1.9711

> <Gold.Chemscore.Internal.Correction>
   9.000000E+99

> <Gold.Chemscore.Hbonds>
donor molecule, donor type, donor heavy atom, donor atom, acceptor molecule, acceptor atom, score
      L1  H    10    31       P1  7948  0.94
      L1  H    15    48       P1  7921  0.27
      P1  H  7997  8009       L1    23  0.94

> <Gold.Chemscore.Hbond.Weighted>
-7.9108

> <Gold.Chemscore.Metal.Weighted>
-0.0000

> <Gold.Chemscore.Lipo.Weighted>
-11.1177

> <Gold.Chemscore.Internal_Hbond.Weighted>
0.0000

> <Gold.Chemscore.DEClash.Weighted>
0.5597

> <Gold.Chemscore.DEInternal.Weighted>
1.6282

> <Gold.Chemscore.Rot.Weighted>
5.0460

> <Gold.Chemscore.Internal.Correction.Weighted>
   9.000000E+99

> <Gold.Protein.RotatedTorsions>
[ 6907 6896 6895 6894 ] final -115.89 input  -60.11 | X-H torsion
[ 7974 7965 7964 7962 ] final   83.44 input  175.53 | X-H torsion
[ 8008 7997 7996 7995 ] final -129.87 input   59.86 | X-H torsion
[ 10167 10162 10161 10158 ] final   -6.57 input  -65.29 | X-H torsion
[ 10718 10713 10712 10709 ] final -166.78 input   66.30 | X-H torsion
[ 10763 10752 10751 10750 ] final  142.51 input  -60.55 | X-H torsion
[ 11005 11000 10999 10996 ] final   60.28 input  -57.11 | X-H torsion

> <Gold.Protein.ActiveResidues>
 VAL166  LYS551  ARG553  GLY616  TRP617  ASP618  TYR619  PRO620  LYS621  CYS622 
 ASP623  PHE694  ASN695  SER759  ASP760  ASP761  ALA762  ILE779  LEU786  VAL792 
 PHE793  MET794  SER795  GLU796  ALA797  LYS798  CYS799  TRP800  GLU811  SER814 

> <Gold.Protein.RotatedAtoms>
  150.8013  133.8595  159.3227 H   0  0  0  0  0  0  0  0  0  0  0  0  # atno 6907 bound_to 6896
  151.6406  135.1011  160.0150 H   0  0  0  0  0  0  0  0  0  0  0  0  # atno 6908 bound_to 6896
  152.4100  133.6909  159.6424 H   0  0  0  0  0  0  0  0  0  0  0  0  # atno 6909 bound_to 6896
  145.6119  139.2370  143.2187 H   0  0  0  0  0  0  0  0  0  0  0  0  # atno 7974 bound_to 7965
  155.2864  140.0446  157.3019 H   0  0  0  0  0  0  0  0  0  0  0  0  # atno 8008 bound_to 7997
  154.5566  140.2333  155.8368 H   0  0  0  0  0  0  0  0  0  0  0  0  # atno 8009 bound_to 7997
  156.2013  140.3025  155.9539 H   0  0  0  0  0  0  0  0  0  0  0  0  # atno 8010 bound_to 7997
  140.7001  143.6179  150.8640 H   0  0  0  0  0  0  0  0  0  0  0  0  # atno 10167 bound_to 10162
  156.6728  130.9091  151.3046 H   0  0  0  0  0  0  0  0  0  0  0  0  # atno 10718 bound_to 10713
  153.9571  135.2964  155.3435 H   0  0  0  0  0  0  0  0  0  0  0  0  # atno 10763 bound_to 10752
  154.7395  135.5031  153.9102 H   0  0  0  0  0  0  0  0  0  0  0  0  # atno 10764 bound_to 10752
  153.0965  135.6722  153.9863 H   0  0  0  0  0  0  0  0  0  0  0  0  # atno 10765 bound_to 10752
  140.0243  134.6106  155.9595 H   0  0  0  0  0  0  0  0  0  0  0  0  # atno 11005 bound_to 11000
  146.1498  140.6942  142.9327 LP  0  0  0  0  0  0  0  0  0  0  0  0  # atno 17320 bound_to 7965
  144.7266  140.4544  143.6968 LP  0  0  0  0  0  0  0  0  0  0  0  0  # atno 17321 bound_to 7965
  139.9901  143.5856  152.2913 LP  0  0  0  0  0  0  0  0  0  0  0  0  # atno 17342 bound_to 10162
  139.6508  144.7660  151.2151 LP  0  0  0  0  0  0  0  0  0  0  0  0  # atno 17343 bound_to 10162
  157.7071  130.9397  150.0967 LP  0  0  0  0  0  0  0  0  0  0  0  0  # atno 17370 bound_to 10713
  156.1926  130.3655  149.8890 LP  0  0  0  0  0  0  0  0  0  0  0  0  # atno 17371 bound_to 10713
  141.1793  133.6544  156.4954 LP  0  0  0  0  0  0  0  0  0  0  0  0  # atno 17394 bound_to 11000
  140.4334  134.7081  157.4954 LP  0  0  0  0  0  0  0  0  0  0  0  0  # atno 17395 bound_to 11000

$$$$
