#       Name:                AV-unprocessed.smi:650
#       Creating user name   scv26
#       Creation time:       Fri Mar 27 00:11:00 2020


#       File generated by GOLD software.
#

@<TRIPOS>MOLECULE
AV-unprocessed.smi:650
    50    51     1
SMALL
NO_CHARGES


@<TRIPOS>ATOM
      1 ****        -2.9859   6.5286  -3.7781 C.3            1 S1                 0.0000
      2 ****        -2.5262   5.1541  -3.4308 C.2            1 S1                 0.0000
      3 ****        -2.5690   4.4245  -2.2763 C.2            1 S1                 0.0000
      4 ****        -1.9584   3.1980  -2.6502 C.2            1 S1                 0.0000
      5 ****        -1.8080   2.1454  -1.7119 N.am           1 S1                 0.0000
      6 ****        -1.2541   0.9385  -1.9171 C.2            1 S1                 0.0000
      7 ****        -0.7634   0.5526  -2.9786 O.2            1 S1                 0.0000
      8 ****        -1.2960   0.1887  -0.8065 N.am           1 S1                 0.0000
      9 ****        -0.7799  -1.1716  -0.6959 C.3            1 S1                 0.0000
     10 ****         0.7605  -1.2157  -0.5499 C.3            1 S1                 0.0000
     11 ****         1.2995  -2.6571  -0.5034 C.3            1 S1                 0.0000
     12 ****         1.0071  -3.3471   0.8413 C.3            1 S1                 0.0000
     13 ****         1.5373  -2.5572   1.9823 N.4            1 S1                 1.0000
     14 ****         1.3753  -3.2653   3.2778 C.3            1 S1                 0.0000
     15 ****         2.3835  -2.7946   4.3395 C.3            1 S1                 0.0000
     16 ****         3.6955  -3.1279   3.9385 O.3            1 S1                 0.0000
     17 ****         0.9922  -1.1737   1.9949 C.3            1 S1                 0.0000
     18 ****         1.2958  -0.4451   0.6743 C.3            1 S1                 0.0000
     19 ****        -1.5771   3.1800  -3.9180 N.2            1 S1                 0.0000
     20 ****        -1.9403   4.4332  -4.4253 O.3            1 S1                 0.0000
     21 ****        -2.9614   7.1786  -2.9034 H              1 S1                 0.0000
     22 ****        -4.0078   6.5086  -4.1566 H              1 S1                 0.0000
     23 ****        -2.3494   6.9713  -4.5445 H              1 S1                 0.0000
     24 ****        -2.9732   4.7233  -1.3206 H              1 S1                 0.0000
     25 ****        -2.1660   2.3306  -0.7869 H              1 S1                 0.0000
     26 ****        -1.7217   0.5845   0.0191 H              1 S1                 0.0000
     27 ****        -1.2652  -1.6389   0.1602 H              1 S1                 0.0000
     28 ****        -1.0914  -1.7478  -1.5689 H              1 S1                 0.0000
     29 ****         1.1792  -0.7467  -1.4414 H              1 S1                 0.0000
     30 ****         0.8828  -3.2429  -1.3236 H              1 S1                 0.0000
     31 ****         2.3783  -2.6398  -0.6646 H              1 S1                 0.0000
     32 ****        -0.0648  -3.5034   0.9693 H              1 S1                 0.0000
     33 ****         1.4682  -4.3356   0.8367 H              1 S1                 0.0000
     34 ****         0.3542  -3.1333   3.6388 H              1 S1                 0.0000
     35 ****         1.5099  -4.3385   3.1334 H              1 S1                 0.0000
     36 ****         2.3164  -1.7239   4.5290 H              1 S1                 0.0000
     37 ****         2.1794  -3.2942   5.2867 H              1 S1                 0.0000
     38 ****         4.2935  -2.8883   4.6309 H              1 S1                 0.0000
     39 ****        -0.0831  -1.2029   2.1761 H              1 S1                 0.0000
     40 ****         1.4289  -0.6037   2.8139 H              1 S1                 0.0000
     41 ****         2.3763  -0.3310   0.5767 H              1 S1                 0.0000
     42 ****         0.8941   0.5679   0.7034 H              1 S1                 0.0000
     43 ****         2.5333  -2.4804   1.8300 H              1 S1                 0.0000
     44 ****        -0.7574   1.1567  -3.7755 LP             1 S1                 0.0000
     45 ****        -0.3709  -0.3649  -3.0437 LP             1 S1                 0.0000
     46 ****         3.9295  -2.6291   3.1039 LP             1 S1                 0.0000
     47 ****         3.7556  -4.1113   3.7670 LP             1 S1                 0.0000
     48 ****        -1.1271   2.4329  -4.4073 LP             1 S1                 0.0000
     49 ****        -1.1260   4.9122  -4.7532 LP             1 S1                 0.0000
     50 ****        -2.5850   4.3163  -5.1807 LP             1 S1                 0.0000
@<TRIPOS>BOND
    1    1    2 1     
    2    1   21 1     
    3    1   22 1     
    4    1   23 1     
    5    2   20 1     
    6    2    3 2     
    7    3    4 1     
    8    3   24 1     
    9    4    5 1     
   10    4   19 2     
   11    5    6 am    
   12    5   25 1     
   13    6    7 2     
   14    6    8 am    
   15    8    9 1     
   16    8   26 1     
   17    9   10 1     
   18    9   27 1     
   19    9   28 1     
   20   10   18 1     
   21   10   11 1     
   22   10   29 1     
   23   11   12 1     
   24   11   30 1     
   25   11   31 1     
   26   12   13 1     
   27   12   32 1     
   28   12   33 1     
   29   13   14 1     
   30   13   17 1     
   31   13   43 1     
   32   14   15 1     
   33   14   34 1     
   34   14   35 1     
   35   15   16 1     
   36   15   36 1     
   37   15   37 1     
   38   16   38 1     
   39   17   18 1     
   40   17   39 1     
   41   17   40 1     
   42   18   41 1     
   43   18   42 1     
   44   19   20 1     
   45    7   44 1     
   46    7   45 1     
   47   16   46 1     
   48   16   47 1     
   49   19   48 1     
   50   20   49 1     
   51   20   50 1     
@<TRIPOS>SUBSTRUCTURE
      1 S1             1
@<TRIPOS>SET
LONE_PAIRS      STATIC     ATOMS    <user>   **** ""
7 44 45 46 47 48 49 50
DONOR_HYDROGENS      STATIC     ATOMS    <user>   **** ""
4 25 26 43 38
ATOM$BLUE        STATIC     ATOMS    COLORGROUP SYSTEM
7 44 45 46 47 48 49 50
ATOM$RED        STATIC     ATOMS    COLORGROUP SYSTEM
4 25 26 43 38
