AV-unprocessed.smi:2224|AV-procd|sdf|8998|dock1
  -GOLD-   2272012203D 1   1.00000     0.00000
 Structure written by MMmdl.
 44 46  0  0  0  0  0  0  0  0  1 V2000
  146.7803  142.6138  154.3469 C   0  0  0  0  0  0  0  0  0  0  0  0
  147.6389  141.3667  154.3642 C   0  0  0  0  0  0  0  0  0  0  0  0
  148.8839  141.3530  155.0220 C   0  0  0  0  0  0  0  0  0  0  0  0
  149.6330  140.1600  155.0021 C   0  0  0  0  0  0  0  0  0  0  0  0
  150.9817  140.0747  155.6856 C   0  0  0  0  0  0  0  0  0  0  0  0
  149.2115  139.0353  154.3847 N   0  0  0  0  0  0  0  0  0  0  0  0
  148.0134  139.0371  153.7496 C   0  0  0  0  0  0  0  0  0  0  0  0
  147.4790  137.9097  153.0716 N   0  0  0  0  0  0  0  0  0  0  0  0
  146.1882  137.5667  152.9173 C   0  0  0  0  0  0  0  0  0  0  0  0
  145.2242  138.1989  153.3500 O   0  0  0  0  0  0  0  0  0  0  0  0
  146.0714  136.4324  152.2138 N   0  0  0  0  0  0  0  0  0  0  0  0
  144.8036  135.8075  151.8556 C   0  0  1  0  0  0  0  0  0  0  0  0
  144.9964  134.4765  151.1283 C   0  0  2  0  0  0  0  0  0  0  0  0
  144.7241  133.9885  149.7502 C   0  0  0  0  0  0  0  0  0  0  0  0
  144.0438  132.6461  150.1306 C   0  0  0  0  0  0  0  0  0  0  0  0
  143.8070  132.7107  151.5585 O   0  0  0  0  0  0  0  0  0  0  0  0
  143.7018  134.0955  151.8191 C   0  0  1  0  0  0  0  0  0  0  0  0
  144.1642  134.9528  153.0147 C   0  0  0  0  0  0  0  0  0  0  0  0
  145.0758  134.2881  154.0664 C   0  0  0  0  0  0  0  0  0  0  0  0
  143.0425  135.6421  153.7924 C   0  0  0  0  0  0  0  0  0  0  0  0
  147.2016  140.1931  153.7183 C   0  0  0  0  0  0  0  0  0  0  0  0
  147.2314  143.4152  154.9329 H   0  0  0  0  0  0  0  0  0  0  0  0
  145.7954  142.4005  154.7633 H   0  0  0  0  0  0  0  0  0  0  0  0
  146.6517  142.9689  153.3242 H   0  0  0  0  0  0  0  0  0  0  0  0
  149.2546  142.2329  155.5278 H   0  0  0  0  0  0  0  0  0  0  0  0
  151.2087  140.9918  156.2299 H   0  0  0  0  0  0  0  0  0  0  0  0
  151.7682  139.9121  154.9483 H   0  0  0  0  0  0  0  0  0  0  0  0
  150.9972  139.2461  156.3943 H   0  0  0  0  0  0  0  0  0  0  0  0
  148.1588  137.3007  152.6415 H   0  0  0  0  0  0  0  0  0  0  0  0
  146.9133  135.9740  151.8976 H   0  0  0  0  0  0  0  0  0  0  0  0
  144.1016  136.4762  151.3488 H   0  0  0  0  0  0  0  0  0  0  0  0
  145.8659  133.9491  151.5275 H   0  0  0  0  0  0  0  0  0  0  0  0
  144.0477  134.6511  149.2081 H   0  0  0  0  0  0  0  0  0  0  0  0
  145.6317  133.8463  149.1630 H   0  0  0  0  0  0  0  0  0  0  0  0
  143.1029  132.5215  149.5932 H   0  0  0  0  0  0  0  0  0  0  0  0
  144.6788  131.7890  149.9048 H   0  0  0  0  0  0  0  0  0  0  0  0
  142.8070  134.5104  151.3410 H   0  0  0  0  0  0  0  0  0  0  0  0
  144.5240  133.5559  154.6564 H   0  0  0  0  0  0  0  0  0  0  0  0
  145.4788  135.0243  154.7625 H   0  0  0  0  0  0  0  0  0  0  0  0
  145.9284  133.7632  153.6399 H   0  0  0  0  0  0  0  0  0  0  0  0
  142.4522  134.9249  154.3633 H   0  0  0  0  0  0  0  0  0  0  0  0
  142.3568  136.1662  153.1261 H   0  0  0  0  0  0  0  0  0  0  0  0
  143.4340  136.3803  154.4930 H   0  0  0  0  0  0  0  0  0  0  0  0
  146.2494  140.1822  153.2077 H   0  0  0  0  0  0  0  0  0  0  0  0
  1  2  1  0  0  0  0
  1 22  1  0  0  0  0
  1 23  1  0  0  0  0
  1 24  1  0  0  0  0
  2 21  1  0  0  0  0
  2  3  2  0  0  0  0
  3  4  1  0  0  0  0
  3 25  1  0  0  0  0
  4  5  1  0  0  0  0
  4  6  2  0  0  0  0
  5 26  1  0  0  0  0
  5 27  1  0  0  0  0
  5 28  1  0  0  0  0
  6  7  1  0  0  0  0
  7  8  1  0  0  0  0
  7 21  2  0  0  0  0
  8  9  1  0  0  0  0
  8 29  1  0  0  0  0
  9 10  2  0  0  0  0
  9 11  1  0  0  0  0
 11 12  1  0  0  0  0
 11 30  1  0  0  0  0
 12 18  1  0  0  0  0
 12 13  1  0  0  0  0
 12 31  1  0  0  0  0
 13 17  1  0  0  0  0
 13 14  1  0  0  0  0
 13 32  1  0  0  0  0
 14 15  1  0  0  0  0
 14 33  1  0  0  0  0
 14 34  1  0  0  0  0
 15 16  1  0  0  0  0
 15 35  1  0  0  0  0
 15 36  1  0  0  0  0
 16 17  1  0  0  0  0
 17 18  1  0  0  0  0
 17 37  1  0  0  0  0
 18 19  1  0  0  0  0
 18 20  1  0  0  0  0
 19 38  1  0  0  0  0
 19 39  1  0  0  0  0
 19 40  1  0  0  0  0
 20 41  1  0  0  0  0
 20 42  1  0  0  0  0
 20 43  1  0  0  0  0
 21 44  1  0  0  0  0
M  END
> <s_m_source_file>
AV-unprocessed.smi

> <i_m_source_file_index>
2224

> <i_lp_mmshare_version>
43012

> <i_f3d_flags>
0

> <s_epik_input>
W0NIM11jMVtjSF1jKFtDSDNdKW5jKFtjSF0xKVtOSF1DKD1PKVtOSF1bQ0BIXTJDKFtDSDNdKShbQ0gzXSlbQ0BIXShbQ0BASF0yMylPW0NIMl1bQ0gyXTM=

> <s_epik_cmdline>
J2VwaWtfcHl0aG9uJywgJy1waCcsICc3LjAnLCAnLXRuJywgJzgnLCAnLW1hJywgJzIwMCcsICctbWV0YWxfYmluZGluZycsICctaW1hZScsICc8aW5maWxlLm1hZT4nLCAnLW9tYWUnLCAnPG91dGZpbGUubWFlPic=

> <r_lp_tautomer_probability>
1

> <r_epik_Ionization_Penalty>
0.000276544

> <r_epik_Ionization_Penalty_Charging>
0

> <r_epik_Ionization_Penalty_Neutral>
0.000276544

> <r_epik_State_Penalty>
-0

> <r_epik_Charging_Adjusted_Penalty>
0

> <i_epik_Tot_Q>
0

> <i_epik_Tot_abs_Q>
0

> <r_epik_Metal_State_Penalty>
-0

> <b_epik_Metal_Only>
0

> <s_lp_Force_Field>
OPLS_2005

> <r_lp_Energy>
62.2425

> <b_lp_Chiralities_Consistent>
1

> <s_lp_Variant>
AV-unprocessed.smi:2224-8

> <Gold.Version>
5.8.1

> <Gold.Id.Protein>
6NUR|6NUR_protein|mol2

> <Gold.PLP.Fitness>
38.7074

> <Gold.PLP.PLP>
-33.6107

> <Gold.PLP.part.hbond>
-1.9983

> <Gold.PLP.part.metal>
0.0000

> <Gold.PLP.part.buried>
-2.3046

> <Gold.PLP.part.nonpolar>
-31.8928

> <Gold.PLP.part.repulsive>
2.7013

> <Gold.PLP.ligand.clash>
0.0000

> <Gold.PLP.ligand.torsion>
0.3571

> <Gold.PLP.Chemscore.Hbond>
1.8480

> <Gold.PLP.Chemscore.CHOScore>
0.0000

> <Gold.PLP.Chemscore.Metal>
0.0000

> <Gold.Chemscore.Hbonds>
donor molecule, donor type, donor heavy atom, donor atom, acceptor molecule, acceptor atom, score
      L1  H     8    29       P1  7948  1.00
      L1  H    11    30       P1  7948  0.85

> <Gold.PLP.Chemscore.Internal.Correction>
0.2669

> <Gold.Rescore>
     Score         DG    S(hbond)    S(metal)    S(lipo)     H(rot)  DE(clash)    DE(int)     intcor
     14.32     -18.79       1.87        0.00      82.09       1.00       2.76       1.70       ----

> <Gold.Chemscore.Fitness>
14.3188

> <Gold.Chemscore.DG>
-18.7857

> <Gold.Chemscore.ZeroCoef>
-5.4800

> <Gold.Chemscore.Hbond>
1.8747

> <Gold.Chemscore.Metal>
0.0000

> <Gold.Chemscore.Lipo>
82.0869

> <Gold.Chemscore.Internal_Hbond>
0.0000

> <Gold.Chemscore.DEClash>
2.7647

> <Gold.Chemscore.DEInternal>
1.7022

> <Gold.Chemscore.Rot>
1.0000

> <Gold.Chemscore.Internal.Correction>
   9.000000E+99

> <Gold.Chemscore.Hbonds>
donor molecule, donor type, donor heavy atom, donor atom, acceptor molecule, acceptor atom, score
      L1  H     8    29       P1  7948  0.93
      L1  H    11    30       P1  7948  0.78

> <Gold.Chemscore.Hbond.Weighted>
-6.2615

> <Gold.Chemscore.Metal.Weighted>
-0.0000

> <Gold.Chemscore.Lipo.Weighted>
-9.6042

> <Gold.Chemscore.Internal_Hbond.Weighted>
0.0000

> <Gold.Chemscore.DEClash.Weighted>
2.7647

> <Gold.Chemscore.DEInternal.Weighted>
1.7022

> <Gold.Chemscore.Rot.Weighted>
2.5600

> <Gold.Chemscore.Internal.Correction.Weighted>
   9.000000E+99

> <Gold.Protein.RotatedTorsions>
[ 6907 6896 6895 6894 ] final   62.99 input  -60.11 | X-H torsion
[ 7974 7965 7964 7962 ] final -162.66 input  175.53 | X-H torsion
[ 8008 7997 7996 7995 ] final  -62.27 input   59.86 | X-H torsion
[ 10167 10162 10161 10158 ] final   38.46 input  -65.29 | X-H torsion
[ 10718 10713 10712 10709 ] final  133.59 input   66.30 | X-H torsion
[ 10763 10752 10751 10750 ] final  -58.29 input  -60.55 | X-H torsion
[ 11005 11000 10999 10996 ] final   -0.57 input  -57.11 | X-H torsion

> <Gold.Protein.ActiveResidues>
 VAL166  LYS551  ARG553  GLY616  TRP617  ASP618  TYR619  PRO620  LYS621  CYS622 
 ASP623  PHE694  ASN695  SER759  ASP760  ASP761  ALA762  ILE779  LEU786  VAL792 
 PHE793  MET794  SER795  GLU796  ALA797  LYS798  CYS799  TRP800  GLU811  SER814 

> <Gold.Protein.RotatedAtoms>
  152.4217  134.5942  159.9982 H   0  0  0  0  0  0  0  0  0  0  0  0  # atno 6907 bound_to 6896
  151.6090  133.3343  159.3071 H   0  0  0  0  0  0  0  0  0  0  0  0  # atno 6908 bound_to 6896
  150.8106  134.7296  159.6750 H   0  0  0  0  0  0  0  0  0  0  0  0  # atno 6909 bound_to 6896
  144.7350  140.3220  143.6169 H   0  0  0  0  0  0  0  0  0  0  0  0  # atno 7974 bound_to 7965
  154.4491  140.1000  156.6561 H   0  0  0  0  0  0  0  0  0  0  0  0  # atno 8008 bound_to 7997
  155.5345  140.3482  155.4415 H   0  0  0  0  0  0  0  0  0  0  0  0  # atno 8009 bound_to 7997
  156.0641  140.1333  156.9896 H   0  0  0  0  0  0  0  0  0  0  0  0  # atno 8010 bound_to 7997
  140.3935  144.1821  150.6131 H   0  0  0  0  0  0  0  0  0  0  0  0  # atno 10167 bound_to 10162
  157.4758  131.1083  150.9745 H   0  0  0  0  0  0  0  0  0  0  0  0  # atno 10718 bound_to 10713
  154.2357  135.6352  153.5190 H   0  0  0  0  0  0  0  0  0  0  0  0  # atno 10763 bound_to 10752
  152.9940  135.5530  154.5964 H   0  0  0  0  0  0  0  0  0  0  0  0  # atno 10764 bound_to 10752
  154.5458  135.2898  155.1029 H   0  0  0  0  0  0  0  0  0  0  0  0  # atno 10765 bound_to 10752
  140.6377  133.9518  155.8309 H   0  0  0  0  0  0  0  0  0  0  0  0  # atno 11005 bound_to 11000
  145.7559  139.1808  143.2295 LP  0  0  0  0  0  0  0  0  0  0  0  0  # atno 17320 bound_to 7965
  146.1025  140.7527  142.9542 LP  0  0  0  0  0  0  0  0  0  0  0  0  # atno 17321 bound_to 7965
  140.4815  143.2377  151.8948 LP  0  0  0  0  0  0  0  0  0  0  0  0  # atno 17342 bound_to 10162
  139.4788  144.5264  151.8729 LP  0  0  0  0  0  0  0  0  0  0  0  0  # atno 17343 bound_to 10162
  157.0495  130.5781  149.5368 LP  0  0  0  0  0  0  0  0  0  0  0  0  # atno 17370 bound_to 10713
  156.0096  130.5186  150.7944 LP  0  0  0  0  0  0  0  0  0  0  0  0  # atno 17371 bound_to 10713
  141.0629  134.0319  157.3633 LP  0  0  0  0  0  0  0  0  0  0  0  0  # atno 17394 bound_to 11000
  139.9092  135.0186  156.7618 LP  0  0  0  0  0  0  0  0  0  0  0  0  # atno 17395 bound_to 11000

$$$$
