AV-unprocessed.smi:2953|AV-procd|sdf|11295|dock8
  -GOLD-   2272016193D 1   1.00000     0.00000
 Structure written by MMmdl.
 46 48  0  0  0  0  0  0  0  0  2 V2000
  147.2673  137.4169  163.1163 C   0  0  0  0  0  0  0  0  0  0  0  0
  147.1786  136.1723  162.2531 C   0  0  0  0  0  0  0  0  0  0  0  0
  146.8223  134.9412  162.8427 C   0  0  0  0  0  0  0  0  0  0  0  0
  146.7376  133.7771  162.0582 C   0  0  0  0  0  0  0  0  0  0  0  0
  147.0095  133.8412  160.6801 C   0  0  0  0  0  0  0  0  0  0  0  0
  147.3658  135.0670  160.0866 C   0  0  0  0  0  0  0  0  0  0  0  0
  147.4554  136.2479  160.8678 C   0  0  0  0  0  0  0  0  0  0  0  0
  147.8018  137.4811  160.3542 O   0  0  0  0  0  0  0  0  0  0  0  0
  147.6952  137.6844  158.9531 C   0  0  0  0  0  0  0  0  0  0  0  0
  148.9034  137.0282  158.2746 C   0  0  0  0  0  0  0  0  0  0  0  0
  149.0030  137.4019  156.8577 N   0  0  0  0  0  0  0  0  0  0  0  0
  148.9465  136.6302  155.7335 C   0  0  0  0  0  0  0  0  0  0  0  0
  148.7262  135.1439  155.6824 C   0  0  2  0  0  0  0  0  0  0  0  0
  149.8099  134.3593  156.4463 C   0  0  0  0  0  0  0  0  0  0  0  0
  148.5735  134.6505  154.3155 N   0  0  0  0  0  0  0  0  0  0  0  0
  148.3342  133.3782  153.9691 C   0  0  0  0  0  0  0  0  0  0  0  0
  148.2167  132.4702  154.7873 O   0  0  0  0  0  0  0  0  0  0  0  0
  149.0779  137.4713  154.6663 N   0  3  0  0  0  0  0  0  0  0  0  0
  149.2399  138.7833  155.1121 C   0  0  0  0  0  0  0  0  0  0  0  0
  149.4168  139.9706  154.4085 C   0  0  0  0  0  0  0  0  0  0  0  0
  149.5522  141.1464  155.1758 C   0  0  0  0  0  0  0  0  0  0  0  0
  149.5099  141.1128  156.5848 C   0  0  0  0  0  0  0  0  0  0  0  0
  149.3286  139.9028  157.2870 C   0  0  0  0  0  0  0  0  0  0  0  0
  149.1946  138.7457  156.5203 C   0  0  0  0  0  0  0  0  0  0  0  0
  146.9104  137.2268  164.1287 H   0  0  0  0  0  0  0  0  0  0  0  0
  146.6636  138.2196  162.6922 H   0  0  0  0  0  0  0  0  0  0  0  0
  148.3005  137.7592  163.1787 H   0  0  0  0  0  0  0  0  0  0  0  0
  146.6129  134.8844  163.9010 H   0  0  0  0  0  0  0  0  0  0  0  0
  146.4652  132.8362  162.5130 H   0  0  0  0  0  0  0  0  0  0  0  0
  146.9453  132.9480  160.0765 H   0  0  0  0  0  0  0  0  0  0  0  0
  147.5669  135.0730  159.0264 H   0  0  0  0  0  0  0  0  0  0  0  0
  146.7720  137.2412  158.5765 H   0  0  0  0  0  0  0  0  0  0  0  0
  147.6807  138.7519  158.7265 H   0  0  0  0  0  0  0  0  0  0  0  0
  149.8252  137.3337  158.7702 H   0  0  0  0  0  0  0  0  0  0  0  0
  148.8576  135.9414  158.3524 H   0  0  0  0  0  0  0  0  0  0  0  0
  147.7766  134.9444  156.1803 H   0  0  0  0  0  0  0  0  0  0  0  0
  149.8502  134.6668  157.4918 H   0  0  0  0  0  0  0  0  0  0  0  0
  150.8018  134.5083  156.0183 H   0  0  0  0  0  0  0  0  0  0  0  0
  149.6016  133.2889  156.4291 H   0  0  0  0  0  0  0  0  0  0  0  0
  148.6722  135.3284  153.5734 H   0  0  0  0  0  0  0  0  0  0  0  0
  148.2596  133.2550  152.8773 H   0  0  0  0  0  0  0  0  0  0  0  0
  149.4499  139.9990  153.3292 H   0  0  0  0  0  0  0  0  0  0  0  0
  149.6913  142.0928  154.6734 H   0  0  0  0  0  0  0  0  0  0  0  0
  149.6182  142.0338  157.1393 H   0  0  0  0  0  0  0  0  0  0  0  0
  149.2982  139.8874  158.3666 H   0  0  0  0  0  0  0  0  0  0  0  0
  149.0583  137.1646  153.7022 H   0  0  0  0  0  0  0  0  0  0  0  0
  1  2  1  0  0  0  0
  1 25  1  0  0  0  0
  1 26  1  0  0  0  0
  1 27  1  0  0  0  0
  2  7  1  0  0  0  0
  2  3  2  0  0  0  0
  3  4  1  0  0  0  0
  3 28  1  0  0  0  0
  4  5  2  0  0  0  0
  4 29  1  0  0  0  0
  5  6  1  0  0  0  0
  5 30  1  0  0  0  0
  6  7  2  0  0  0  0
  6 31  1  0  0  0  0
  7  8  1  0  0  0  0
  8  9  1  0  0  0  0
  9 10  1  0  0  0  0
  9 32  1  0  0  0  0
  9 33  1  0  0  0  0
 10 11  1  0  0  0  0
 10 34  1  0  0  0  0
 10 35  1  0  0  0  0
 11 24  1  0  0  0  0
 11 12  1  0  0  0  0
 12 13  1  0  0  0  0
 12 18  2  0  0  0  0
 13 14  1  0  0  0  0
 13 15  1  0  0  0  0
 13 36  1  0  0  0  0
 14 37  1  0  0  0  0
 14 38  1  0  0  0  0
 14 39  1  0  0  0  0
 15 16  1  0  0  0  0
 15 40  1  0  0  0  0
 16 17  2  0  0  0  0
 16 41  1  0  0  0  0
 18 19  1  0  0  0  0
 18 46  1  0  0  0  0
 19 24  2  0  0  0  0
 19 20  1  0  0  0  0
 20 21  2  0  0  0  0
 20 42  1  0  0  0  0
 21 22  1  0  0  0  0
 21 43  1  0  0  0  0
 22 23  2  0  0  0  0
 22 44  1  0  0  0  0
 23 24  1  0  0  0  0
 23 45  1  0  0  0  0
M  CHG  1  18   1
M  END
> <s_m_source_file>
AV-unprocessed.smi

> <i_m_source_file_index>
2953

> <i_lp_mmshare_version>
43012

> <i_f3d_flags>
0

> <s_epik_input>
W0NIM11jMVtjSF1bY0hdW2NIXVtjSF1jMU9bQ0gyXVtDSDJdbihjKG4yKVtDQEhdKFtDSDNdKVtOSF1bQ0hdPU8pYyhjMjMpW2NIXVtjSF1bY0hdW2NIXTM=

> <s_epik_cmdline>
J2VwaWtfcHl0aG9uJywgJy1waCcsICc3LjAnLCAnLXRuJywgJzgnLCAnLW1hJywgJzIwMCcsICctbWV0YWxfYmluZGluZycsICctaW1hZScsICc8aW5maWxlLm1hZT4nLCAnLW9tYWUnLCAnPG91dGZpbGUubWFlPic=

> <r_lp_tautomer_probability>
1

> <r_epik_Ionization_Penalty>
1.14644

> <r_epik_Ionization_Penalty_Charging>
1.14644

> <r_epik_Ionization_Penalty_Neutral>
5.5802e-08

> <r_epik_State_Penalty>
1.20743

> <r_epik_Charging_Adjusted_Penalty>
2.35387

> <i_epik_Tot_Q>
1

> <i_epik_Tot_abs_Q>
1

> <r_epik_Metal_State_Penalty>
1.28856

> <b_epik_Metal_Only>
0

> <s_lp_Force_Field>
OPLS_2005

> <r_lp_Energy>
18.7543

> <b_lp_Chiralities_Consistent>
1

> <s_lp_Variant>
AV-unprocessed.smi:2953-3

> <Gold.Version>
5.8.1

> <Gold.Id.Protein>
6NUR|6NUR_protein|mol2

> <Gold.PLP.Fitness>
52.9812

> <Gold.PLP.PLP>
-41.6843

> <Gold.PLP.part.hbond>
-4.0000

> <Gold.PLP.part.metal>
0.0000

> <Gold.PLP.part.buried>
-4.1805

> <Gold.PLP.part.nonpolar>
-33.7064

> <Gold.PLP.part.repulsive>
0.0490

> <Gold.PLP.ligand.clash>
0.0000

> <Gold.PLP.ligand.torsion>
0.4191

> <Gold.PLP.Chemscore.Hbond>
4.0123

> <Gold.PLP.Chemscore.CHOScore>
0.0000

> <Gold.PLP.Chemscore.Metal>
0.0000

> <Gold.Chemscore.Hbonds>
donor molecule, donor type, donor heavy atom, donor atom, acceptor molecule, acceptor atom, score
      L1  H    15    40       P1  7948  1.00
      L1  H    18    46       P1  7948  1.92
      P1  H  6931  6943       L1     8  0.47
      P1  H  6934  6947       L1     8  0.74

> <Gold.PLP.Chemscore.Internal.Correction>
0.0981

> <Gold.Rescore>
     Score         DG    S(hbond)    S(metal)    S(lipo)     H(rot)  DE(clash)    DE(int)     intcor
     17.79     -19.02       2.50        0.00      95.20       2.32       0.31       0.92       ----

> <Gold.Chemscore.Fitness>
17.7894

> <Gold.Chemscore.DG>
-19.0217

> <Gold.Chemscore.ZeroCoef>
-5.4800

> <Gold.Chemscore.Hbond>
2.4994

> <Gold.Chemscore.Metal>
0.0000

> <Gold.Chemscore.Lipo>
95.2029

> <Gold.Chemscore.Internal_Hbond>
0.0000

> <Gold.Chemscore.DEClash>
0.3145

> <Gold.Chemscore.DEInternal>
0.9178

> <Gold.Chemscore.Rot>
2.3223

> <Gold.Chemscore.Internal.Correction>
   9.000000E+99

> <Gold.Chemscore.Hbonds>
donor molecule, donor type, donor heavy atom, donor atom, acceptor molecule, acceptor atom, score
      L1  H    15    40       P1  7948  0.90
      L1  H    18    46       P1  7948  0.90
      P1  H  6931  6943       L1     8  0.16
      P1  H  6934  6947       L1     8  0.17

> <Gold.Chemscore.Hbond.Weighted>
-8.3479

> <Gold.Chemscore.Metal.Weighted>
-0.0000

> <Gold.Chemscore.Lipo.Weighted>
-11.1387

> <Gold.Chemscore.Internal_Hbond.Weighted>
0.0000

> <Gold.Chemscore.DEClash.Weighted>
0.3145

> <Gold.Chemscore.DEInternal.Weighted>
0.9178

> <Gold.Chemscore.Rot.Weighted>
5.9450

> <Gold.Chemscore.Internal.Correction.Weighted>
   9.000000E+99

> <Gold.Protein.RotatedTorsions>
[ 6907 6896 6895 6894 ] final -104.60 input  -60.11 | X-H torsion
[ 7974 7965 7964 7962 ] final  117.38 input  175.53 | X-H torsion
[ 8008 7997 7996 7995 ] final  -74.65 input   59.86 | X-H torsion
[ 10167 10162 10161 10158 ] final   75.82 input  -65.29 | X-H torsion
[ 10718 10713 10712 10709 ] final   40.97 input   66.30 | X-H torsion
[ 10763 10752 10751 10750 ] final   -8.64 input  -60.55 | X-H torsion
[ 11005 11000 10999 10996 ] final   81.47 input  -57.11 | X-H torsion

> <Gold.Protein.ActiveResidues>
 VAL166  LYS551  ARG553  GLY616  TRP617  ASP618  TYR619  PRO620  LYS621  CYS622 
 ASP623  PHE694  ASN695  SER759  ASP760  ASP761  ALA762  ILE779  LEU786  VAL792 
 PHE793  MET794  SER795  GLU796  ALA797  LYS798  CYS799  TRP800  GLU811  SER814 

> <Gold.Protein.RotatedAtoms>
  150.7295  134.0253  159.3714 H   0  0  0  0  0  0  0  0  0  0  0  0  # atno 6907 bound_to 6896
  151.8220  135.0646  160.0435 H   0  0  0  0  0  0  0  0  0  0  0  0  # atno 6908 bound_to 6896
  152.2996  133.5606  159.5646 H   0  0  0  0  0  0  0  0  0  0  0  0  # atno 6909 bound_to 6896
  145.1681  139.3117  143.4482 H   0  0  0  0  0  0  0  0  0  0  0  0  # atno 7974 bound_to 7965
  154.5349  140.0758  156.8409 H   0  0  0  0  0  0  0  0  0  0  0  0  # atno 8008 bound_to 7997
  155.3299  140.3401  155.4221 H   0  0  0  0  0  0  0  0  0  0  0  0  # atno 8009 bound_to 7997
  156.1818  140.1655  156.8247 H   0  0  0  0  0  0  0  0  0  0  0  0  # atno 8010 bound_to 7997
  139.9989  144.5701  150.7754 H   0  0  0  0  0  0  0  0  0  0  0  0  # atno 10167 bound_to 10162
  157.3883  130.7792  149.7248 H   0  0  0  0  0  0  0  0  0  0  0  0  # atno 10718 bound_to 10713
  153.4434  135.7014  153.6155 H   0  0  0  0  0  0  0  0  0  0  0  0  # atno 10763 bound_to 10752
  153.4520  135.3756  155.2289 H   0  0  0  0  0  0  0  0  0  0  0  0  # atno 10764 bound_to 10752
  154.8728  135.3999  154.3835 H   0  0  0  0  0  0  0  0  0  0  0  0  # atno 10765 bound_to 10752
  139.9097  134.7999  156.2046 H   0  0  0  0  0  0  0  0  0  0  0  0  # atno 11005 bound_to 11000
  146.3473  140.1816  142.8589 LP  0  0  0  0  0  0  0  0  0  0  0  0  # atno 17320 bound_to 7965
  145.0261  140.8833  143.5137 LP  0  0  0  0  0  0  0  0  0  0  0  0  # atno 17321 bound_to 7965
  140.7426  143.2835  151.3530 LP  0  0  0  0  0  0  0  0  0  0  0  0  # atno 17342 bound_to 10162
  139.6286  144.0765  152.2456 LP  0  0  0  0  0  0  0  0  0  0  0  0  # atno 17343 bound_to 10162
  155.9792  130.4043  150.3602 LP  0  0  0  0  0  0  0  0  0  0  0  0  # atno 17370 bound_to 10713
  157.1715  131.0370  151.2793 LP  0  0  0  0  0  0  0  0  0  0  0  0  # atno 17371 bound_to 10713
  141.0503  133.6892  156.1760 LP  0  0  0  0  0  0  0  0  0  0  0  0  # atno 17394 bound_to 11000
  140.6820  134.4757  157.5589 LP  0  0  0  0  0  0  0  0  0  0  0  0  # atno 17395 bound_to 11000

$$$$
