AV-unprocessed.smi:1123|AV-procd|sdf|4831|dock4
  -GOLD-   22720 3393D 1   1.00000     0.00000
 Structure written by MMmdl.
 38 39  0  0  0  0  0  0  0  0  2 V2000
  147.3428  133.3529  152.0102 C   0  0  0  0  0  0  0  0  0  0  0  0
  146.2851  134.0938  151.1670 C   0  0  2  0  0  0  0  0  0  0  0  0
  145.5732  135.2166  151.9428 C   0  0  0  0  0  0  0  0  0  0  0  0
  144.3841  135.1177  152.2487 O   0  0  0  0  0  0  0  0  0  0  0  0
  146.3211  136.2819  152.2740 N   0  0  0  0  0  0  0  0  0  0  0  0
  145.8415  137.4417  153.0162 C   0  0  0  0  0  0  0  0  0  0  0  0
  146.7291  138.6747  152.7603 C   0  0  0  0  0  0  0  0  0  0  0  0
  146.2232  139.8970  153.4339 N   0  3  0  0  0  0  0  0  0  0  0  0
  145.9794  139.6782  154.8801 C   0  0  0  0  0  0  0  0  0  0  0  0
  145.4092  140.9491  155.5320 C   0  0  0  0  0  0  0  0  0  0  0  0
  146.3066  142.0320  155.3236 O   0  0  0  0  0  0  0  0  0  0  0  0
  146.4823  142.3161  153.9416 C   0  0  0  0  0  0  0  0  0  0  0  0
  147.0817  141.0907  153.2297 C   0  0  0  0  0  0  0  0  0  0  0  0
  145.3192  133.1696  150.5844 N   0  0  0  0  0  0  0  0  0  0  0  0
  145.4821  131.9182  150.1498 C   0  0  0  0  0  0  0  0  0  0  0  0
  144.3826  131.3756  149.6465 N   0  0  0  0  0  0  0  0  0  0  0  0
  143.5178  132.4207  149.8076 C   0  0  0  0  0  0  0  0  0  0  0  0
  144.0292  133.5221  150.3569 N   0  0  0  0  0  0  0  0  0  0  0  0
  148.1027  134.0401  152.3835 H   0  0  0  0  0  0  0  0  0  0  0  0
  147.8540  132.5966  151.4139 H   0  0  0  0  0  0  0  0  0  0  0  0
  146.8997  132.8498  152.8706 H   0  0  0  0  0  0  0  0  0  0  0  0
  146.8100  134.5719  150.3383 H   0  0  0  0  0  0  0  0  0  0  0  0
  147.2889  136.2910  151.9853 H   0  0  0  0  0  0  0  0  0  0  0  0
  144.8171  137.6264  152.6958 H   0  0  0  0  0  0  0  0  0  0  0  0
  145.7981  137.2137  154.0828 H   0  0  0  0  0  0  0  0  0  0  0  0
  147.7313  138.4618  153.1356 H   0  0  0  0  0  0  0  0  0  0  0  0
  146.8334  138.8585  151.6898 H   0  0  0  0  0  0  0  0  0  0  0  0
  145.2808  138.8524  155.0188 H   0  0  0  0  0  0  0  0  0  0  0  0
  146.9127  139.3948  155.3697 H   0  0  0  0  0  0  0  0  0  0  0  0
  144.4259  141.1901  155.1251 H   0  0  0  0  0  0  0  0  0  0  0  0
  145.2818  140.7969  156.6039 H   0  0  0  0  0  0  0  0  0  0  0  0
  145.5292  142.5999  153.4921 H   0  0  0  0  0  0  0  0  0  0  0  0
  147.1495  143.1722  153.8400 H   0  0  0  0  0  0  0  0  0  0  0  0
  148.0838  140.8916  153.6132 H   0  0  0  0  0  0  0  0  0  0  0  0
  147.1833  141.3121  152.1682 H   0  0  0  0  0  0  0  0  0  0  0  0
  146.4250  131.3936  150.2008 H   0  0  0  0  0  0  0  0  0  0  0  0
  142.4816  132.3698  149.5069 H   0  0  0  0  0  0  0  0  0  0  0  0
  145.3235  140.1035  153.0234 H   0  0  0  0  0  0  0  0  0  0  0  0
  1  2  1  0  0  0  0
  1 19  1  0  0  0  0
  1 20  1  0  0  0  0
  1 21  1  0  0  0  0
  2  3  1  0  0  0  0
  2 14  1  0  0  0  0
  2 22  1  0  0  0  0
  3  4  2  0  0  0  0
  3  5  1  0  0  0  0
  5  6  1  0  0  0  0
  5 23  1  0  0  0  0
  6  7  1  0  0  0  0
  6 24  1  0  0  0  0
  6 25  1  0  0  0  0
  7  8  1  0  0  0  0
  7 26  1  0  0  0  0
  7 27  1  0  0  0  0
  8 13  1  0  0  0  0
  8  9  1  0  0  0  0
  8 38  1  0  0  0  0
  9 10  1  0  0  0  0
  9 28  1  0  0  0  0
  9 29  1  0  0  0  0
 10 11  1  0  0  0  0
 10 30  1  0  0  0  0
 10 31  1  0  0  0  0
 11 12  1  0  0  0  0
 12 13  1  0  0  0  0
 12 32  1  0  0  0  0
 12 33  1  0  0  0  0
 13 34  1  0  0  0  0
 13 35  1  0  0  0  0
 14 18  1  0  0  0  0
 14 15  1  0  0  0  0
 15 16  2  0  0  0  0
 15 36  1  0  0  0  0
 16 17  1  0  0  0  0
 17 18  2  0  0  0  0
 17 37  1  0  0  0  0
M  CHG  1   8   1
M  END
> <s_m_source_file>
AV-unprocessed.smi

> <i_m_source_file_index>
1123

> <i_lp_mmshare_version>
43012

> <i_f3d_flags>
0

> <s_epik_input>
bjFbY0hdbltjSF1uMVtDQEhdKFtDSDNdKUMoPU8pW05IXVtDSDJdW0NIMl1OMltDSDJdW0NIMl1PW0NIMl1bQ0gyXTI=

> <s_epik_cmdline>
J2VwaWtfcHl0aG9uJywgJy1waCcsICc3LjAnLCAnLXRuJywgJzgnLCAnLW1hJywgJzIwMCcsICctbWV0YWxfYmluZGluZycsICctaW1hZScsICc8aW5maWxlLm1hZT4nLCAnLW9tYWUnLCAnPG91dGZpbGUubWFlPic=

> <r_lp_tautomer_probability>
1

> <r_epik_Ionization_Penalty>
0.71326

> <r_epik_Ionization_Penalty_Charging>
0.713252

> <r_epik_Ionization_Penalty_Neutral>
7.98515e-06

> <r_epik_State_Penalty>
0.737017

> <r_epik_Charging_Adjusted_Penalty>
1.45027

> <i_epik_Tot_Q>
1

> <i_epik_Tot_abs_Q>
1

> <r_epik_Metal_State_Penalty>
0.73702

> <b_epik_Metal_Only>
0

> <s_lp_Force_Field>
OPLS_2005

> <r_lp_Energy>
21.5068

> <b_lp_Chiralities_Consistent>
1

> <s_lp_Variant>
AV-unprocessed.smi:1123-3

> <Gold.Version>
5.8.1

> <Gold.Id.Protein>
6NUR|6NUR_protein|mol2

> <Gold.PLP.Fitness>
44.1449

> <Gold.PLP.PLP>
-27.9874

> <Gold.PLP.part.hbond>
-3.0000

> <Gold.PLP.part.metal>
0.0000

> <Gold.PLP.part.buried>
-4.1119

> <Gold.PLP.part.nonpolar>
-21.8469

> <Gold.PLP.part.repulsive>
0.5766

> <Gold.PLP.ligand.clash>
0.0000

> <Gold.PLP.ligand.torsion>
1.0805

> <Gold.PLP.Chemscore.Hbond>
3.4800

> <Gold.PLP.Chemscore.CHOScore>
2.5823

> <Gold.PLP.Chemscore.Metal>
0.0000

> <Gold.Chemscore.Hbonds>
donor molecule, donor type, donor heavy atom, donor atom, acceptor molecule, acceptor atom, score
      L1  H     5    23       P1  7948  1.00
      L1  H     8    38       P1 10175  2.00
      P1  H 10785 10796       L1    16  0.45
      L1  C    15    36       P1 10747  0.83
      L1  C    17    37       P1 10186  0.84
      L1  C    17    37       P1 10952  0.80

> <Gold.PLP.Chemscore.Internal.Correction>
0.1317

> <Gold.Rescore>
     Score         DG    S(hbond)    S(metal)    S(lipo)     H(rot)  DE(clash)    DE(int)     intcor
      8.35     -11.79       2.47        0.00      42.37       2.69       0.55       2.89       ----

> <Gold.Chemscore.Fitness>
8.3514

> <Gold.Chemscore.DG>
-11.7923

> <Gold.Chemscore.ZeroCoef>
-5.4800

> <Gold.Chemscore.Hbond>
2.4688

> <Gold.Chemscore.Metal>
0.0000

> <Gold.Chemscore.Lipo>
42.3695

> <Gold.Chemscore.Internal_Hbond>
0.0000

> <Gold.Chemscore.DEClash>
0.5493

> <Gold.Chemscore.DEInternal>
2.8916

> <Gold.Chemscore.Rot>
2.6916

> <Gold.Chemscore.Internal.Correction>
   9.000000E+99

> <Gold.Chemscore.Hbonds>
donor molecule, donor type, donor heavy atom, donor atom, acceptor molecule, acceptor atom, score
      L1  H     5    23       P1  7948  1.00
      L1  H     8    38       P1 10175  1.00
      P1  H 10785 10796       L1    16  0.12

> <Gold.Chemscore.Hbond.Weighted>
-8.2457

> <Gold.Chemscore.Metal.Weighted>
-0.0000

> <Gold.Chemscore.Lipo.Weighted>
-4.9572

> <Gold.Chemscore.Internal_Hbond.Weighted>
0.0000

> <Gold.Chemscore.DEClash.Weighted>
0.5493

> <Gold.Chemscore.DEInternal.Weighted>
2.8916

> <Gold.Chemscore.Rot.Weighted>
6.8906

> <Gold.Chemscore.Internal.Correction.Weighted>
   9.000000E+99

> <Gold.Protein.RotatedTorsions>
[ 6907 6896 6895 6894 ] final   80.11 input  -60.11 | X-H torsion
[ 7974 7965 7964 7962 ] final -140.97 input  175.53 | X-H torsion
[ 8008 7997 7996 7995 ] final   82.98 input   59.86 | X-H torsion
[ 10167 10162 10161 10158 ] final -144.36 input  -65.29 | X-H torsion
[ 10718 10713 10712 10709 ] final  171.25 input   66.30 | X-H torsion
[ 10763 10752 10751 10750 ] final  -64.77 input  -60.55 | X-H torsion
[ 11005 11000 10999 10996 ] final -143.12 input  -57.11 | X-H torsion

> <Gold.Protein.ActiveResidues>
 VAL166  LYS551  ARG553  GLY616  TRP617  ASP618  TYR619  PRO620  LYS621  CYS622 
 ASP623  PHE694  ASN695  SER759  ASP760  ASP761  ALA762  ILE779  LEU786  VAL792 
 PHE793  MET794  SER795  GLU796  ALA797  LYS798  CYS799  TRP800  GLU811  SER814 

> <Gold.Protein.RotatedAtoms>
  152.5223  134.3408  159.9216 H   0  0  0  0  0  0  0  0  0  0  0  0  # atno 6907 bound_to 6896
  151.3358  133.3976  159.2674 H   0  0  0  0  0  0  0  0  0  0  0  0  # atno 6908 bound_to 6896
  150.9843  134.9210  159.7920 H   0  0  0  0  0  0  0  0  0  0  0  0  # atno 6909 bound_to 6896
  144.8555  140.6136  143.5362 H   0  0  0  0  0  0  0  0  0  0  0  0  # atno 7974 bound_to 7965
  155.9178  140.3423  155.6149 H   0  0  0  0  0  0  0  0  0  0  0  0  # atno 8008 bound_to 7997
  155.7310  140.0795  157.2308 H   0  0  0  0  0  0  0  0  0  0  0  0  # atno 8009 bound_to 7997
  154.4065  140.1588  156.2495 H   0  0  0  0  0  0  0  0  0  0  0  0  # atno 8010 bound_to 7997
  139.7907  143.7971  152.2649 H   0  0  0  0  0  0  0  0  0  0  0  0  # atno 10167 bound_to 10162
  156.9963  131.0163  151.2843 H   0  0  0  0  0  0  0  0  0  0  0  0  # atno 10718 bound_to 10713
  154.3351  135.6168  153.5569 H   0  0  0  0  0  0  0  0  0  0  0  0  # atno 10763 bound_to 10752
  152.9808  135.5756  154.4917 H   0  0  0  0  0  0  0  0  0  0  0  0  # atno 10764 bound_to 10752
  154.4611  135.2856  155.1689 H   0  0  0  0  0  0  0  0  0  0  0  0  # atno 10765 bound_to 10752
  140.8157  134.2692  157.4922 H   0  0  0  0  0  0  0  0  0  0  0  0  # atno 11005 bound_to 11000
  145.4414  139.1535  143.3968 LP  0  0  0  0  0  0  0  0  0  0  0  0  # atno 17320 bound_to 7965
  146.2820  140.4536  142.8773 LP  0  0  0  0  0  0  0  0  0  0  0  0  # atno 17321 bound_to 7965
  139.8061  144.7355  150.9759 LP  0  0  0  0  0  0  0  0  0  0  0  0  # atno 17342 bound_to 10162
  140.7820  143.4297  151.0714 LP  0  0  0  0  0  0  0  0  0  0  0  0  # atno 17343 bound_to 10162
  157.5422  130.8127  149.8043 LP  0  0  0  0  0  0  0  0  0  0  0  0  # atno 17370 bound_to 10713
  156.0188  130.3803  150.2027 LP  0  0  0  0  0  0  0  0  0  0  0  0  # atno 17371 bound_to 10713
  139.8711  134.9507  156.4064 LP  0  0  0  0  0  0  0  0  0  0  0  0  # atno 17394 bound_to 11000
  140.9152  133.7684  155.9839 LP  0  0  0  0  0  0  0  0  0  0  0  0  # atno 17395 bound_to 11000

$$$$
