#       Name:                AV-unprocessed.smi:3349
#       Creating user name   scv26
#       Creation time:       Fri Mar 27 19:36:13 2020


#       File generated by GOLD software.
#

@<TRIPOS>MOLECULE
AV-unprocessed.smi:3349
    47    48     1
SMALL
NO_CHARGES


@<TRIPOS>ATOM
      1 ****        -0.4417   1.5915   1.7089 C.3            1 S1                 0.0000
      2 ****        -1.0131   0.8172   0.4937 C.3            1 S1                 0.0000
      3 ****        -0.4323  -0.6268   0.5042 C.3            1 S1                 0.0000
      4 ****         1.0277  -0.6614   0.4954 N.am           1 S1                 0.0000
      5 ****         1.7964  -0.4423  -0.5837 C.2            1 S1                 0.0000
      6 ****         1.3319  -0.1876  -1.6958 O.2            1 S1                 0.0000
      7 ****         3.3165  -0.5171  -0.3642 C.3            1 S1                 0.0000
      8 ****         4.1190   0.1788  -1.4826 C.3            1 S1                 0.0000
      9 ****         3.7352  -1.9002  -0.1717 N.pl3          1 S1                 0.0000
     10 ****         4.0136  -2.5644   0.9521 C.2            1 S1                 0.0000
     11 ****         4.3261  -3.8385   0.7619 N.2            1 S1                 0.0000
     12 ****         4.2031  -3.9027  -0.5972 C.2            1 S1                 0.0000
     13 ****         3.8435  -2.7725  -1.2050 N.2            1 S1                 0.0000
     14 ****        -2.4930   0.8570   0.4338 N.3            1 S1                 0.0000
     15 ****        -3.0148   2.2288   0.4182 C.3            1 S1                 0.0000
     16 ****        -4.5490   2.2862   0.3213 C.3            1 S1                 0.0000
     17 ****        -4.9806   1.5895  -0.8391 O.3            1 S1                 0.0000
     18 ****        -4.5663   0.2308  -0.8280 C.3            1 S1                 0.0000
     19 ****        -3.0320   0.1559  -0.7379 C.3            1 S1                 0.0000
     20 ****         0.6425   1.5133   1.7808 H              1 S1                 0.0000
     21 ****        -0.8594   1.2192   2.6449 H              1 S1                 0.0000
     22 ****        -0.6445   2.6599   1.6502 H              1 S1                 0.0000
     23 ****        -0.6329   1.3093  -0.4027 H              1 S1                 0.0000
     24 ****        -0.7796  -1.1602   1.3895 H              1 S1                 0.0000
     25 ****        -0.7629  -1.2100  -0.3540 H              1 S1                 0.0000
     26 ****         1.4839  -0.8640   1.3729 H              1 S1                 0.0000
     27 ****         3.5314   0.0147   0.5643 H              1 S1                 0.0000
     28 ****         3.8349   1.2274  -1.5768 H              1 S1                 0.0000
     29 ****         3.9638  -0.2939  -2.4533 H              1 S1                 0.0000
     30 ****         5.1878   0.1489  -1.2692 H              1 S1                 0.0000
     31 ****         3.9842  -2.1072   1.9303 H              1 S1                 0.0000
     32 ****         4.3791  -4.8107  -1.1550 H              1 S1                 0.0000
     33 ****        -2.7344   2.7563   1.3280 H              1 S1                 0.0000
     34 ****        -2.5794   2.7805  -0.4164 H              1 S1                 0.0000
     35 ****        -5.0096   1.8520   1.2100 H              1 S1                 0.0000
     36 ****        -4.8853   3.3212   0.2599 H              1 S1                 0.0000
     37 ****        -5.0286  -0.2922   0.0108 H              1 S1                 0.0000
     38 ****        -4.9160  -0.2548  -1.7392 H              1 S1                 0.0000
     39 ****        -2.5949   0.5673  -1.6491 H              1 S1                 0.0000
     40 ****        -2.7722  -0.8999  -0.7094 H              1 S1                 0.0000
     41 ****         0.3415  -0.1366  -1.8243 LP             1 S1                 0.0000
     42 ****         1.9453  -0.0318  -2.4701 LP             1 S1                 0.0000
     43 ****         4.5785  -4.5466   1.4213 LP             1 S1                 0.0000
     44 ****         3.6915  -2.6084  -2.1797 LP             1 S1                 0.0000
     45 ****        -2.7922   0.3909   1.2664 LP             1 S1                 0.0000
     46 ****        -4.5966   2.0377  -1.6464 LP             1 S1                 0.0000
     47 ****        -5.9791   1.6224  -0.8829 LP             1 S1                 0.0000
@<TRIPOS>BOND
    1    1    2 1     
    2    1   20 1     
    3    1   21 1     
    4    1   22 1     
    5    2    3 1     
    6    2   14 1     
    7    2   23 1     
    8    3    4 1     
    9    3   24 1     
   10    3   25 1     
   11    4    5 am    
   12    4   26 1     
   13    5    6 2     
   14    5    7 1     
   15    7    8 1     
   16    7    9 1     
   17    7   27 1     
   18    8   28 1     
   19    8   29 1     
   20    8   30 1     
   21    9   13 1     
   22    9   10 1     
   23   10   11 2     
   24   10   31 1     
   25   11   12 1     
   26   12   13 2     
   27   12   32 1     
   28   14   19 1     
   29   14   15 1     
   30   15   16 1     
   31   15   33 1     
   32   15   34 1     
   33   16   17 1     
   34   16   35 1     
   35   16   36 1     
   36   17   18 1     
   37   18   19 1     
   38   18   37 1     
   39   18   38 1     
   40   19   39 1     
   41   19   40 1     
   42    6   41 1     
   43    6   42 1     
   44   11   43 1     
   45   13   44 1     
   46   14   45 1     
   47   17   46 1     
   48   17   47 1     
@<TRIPOS>SUBSTRUCTURE
      1 S1             1
@<TRIPOS>SET
LONE_PAIRS      STATIC     ATOMS    <user>   **** ""
7 41 42 43 44 45 46 47
DONOR_HYDROGENS      STATIC     ATOMS    <user>   **** ""
1 26
ATOM$BLUE        STATIC     ATOMS    COLORGROUP SYSTEM
7 41 42 43 44 45 46 47
ATOM$RED        STATIC     ATOMS    COLORGROUP SYSTEM
1 26
