AV-unprocessed.smi:2453|AV-procd|sdf|9692|dock1
  -GOLD-   2272013333D 1   1.00000     0.00000
 Structure written by MMmdl.
 41 42  0  0  0  0  0  0  0  0  2 V2000
  150.2654  138.6845  154.4145 C   0  0  0  0  0  0  0  0  0  0  0  0
  149.1959  139.7557  154.2898 C   0  0  0  0  0  0  0  0  0  0  0  0
  149.4853  141.0770  154.6950 C   0  0  0  0  0  0  0  0  0  0  0  0
  148.5444  142.0390  154.5936 N   0  3  0  0  0  0  0  0  0  0  0  0
  147.3050  141.8000  154.1172 C   0  0  0  0  0  0  0  0  0  0  0  0
  146.9522  140.5025  153.6963 C   0  0  0  0  0  0  0  0  0  0  0  0
  147.9107  139.4591  153.7676 C   0  0  0  0  0  0  0  0  0  0  0  0
  147.6223  138.1187  153.3843 N   0  0  0  0  0  0  0  0  0  0  0  0
  146.4656  137.4444  153.5015 C   0  0  0  0  0  0  0  0  0  0  0  0
  145.4133  137.9135  153.9340 O   0  0  0  0  0  0  0  0  0  0  0  0
  146.5989  136.1829  153.0671 N   0  0  0  0  0  0  0  0  0  0  0  0
  145.5556  135.1548  153.0624 C   0  0  1  0  0  0  0  0  0  0  0  0
  144.4066  135.5715  152.1223 C   0  0  0  0  0  0  0  0  0  0  0  0
  144.8212  135.5312  150.6416 C   0  0  0  0  0  0  0  0  0  0  0  0
  145.3831  134.1539  150.2594 C   0  0  0  0  0  0  0  0  0  0  0  0
  146.5446  133.7473  151.1806 C   0  0  0  0  0  0  0  0  0  0  0  0
  146.1287  133.7670  152.6673 C   0  0  1  0  0  0  0  0  0  0  0  0
  147.2843  133.2939  153.5747 C   0  0  0  0  0  0  0  0  0  0  0  0
  148.2768  134.2921  153.6854 O   0  0  0  0  0  0  0  0  0  0  0  0
  151.1865  139.0909  154.8335 H   0  0  0  0  0  0  0  0  0  0  0  0
  150.4978  138.2634  153.4358 H   0  0  0  0  0  0  0  0  0  0  0  0
  149.9255  137.8794  155.0664 H   0  0  0  0  0  0  0  0  0  0  0  0
  150.4367  141.3930  155.0980 H   0  0  0  0  0  0  0  0  0  0  0  0
  146.6340  142.6462  154.0934 H   0  0  0  0  0  0  0  0  0  0  0  0
  145.9483  140.3295  153.3397 H   0  0  0  0  0  0  0  0  0  0  0  0
  148.3731  137.6312  152.9177 H   0  0  0  0  0  0  0  0  0  0  0  0
  147.5029  135.8984  152.7199 H   0  0  0  0  0  0  0  0  0  0  0  0
  145.1308  135.0657  154.0634 H   0  0  0  0  0  0  0  0  0  0  0  0
  143.5620  134.8975  152.2722 H   0  0  0  0  0  0  0  0  0  0  0  0
  144.0475  136.5678  152.3836 H   0  0  0  0  0  0  0  0  0  0  0  0
  143.9643  135.7695  150.0110 H   0  0  0  0  0  0  0  0  0  0  0  0
  145.5697  136.2997  150.4452 H   0  0  0  0  0  0  0  0  0  0  0  0
  144.5906  133.4069  150.3200 H   0  0  0  0  0  0  0  0  0  0  0  0
  145.7178  134.1644  149.2218 H   0  0  0  0  0  0  0  0  0  0  0  0
  146.8895  132.7504  150.9043 H   0  0  0  0  0  0  0  0  0  0  0  0
  147.3901  134.4174  151.0203 H   0  0  0  0  0  0  0  0  0  0  0  0
  145.3213  133.0406  152.7765 H   0  0  0  0  0  0  0  0  0  0  0  0
  146.9124  133.0777  154.5766 H   0  0  0  0  0  0  0  0  0  0  0  0
  147.7361  132.3748  153.2010 H   0  0  0  0  0  0  0  0  0  0  0  0
  148.1770  134.8979  152.9671 H   0  0  0  0  0  0  0  0  0  0  0  0
  148.7781  142.9856  154.8949 H   0  0  0  0  0  0  0  0  0  0  0  0
  1  2  1  0  0  0  0
  1 20  1  0  0  0  0
  1 21  1  0  0  0  0
  1 22  1  0  0  0  0
  2  7  1  0  0  0  0
  2  3  2  0  0  0  0
  3  4  1  0  0  0  0
  3 23  1  0  0  0  0
  4  5  2  0  0  0  0
  4 41  1  0  0  0  0
  5  6  1  0  0  0  0
  5 24  1  0  0  0  0
  6  7  2  0  0  0  0
  6 25  1  0  0  0  0
  7  8  1  0  0  0  0
  8  9  1  0  0  0  0
  8 26  1  0  0  0  0
  9 10  2  0  0  0  0
  9 11  1  0  0  0  0
 11 12  1  0  0  0  0
 11 27  1  0  0  0  0
 12 17  1  0  0  0  0
 12 13  1  0  0  0  0
 12 28  1  0  0  0  0
 13 14  1  0  0  0  0
 13 29  1  0  0  0  0
 13 30  1  0  0  0  0
 14 15  1  0  0  0  0
 14 31  1  0  0  0  0
 14 32  1  0  0  0  0
 15 16  1  0  0  0  0
 15 33  1  0  0  0  0
 15 34  1  0  0  0  0
 16 17  1  0  0  0  0
 16 35  1  0  0  0  0
 16 36  1  0  0  0  0
 17 18  1  0  0  0  0
 17 37  1  0  0  0  0
 18 19  1  0  0  0  0
 18 38  1  0  0  0  0
 18 39  1  0  0  0  0
 19 40  1  0  0  0  0
M  CHG  1   4   1
M  END
> <s_m_source_file>
AV-unprocessed.smi

> <i_m_source_file_index>
2453

> <i_lp_mmshare_version>
43012

> <i_f3d_flags>
0

> <s_epik_input>
W0NIM11jMVtjSF1uW2NIXVtjSF1jMVtOSF1DKD1PKVtOSF1bQ0BASF0yW0NIMl1bQ0gyXVtDSDJdW0NIMl1bQ0BIXTJbQ0gyXVtPSF0=

> <s_epik_cmdline>
J2VwaWtfcHl0aG9uJywgJy1waCcsICc3LjAnLCAnLXRuJywgJzgnLCAnLW1hJywgJzIwMCcsICctbWV0YWxfYmluZGluZycsICctaW1hZScsICc8aW5maWxlLm1hZT4nLCAnLW9tYWUnLCAnPG91dGZpbGUubWFlPic=

> <r_epik_Ionization_Penalty>
0.71493

> <r_epik_Ionization_Penalty_Charging>
0.714909

> <r_epik_Ionization_Penalty_Neutral>
2.10174e-05

> <r_epik_State_Penalty>
0.738815

> <r_epik_Charging_Adjusted_Penalty>
1.45372

> <i_epik_Tot_Q>
1

> <i_epik_Tot_abs_Q>
1

> <r_epik_Metal_State_Penalty>
0.896004

> <b_epik_Metal_Only>
0

> <s_lp_Force_Field>
OPLS_2005

> <r_lp_Energy>
23.1527

> <b_lp_Chiralities_Consistent>
1

> <s_lp_Variant>
AV-unprocessed.smi:2453-6

> <Gold.Version>
5.8.1

> <Gold.Id.Protein>
6NUR|6NUR_protein|mol2

> <Gold.PLP.Fitness>
45.9964

> <Gold.PLP.PLP>
-31.7565

> <Gold.PLP.part.hbond>
-4.0000

> <Gold.PLP.part.metal>
0.0000

> <Gold.PLP.part.buried>
-2.2600

> <Gold.PLP.part.nonpolar>
-25.7688

> <Gold.PLP.part.repulsive>
0.3606

> <Gold.PLP.ligand.clash>
0.0000

> <Gold.PLP.ligand.torsion>
0.3538

> <Gold.PLP.Chemscore.Hbond>
4.9760

> <Gold.PLP.Chemscore.CHOScore>
0.0000

> <Gold.PLP.Chemscore.Metal>
0.0000

> <Gold.Chemscore.Hbonds>
donor molecule, donor type, donor heavy atom, donor atom, acceptor molecule, acceptor atom, score
      L1  H     4    41       P1  8028  2.00
      L1  H     8    26       P1  7948  1.00
      L1  H    11    27       P1  7948  1.00
      L1  H    19    40       P1  7948  0.96

> <Gold.PLP.Chemscore.Internal.Correction>
0.0196

> <Gold.Rescore>
     Score         DG    S(hbond)    S(metal)    S(lipo)     H(rot)  DE(clash)    DE(int)     intcor
     19.09     -21.93       3.73        0.00      72.99       1.77       0.05       2.79       ----

> <Gold.Chemscore.Fitness>
19.0878

> <Gold.Chemscore.DG>
-21.9255

> <Gold.Chemscore.ZeroCoef>
-5.4800

> <Gold.Chemscore.Hbond>
3.7269

> <Gold.Chemscore.Metal>
0.0000

> <Gold.Chemscore.Lipo>
72.9879

> <Gold.Chemscore.Internal_Hbond>
0.0000

> <Gold.Chemscore.DEClash>
0.0452

> <Gold.Chemscore.DEInternal>
2.7925

> <Gold.Chemscore.Rot>
1.7742

> <Gold.Chemscore.Internal.Correction>
   9.000000E+99

> <Gold.Chemscore.Hbonds>
donor molecule, donor type, donor heavy atom, donor atom, acceptor molecule, acceptor atom, score
      L1  H     4    41       P1  8028  1.00
      L1  H     8    26       P1  7948  0.95
      L1  H    11    27       P1  7948  0.95
      L1  H    19    40       P1  7948  0.79

> <Gold.Chemscore.Hbond.Weighted>
-12.4479

> <Gold.Chemscore.Metal.Weighted>
-0.0000

> <Gold.Chemscore.Lipo.Weighted>
-8.5396

> <Gold.Chemscore.Internal_Hbond.Weighted>
0.0000

> <Gold.Chemscore.DEClash.Weighted>
0.0452

> <Gold.Chemscore.DEInternal.Weighted>
2.7925

> <Gold.Chemscore.Rot.Weighted>
4.5419

> <Gold.Chemscore.Internal.Correction.Weighted>
   9.000000E+99

> <Gold.Protein.RotatedTorsions>
[ 6907 6896 6895 6894 ] final  145.30 input  -60.11 | X-H torsion
[ 7974 7965 7964 7962 ] final   -1.18 input  175.53 | X-H torsion
[ 8008 7997 7996 7995 ] final -126.17 input   59.86 | X-H torsion
[ 10167 10162 10161 10158 ] final -170.49 input  -65.29 | X-H torsion
[ 10718 10713 10712 10709 ] final   65.42 input   66.30 | X-H torsion
[ 10763 10752 10751 10750 ] final   99.68 input  -60.55 | X-H torsion
[ 11005 11000 10999 10996 ] final   -0.30 input  -57.11 | X-H torsion

> <Gold.Protein.ActiveResidues>
 VAL166  LYS551  ARG553  GLY616  TRP617  ASP618  TYR619  PRO620  LYS621  CYS622 
 ASP623  PHE694  ASN695  SER759  ASP760  ASP761  ALA762  ILE779  LEU786  VAL792 
 PHE793  MET794  SER795  GLU796  ALA797  LYS798  CYS799  TRP800  GLU811  SER814 

> <Gold.Protein.RotatedAtoms>
  152.1826  133.4718  159.4965 H   0  0  0  0  0  0  0  0  0  0  0  0  # atno 6907 bound_to 6896
  150.6937  134.1814  159.4259 H   0  0  0  0  0  0  0  0  0  0  0  0  # atno 6908 bound_to 6896
  151.9726  135.0069  160.0604 H   0  0  0  0  0  0  0  0  0  0  0  0  # atno 6909 bound_to 6896
  146.2420  140.1381  142.8336 H   0  0  0  0  0  0  0  0  0  0  0  0  # atno 7974 bound_to 7965
  155.2253  140.0423  157.2954 H   0  0  0  0  0  0  0  0  0  0  0  0  # atno 8008 bound_to 7997
  154.5923  140.2430  155.7874 H   0  0  0  0  0  0  0  0  0  0  0  0  # atno 8009 bound_to 7997
  156.2267  140.2952  156.0094 H   0  0  0  0  0  0  0  0  0  0  0  0  # atno 8010 bound_to 7997
  139.5859  144.1320  152.1574 H   0  0  0  0  0  0  0  0  0  0  0  0  # atno 10167 bound_to 10162
  157.6104  130.9213  149.9975 H   0  0  0  0  0  0  0  0  0  0  0  0  # atno 10718 bound_to 10713
  153.3044  135.4105  155.1281 H   0  0  0  0  0  0  0  0  0  0  0  0  # atno 10763 bound_to 10752
  154.8558  135.3549  154.5808 H   0  0  0  0  0  0  0  0  0  0  0  0  # atno 10764 bound_to 10752
  153.6235  135.7063  153.5360 H   0  0  0  0  0  0  0  0  0  0  0  0  # atno 10765 bound_to 10752
  140.6347  133.9543  155.8293 H   0  0  0  0  0  0  0  0  0  0  0  0  # atno 11005 bound_to 11000
  145.0269  140.8839  143.5133 LP  0  0  0  0  0  0  0  0  0  0  0  0  # atno 17320 bound_to 7965
  145.1439  139.2555  143.5476 LP  0  0  0  0  0  0  0  0  0  0  0  0  # atno 17321 bound_to 7965
  140.0883  144.5642  150.7072 LP  0  0  0  0  0  0  0  0  0  0  0  0  # atno 17342 bound_to 10162
  140.7130  143.2521  151.4521 LP  0  0  0  0  0  0  0  0  0  0  0  0  # atno 17343 bound_to 10162
  156.1205  130.3646  149.9895 LP  0  0  0  0  0  0  0  0  0  0  0  0  # atno 17370 bound_to 10713
  156.7976  130.9279  151.3646 LP  0  0  0  0  0  0  0  0  0  0  0  0  # atno 17371 bound_to 10713
  141.0650  134.0290  157.3606 LP  0  0  0  0  0  0  0  0  0  0  0  0  # atno 17394 bound_to 11000
  139.9102  135.0188  156.7661 LP  0  0  0  0  0  0  0  0  0  0  0  0  # atno 17395 bound_to 11000

$$$$
