AV-unprocessed.smi:2667|AV-procd|sdf|10334|dock3
  -GOLD-   2272014353D 1   1.00000     0.00000
 Structure written by MMmdl.
 44 46  0  0  0  0  0  0  0  0  1 V2000
  142.0649  147.5287  155.4165 C   0  0  0  0  0  0  0  0  0  0  0  0
  142.9134  146.2566  155.5725 C   0  0  0  0  0  0  0  0  0  0  0  0
  143.9755  146.0765  154.4768 C   0  0  0  0  0  0  0  0  0  0  0  0
  144.0314  146.8768  153.5418 O   0  0  0  0  0  0  0  0  0  0  0  0
  144.9050  144.9168  154.6060 C   0  0  0  0  0  0  0  0  0  0  0  0
  145.7352  144.4994  153.5395 C   0  0  0  0  0  0  0  0  0  0  0  0
  146.5969  143.3970  153.6943 C   0  0  0  0  0  0  0  0  0  0  0  0
  146.6540  142.6862  154.9092 C   0  0  0  0  0  0  0  0  0  0  0  0
  147.5215  141.6171  154.9706 O   0  0  0  0  0  0  0  0  0  0  0  0
  148.6759  141.6350  154.1400 C   0  0  0  0  0  0  0  0  0  0  0  0
  149.9179  141.2470  154.9598 C   0  0  2  0  0  0  0  0  0  0  0  0
  150.4666  140.0573  154.4223 O   0  0  0  0  0  0  0  0  0  0  0  0
  149.6771  141.2115  156.4929 C   0  0  0  0  0  0  0  0  0  0  0  0
  150.8712  140.9627  157.2840 N   0  0  0  0  0  0  0  0  0  0  0  0
  151.6830  139.8900  157.2115 C   0  0  0  0  0  0  0  0  0  0  0  0
  152.7225  139.8546  158.0400 N   0  0  0  0  0  0  0  0  0  0  0  0
  152.5717  141.0467  158.7275 C   0  0  0  0  0  0  0  0  0  0  0  0
  153.3536  141.6157  159.7584 C   0  0  0  0  0  0  0  0  0  0  0  0
  153.0027  142.8628  160.3162 C   0  0  0  0  0  0  0  0  0  0  0  0
  151.8695  143.5609  159.8503 C   0  0  0  0  0  0  0  0  0  0  0  0
  151.0768  143.0146  158.8232 C   0  0  0  0  0  0  0  0  0  0  0  0
  151.4258  141.7673  158.2737 C   0  0  0  0  0  0  0  0  0  0  0  0
  145.8267  143.1046  155.9798 C   0  0  0  0  0  0  0  0  0  0  0  0
  144.9633  144.2066  155.8265 C   0  0  0  0  0  0  0  0  0  0  0  0
  141.3305  147.6000  156.2188 H   0  0  0  0  0  0  0  0  0  0  0  0
  141.5202  147.5310  154.4716 H   0  0  0  0  0  0  0  0  0  0  0  0
  142.6820  148.4269  155.4550 H   0  0  0  0  0  0  0  0  0  0  0  0
  143.4134  146.2760  156.5412 H   0  0  0  0  0  0  0  0  0  0  0  0
  142.2578  145.3855  155.5674 H   0  0  0  0  0  0  0  0  0  0  0  0
  145.7290  145.0097  152.5881 H   0  0  0  0  0  0  0  0  0  0  0  0
  147.2227  143.0948  152.8675 H   0  0  0  0  0  0  0  0  0  0  0  0
  148.5551  140.9586  153.2918 H   0  0  0  0  0  0  0  0  0  0  0  0
  148.8184  142.6419  153.7449 H   0  0  0  0  0  0  0  0  0  0  0  0
  150.6730  142.0109  154.7701 H   0  0  0  0  0  0  0  0  0  0  0  0
  149.7581  139.4766  154.1914 H   0  0  0  0  0  0  0  0  0  0  0  0
  149.2569  142.1649  156.8158 H   0  0  0  0  0  0  0  0  0  0  0  0
  148.9288  140.4628  156.7555 H   0  0  0  0  0  0  0  0  0  0  0  0
  151.4956  139.0861  156.5146 H   0  0  0  0  0  0  0  0  0  0  0  0
  154.2249  141.0909  160.1211 H   0  0  0  0  0  0  0  0  0  0  0  0
  153.6070  143.2869  161.1044 H   0  0  0  0  0  0  0  0  0  0  0  0
  151.6092  144.5163  160.2815 H   0  0  0  0  0  0  0  0  0  0  0  0
  150.2119  143.5486  158.4612 H   0  0  0  0  0  0  0  0  0  0  0  0
  145.8333  142.5956  156.9314 H   0  0  0  0  0  0  0  0  0  0  0  0
  144.3439  144.4991  156.6624 H   0  0  0  0  0  0  0  0  0  0  0  0
  1  2  1  0  0  0  0
  1 25  1  0  0  0  0
  1 26  1  0  0  0  0
  1 27  1  0  0  0  0
  2  3  1  0  0  0  0
  2 28  1  0  0  0  0
  2 29  1  0  0  0  0
  3  4  2  0  0  0  0
  3  5  1  0  0  0  0
  5 24  1  0  0  0  0
  5  6  2  0  0  0  0
  6  7  1  0  0  0  0
  6 30  1  0  0  0  0
  7  8  2  0  0  0  0
  7 31  1  0  0  0  0
  8  9  1  0  0  0  0
  8 23  1  0  0  0  0
  9 10  1  0  0  0  0
 10 11  1  0  0  0  0
 10 32  1  0  0  0  0
 10 33  1  0  0  0  0
 11 12  1  0  0  0  0
 11 13  1  0  0  0  0
 11 34  1  0  0  0  0
 12 35  1  0  0  0  0
 13 14  1  0  0  0  0
 13 36  1  0  0  0  0
 13 37  1  0  0  0  0
 14 22  1  0  0  0  0
 14 15  1  0  0  0  0
 15 16  2  0  0  0  0
 15 38  1  0  0  0  0
 16 17  1  0  0  0  0
 17 22  2  0  0  0  0
 17 18  1  0  0  0  0
 18 19  2  0  0  0  0
 18 39  1  0  0  0  0
 19 20  1  0  0  0  0
 19 40  1  0  0  0  0
 20 21  2  0  0  0  0
 20 41  1  0  0  0  0
 21 22  1  0  0  0  0
 21 42  1  0  0  0  0
 23 24  2  0  0  0  0
 23 43  1  0  0  0  0
 24 44  1  0  0  0  0
M  END
> <s_m_source_file>
AV-unprocessed.smi

> <i_m_source_file_index>
2667

> <i_lp_mmshare_version>
43012

> <i_f3d_flags>
0

> <s_epik_input>
W0NIM11bQ0gyXUMoPU8pYzFbY0hdW2NIXWMoW2NIXVtjSF0xKU9bQ0gyXVtDQEhdKFtPSF0pW0NIMl1uKFtjSF1uMiljKGMyMylbY0hdW2NIXVtjSF1bY0hdMw==

> <s_epik_cmdline>
J2VwaWtfcHl0aG9uJywgJy1waCcsICc3LjAnLCAnLXRuJywgJzgnLCAnLW1hJywgJzIwMCcsICctbWV0YWxfYmluZGluZycsICctaW1hZScsICc8aW5maWxlLm1hZT4nLCAnLW9tYWUnLCAnPG91dGZpbGUubWFlPic=

> <r_lp_tautomer_probability>
0.9999

> <r_epik_Ionization_Penalty>
0.0583018

> <r_epik_Ionization_Penalty_Charging>
0

> <r_epik_Ionization_Penalty_Neutral>
0.0583018

> <r_epik_State_Penalty>
0.0504087

> <r_epik_Charging_Adjusted_Penalty>
0.0504087

> <i_epik_Tot_Q>
0

> <i_epik_Tot_abs_Q>
0

> <r_epik_Metal_State_Penalty>
5.26129e-05

> <b_epik_Metal_Only>
0

> <s_lp_Force_Field>
OPLS_2005

> <r_lp_Energy>
26.5089

> <b_lp_Chiralities_Consistent>
1

> <s_lp_Variant>
AV-unprocessed.smi:2667-1

> <Gold.Version>
5.8.1

> <Gold.Id.Protein>
6NUR|6NUR_protein|mol2

> <Gold.PLP.Fitness>
55.2314

> <Gold.PLP.PLP>
-52.1142

> <Gold.PLP.part.hbond>
-4.0000

> <Gold.PLP.part.metal>
0.0000

> <Gold.PLP.part.buried>
-7.2606

> <Gold.PLP.part.nonpolar>
-40.8171

> <Gold.PLP.part.repulsive>
0.1813

> <Gold.PLP.ligand.clash>
0.0000

> <Gold.PLP.ligand.torsion>
1.5170

> <Gold.PLP.Chemscore.Hbond>
1.9920

> <Gold.PLP.Chemscore.CHOScore>
0.0000

> <Gold.PLP.Chemscore.Metal>
0.0000

> <Gold.Chemscore.Hbonds>
donor molecule, donor type, donor heavy atom, donor atom, acceptor molecule, acceptor atom, score
      P1  H  7989  7998       L1    12  0.70
      P1  H  7997  8009       L1    16  0.80

> <Gold.PLP.Chemscore.Internal.Correction>
0.1752

> <Gold.Rescore>
     Score         DG    S(hbond)    S(metal)    S(lipo)     H(rot)  DE(clash)    DE(int)     intcor
     15.30     -17.64       1.75        0.00     108.58       2.49       0.08       2.27       ----

> <Gold.Chemscore.Fitness>
15.3004

> <Gold.Chemscore.DG>
-17.6441

> <Gold.Chemscore.ZeroCoef>
-5.4800

> <Gold.Chemscore.Hbond>
1.7493

> <Gold.Chemscore.Metal>
0.0000

> <Gold.Chemscore.Lipo>
108.5824

> <Gold.Chemscore.Internal_Hbond>
0.0000

> <Gold.Chemscore.DEClash>
0.0762

> <Gold.Chemscore.DEInternal>
2.2675

> <Gold.Chemscore.Rot>
2.4932

> <Gold.Chemscore.Internal.Correction>
   9.000000E+99

> <Gold.Chemscore.Hbonds>
donor molecule, donor type, donor heavy atom, donor atom, acceptor molecule, acceptor atom, score
      P1  H  7989  7998       L1    12  0.07
      P1  H  7997  8009       L1    16  0.28

> <Gold.Chemscore.Hbond.Weighted>
-5.8426

> <Gold.Chemscore.Metal.Weighted>
-0.0000

> <Gold.Chemscore.Lipo.Weighted>
-12.7041

> <Gold.Chemscore.Internal_Hbond.Weighted>
0.0000

> <Gold.Chemscore.DEClash.Weighted>
0.0762

> <Gold.Chemscore.DEInternal.Weighted>
2.2675

> <Gold.Chemscore.Rot.Weighted>
6.3826

> <Gold.Chemscore.Internal.Correction.Weighted>
   9.000000E+99

> <Gold.Protein.RotatedTorsions>
[ 6907 6896 6895 6894 ] final  -55.51 input  -60.11 | X-H torsion
[ 7974 7965 7964 7962 ] final  -72.70 input  175.53 | X-H torsion
[ 8008 7997 7996 7995 ] final  165.83 input   59.86 | X-H torsion
[ 10167 10162 10161 10158 ] final    1.54 input  -65.29 | X-H torsion
[ 10718 10713 10712 10709 ] final -102.30 input   66.30 | X-H torsion
[ 10763 10752 10751 10750 ] final   23.13 input  -60.55 | X-H torsion
[ 11005 11000 10999 10996 ] final  -20.68 input  -57.11 | X-H torsion

> <Gold.Protein.ActiveResidues>
 VAL166  LYS551  ARG553  GLY616  TRP617  ASP618  TYR619  PRO620  LYS621  CYS622 
 ASP623  PHE694  ASN695  SER759  ASP760  ASP761  ALA762  ILE779  LEU786  VAL792 
 PHE793  MET794  SER795  GLU796  ALA797  LYS798  CYS799  TRP800  GLU811  SER814 

> <Gold.Protein.RotatedAtoms>
  150.8245  134.7469  159.6800 H   0  0  0  0  0  0  0  0  0  0  0  0  # atno 6907 bound_to 6896
  152.4357  134.5687  159.9925 H   0  0  0  0  0  0  0  0  0  0  0  0  # atno 6908 bound_to 6896
  151.5863  133.3334  159.3054 H   0  0  0  0  0  0  0  0  0  0  0  0  # atno 6909 bound_to 6896
  145.6618  140.9250  143.0930 H   0  0  0  0  0  0  0  0  0  0  0  0  # atno 7974 bound_to 7965
  156.1769  140.1659  156.8347 H   0  0  0  0  0  0  0  0  0  0  0  0  # atno 8008 bound_to 7997
  154.5316  140.0755  156.8389 H   0  0  0  0  0  0  0  0  0  0  0  0  # atno 8009 bound_to 7997
  155.3395  140.3384  155.4241 H   0  0  0  0  0  0  0  0  0  0  0  0  # atno 8010 bound_to 7997
  140.6678  143.7132  150.7861 H   0  0  0  0  0  0  0  0  0  0  0  0  # atno 10167 bound_to 10162
  156.0224  130.5414  150.7089 H   0  0  0  0  0  0  0  0  0  0  0  0  # atno 10718 bound_to 10713
  153.0862  135.6633  153.9945 H   0  0  0  0  0  0  0  0  0  0  0  0  # atno 10763 bound_to 10752
  153.9554  135.2979  155.3438 H   0  0  0  0  0  0  0  0  0  0  0  0  # atno 10764 bound_to 10752
  154.7270  135.5140  153.8975 H   0  0  0  0  0  0  0  0  0  0  0  0  # atno 10765 bound_to 10752
  140.8488  133.7872  155.9942 H   0  0  0  0  0  0  0  0  0  0  0  0  # atno 11005 bound_to 11000
  144.7086  139.8459  143.7422 LP  0  0  0  0  0  0  0  0  0  0  0  0  # atno 17320 bound_to 7965
  146.1119  139.4125  143.0282 LP  0  0  0  0  0  0  0  0  0  0  0  0  # atno 17321 bound_to 7965
  140.0812  143.4967  152.2529 LP  0  0  0  0  0  0  0  0  0  0  0  0  # atno 17342 bound_to 10162
  139.5933  144.7558  151.3346 LP  0  0  0  0  0  0  0  0  0  0  0  0  # atno 17343 bound_to 10162
  157.4732  131.0895  151.0620 LP  0  0  0  0  0  0  0  0  0  0  0  0  # atno 17370 bound_to 10713
  157.1074  130.6007  149.5474 LP  0  0  0  0  0  0  0  0  0  0  0  0  # atno 17371 bound_to 10713
  140.8813  134.2607  157.5142 LP  0  0  0  0  0  0  0  0  0  0  0  0  # atno 17394 bound_to 11000
  139.8704  134.9616  156.4403 LP  0  0  0  0  0  0  0  0  0  0  0  0  # atno 17395 bound_to 11000

$$$$
