#       Name:                AV-unprocessed.smi:2265
#       Creating user name   scv26
#       Creation time:       Fri Mar 27 12:35:14 2020


#       File generated by GOLD software.
#

@<TRIPOS>MOLECULE
AV-unprocessed.smi:2265
    41    42     1
SMALL
NO_CHARGES


@<TRIPOS>ATOM
      1 ****         4.4311   0.3344  -5.0416 C.3            1 S1                 0.0000
      2 ****         2.9216   0.1979  -5.2677 C.3            1 S1                 0.0000
      3 ****         2.2040  -0.4470  -4.0746 C.3            1 S1                 0.0000
      4 ****         0.7117  -0.5962  -4.3111 C.3            1 S1                 0.0000
      5 ****        -0.2433   0.5178  -3.9740 C.3            1 S1                 0.0000
      6 ****        -0.2751  -0.7684  -3.1734 C.3            1 S1                 0.0000
      7 ****         0.1919  -0.7052  -1.8203 N.am           1 S1                 0.0000
      8 ****         0.0922  -1.6538  -0.8721 C.2            1 S1                 0.0000
      9 ****        -0.4814  -2.7179  -1.1040 O.2            1 S1                 0.0000
     10 ****         0.6311  -1.2982   0.3153 N.am           1 S1                 0.0000
     11 ****         0.6689  -2.0309   1.5080 C.2            1 S1                 0.0000
     12 ****         0.1994  -3.2422   1.6194 N.2            1 S1                 0.0000
     13 ****         0.2549  -3.9423   2.8247 C.2            1 S1                 0.0000
     14 ****         0.8026  -3.3870   3.9206 C.2            1 S1                 0.0000
     15 ****         1.3316  -2.0894   3.8773 N.am           1 S1                 0.0000
     16 ****         1.9121  -1.5322   5.0993 C.3            1 S1                 0.0000
     17 ****         1.3007  -1.3582   2.7301 C.2            1 S1                 0.0000
     18 ****         1.7476  -0.2125   2.6445 O.2            1 S1                 0.0000
     19 ****         4.9123   0.7983  -5.9027 H              1 S1                 0.0000
     20 ****         4.8953  -0.6398  -4.8856 H              1 S1                 0.0000
     21 ****         4.6445   0.9514  -4.1685 H              1 S1                 0.0000
     22 ****         2.4959   1.1833  -5.4603 H              1 S1                 0.0000
     23 ****         2.7454  -0.3954  -6.1656 H              1 S1                 0.0000
     24 ****         2.6211  -1.4350  -3.8775 H              1 S1                 0.0000
     25 ****         2.3750   0.1511  -3.1787 H              1 S1                 0.0000
     26 ****         0.4782  -1.1652  -5.2093 H              1 S1                 0.0000
     27 ****         0.1657   1.4061  -3.4958 H              1 S1                 0.0000
     28 ****        -1.0631   0.7001  -4.6657 H              1 S1                 0.0000
     29 ****        -1.1382  -1.4034  -3.3691 H              1 S1                 0.0000
     30 ****         0.5714   0.1840  -1.5286 H              1 S1                 0.0000
     31 ****         1.0472  -0.3788   0.3421 H              1 S1                 0.0000
     32 ****        -0.1606  -4.9393   2.8273 H              1 S1                 0.0000
     33 ****         0.8673  -3.8887   4.8751 H              1 S1                 0.0000
     34 ****         1.3133  -0.6927   5.4546 H              1 S1                 0.0000
     35 ****         2.9265  -1.1741   4.9175 H              1 S1                 0.0000
     36 ****         1.9665  -2.2641   5.9059 H              1 S1                 0.0000
     37 ****        -0.8799  -2.8849  -2.0058 LP             1 S1                 0.0000
     38 ****        -0.5489  -3.4153  -0.3906 LP             1 S1                 0.0000
     39 ****        -0.2111  -3.6807   0.8200 LP             1 S1                 0.0000
     40 ****         1.6981   0.2799   1.7755 LP             1 S1                 0.0000
     41 ****         2.1597   0.2245   3.4440 LP             1 S1                 0.0000
@<TRIPOS>BOND
    1    1    2 1     
    2    1   19 1     
    3    1   20 1     
    4    1   21 1     
    5    2    3 1     
    6    2   22 1     
    7    2   23 1     
    8    3    4 1     
    9    3   24 1     
   10    3   25 1     
   11    4    6 1     
   12    4    5 1     
   13    4   26 1     
   14    5    6 1     
   15    5   27 1     
   16    5   28 1     
   17    6    7 1     
   18    6   29 1     
   19    7    8 am    
   20    7   30 1     
   21    8    9 2     
   22    8   10 am    
   23   10   11 1     
   24   10   31 1     
   25   11   17 1     
   26   11   12 2     
   27   12   13 1     
   28   13   14 2     
   29   13   32 1     
   30   14   15 1     
   31   14   33 1     
   32   15   16 1     
   33   15   17 am    
   34   16   34 1     
   35   16   35 1     
   36   16   36 1     
   37   17   18 2     
   38    9   37 1     
   39    9   38 1     
   40   12   39 1     
   41   18   40 1     
   42   18   41 1     
@<TRIPOS>SUBSTRUCTURE
      1 S1             1
@<TRIPOS>SET
LONE_PAIRS      STATIC     ATOMS    <user>   **** ""
5 37 38 39 40 41
DONOR_HYDROGENS      STATIC     ATOMS    <user>   **** ""
2 30 31
ATOM$BLUE        STATIC     ATOMS    COLORGROUP SYSTEM
5 37 38 39 40 41
ATOM$RED        STATIC     ATOMS    COLORGROUP SYSTEM
2 30 31
