#       Name:                AV-unprocessed.smi:264
#       Creating user name   scv26
#       Creation time:       Thu Mar 26 21:20:54 2020


#       File generated by GOLD software.
#

@<TRIPOS>MOLECULE
AV-unprocessed.smi:264
    64    68     1
SMALL
NO_CHARGES


@<TRIPOS>ATOM
      1 ****        -1.4857  -4.2389  -4.5369 C.3            1 S1                 0.0000
      2 ****        -2.3577  -3.0497  -4.1055 C.3            1 S1                 0.0000
      3 ****        -3.5853  -3.5695  -3.6017 O.3            1 S1                 0.0000
      4 ****        -4.0950  -2.6744  -2.6296 C.3            1 S1                 0.0000
      5 ****        -2.8397  -2.2675  -1.8736 C.3            1 S1                 0.0000
      6 ****        -1.7951  -2.1360  -2.9798 C.3            1 S1                 0.0000
      7 ****        -1.8319  -0.7996  -3.4519 O.3            1 S1                 0.0000
      8 ****        -0.3499  -2.4396  -2.5032 C.3            1 S1                 0.0000
      9 ****         0.0958  -1.5717  -1.4238 N.pl3          1 S1                 0.0000
     10 ****        -0.0647  -1.7842  -0.0731 C.2            1 S1                 0.0000
     11 ****         0.4169  -0.8486   0.6985 N.2            1 S1                 0.0000
     12 ****         0.9554   0.0782  -0.1867 C.ar           1 S1                 0.0000
     13 ****         1.6288   1.3227  -0.0305 C.ar           1 S1                 0.0000
     14 ****         1.8554   1.8831   1.1842 N.3            1 S1                 0.0000
     15 ****         2.8926   2.9031   1.2917 C.3            1 S1                 0.0000
     16 ****         3.2218   3.1584   2.7694 C.3            1 S1                 0.0000
     17 ****         2.0349   3.4765   3.4955 O.3            1 S1                 0.0000
     18 ****         0.9897   2.4987   3.4155 C.3            1 S1                 0.0000
     19 ****         1.3052   1.2455   4.2269 C.3            1 S1                 0.0000
     20 ****         0.9721   1.6898   5.6427 C.3            1 S1                 0.0000
     21 ****        -0.2073   2.4623   5.4828 O.3            1 S1                 0.0000
     22 ****        -0.2099   3.0679   4.1917 C.3            1 S1                 0.0000
     23 ****         0.6522   2.2226   1.9352 C.3            1 S1                 0.0000
     24 ****         2.0472   1.9533  -1.1608 N.ar           1 S1                 0.0000
     25 ****         1.8141   1.4136  -2.3608 C.ar           1 S1                 0.0000
     26 ****         1.1918   0.2707  -2.6548 N.ar           1 S1                 0.0000
     27 ****         0.7754  -0.3704  -1.5256 C.ar           1 S1                 0.0000
     28 ****        -0.5313  -3.9065  -4.9452 H              1 S1                 0.0000
     29 ****        -1.9861  -4.8190  -5.3124 H              1 S1                 0.0000
     30 ****        -1.2865  -4.9134  -3.7040 H              1 S1                 0.0000
     31 ****        -2.5931  -2.4581  -4.9925 H              1 S1                 0.0000
     32 ****        -4.5571  -1.8163  -3.1204 H              1 S1                 0.0000
     33 ****        -4.8375  -3.1526  -1.9905 H              1 S1                 0.0000
     34 ****        -2.9704  -1.3627  -1.2779 H              1 S1                 0.0000
     35 ****        -2.5664  -3.0754  -1.1937 H              1 S1                 0.0000
     36 ****        -2.7081  -0.6104  -3.7501 H              1 S1                 0.0000
     37 ****        -0.2717  -3.4684  -2.1507 H              1 S1                 0.0000
     38 ****         0.3535  -2.3417  -3.3310 H              1 S1                 0.0000
     39 ****        -0.5582  -2.6587   0.3254 H              1 S1                 0.0000
     40 ****         3.7937   2.5865   0.7648 H              1 S1                 0.0000
     41 ****         2.5456   3.8249   0.8225 H              1 S1                 0.0000
     42 ****         3.7249   2.2965   3.2060 H              1 S1                 0.0000
     43 ****         3.9166   3.9938   2.8554 H              1 S1                 0.0000
     44 ****         0.6356   0.4339   3.9380 H              1 S1                 0.0000
     45 ****         2.3243   0.8764   4.1252 H              1 S1                 0.0000
     46 ****         0.8151   0.8532   6.3235 H              1 S1                 0.0000
     47 ****         1.7656   2.3201   6.0471 H              1 S1                 0.0000
     48 ****        -0.1694   4.1547   4.2717 H              1 S1                 0.0000
     49 ****        -1.1532   2.8110   3.7084 H              1 S1                 0.0000
     50 ****         0.2128   3.1147   1.4867 H              1 S1                 0.0000
     51 ****        -0.1031   1.4403   1.8668 H              1 S1                 0.0000
     52 ****         2.1769   1.9789  -3.2064 H              1 S1                 0.0000
     53 ****        -3.4254  -4.4639  -3.1841 LP             1 S1                 0.0000
     54 ****        -4.2426  -3.6635  -4.3495 LP             1 S1                 0.0000
     55 ****        -1.1874  -0.6915  -4.2089 LP             1 S1                 0.0000
     56 ****        -1.5850  -0.1737  -2.7121 LP             1 S1                 0.0000
     57 ****         0.4020  -0.8076   1.6975 LP             1 S1                 0.0000
     58 ****         2.2779   1.1028   1.6452 LP             1 S1                 0.0000
     59 ****         1.6778   4.3408   3.1411 LP             1 S1                 0.0000
     60 ****         2.2816   3.5875   4.4582 LP             1 S1                 0.0000
     61 ****        -0.2368   3.1742   6.1845 LP             1 S1                 0.0000
     62 ****        -1.0080   1.8704   5.5745 LP             1 S1                 0.0000
     63 ****         2.5318   2.8255  -1.0934 LP             1 S1                 0.0000
     64 ****         1.0491  -0.0716  -3.5835 LP             1 S1                 0.0000
@<TRIPOS>BOND
    1    1    2 1     
    2    1   28 1     
    3    1   29 1     
    4    1   30 1     
    5    2    6 1     
    6    2    3 1     
    7    2   31 1     
    8    3    4 1     
    9    4    5 1     
   10    4   32 1     
   11    4   33 1     
   12    5    6 1     
   13    5   34 1     
   14    5   35 1     
   15    6    7 1     
   16    6    8 1     
   17    7   36 1     
   18    8    9 1     
   19    8   37 1     
   20    8   38 1     
   21    9   27 1     
   22    9   10 1     
   23   10   11 2     
   24   10   39 1     
   25   11   12 1     
   26   12   27 ar    
   27   12   13 ar    
   28   13   14 1     
   29   13   24 ar    
   30   14   23 1     
   31   14   15 1     
   32   15   16 1     
   33   15   40 1     
   34   15   41 1     
   35   16   17 1     
   36   16   42 1     
   37   16   43 1     
   38   17   18 1     
   39   18   22 1     
   40   18   19 1     
   41   18   23 1     
   42   19   20 1     
   43   19   44 1     
   44   19   45 1     
   45   20   21 1     
   46   20   46 1     
   47   20   47 1     
   48   21   22 1     
   49   22   48 1     
   50   22   49 1     
   51   23   50 1     
   52   23   51 1     
   53   24   25 ar    
   54   25   26 ar    
   55   25   52 1     
   56   26   27 ar    
   57    3   53 1     
   58    3   54 1     
   59    7   55 1     
   60    7   56 1     
   61   11   57 1     
   62   14   58 1     
   63   17   59 1     
   64   17   60 1     
   65   21   61 1     
   66   21   62 1     
   67   24   63 1     
   68   26   64 1     
@<TRIPOS>SUBSTRUCTURE
      1 S1             1
@<TRIPOS>SET
LONE_PAIRS      STATIC     ATOMS    <user>   **** ""
12 53 54 55 56 57 58 59 60 61 62 63 64
DONOR_HYDROGENS      STATIC     ATOMS    <user>   **** ""
1 36
ATOM$BLUE        STATIC     ATOMS    COLORGROUP SYSTEM
12 53 54 55 56 57 58 59 60 61 62 63 64
ATOM$RED        STATIC     ATOMS    COLORGROUP SYSTEM
1 36
