AV-unprocessed.smi:1295|AV-procd|sdf|5403|dock2
  -GOLD-   22720 4563D 1   1.00000     0.00000
 Structure written by MMmdl.
 43 44  0  0  0  0  0  0  0  0  1 V2000
  150.2505  135.1186  154.7709 C   0  0  0  0  0  0  0  0  0  0  0  0
  150.3310  136.4708  155.4469 C   0  0  0  0  0  0  0  0  0  0  0  0
  150.5085  136.6324  156.7168 N   0  0  0  0  0  0  0  0  0  0  0  0
  150.5701  137.9359  157.2283 C   0  0  0  0  0  0  0  0  0  0  0  0
  150.7988  138.0429  158.7260 C   0  0  0  0  0  0  0  0  0  0  0  0
  150.4424  139.0288  156.4202 C   0  0  0  0  0  0  0  0  0  0  0  0
  150.5263  140.4631  156.9454 C   0  0  0  0  0  0  0  0  0  0  0  0
  151.8523  140.8465  157.6059 C   0  0  0  0  0  0  0  0  0  0  0  0
  152.8030  140.0660  157.5815 O   0  0  0  0  0  0  0  0  0  0  0  0
  151.8950  142.0559  158.1844 N   0  0  0  0  0  0  0  0  0  0  0  0
  153.0576  142.6884  158.8029 C   0  0  2  0  0  0  0  0  0  0  0  0
  153.3659  142.0227  160.1592 C   0  0  0  0  0  0  0  0  0  0  0  0
  152.2857  142.3264  161.2123 C   0  0  0  0  0  0  0  0  0  0  0  0
  152.0744  143.8396  161.3713 C   0  0  0  0  0  0  0  0  0  0  0  0
  151.7446  144.5049  160.0254 C   0  0  0  0  0  0  0  0  0  0  0  0
  152.8275  144.2117  158.9655 C   0  0  2  0  0  0  0  0  0  0  0  0
  152.5122  144.9114  157.6311 C   0  0  0  0  0  0  0  0  0  0  0  0
  150.2444  138.8323  154.9709 C   0  0  0  0  0  0  0  0  0  0  0  0
  150.1412  139.7440  154.1517 O   0  0  0  0  0  0  0  0  0  0  0  0
  150.1974  137.5433  154.5668 N   0  0  0  0  0  0  0  0  0  0  0  0
  150.0648  137.3563  153.5835 H   0  0  0  0  0  0  0  0  0  0  0  0
  151.1669  134.5556  154.9492 H   0  0  0  0  0  0  0  0  0  0  0  0
  150.1131  135.2142  153.6930 H   0  0  0  0  0  0  0  0  0  0  0  0
  149.4132  134.5472  155.1725 H   0  0  0  0  0  0  0  0  0  0  0  0
  149.9616  138.5489  159.2069 H   0  0  0  0  0  0  0  0  0  0  0  0
  151.7112  138.6015  158.9356 H   0  0  0  0  0  0  0  0  0  0  0  0
  150.9001  137.0578  159.1832 H   0  0  0  0  0  0  0  0  0  0  0  0
  150.3230  141.1776  156.1471 H   0  0  0  0  0  0  0  0  0  0  0  0
  149.7241  140.6190  157.6671 H   0  0  0  0  0  0  0  0  0  0  0  0
  151.0503  142.6084  158.1619 H   0  0  0  0  0  0  0  0  0  0  0  0
  153.9264  142.5513  158.1566 H   0  0  0  0  0  0  0  0  0  0  0  0
  153.4738  140.9445  160.0346 H   0  0  0  0  0  0  0  0  0  0  0  0
  154.3290  142.3830  160.5233 H   0  0  0  0  0  0  0  0  0  0  0  0
  151.3455  141.8533  160.9257 H   0  0  0  0  0  0  0  0  0  0  0  0
  152.5691  141.8892  162.1701 H   0  0  0  0  0  0  0  0  0  0  0  0
  151.2725  144.0287  162.0856 H   0  0  0  0  0  0  0  0  0  0  0  0
  152.9742  144.2915  161.7907 H   0  0  0  0  0  0  0  0  0  0  0  0
  150.7732  144.1545  159.6737 H   0  0  0  0  0  0  0  0  0  0  0  0
  151.6466  145.5815  160.1681 H   0  0  0  0  0  0  0  0  0  0  0  0
  153.7622  144.6390  159.3320 H   0  0  0  0  0  0  0  0  0  0  0  0
  151.5548  144.5891  157.2200 H   0  0  0  0  0  0  0  0  0  0  0  0
  153.2810  144.7014  156.8871 H   0  0  0  0  0  0  0  0  0  0  0  0
  152.4661  145.9931  157.7593 H   0  0  0  0  0  0  0  0  0  0  0  0
  1  2  1  0  0  0  0
  1 22  1  0  0  0  0
  1 23  1  0  0  0  0
  1 24  1  0  0  0  0
  2 20  1  0  0  0  0
  2  3  2  0  0  0  0
  3  4  1  0  0  0  0
  4  5  1  0  0  0  0
  4  6  2  0  0  0  0
  5 25  1  0  0  0  0
  5 26  1  0  0  0  0
  5 27  1  0  0  0  0
  6  7  1  0  0  0  0
  6 18  1  0  0  0  0
  7  8  1  0  0  0  0
  7 28  1  0  0  0  0
  7 29  1  0  0  0  0
  8  9  2  0  0  0  0
  8 10  1  0  0  0  0
 10 11  1  0  0  0  0
 10 30  1  0  0  0  0
 11 16  1  0  0  0  0
 11 12  1  0  0  0  0
 11 31  1  0  0  0  0
 12 13  1  0  0  0  0
 12 32  1  0  0  0  0
 12 33  1  0  0  0  0
 13 14  1  0  0  0  0
 13 34  1  0  0  0  0
 13 35  1  0  0  0  0
 14 15  1  0  0  0  0
 14 36  1  0  0  0  0
 14 37  1  0  0  0  0
 15 16  1  0  0  0  0
 15 38  1  0  0  0  0
 15 39  1  0  0  0  0
 16 17  1  0  0  0  0
 16 40  1  0  0  0  0
 17 41  1  0  0  0  0
 17 42  1  0  0  0  0
 17 43  1  0  0  0  0
 18 19  2  0  0  0  0
 18 20  1  0  0  0  0
 20 21  1  0  0  0  0
M  END
> <s_m_source_file>
AV-unprocessed.smi

> <i_m_source_file_index>
1295

> <i_lp_mmshare_version>
43012

> <i_f3d_flags>
0

> <s_epik_input>
W0NIM11jMW5jKFtDSDNdKWMoYyg9TylbbkhdMSlbQ0gyXUMoPU8pW05IXVtDQEBIXTJbQ0gyXVtDSDJdW0NIMl1bQ0gyXVtDQEhdMltDSDNd

> <s_epik_cmdline>
J2VwaWtfcHl0aG9uJywgJy1waCcsICc3LjAnLCAnLXRuJywgJzgnLCAnLW1hJywgJzIwMCcsICctbWV0YWxfYmluZGluZycsICctaW1hZScsICc8aW5maWxlLm1hZT4nLCAnLW9tYWUnLCAnPG91dGZpbGUubWFlPic=

> <r_lp_tautomer_probability>
0.839158

> <r_epik_Ionization_Penalty>
0.00037085

> <r_epik_Ionization_Penalty_Charging>
0.000336002

> <r_epik_Ionization_Penalty_Neutral>
3.48485e-05

> <r_epik_State_Penalty>
0.09125

> <r_epik_Charging_Adjusted_Penalty>
0.091586

> <i_epik_Tot_Q>
0

> <i_epik_Tot_abs_Q>
0

> <r_epik_Metal_State_Penalty>
0.251445

> <b_epik_Metal_Only>
0

> <s_lp_Force_Field>
OPLS_2005

> <r_lp_Energy>
10.0645

> <b_lp_Chiralities_Consistent>
1

> <s_lp_Variant>
AV-unprocessed.smi:1295-3

> <Gold.Version>
5.8.1

> <Gold.Id.Protein>
6NUR|6NUR_protein|mol2

> <Gold.PLP.Fitness>
43.9546

> <Gold.PLP.PLP>
-37.2527

> <Gold.PLP.part.hbond>
-2.4485

> <Gold.PLP.part.metal>
0.0000

> <Gold.PLP.part.buried>
-4.6959

> <Gold.PLP.part.nonpolar>
-30.2453

> <Gold.PLP.part.repulsive>
0.8775

> <Gold.PLP.ligand.clash>
0.0000

> <Gold.PLP.ligand.torsion>
0.2407

> <Gold.PLP.Chemscore.Hbond>
2.3900

> <Gold.PLP.Chemscore.CHOScore>
0.0000

> <Gold.PLP.Chemscore.Metal>
0.0000

> <Gold.Chemscore.Hbonds>
donor molecule, donor type, donor heavy atom, donor atom, acceptor molecule, acceptor atom, score
      L1  H    20    21       P1  7948  0.34
      P1  H  7989  7998       L1    19  1.00
      P1  H  7997  8010       L1     9  1.00

> <Gold.PLP.Chemscore.Internal.Correction>
0.0132

> <Gold.Rescore>
     Score         DG    S(hbond)    S(metal)    S(lipo)     H(rot)  DE(clash)    DE(int)     intcor
     20.90     -21.60       2.23        0.00     106.51       1.48       0.47       0.22       ----

> <Gold.Chemscore.Fitness>
20.9032

> <Gold.Chemscore.DG>
-21.5956

> <Gold.Chemscore.ZeroCoef>
-5.4800

> <Gold.Chemscore.Hbond>
2.2285

> <Gold.Chemscore.Metal>
0.0000

> <Gold.Chemscore.Lipo>
106.5088

> <Gold.Chemscore.Internal_Hbond>
0.0000

> <Gold.Chemscore.DEClash>
0.4723

> <Gold.Chemscore.DEInternal>
0.2201

> <Gold.Chemscore.Rot>
1.4801

> <Gold.Chemscore.Internal.Correction>
   9.000000E+99

> <Gold.Chemscore.Hbonds>
donor molecule, donor type, donor heavy atom, donor atom, acceptor molecule, acceptor atom, score
      L1  H    20    21       P1  7948  0.11
      P1  H  7989  7998       L1    19  0.96
      P1  H  7997  8010       L1     9  0.98

> <Gold.Chemscore.Hbond.Weighted>
-7.4432

> <Gold.Chemscore.Metal.Weighted>
-0.0000

> <Gold.Chemscore.Lipo.Weighted>
-12.4615

> <Gold.Chemscore.Internal_Hbond.Weighted>
0.0000

> <Gold.Chemscore.DEClash.Weighted>
0.4723

> <Gold.Chemscore.DEInternal.Weighted>
0.2201

> <Gold.Chemscore.Rot.Weighted>
3.7891

> <Gold.Chemscore.Internal.Correction.Weighted>
   9.000000E+99

> <Gold.Protein.RotatedTorsions>
[ 6907 6896 6895 6894 ] final -179.67 input  -60.11 | X-H torsion
[ 7974 7965 7964 7962 ] final  113.15 input  175.53 | X-H torsion
[ 8008 7997 7996 7995 ] final   53.40 input   59.86 | X-H torsion
[ 10167 10162 10161 10158 ] final  143.15 input  -65.29 | X-H torsion
[ 10718 10713 10712 10709 ] final  164.16 input   66.30 | X-H torsion
[ 10763 10752 10751 10750 ] final  -95.36 input  -60.55 | X-H torsion
[ 11005 11000 10999 10996 ] final   38.50 input  -57.11 | X-H torsion

> <Gold.Protein.ActiveResidues>
 VAL166  LYS551  ARG553  GLY616  TRP617  ASP618  TYR619  PRO620  LYS621  CYS622 
 ASP623  PHE694  ASN695  SER759  ASP760  ASP761  ALA762  ILE779  LEU786  VAL792 
 PHE793  MET794  SER795  GLU796  ALA797  LYS798  CYS799  TRP800  GLU811  SER814 

> <Gold.Protein.RotatedAtoms>
  151.6573  133.3318  159.3165 H   0  0  0  0  0  0  0  0  0  0  0  0  # atno 6907 bound_to 6896
  150.7931  134.6974  159.6540 H   0  0  0  0  0  0  0  0  0  0  0  0  # atno 6908 bound_to 6896
  152.4014  134.6284  160.0120 H   0  0  0  0  0  0  0  0  0  0  0  0  # atno 6909 bound_to 6896
  145.2205  139.2864  143.4220 H   0  0  0  0  0  0  0  0  0  0  0  0  # atno 7974 bound_to 7965
  155.4676  140.3464  155.4321 H   0  0  0  0  0  0  0  0  0  0  0  0  # atno 8008 bound_to 7997
  156.1121  140.1464  156.9353 H   0  0  0  0  0  0  0  0  0  0  0  0  # atno 8009 bound_to 7997
  154.4764  140.0884  156.7250 H   0  0  0  0  0  0  0  0  0  0  0  0  # atno 8010 bound_to 7997
  139.4976  144.6060  151.6378 H   0  0  0  0  0  0  0  0  0  0  0  0  # atno 10167 bound_to 10162
  157.0983  131.0436  151.2508 H   0  0  0  0  0  0  0  0  0  0  0  0  # atno 10718 bound_to 10713
  154.7141  135.5123  153.8711 H   0  0  0  0  0  0  0  0  0  0  0  0  # atno 10763 bound_to 10752
  153.0805  135.6630  154.0063 H   0  0  0  0  0  0  0  0  0  0  0  0  # atno 10764 bound_to 10752
  153.9899  135.3021  155.3392 H   0  0  0  0  0  0  0  0  0  0  0  0  # atno 10765 bound_to 10752
  140.2120  134.3743  155.8044 H   0  0  0  0  0  0  0  0  0  0  0  0  # atno 11005 bound_to 11000
  146.3377  140.2510  142.8598 LP  0  0  0  0  0  0  0  0  0  0  0  0  # atno 17320 bound_to 7965
  144.9769  140.8423  143.5421 LP  0  0  0  0  0  0  0  0  0  0  0  0  # atno 17321 bound_to 7965
  140.5721  144.0090  150.6222 LP  0  0  0  0  0  0  0  0  0  0  0  0  # atno 17342 bound_to 10162
  140.3211  143.3136  152.0783 LP  0  0  0  0  0  0  0  0  0  0  0  0  # atno 17343 bound_to 10162
  157.4662  130.7682  149.7281 LP  0  0  0  0  0  0  0  0  0  0  0  0  # atno 17370 bound_to 10713
  155.9880  130.3962  150.3139 LP  0  0  0  0  0  0  0  0  0  0  0  0  # atno 17371 bound_to 10713
  141.2226  133.7148  156.8434 LP  0  0  0  0  0  0  0  0  0  0  0  0  # atno 17394 bound_to 11000
  140.1940  134.8945  157.3094 LP  0  0  0  0  0  0  0  0  0  0  0  0  # atno 17395 bound_to 11000

$$$$
