AV-unprocessed.smi:798|AV-procd|sdf|3775|dock3
  -GOLD-   22720 1203D 1   1.00000     0.00000
 Structure written by MMmdl.
 34 36  0  0  0  0  0  0  0  0  1 V2000
  147.4838  132.8782  154.6005 O   0  0  0  0  0  0  0  0  0  0  0  0
  147.7955  133.7895  153.8337 C   0  0  0  0  0  0  0  0  0  0  0  0
  148.8949  134.5562  153.9413 N   0  0  0  0  0  0  0  0  0  0  0  0
  149.9056  134.5118  154.9377 C   0  0  0  0  0  0  0  0  0  0  0  0
  150.6324  135.5772  155.3095 N   0  0  0  0  0  0  0  0  0  0  0  0
  151.5535  135.2579  156.2989 N   0  0  0  0  0  0  0  0  0  0  0  0
  151.4853  133.9664  156.6337 C   0  0  0  0  0  0  0  0  0  0  0  0
  150.2891  133.0133  155.7728 S   0  0  0  0  0  0  0  0  0  0  0  0
  147.0587  134.1473  152.7721 N   0  0  0  0  0  0  0  0  0  0  0  0
  145.8077  133.5112  152.3556 C   0  0  2  0  0  0  0  0  0  0  0  0
  146.1055  132.2014  151.5941 C   0  0  1  0  0  0  0  0  0  0  0  0
  144.8164  131.3638  151.5102 C   0  0  0  0  0  0  0  0  0  0  0  0
  143.9709  132.1541  150.4934 C   0  0  0  0  0  0  0  0  0  0  0  0
  144.8870  133.3403  150.1321 C   0  0  2  0  0  0  0  0  0  0  0  0
  146.2592  132.6789  150.1550 C   0  0  0  0  0  0  0  0  0  0  0  0
  144.9570  134.3210  151.3293 C   0  0  2  0  0  0  0  0  0  0  0  0
  145.4960  135.7177  150.9446 C   0  0  0  0  0  0  0  0  0  0  0  0
  144.9588  136.1308  149.7057 O   0  0  0  0  0  0  0  0  0  0  0  0
  149.0207  135.2609  153.2300 H   0  0  0  0  0  0  0  0  0  0  0  0
  152.1444  133.5721  157.3928 H   0  0  0  0  0  0  0  0  0  0  0  0
  147.3902  134.9090  152.1986 H   0  0  0  0  0  0  0  0  0  0  0  0
  145.2156  133.2877  153.2453 H   0  0  0  0  0  0  0  0  0  0  0  0
  146.9547  131.6415  151.9876 H   0  0  0  0  0  0  0  0  0  0  0  0
  145.0281  130.3615  151.1358 H   0  0  0  0  0  0  0  0  0  0  0  0
  144.3202  131.2614  152.4760 H   0  0  0  0  0  0  0  0  0  0  0  0
  143.7637  131.5433  149.6138 H   0  0  0  0  0  0  0  0  0  0  0  0
  143.0145  132.4768  150.9067 H   0  0  0  0  0  0  0  0  0  0  0  0
  144.6218  133.8081  149.1835 H   0  0  0  0  0  0  0  0  0  0  0  0
  147.0850  133.3773  150.0130 H   0  0  0  0  0  0  0  0  0  0  0  0
  146.3580  131.8626  149.4370 H   0  0  0  0  0  0  0  0  0  0  0  0
  143.9566  134.4645  151.7412 H   0  0  0  0  0  0  0  0  0  0  0  0
  145.2061  136.4585  151.6899 H   0  0  0  0  0  0  0  0  0  0  0  0
  146.5842  135.7260  150.8820 H   0  0  0  0  0  0  0  0  0  0  0  0
  144.8910  137.0733  149.7068 H   0  0  0  0  0  0  0  0  0  0  0  0
  1  2  2  0  0  0  0
  2  3  1  0  0  0  0
  2  9  1  0  0  0  0
  3  4  1  0  0  0  0
  3 19  1  0  0  0  0
  4  8  1  0  0  0  0
  4  5  2  0  0  0  0
  5  6  1  0  0  0  0
  6  7  2  0  0  0  0
  7  8  1  0  0  0  0
  7 20  1  0  0  0  0
  9 10  1  0  0  0  0
  9 21  1  0  0  0  0
 10 16  1  0  0  0  0
 10 11  1  0  0  0  0
 10 22  1  0  0  0  0
 11 15  1  0  0  0  0
 11 12  1  0  0  0  0
 11 23  1  0  0  0  0
 12 13  1  0  0  0  0
 12 24  1  0  0  0  0
 12 25  1  0  0  0  0
 13 14  1  0  0  0  0
 13 26  1  0  0  0  0
 13 27  1  0  0  0  0
 14 15  1  0  0  0  0
 14 16  1  0  0  0  0
 14 28  1  0  0  0  0
 15 29  1  0  0  0  0
 15 30  1  0  0  0  0
 16 17  1  0  0  0  0
 16 31  1  0  0  0  0
 17 18  1  0  0  0  0
 17 32  1  0  0  0  0
 17 33  1  0  0  0  0
 18 34  1  0  0  0  0
M  END
> <s_m_source_file>
AV-unprocessed.smi

> <i_m_source_file_index>
798

> <i_lp_mmshare_version>
43012

> <i_f3d_flags>
0

> <s_epik_input>
W0NIMl0xW0NIMl1bQ0BASF0oW0NIMl0yKVtDQEBIXShbQ0gyXVtPSF0pW0NAQEhdKFtDQEhdMTIpW05IXUMoPU8pW05IXWMzbm5bY0hdczM=

> <s_epik_cmdline>
J2VwaWtfcHl0aG9uJywgJy1waCcsICc3LjAnLCAnLXRuJywgJzgnLCAnLW1hJywgJzIwMCcsICctbWV0YWxfYmluZGluZycsICctaW1hZScsICc8aW5maWxlLm1hZT4nLCAnLW9tYWUnLCAnPG91dGZpbGUubWFlPic=

> <r_lp_tautomer_probability>
1

> <r_epik_Ionization_Penalty>
0.000329046

> <r_epik_Ionization_Penalty_Charging>
0

> <r_epik_Ionization_Penalty_Neutral>
0.000329046

> <r_epik_State_Penalty>
-0

> <r_epik_Charging_Adjusted_Penalty>
0

> <i_epik_Tot_Q>
0

> <i_epik_Tot_abs_Q>
0

> <r_epik_Metal_State_Penalty>
0.173433

> <b_epik_Metal_Only>
0

> <s_lp_Force_Field>
OPLS_2005

> <r_lp_Energy>
48.6988

> <b_lp_Chiralities_Consistent>
1

> <s_lp_Variant>
AV-unprocessed.smi:798-7

> <Gold.Version>
5.8.1

> <Gold.Id.Protein>
6NUR|6NUR_protein|mol2

> <Gold.PLP.Fitness>
43.3146

> <Gold.PLP.PLP>
-32.8241

> <Gold.PLP.part.hbond>
-5.2480

> <Gold.PLP.part.metal>
0.0000

> <Gold.PLP.part.buried>
-3.2172

> <Gold.PLP.part.nonpolar>
-22.9623

> <Gold.PLP.part.repulsive>
0.1602

> <Gold.PLP.ligand.clash>
0.0000

> <Gold.PLP.ligand.torsion>
0.5927

> <Gold.PLP.Chemscore.Hbond>
3.8882

> <Gold.PLP.Chemscore.CHOScore>
0.0000

> <Gold.PLP.Chemscore.Metal>
0.0000

> <Gold.Chemscore.Hbonds>
donor molecule, donor type, donor heavy atom, donor atom, acceptor molecule, acceptor atom, score
      L1  H     3    19       P1  7948  1.00
      L1  H     9    21       P1  7948  0.89
      L1  H    18    34       P1 10171  0.99
      P1  H 10752 10764       L1     6  0.91

> <Gold.PLP.Chemscore.Internal.Correction>
0.0116

> <Gold.Rescore>
     Score         DG    S(hbond)    S(metal)    S(lipo)     H(rot)  DE(clash)    DE(int)     intcor
     15.34     -16.96       2.53        0.00      68.53       1.94       0.05       1.56       ----

> <Gold.Chemscore.Fitness>
15.3421

> <Gold.Chemscore.DG>
-16.9560

> <Gold.Chemscore.ZeroCoef>
-5.4800

> <Gold.Chemscore.Hbond>
2.5254

> <Gold.Chemscore.Metal>
0.0000

> <Gold.Chemscore.Lipo>
68.5326

> <Gold.Chemscore.Internal_Hbond>
0.0000

> <Gold.Chemscore.DEClash>
0.0544

> <Gold.Chemscore.DEInternal>
1.5595

> <Gold.Chemscore.Rot>
1.9442

> <Gold.Chemscore.Internal.Correction>
   9.000000E+99

> <Gold.Chemscore.Hbonds>
donor molecule, donor type, donor heavy atom, donor atom, acceptor molecule, acceptor atom, score
      L1  H     3    19       P1  7948  0.35
      L1  H     9    21       P1  7948  0.77
      L1  H    18    34       P1 10171  0.94
      P1  H 10752 10764       L1     6  0.08

> <Gold.Chemscore.Hbond.Weighted>
-8.4348

> <Gold.Chemscore.Metal.Weighted>
-0.0000

> <Gold.Chemscore.Lipo.Weighted>
-8.0183

> <Gold.Chemscore.Internal_Hbond.Weighted>
0.0000

> <Gold.Chemscore.DEClash.Weighted>
0.0544

> <Gold.Chemscore.DEInternal.Weighted>
1.5595

> <Gold.Chemscore.Rot.Weighted>
4.9771

> <Gold.Chemscore.Internal.Correction.Weighted>
   9.000000E+99

> <Gold.Protein.RotatedTorsions>
[ 6907 6896 6895 6894 ] final -127.53 input  -60.11 | X-H torsion
[ 7974 7965 7964 7962 ] final   -5.25 input  175.53 | X-H torsion
[ 8008 7997 7996 7995 ] final   -5.70 input   59.86 | X-H torsion
[ 10167 10162 10161 10158 ] final   82.71 input  -65.29 | X-H torsion
[ 10718 10713 10712 10709 ] final    3.19 input   66.30 | X-H torsion
[ 10763 10752 10751 10750 ] final  -18.05 input  -60.55 | X-H torsion
[ 11005 11000 10999 10996 ] final   -1.02 input  -57.11 | X-H torsion

> <Gold.Protein.ActiveResidues>
 VAL166  LYS551  ARG553  GLY616  TRP617  ASP618  TYR619  PRO620  LYS621  CYS622 
 ASP623  PHE694  ASN695  SER759  ASP760  ASP761  ALA762  ILE779  LEU786  VAL792 
 PHE793  MET794  SER795  GLU796  ALA797  LYS798  CYS799  TRP800  GLU811  SER814 

> <Gold.Protein.RotatedAtoms>
  150.9083  133.7030  159.2860 H   0  0  0  0  0  0  0  0  0  0  0  0  # atno 6907 bound_to 6896
  151.4525  135.1030  159.9711 H   0  0  0  0  0  0  0  0  0  0  0  0  # atno 6908 bound_to 6896
  152.4916  133.8466  159.7235 H   0  0  0  0  0  0  0  0  0  0  0  0  # atno 6909 bound_to 6896
  146.2356  140.1993  142.8333 H   0  0  0  0  0  0  0  0  0  0  0  0  # atno 7974 bound_to 7965
  154.6012  140.2452  155.7790 H   0  0  0  0  0  0  0  0  0  0  0  0  # atno 8008 bound_to 7997
  156.2312  140.2966  156.0146 H   0  0  0  0  0  0  0  0  0  0  0  0  # atno 8009 bound_to 7997
  155.2207  140.0400  157.2938 H   0  0  0  0  0  0  0  0  0  0  0  0  # atno 8010 bound_to 7997
  139.9259  144.6183  150.8393 H   0  0  0  0  0  0  0  0  0  0  0  0  # atno 10167 bound_to 10162
  156.8741  130.5630  149.5656 H   0  0  0  0  0  0  0  0  0  0  0  0  # atno 10718 bound_to 10713
  153.5832  135.7004  153.5454 H   0  0  0  0  0  0  0  0  0  0  0  0  # atno 10763 bound_to 10752
  153.3242  135.4065  155.1442 H   0  0  0  0  0  0  0  0  0  0  0  0  # atno 10764 bound_to 10752
  154.8614  135.3703  154.5361 H   0  0  0  0  0  0  0  0  0  0  0  0  # atno 10765 bound_to 10752
  140.6427  133.9475  155.8335 H   0  0  0  0  0  0  0  0  0  0  0  0  # atno 11005 bound_to 11000
  144.9795  140.8445  143.5406 LP  0  0  0  0  0  0  0  0  0  0  0  0  # atno 17320 bound_to 7965
  145.1985  139.2264  143.5205 LP  0  0  0  0  0  0  0  0  0  0  0  0  # atno 17321 bound_to 7965
  140.7650  143.3264  151.2507 LP  0  0  0  0  0  0  0  0  0  0  0  0  # atno 17342 bound_to 10162
  139.6822  143.9834  152.2815 LP  0  0  0  0  0  0  0  0  0  0  0  0  # atno 17343 bound_to 10162
  156.0711  130.5743  150.9384 LP  0  0  0  0  0  0  0  0  0  0  0  0  # atno 17370 bound_to 10713
  157.6178  131.0932  150.8678 LP  0  0  0  0  0  0  0  0  0  0  0  0  # atno 17371 bound_to 10713
  141.0595  134.0367  157.3678 LP  0  0  0  0  0  0  0  0  0  0  0  0  # atno 17394 bound_to 11000
  139.9074  135.0183  156.7546 LP  0  0  0  0  0  0  0  0  0  0  0  0  # atno 17395 bound_to 11000

$$$$
