AV-unprocessed.smi:2233|AV-procd|sdf|9041|dock9
  -GOLD-   2272012253D 1   1.00000     0.00000
 Structure written by MMmdl.
 42 43  0  0  0  0  0  0  0  0  1 V2000
  145.2179  135.7118  151.0005 C   0  0  0  0  0  0  0  0  0  0  0  0
  145.5446  136.5912  151.7822 C   0  0  0  0  0  0  0  0  0  0  0  0
  145.9242  137.6489  152.7353 C   0  0  0  0  0  0  0  0  0  0  0  0
  146.6665  138.8435  152.1086 C   0  0  0  0  0  0  0  0  0  0  0  0
  147.1842  139.8736  153.1290 C   0  0  0  0  0  0  0  0  0  0  0  0
  148.4447  139.3846  153.8652 C   0  0  0  0  0  0  0  0  0  0  0  0
  149.2558  140.5173  154.5041 C   0  0  0  0  0  0  0  0  0  0  0  0
  149.4384  141.5701  153.8929 O   0  0  0  0  0  0  0  0  0  0  0  0
  149.7129  140.2684  155.7440 N   0  0  0  0  0  0  0  0  0  0  0  0
  150.4942  141.1067  156.5895 C   0  0  0  0  0  0  0  0  0  0  0  0
  150.6691  142.4936  156.3562 C   0  0  0  0  0  0  0  0  0  0  0  0
  151.4286  143.2920  157.1352 N   0  0  0  0  0  0  0  0  0  0  0  0
  152.0578  142.7343  158.1889 C   0  0  0  0  0  0  0  0  0  0  0  0
  151.9687  141.3659  158.5059 C   0  0  0  0  0  0  0  0  0  0  0  0
  151.1769  140.5287  157.6881 C   0  0  0  0  0  0  0  0  0  0  0  0
  151.0523  139.1565  157.9608 N   0  0  0  0  0  0  0  0  0  0  0  0
  152.0692  138.6227  158.8577 C   0  0  0  0  0  0  0  0  0  0  0  0
  151.9256  137.0941  158.9544 C   0  0  0  0  0  0  0  0  0  0  0  0
  150.6045  136.7663  159.3767 O   0  0  0  0  0  0  0  0  0  0  0  0
  149.6166  137.2323  158.4607 C   0  0  0  0  0  0  0  0  0  0  0  0
  149.7023  138.7641  158.3411 C   0  0  0  0  0  0  0  0  0  0  0  0
  144.9292  134.9418  150.3208 H   0  0  0  0  0  0  0  0  0  0  0  0
  145.0162  137.9882  153.2347 H   0  0  0  0  0  0  0  0  0  0  0  0
  146.5493  137.1857  153.4991 H   0  0  0  0  0  0  0  0  0  0  0  0
  147.5111  138.4614  151.5340 H   0  0  0  0  0  0  0  0  0  0  0  0
  146.0147  139.3400  151.3882 H   0  0  0  0  0  0  0  0  0  0  0  0
  147.4039  140.8136  152.6213 H   0  0  0  0  0  0  0  0  0  0  0  0
  146.3972  140.0888  153.8533 H   0  0  0  0  0  0  0  0  0  0  0  0
  148.1588  138.6706  154.6390 H   0  0  0  0  0  0  0  0  0  0  0  0
  149.0947  138.8502  153.1715 H   0  0  0  0  0  0  0  0  0  0  0  0
  149.4046  139.4031  156.1637 H   0  0  0  0  0  0  0  0  0  0  0  0
  150.2153  142.9902  155.5127 H   0  0  0  0  0  0  0  0  0  0  0  0
  152.6556  143.3978  158.7962 H   0  0  0  0  0  0  0  0  0  0  0  0
  152.4974  140.9744  159.3624 H   0  0  0  0  0  0  0  0  0  0  0  0
  153.0618  138.8851  158.4902 H   0  0  0  0  0  0  0  0  0  0  0  0
  151.9622  139.0647  159.8490 H   0  0  0  0  0  0  0  0  0  0  0  0
  152.1396  136.6219  157.9942 H   0  0  0  0  0  0  0  0  0  0  0  0
  152.6396  136.6932  159.6737 H   0  0  0  0  0  0  0  0  0  0  0  0
  149.7565  136.7587  157.4876 H   0  0  0  0  0  0  0  0  0  0  0  0
  148.6308  136.9374  158.8203 H   0  0  0  0  0  0  0  0  0  0  0  0
  149.4398  139.2264  159.2936 H   0  0  0  0  0  0  0  0  0  0  0  0
  148.9874  139.1225  157.5993 H   0  0  0  0  0  0  0  0  0  0  0  0
  1  2  3  0  0  0  0
  1 22  1  0  0  0  0
  2  3  1  0  0  0  0
  3  4  1  0  0  0  0
  3 23  1  0  0  0  0
  3 24  1  0  0  0  0
  4  5  1  0  0  0  0
  4 25  1  0  0  0  0
  4 26  1  0  0  0  0
  5  6  1  0  0  0  0
  5 27  1  0  0  0  0
  5 28  1  0  0  0  0
  6  7  1  0  0  0  0
  6 29  1  0  0  0  0
  6 30  1  0  0  0  0
  7  8  2  0  0  0  0
  7  9  1  0  0  0  0
  9 10  1  0  0  0  0
  9 31  1  0  0  0  0
 10 15  1  0  0  0  0
 10 11  2  0  0  0  0
 11 12  1  0  0  0  0
 11 32  1  0  0  0  0
 12 13  2  0  0  0  0
 13 14  1  0  0  0  0
 13 33  1  0  0  0  0
 14 15  2  0  0  0  0
 14 34  1  0  0  0  0
 15 16  1  0  0  0  0
 16 21  1  0  0  0  0
 16 17  1  0  0  0  0
 17 18  1  0  0  0  0
 17 35  1  0  0  0  0
 17 36  1  0  0  0  0
 18 19  1  0  0  0  0
 18 37  1  0  0  0  0
 18 38  1  0  0  0  0
 19 20  1  0  0  0  0
 20 21  1  0  0  0  0
 20 39  1  0  0  0  0
 20 40  1  0  0  0  0
 21 41  1  0  0  0  0
 21 42  1  0  0  0  0
M  END
> <s_m_source_file>
AV-unprocessed.smi

> <i_m_source_file_index>
2233

> <i_lp_mmshare_version>
43012

> <i_f3d_flags>
0

> <s_epik_input>
W0NIXSNDW0NIMl1bQ0gyXVtDSDJdW0NIMl1DKD1PKVtOSF1jMVtjSF1uW2NIXVtjSF1jMU4yW0NIMl1bQ0gyXU9bQ0gyXVtDSDJdMg==

> <s_epik_cmdline>
J2VwaWtfcHl0aG9uJywgJy1waCcsICc3LjAnLCAnLXRuJywgJzgnLCAnLW1hJywgJzIwMCcsICctbWV0YWxfYmluZGluZycsICctaW1hZScsICc8aW5maWxlLm1hZT4nLCAnLW9tYWUnLCAnPG91dGZpbGUubWFlPic=

> <r_lp_tautomer_probability>
1

> <r_epik_Ionization_Penalty>
0.8765

> <r_epik_Ionization_Penalty_Charging>
0

> <r_epik_Ionization_Penalty_Neutral>
0.8765

> <r_epik_State_Penalty>
0.914306

> <r_epik_Charging_Adjusted_Penalty>
0.914306

> <i_epik_Tot_Q>
0

> <i_epik_Tot_abs_Q>
0

> <r_epik_Metal_State_Penalty>
0.361009

> <b_epik_Metal_Only>
0

> <s_lp_Force_Field>
OPLS_2005

> <r_lp_Energy>
23.7364

> <b_lp_Chiralities_Consistent>
1

> <s_lp_Variant>
AV-unprocessed.smi:2233-2

> <Gold.Version>
5.8.1

> <Gold.Id.Protein>
6NUR|6NUR_protein|mol2

> <Gold.PLP.Fitness>
39.2672

> <Gold.PLP.PLP>
-32.6248

> <Gold.PLP.part.hbond>
-3.0000

> <Gold.PLP.part.metal>
0.0000

> <Gold.PLP.part.buried>
-0.2305

> <Gold.PLP.part.nonpolar>
-30.8488

> <Gold.PLP.part.repulsive>
0.4026

> <Gold.PLP.ligand.clash>
0.0000

> <Gold.PLP.ligand.torsion>
0.7121

> <Gold.PLP.Chemscore.Hbond>
1.6400

> <Gold.PLP.Chemscore.CHOScore>
0.9988

> <Gold.PLP.Chemscore.Metal>
0.0000

> <Gold.Chemscore.Hbonds>
donor molecule, donor type, donor heavy atom, donor atom, acceptor molecule, acceptor atom, score
      P1  H  6896  6909       L1    19  0.80
      P1  H  7989  7998       L1     8  0.03
      P1  H  8011  8017       L1     8  0.67
      L1  C    11    32       P1  8028  0.90

> <Gold.PLP.Chemscore.Internal.Correction>
0.1502

> <Gold.Rescore>
     Score         DG    S(hbond)    S(metal)    S(lipo)     H(rot)  DE(clash)    DE(int)     intcor
     13.22     -16.71       1.37        0.00      89.49       1.49       0.57       2.92       ----

> <Gold.Chemscore.Fitness>
13.2179

> <Gold.Chemscore.DG>
-16.7078

> <Gold.Chemscore.ZeroCoef>
-5.4800

> <Gold.Chemscore.Hbond>
1.3675

> <Gold.Chemscore.Metal>
0.0000

> <Gold.Chemscore.Lipo>
89.4883

> <Gold.Chemscore.Internal_Hbond>
0.0000

> <Gold.Chemscore.DEClash>
0.5729

> <Gold.Chemscore.DEInternal>
2.9170

> <Gold.Chemscore.Rot>
1.4882

> <Gold.Chemscore.Internal.Correction>
   9.000000E+99

> <Gold.Chemscore.Hbonds>
donor molecule, donor type, donor heavy atom, donor atom, acceptor molecule, acceptor atom, score
      P1  H  6896  6909       L1    19  0.12
      P1  H  8011  8017       L1     8  0.68

> <Gold.Chemscore.Hbond.Weighted>
-4.5675

> <Gold.Chemscore.Metal.Weighted>
-0.0000

> <Gold.Chemscore.Lipo.Weighted>
-10.4701

> <Gold.Chemscore.Internal_Hbond.Weighted>
0.0000

> <Gold.Chemscore.DEClash.Weighted>
0.5729

> <Gold.Chemscore.DEInternal.Weighted>
2.9170

> <Gold.Chemscore.Rot.Weighted>
3.8099

> <Gold.Chemscore.Internal.Correction.Weighted>
   9.000000E+99

> <Gold.Protein.RotatedTorsions>
[ 6907 6896 6895 6894 ] final   80.53 input  -60.11 | X-H torsion
[ 7974 7965 7964 7962 ] final -140.74 input  175.53 | X-H torsion
[ 8008 7997 7996 7995 ] final  -96.75 input   59.86 | X-H torsion
[ 10167 10162 10161 10158 ] final  121.50 input  -65.29 | X-H torsion
[ 10718 10713 10712 10709 ] final  -62.38 input   66.30 | X-H torsion
[ 10763 10752 10751 10750 ] final  -60.83 input  -60.55 | X-H torsion
[ 11005 11000 10999 10996 ] final  100.61 input  -57.11 | X-H torsion

> <Gold.Protein.ActiveResidues>
 VAL166  LYS551  ARG553  GLY616  TRP617  ASP618  TYR619  PRO620  LYS621  CYS622 
 ASP623  PHE694  ASN695  SER759  ASP760  ASP761  ALA762  ILE779  LEU786  VAL792 
 PHE793  MET794  SER795  GLU796  ALA797  LYS798  CYS799  TRP800  GLU811  SER814 

> <Gold.Protein.RotatedAtoms>
  152.5238  134.3344  159.9194 H   0  0  0  0  0  0  0  0  0  0  0  0  # atno 6907 bound_to 6896
  151.3293  133.4001  159.2669 H   0  0  0  0  0  0  0  0  0  0  0  0  # atno 6908 bound_to 6896
  150.9894  134.9250  159.7948 H   0  0  0  0  0  0  0  0  0  0  0  0  # atno 6909 bound_to 6896
  144.8574  140.6164  143.5351 H   0  0  0  0  0  0  0  0  0  0  0  0  # atno 7974 bound_to 7965
  154.7786  140.0468  157.1109 H   0  0  0  0  0  0  0  0  0  0  0  0  # atno 8008 bound_to 7997
  154.9732  140.3092  155.4959 H   0  0  0  0  0  0  0  0  0  0  0  0  # atno 8009 bound_to 7997
  156.2933  140.2249  156.4826 H   0  0  0  0  0  0  0  0  0  0  0  0  # atno 8010 bound_to 7997
  139.5916  144.7027  151.3277 H   0  0  0  0  0  0  0  0  0  0  0  0  # atno 10167 bound_to 10162
  156.0859  130.4208  150.1128 H   0  0  0  0  0  0  0  0  0  0  0  0  # atno 10718 bound_to 10713
  154.2752  135.6282  153.5325 H   0  0  0  0  0  0  0  0  0  0  0  0  # atno 10763 bound_to 10752
  152.9874  135.5620  154.5556 H   0  0  0  0  0  0  0  0  0  0  0  0  # atno 10764 bound_to 10752
  154.5135  135.2878  155.1298 H   0  0  0  0  0  0  0  0  0  0  0  0  # atno 10765 bound_to 10752
  139.8771  134.9147  156.4781 H   0  0  0  0  0  0  0  0  0  0  0  0  # atno 11005 bound_to 11000
  145.4380  139.1539  143.3986 LP  0  0  0  0  0  0  0  0  0  0  0  0  # atno 17320 bound_to 7965
  146.2834  140.4499  142.8767 LP  0  0  0  0  0  0  0  0  0  0  0  0  # atno 17321 bound_to 7965
  140.7177  143.7220  150.7688 LP  0  0  0  0  0  0  0  0  0  0  0  0  # atno 17342 bound_to 10162
  140.0777  143.4999  152.2547 LP  0  0  0  0  0  0  0  0  0  0  0  0  # atno 17343 bound_to 10162
  156.9149  130.9664  151.3557 LP  0  0  0  0  0  0  0  0  0  0  0  0  # atno 17370 bound_to 10713
  157.5993  130.8500  149.8777 LP  0  0  0  0  0  0  0  0  0  0  0  0  # atno 17371 bound_to 10713
  140.8747  133.7962  155.9402 LP  0  0  0  0  0  0  0  0  0  0  0  0  # atno 17394 bound_to 11000
  140.8916  134.2488  157.5091 LP  0  0  0  0  0  0  0  0  0  0  0  0  # atno 17395 bound_to 11000

$$$$
