AV-unprocessed.smi:2850|AV-procd|sdf|10968|dock1
  -GOLD-   2272015423D 1   1.00000     0.00000
 Structure written by MMmdl.
 45 46  0  0  0  0  0  0  0  0  2 V2000
  153.5451  142.3056  161.3928 C   0  0  0  0  0  0  0  0  0  0  0  0
  152.2938  142.9385  160.2411 S   0  0  0  0  0  0  0  0  0  0  0  0
  152.2007  141.8009  158.8916 C   0  0  0  0  0  0  0  0  0  0  0  0
  151.3643  142.0618  157.7916 C   0  0  0  0  0  0  0  0  0  0  0  0
  151.3461  141.1047  156.7621 C   0  0  0  0  0  0  0  0  0  0  0  0
  152.1618  139.9649  156.9126 C   0  0  0  0  0  0  0  0  0  0  0  0
  152.1628  138.9941  155.9021 N   0  0  0  0  0  0  0  0  0  0  0  0
  151.4360  139.2205  154.6604 C   0  0  0  0  0  0  0  0  0  0  0  0
  150.2573  138.2491  154.5096 C   0  0  1  0  0  0  0  0  0  0  0  0
  150.6954  136.7847  154.7097 C   0  0  0  0  0  0  0  0  0  0  0  0
  149.5250  135.8747  154.6361 N   0  3  1  0  0  0  0  0  0  0  0  0
  149.8743  134.4369  154.7701 C   0  0  0  0  0  0  0  0  0  0  0  0
  148.8718  133.4980  154.0646 C   0  0  0  0  0  0  0  0  0  0  0  0
  147.4698  133.5788  154.6917 C   0  0  0  0  0  0  0  0  0  0  0  0
  149.3840  132.0499  154.0847 C   0  0  0  0  0  0  0  0  0  0  0  0
  148.4850  136.2943  155.6047 C   0  0  0  0  0  0  0  0  0  0  0  0
  148.1167  137.7708  155.3907 C   0  0  0  0  0  0  0  0  0  0  0  0
  149.2867  138.5708  155.5011 O   0  0  0  0  0  0  0  0  0  0  0  0
  152.9469  139.7826  158.0048 N   0  0  0  0  0  0  0  0  0  0  0  0
  152.9676  140.6910  158.9868 N   0  0  0  0  0  0  0  0  0  0  0  0
  153.6338  142.9710  162.2515 H   0  0  0  0  0  0  0  0  0  0  0  0
  154.5175  142.2429  160.9039 H   0  0  0  0  0  0  0  0  0  0  0  0
  153.2684  141.3143  161.7528 H   0  0  0  0  0  0  0  0  0  0  0  0
  150.7615  142.9564  157.7388 H   0  0  0  0  0  0  0  0  0  0  0  0
  150.7253  141.2428  155.8890 H   0  0  0  0  0  0  0  0  0  0  0  0
  152.8128  138.2231  155.9539 H   0  0  0  0  0  0  0  0  0  0  0  0
  151.0656  140.2464  154.6615 H   0  0  0  0  0  0  0  0  0  0  0  0
  152.1144  139.1234  153.8117 H   0  0  0  0  0  0  0  0  0  0  0  0
  149.8222  138.3644  153.5146 H   0  0  0  0  0  0  0  0  0  0  0  0
  151.4268  136.5230  153.9459 H   0  0  0  0  0  0  0  0  0  0  0  0
  151.1882  136.6684  155.6764 H   0  0  0  0  0  0  0  0  0  0  0  0
  150.8846  134.2773  154.3898 H   0  0  0  0  0  0  0  0  0  0  0  0
  149.9040  134.1703  155.8279 H   0  0  0  0  0  0  0  0  0  0  0  0
  148.7882  133.7845  153.0168 H   0  0  0  0  0  0  0  0  0  0  0  0
  147.4911  133.3054  155.7472 H   0  0  0  0  0  0  0  0  0  0  0  0
  146.7764  132.9041  154.1889 H   0  0  0  0  0  0  0  0  0  0  0  0
  147.0549  134.5841  154.6157 H   0  0  0  0  0  0  0  0  0  0  0  0
  149.4782  131.6756  155.1045 H   0  0  0  0  0  0  0  0  0  0  0  0
  150.3622  131.9710  153.6097 H   0  0  0  0  0  0  0  0  0  0  0  0
  148.7061  131.3852  153.5481 H   0  0  0  0  0  0  0  0  0  0  0  0
  147.5947  135.6754  155.4866 H   0  0  0  0  0  0  0  0  0  0  0  0
  148.8497  136.1431  156.6220 H   0  0  0  0  0  0  0  0  0  0  0  0
  147.6476  137.9204  154.4170 H   0  0  0  0  0  0  0  0  0  0  0  0
  147.3971  138.0920  156.1440 H   0  0  0  0  0  0  0  0  0  0  0  0
  149.1185  135.9880  153.7183 H   0  0  0  0  0  0  0  0  0  0  0  0
  1  2  1  0  0  0  0
  1 21  1  0  0  0  0
  1 22  1  0  0  0  0
  1 23  1  0  0  0  0
  2  3  1  0  0  0  0
  3 20  1  0  0  0  0
  3  4  2  0  0  0  0
  4  5  1  0  0  0  0
  4 24  1  0  0  0  0
  5  6  2  0  0  0  0
  5 25  1  0  0  0  0
  6  7  1  0  0  0  0
  6 19  1  0  0  0  0
  7  8  1  0  0  0  0
  7 26  1  0  0  0  0
  8  9  1  0  0  0  0
  8 27  1  0  0  0  0
  8 28  1  0  0  0  0
  9 18  1  0  0  0  0
  9 10  1  0  0  0  0
  9 29  1  0  0  0  0
 10 11  1  0  0  0  0
 10 30  1  0  0  0  0
 10 31  1  0  0  0  0
 11 12  1  0  0  0  0
 11 16  1  0  0  0  0
 11 45  1  0  0  0  0
 12 13  1  0  0  0  0
 12 32  1  0  0  0  0
 12 33  1  0  0  0  0
 13 14  1  0  0  0  0
 13 15  1  0  0  0  0
 13 34  1  0  0  0  0
 14 35  1  0  0  0  0
 14 36  1  0  0  0  0
 14 37  1  0  0  0  0
 15 38  1  0  0  0  0
 15 39  1  0  0  0  0
 15 40  1  0  0  0  0
 16 17  1  0  0  0  0
 16 41  1  0  0  0  0
 16 42  1  0  0  0  0
 17 18  1  0  0  0  0
 17 43  1  0  0  0  0
 17 44  1  0  0  0  0
 19 20  2  0  0  0  0
M  CHG  1  11   1
M  END
> <s_m_source_file>
AV-unprocessed.smi

> <i_m_source_file_index>
2850

> <i_lp_mmshare_version>
43012

> <i_f3d_flags>
0

> <s_epik_input>
W0NIM11TYzFbY0hdW2NIXWMobm4xKVtOSF1bQ0gyXVtDQEBIXTJbQ0gyXU4oW0NIMl1bQ0gyXU8yKVtDSDJdW0NIXShbQ0gzXSlbQ0gzXQ==

> <s_epik_cmdline>
J2VwaWtfcHl0aG9uJywgJy1waCcsICc3LjAnLCAnLXRuJywgJzgnLCAnLW1hJywgJzIwMCcsICctbWV0YWxfYmluZGluZycsICctaW1hZScsICc8aW5maWxlLm1hZT4nLCAnLW9tYWUnLCAnPG91dGZpbGUubWFlPic=

> <r_lp_tautomer_probability>
0.999978

> <r_epik_Ionization_Penalty>
0.0874875

> <r_epik_Ionization_Penalty_Charging>
0.0831532

> <r_epik_Ionization_Penalty_Neutral>
0.00433433

> <r_epik_State_Penalty>
0.0738301

> <r_epik_Charging_Adjusted_Penalty>
0.156983

> <i_epik_Tot_Q>
1

> <i_epik_Tot_abs_Q>
1

> <r_epik_Metal_State_Penalty>
0.073888

> <b_epik_Metal_Only>
0

> <s_lp_Force_Field>
OPLS_2005

> <r_lp_Energy>
24.628

> <b_lp_Chiralities_Consistent>
1

> <s_lp_Variant>
AV-unprocessed.smi:2850-4

> <Gold.Version>
5.8.1

> <Gold.Id.Protein>
6NUR|6NUR_protein|mol2

> <Gold.PLP.Fitness>
42.4126

> <Gold.PLP.PLP>
-34.0118

> <Gold.PLP.part.hbond>
-2.0000

> <Gold.PLP.part.metal>
0.0000

> <Gold.PLP.part.buried>
-3.1230

> <Gold.PLP.part.nonpolar>
-28.8373

> <Gold.PLP.part.repulsive>
0.2471

> <Gold.PLP.ligand.clash>
0.0000

> <Gold.PLP.ligand.torsion>
0.3524

> <Gold.PLP.Chemscore.Hbond>
2.9272

> <Gold.PLP.Chemscore.CHOScore>
0.0000

> <Gold.PLP.Chemscore.Metal>
0.0000

> <Gold.Chemscore.Hbonds>
donor molecule, donor type, donor heavy atom, donor atom, acceptor molecule, acceptor atom, score
      L1  H    11    45       P1  7948  2.00
      P1  H  7997  8010       L1    19  0.88

> <Gold.PLP.Chemscore.Internal.Correction>
0.3239

> <Gold.Rescore>
     Score         DG    S(hbond)    S(metal)    S(lipo)     H(rot)  DE(clash)    DE(int)     intcor
     14.98     -15.42       0.95        0.00      92.70       1.60       0.04       0.39       ----

> <Gold.Chemscore.Fitness>
14.9822

> <Gold.Chemscore.DG>
-15.4150

> <Gold.Chemscore.ZeroCoef>
-5.4800

> <Gold.Chemscore.Hbond>
0.9540

> <Gold.Chemscore.Metal>
0.0000

> <Gold.Chemscore.Lipo>
92.6966

> <Gold.Chemscore.Internal_Hbond>
0.0000

> <Gold.Chemscore.DEClash>
0.0403

> <Gold.Chemscore.DEInternal>
0.3925

> <Gold.Chemscore.Rot>
1.6003

> <Gold.Chemscore.Internal.Correction>
   9.000000E+99

> <Gold.Chemscore.Hbonds>
donor molecule, donor type, donor heavy atom, donor atom, acceptor molecule, acceptor atom, score
      L1  H    11    45       P1  7948  0.90
      P1  H  7997  8010       L1    19  0.06

> <Gold.Chemscore.Hbond.Weighted>
-3.1863

> <Gold.Chemscore.Metal.Weighted>
-0.0000

> <Gold.Chemscore.Lipo.Weighted>
-10.8455

> <Gold.Chemscore.Internal_Hbond.Weighted>
0.0000

> <Gold.Chemscore.DEClash.Weighted>
0.0403

> <Gold.Chemscore.DEInternal.Weighted>
0.3925

> <Gold.Chemscore.Rot.Weighted>
4.0968

> <Gold.Chemscore.Internal.Correction.Weighted>
   9.000000E+99

> <Gold.Protein.RotatedTorsions>
[ 6907 6896 6895 6894 ] final   57.91 input  -60.11 | X-H torsion
[ 7974 7965 7964 7962 ] final  154.04 input  175.53 | X-H torsion
[ 8008 7997 7996 7995 ] final   24.19 input   59.86 | X-H torsion
[ 10167 10162 10161 10158 ] final   39.90 input  -65.29 | X-H torsion
[ 10718 10713 10712 10709 ] final -172.60 input   66.30 | X-H torsion
[ 10763 10752 10751 10750 ] final  -36.50 input  -60.55 | X-H torsion
[ 11005 11000 10999 10996 ] final -155.72 input  -57.11 | X-H torsion

> <Gold.Protein.ActiveResidues>
 VAL166  LYS551  ARG553  GLY616  TRP617  ASP618  TYR619  PRO620  LYS621  CYS622 
 ASP623  PHE694  ASN695  SER759  ASP760  ASP761  ALA762  ILE779  LEU786  VAL792 
 PHE793  MET794  SER795  GLU796  ALA797  LYS798  CYS799  TRP800  GLU811  SER814 

> <Gold.Protein.RotatedAtoms>
  152.3776  134.6640  160.0154 H   0  0  0  0  0  0  0  0  0  0  0  0  # atno 6907 bound_to 6896
  151.6914  133.3305  159.3251 H   0  0  0  0  0  0  0  0  0  0  0  0  # atno 6908 bound_to 6896
  150.7721  134.6631  159.6395 H   0  0  0  0  0  0  0  0  0  0  0  0  # atno 6909 bound_to 6896
  144.8115  139.6880  143.6139 H   0  0  0  0  0  0  0  0  0  0  0  0  # atno 7974 bound_to 7965
  154.9925  140.3115  155.4900 H   0  0  0  0  0  0  0  0  0  0  0  0  # atno 8008 bound_to 7997
  156.2937  140.2246  156.4971 H   0  0  0  0  0  0  0  0  0  0  0  0  # atno 8009 bound_to 7997
  154.7690  140.0453  157.1024 H   0  0  0  0  0  0  0  0  0  0  0  0  # atno 8010 bound_to 7997
  140.3795  144.1999  150.6131 H   0  0  0  0  0  0  0  0  0  0  0  0  # atno 10167 bound_to 10162
  156.7580  130.9403  151.3117 H   0  0  0  0  0  0  0  0  0  0  0  0  # atno 10718 bound_to 10713
  153.8807  135.6822  153.4767 H   0  0  0  0  0  0  0  0  0  0  0  0  # atno 10763 bound_to 10752
  153.1235  135.4729  154.9232 H   0  0  0  0  0  0  0  0  0  0  0  0  # atno 10764 bound_to 10752
  154.7670  135.3227  154.8218 H   0  0  0  0  0  0  0  0  0  0  0  0  # atno 10765 bound_to 10752
  140.6833  134.4120  157.5225 H   0  0  0  0  0  0  0  0  0  0  0  0  # atno 11005 bound_to 11000
  146.2414  139.6009  142.9489 LP  0  0  0  0  0  0  0  0  0  0  0  0  # atno 17320 bound_to 7965
  145.5313  141.0427  143.2381 LP  0  0  0  0  0  0  0  0  0  0  0  0  # atno 17321 bound_to 7965
  140.4952  143.2335  151.8760 LP  0  0  0  0  0  0  0  0  0  0  0  0  # atno 17342 bound_to 10162
  139.4796  144.5121  151.8918 LP  0  0  0  0  0  0  0  0  0  0  0  0  # atno 17343 bound_to 10162
  157.6747  130.9084  150.0123 LP  0  0  0  0  0  0  0  0  0  0  0  0  # atno 17370 bound_to 10713
  156.1358  130.3642  149.9660 LP  0  0  0  0  0  0  0  0  0  0  0  0  # atno 17371 bound_to 10713
  139.8945  134.8705  156.2174 LP  0  0  0  0  0  0  0  0  0  0  0  0  # atno 17394 bound_to 11000
  141.0300  133.6994  156.1413 LP  0  0  0  0  0  0  0  0  0  0  0  0  # atno 17395 bound_to 11000

$$$$
