AV-unprocessed.smi:685|AV-procd|sdf|3334|dock9
  -GOLD-   22720 0303D 1   1.00000     0.00000
 Structure written by MMmdl.
 50 51  0  0  0  0  0  0  0  0  1 V2000
  143.3729  146.3545  155.1326 C   0  0  0  0  0  0  0  0  0  0  0  0
  143.9902  146.9841  156.3489 C   0  0  0  0  0  0  0  0  0  0  0  0
  144.3460  148.2574  156.3111 N   0  0  0  0  0  0  0  0  0  0  0  0
  144.8604  148.5070  157.5319 N   0  0  0  0  0  0  0  0  0  0  0  0
  145.3555  149.8351  157.8372 C   0  0  0  0  0  0  0  0  0  0  0  0
  144.8326  147.3884  158.3419 C   0  0  0  0  0  0  0  0  0  0  0  0
  145.3544  147.4094  159.7426 C   0  0  0  0  0  0  0  0  0  0  0  0
  144.2726  146.3771  157.6076 C   0  0  0  0  0  0  0  0  0  0  0  0
  144.0061  144.9482  158.0063 C   0  0  0  0  0  0  0  0  0  0  0  0
  145.1071  144.3766  158.9253 C   0  0  1  0  0  0  0  0  0  0  0  0
  144.5537  143.4185  159.9922 C   0  0  0  0  0  0  0  0  0  0  0  0
  146.1126  143.6746  158.1325 N   0  0  0  0  0  0  0  0  0  0  0  0
  147.0903  142.9001  158.6289 C   0  0  0  0  0  0  0  0  0  0  0  0
  147.2418  142.6942  159.8335 O   0  0  0  0  0  0  0  0  0  0  0  0
  148.0354  142.2610  157.6072 C   0  0  0  0  0  0  0  0  0  0  0  0
  149.3057  141.6766  158.2537 C   0  0  0  0  0  0  0  0  0  0  0  0
  150.2445  142.7525  158.8283 C   0  0  0  0  0  0  0  0  0  0  0  0
  150.8682  143.6497  157.7567 C   0  0  0  0  0  0  0  0  0  0  0  0
  152.0778  144.2971  158.4380 C   0  0  0  0  0  0  0  0  0  0  0  0
  152.4834  143.3517  159.5788 C   0  0  0  0  0  0  0  0  0  0  0  0
  151.4672  142.2035  159.5705 C   0  0  0  0  0  0  0  0  0  0  0  0
  142.5422  145.7036  155.4061 H   0  0  0  0  0  0  0  0  0  0  0  0
  144.1039  145.7504  154.5948 H   0  0  0  0  0  0  0  0  0  0  0  0
  142.9881  147.1048  154.4409 H   0  0  0  0  0  0  0  0  0  0  0  0
  146.4239  149.7875  158.0491 H   0  0  0  0  0  0  0  0  0  0  0  0
  144.8354  150.2282  158.7111 H   0  0  0  0  0  0  0  0  0  0  0  0
  145.1922  150.5110  156.9965 H   0  0  0  0  0  0  0  0  0  0  0  0
  145.3546  146.4125  160.1824 H   0  0  0  0  0  0  0  0  0  0  0  0
  144.7418  148.0541  160.3731 H   0  0  0  0  0  0  0  0  0  0  0  0
  146.3786  147.7822  159.7695 H   0  0  0  0  0  0  0  0  0  0  0  0
  143.0382  144.8531  158.4991 H   0  0  0  0  0  0  0  0  0  0  0  0
  143.9271  144.3308  157.1109 H   0  0  0  0  0  0  0  0  0  0  0  0
  145.5963  145.2027  159.4448 H   0  0  0  0  0  0  0  0  0  0  0  0
  143.8517  143.9227  160.6564 H   0  0  0  0  0  0  0  0  0  0  0  0
  145.3557  143.0193  160.6141 H   0  0  0  0  0  0  0  0  0  0  0  0
  144.0334  142.5751  159.5370 H   0  0  0  0  0  0  0  0  0  0  0  0
  146.0605  143.7859  157.1304 H   0  0  0  0  0  0  0  0  0  0  0  0
  147.4899  141.4762  157.0827 H   0  0  0  0  0  0  0  0  0  0  0  0
  148.3104  143.0048  156.8580 H   0  0  0  0  0  0  0  0  0  0  0  0
  149.0298  140.9711  159.0390 H   0  0  0  0  0  0  0  0  0  0  0  0
  149.8579  141.1010  157.5092 H   0  0  0  0  0  0  0  0  0  0  0  0
  149.6812  143.3885  159.5134 H   0  0  0  0  0  0  0  0  0  0  0  0
  151.2084  143.0424  156.9162 H   0  0  0  0  0  0  0  0  0  0  0  0
  150.1655  144.3873  157.3680 H   0  0  0  0  0  0  0  0  0  0  0  0
  152.8929  144.4630  157.7328 H   0  0  0  0  0  0  0  0  0  0  0  0
  151.7984  145.2684  158.8482 H   0  0  0  0  0  0  0  0  0  0  0  0
  153.5005  142.9785  159.4548 H   0  0  0  0  0  0  0  0  0  0  0  0
  152.4459  143.8841  160.5302 H   0  0  0  0  0  0  0  0  0  0  0  0
  151.2267  141.8595  160.5768 H   0  0  0  0  0  0  0  0  0  0  0  0
  151.8839  141.3562  159.0241 H   0  0  0  0  0  0  0  0  0  0  0  0
  1  2  1  0  0  0  0
  1 22  1  0  0  0  0
  1 23  1  0  0  0  0
  1 24  1  0  0  0  0
  2  8  1  0  0  0  0
  2  3  2  0  0  0  0
  3  4  1  0  0  0  0
  4  5  1  0  0  0  0
  4  6  1  0  0  0  0
  5 25  1  0  0  0  0
  5 26  1  0  0  0  0
  5 27  1  0  0  0  0
  6  7  1  0  0  0  0
  6  8  2  0  0  0  0
  7 28  1  0  0  0  0
  7 29  1  0  0  0  0
  7 30  1  0  0  0  0
  8  9  1  0  0  0  0
  9 10  1  0  0  0  0
  9 31  1  0  0  0  0
  9 32  1  0  0  0  0
 10 11  1  0  0  0  0
 10 12  1  0  0  0  0
 10 33  1  0  0  0  0
 11 34  1  0  0  0  0
 11 35  1  0  0  0  0
 11 36  1  0  0  0  0
 12 13  1  0  0  0  0
 12 37  1  0  0  0  0
 13 14  2  0  0  0  0
 13 15  1  0  0  0  0
 15 16  1  0  0  0  0
 15 38  1  0  0  0  0
 15 39  1  0  0  0  0
 16 17  1  0  0  0  0
 16 40  1  0  0  0  0
 16 41  1  0  0  0  0
 17 21  1  0  0  0  0
 17 18  1  0  0  0  0
 17 42  1  0  0  0  0
 18 19  1  0  0  0  0
 18 43  1  0  0  0  0
 18 44  1  0  0  0  0
 19 20  1  0  0  0  0
 19 45  1  0  0  0  0
 19 46  1  0  0  0  0
 20 21  1  0  0  0  0
 20 47  1  0  0  0  0
 20 48  1  0  0  0  0
 21 49  1  0  0  0  0
 21 50  1  0  0  0  0
M  END
> <s_m_source_file>
AV-unprocessed.smi

> <i_m_source_file_index>
685

> <i_lp_mmshare_version>
43012

> <i_f3d_flags>
0

> <s_epik_input>
W0NIM11jMW5uKFtDSDNdKWMoW0NIM10pYzFbQ0gyXVtDQEhdKFtDSDNdKVtOSF1DKD1PKVtDSDJdW0NIMl1bQ0hdMltDSDJdW0NIMl1bQ0gyXVtDSDJdMg==

> <s_epik_cmdline>
J2VwaWtfcHl0aG9uJywgJy1waCcsICc3LjAnLCAnLXRuJywgJzgnLCAnLW1hJywgJzIwMCcsICctbWV0YWxfYmluZGluZycsICctaW1hZScsICc8aW5maWxlLm1hZT4nLCAnLW9tYWUnLCAnPG91dGZpbGUubWFlPic=

> <r_lp_tautomer_probability>
1

> <r_epik_Ionization_Penalty>
0.0131144

> <r_epik_Ionization_Penalty_Charging>
0

> <r_epik_Ionization_Penalty_Neutral>
0.0131144

> <r_epik_State_Penalty>
0.0101889

> <r_epik_Charging_Adjusted_Penalty>
0.0101889

> <i_epik_Tot_Q>
0

> <i_epik_Tot_abs_Q>
0

> <r_epik_Metal_State_Penalty>
0.00996794

> <b_epik_Metal_Only>
0

> <s_lp_Force_Field>
OPLS_2005

> <r_lp_Energy>
16.0397

> <b_lp_Chiralities_Consistent>
1

> <s_lp_Variant>
AV-unprocessed.smi:685-2

> <Gold.Version>
5.8.1

> <Gold.Id.Protein>
6NUR|6NUR_protein|mol2

> <Gold.PLP.Fitness>
44.9022

> <Gold.PLP.PLP>
-43.9704

> <Gold.PLP.part.hbond>
-3.8816

> <Gold.PLP.part.metal>
0.0000

> <Gold.PLP.part.buried>
-3.4689

> <Gold.PLP.part.nonpolar>
-37.5815

> <Gold.PLP.part.repulsive>
0.1801

> <Gold.PLP.ligand.clash>
0.0000

> <Gold.PLP.ligand.torsion>
1.1419

> <Gold.PLP.Chemscore.Hbond>
1.0512

> <Gold.PLP.Chemscore.CHOScore>
0.0000

> <Gold.PLP.Chemscore.Metal>
0.0000

> <Gold.Chemscore.Hbonds>
donor molecule, donor type, donor heavy atom, donor atom, acceptor molecule, acceptor atom, score
      P1  H  6933  6944       L1    14  0.68
      P1  H  6934  6946       L1    14  0.72

> <Gold.PLP.Chemscore.Internal.Correction>
0.0620

> <Gold.Rescore>
     Score         DG    S(hbond)    S(metal)    S(lipo)     H(rot)  DE(clash)    DE(int)     intcor
     14.17     -17.86       1.22        0.00     104.31       1.53       0.11       3.58       ----

> <Gold.Chemscore.Fitness>
14.1729

> <Gold.Chemscore.DG>
-17.8620

> <Gold.Chemscore.ZeroCoef>
-5.4800

> <Gold.Chemscore.Hbond>
1.2234

> <Gold.Chemscore.Metal>
0.0000

> <Gold.Chemscore.Lipo>
104.3117

> <Gold.Chemscore.Internal_Hbond>
0.0000

> <Gold.Chemscore.DEClash>
0.1093

> <Gold.Chemscore.DEInternal>
3.5799

> <Gold.Chemscore.Rot>
1.5268

> <Gold.Chemscore.Internal.Correction>
   9.000000E+99

> <Gold.Chemscore.Hbonds>
donor molecule, donor type, donor heavy atom, donor atom, acceptor molecule, acceptor atom, score
      P1  H  6933  6944       L1    14  0.65
      P1  H  6934  6946       L1    14  0.66

> <Gold.Chemscore.Hbond.Weighted>
-4.0861

> <Gold.Chemscore.Metal.Weighted>
-0.0000

> <Gold.Chemscore.Lipo.Weighted>
-12.2045

> <Gold.Chemscore.Internal_Hbond.Weighted>
0.0000

> <Gold.Chemscore.DEClash.Weighted>
0.1093

> <Gold.Chemscore.DEInternal.Weighted>
3.5799

> <Gold.Chemscore.Rot.Weighted>
3.9086

> <Gold.Chemscore.Internal.Correction.Weighted>
   9.000000E+99

> <Gold.Protein.RotatedTorsions>
[ 6907 6896 6895 6894 ] final  -39.75 input  -60.11 | X-H torsion
[ 7974 7965 7964 7962 ] final  -88.55 input  175.53 | X-H torsion
[ 8008 7997 7996 7995 ] final  -67.10 input   59.86 | X-H torsion
[ 10167 10162 10161 10158 ] final -174.02 input  -65.29 | X-H torsion
[ 10718 10713 10712 10709 ] final  158.26 input   66.30 | X-H torsion
[ 10763 10752 10751 10750 ] final   82.19 input  -60.55 | X-H torsion
[ 11005 11000 10999 10996 ] final -144.01 input  -57.11 | X-H torsion

> <Gold.Protein.ActiveResidues>
 VAL166  LYS551  ARG553  GLY616  TRP617  ASP618  TYR619  PRO620  LYS621  CYS622 
 ASP623  PHE694  ASN695  SER759  ASP760  ASP761  ALA762  ILE779  LEU786  VAL792 
 PHE793  MET794  SER795  GLU796  ALA797  LYS798  CYS799  TRP800  GLU811  SER814 

> <Gold.Protein.RotatedAtoms>
  150.9866  134.9210  159.7874 H   0  0  0  0  0  0  0  0  0  0  0  0  # atno 6907 bound_to 6896
  152.5238  134.3338  159.9202 H   0  0  0  0  0  0  0  0  0  0  0  0  # atno 6908 bound_to 6896
  151.3345  133.3946  159.2700 H   0  0  0  0  0  0  0  0  0  0  0  0  # atno 6909 bound_to 6896
  145.4517  140.9560  143.2019 H   0  0  0  0  0  0  0  0  0  0  0  0  # atno 7974 bound_to 7965
  154.4777  140.0899  156.7303 H   0  0  0  0  0  0  0  0  0  0  0  0  # atno 8008 bound_to 7997
  155.4552  140.3459  155.4287 H   0  0  0  0  0  0  0  0  0  0  0  0  # atno 8009 bound_to 7997
  156.1143  140.1456  156.9283 H   0  0  0  0  0  0  0  0  0  0  0  0  # atno 8010 bound_to 7997
  139.5657  144.1762  152.1308 H   0  0  0  0  0  0  0  0  0  0  0  0  # atno 10167 bound_to 10162
  157.1803  131.0631  151.2135 H   0  0  0  0  0  0  0  0  0  0  0  0  # atno 10718 bound_to 10713
  153.1181  135.4737  154.9149 H   0  0  0  0  0  0  0  0  0  0  0  0  # atno 10763 bound_to 10752
  154.7548  135.3115  154.8492 H   0  0  0  0  0  0  0  0  0  0  0  0  # atno 10764 bound_to 10752
  153.9063  135.6870  153.4806 H   0  0  0  0  0  0  0  0  0  0  0  0  # atno 10765 bound_to 10752
  140.8067  134.2793  157.4957 H   0  0  0  0  0  0  0  0  0  0  0  0  # atno 11005 bound_to 11000
  144.8057  139.6055  143.7052 LP  0  0  0  0  0  0  0  0  0  0  0  0  # atno 17320 bound_to 7965
  146.2501  139.6180  142.9433 LP  0  0  0  0  0  0  0  0  0  0  0  0  # atno 17321 bound_to 7965
  140.1285  144.5310  150.6818 LP  0  0  0  0  0  0  0  0  0  0  0  0  # atno 17342 bound_to 10162
  140.6940  143.2392  151.5053 LP  0  0  0  0  0  0  0  0  0  0  0  0  # atno 17343 bound_to 10162
  157.3959  130.7307  149.6731 LP  0  0  0  0  0  0  0  0  0  0  0  0  # atno 17370 bound_to 10713
  155.9725  130.4134  150.4080 LP  0  0  0  0  0  0  0  0  0  0  0  0  # atno 17371 bound_to 10713
  139.8717  134.9460  156.3926 LP  0  0  0  0  0  0  0  0  0  0  0  0  # atno 17394 bound_to 11000
  140.9239  133.7625  155.9941 LP  0  0  0  0  0  0  0  0  0  0  0  0  # atno 17395 bound_to 11000

$$$$
