AV-unprocessed.smi:3094|AV-procd|sdf|11788|dock4
  -GOLD-   2272017163D 1   1.00000     0.00000
 Structure written by MMmdl.
 30 31  0  0  0  0  0  0  0  0  2 V2000
  151.4158  140.2548  155.8679 C   0  0  0  0  0  0  0  0  0  0  0  0
  150.1214  141.0787  155.8416 C   0  0  2  0  0  0  0  0  0  0  0  0
  149.5730  141.2116  154.4044 C   0  0  0  0  0  0  0  0  0  0  0  0
  148.1090  141.2880  154.3559 N   0  0  0  0  0  0  0  0  0  0  0  0
  147.2941  142.0777  155.1257 C   0  0  0  0  0  0  0  0  0  0  0  0
  146.0087  141.8243  154.7215 C   0  0  0  0  0  0  0  0  0  0  0  0
  146.0928  140.8873  153.7266 N   0  3  0  0  0  0  0  0  0  0  0  0
  147.3704  140.5588  153.5090 C   0  0  0  0  0  0  0  0  0  0  0  0
  150.3865  142.3914  156.4300 N   0  0  0  0  0  0  0  0  0  0  0  0
  151.0457  142.6214  157.5769 C   0  0  0  0  0  0  0  0  0  0  0  0
  151.4957  141.7203  158.2864 O   0  0  0  0  0  0  0  0  0  0  0  0
  151.1680  144.0683  157.9246 C   0  0  0  0  0  0  0  0  0  0  0  0
  152.5620  144.6436  158.0716 C   0  0  0  0  0  0  0  0  0  0  0  0
  151.7119  144.4134  159.2958 C   0  0  0  0  0  0  0  0  0  0  0  0
  151.2518  139.2532  155.4697 H   0  0  0  0  0  0  0  0  0  0  0  0
  151.7910  140.1447  156.8861 H   0  0  0  0  0  0  0  0  0  0  0  0
  152.1998  140.7245  155.2724 H   0  0  0  0  0  0  0  0  0  0  0  0
  149.3899  140.5446  156.4510 H   0  0  0  0  0  0  0  0  0  0  0  0
  149.9880  142.0896  153.9066 H   0  0  0  0  0  0  0  0  0  0  0  0
  149.8641  140.3455  153.8085 H   0  0  0  0  0  0  0  0  0  0  0  0
  147.6802  142.7493  155.8788 H   0  0  0  0  0  0  0  0  0  0  0  0
  145.0658  142.2307  155.0574 H   0  0  0  0  0  0  0  0  0  0  0  0
  147.7338  139.8527  152.7837 H   0  0  0  0  0  0  0  0  0  0  0  0
  150.0540  143.1930  155.9133 H   0  0  0  0  0  0  0  0  0  0  0  0
  150.4032  144.7322  157.5234 H   0  0  0  0  0  0  0  0  0  0  0  0
  153.4164  143.9848  157.9250 H   0  0  0  0  0  0  0  0  0  0  0  0
  152.7109  145.6687  157.7383 H   0  0  0  0  0  0  0  0  0  0  0  0
  151.2842  145.2826  159.7910 H   0  0  0  0  0  0  0  0  0  0  0  0
  152.0007  143.6011  159.9605 H   0  0  0  0  0  0  0  0  0  0  0  0
  145.3039  140.4991  153.2251 H   0  0  0  0  0  0  0  0  0  0  0  0
  1  2  1  0  0  0  0
  1 15  1  0  0  0  0
  1 16  1  0  0  0  0
  1 17  1  0  0  0  0
  2  3  1  0  0  0  0
  2  9  1  0  0  0  0
  2 18  1  0  0  0  0
  3  4  1  0  0  0  0
  3 19  1  0  0  0  0
  3 20  1  0  0  0  0
  4  8  1  0  0  0  0
  4  5  1  0  0  0  0
  5  6  2  0  0  0  0
  5 21  1  0  0  0  0
  6  7  1  0  0  0  0
  6 22  1  0  0  0  0
  7  8  2  0  0  0  0
  7 30  1  0  0  0  0
  8 23  1  0  0  0  0
  9 10  1  0  0  0  0
  9 24  1  0  0  0  0
 10 11  2  0  0  0  0
 10 12  1  0  0  0  0
 12 14  1  0  0  0  0
 12 13  1  0  0  0  0
 12 25  1  0  0  0  0
 13 14  1  0  0  0  0
 13 26  1  0  0  0  0
 13 27  1  0  0  0  0
 14 28  1  0  0  0  0
 14 29  1  0  0  0  0
M  CHG  1   7   1
M  END
> <s_m_source_file>
AV-unprocessed.smi

> <i_m_source_file_index>
3094

> <i_lp_mmshare_version>
43012

> <i_f3d_flags>
0

> <s_epik_input>
W0NIMl0xW0NIMl1bQ0hdMUMoPU8pW05IXVtDQEhdKFtDSDNdKVtDSDJdbjJbY0hdW2NIXW5bY0hdMg==

> <s_epik_cmdline>
J2VwaWtfcHl0aG9uJywgJy1waCcsICc3LjAnLCAnLXRuJywgJzgnLCAnLW1hJywgJzIwMCcsICctbWV0YWxfYmluZGluZycsICctaW1hZScsICc8aW5maWxlLm1hZT4nLCAnLW9tYWUnLCAnPG91dGZpbGUubWFlPic=

> <r_lp_tautomer_probability>
1

> <r_epik_Ionization_Penalty>
0.244425

> <r_epik_Ionization_Penalty_Charging>
0

> <r_epik_Ionization_Penalty_Neutral>
0.244425

> <r_epik_State_Penalty>
0.23553

> <r_epik_Charging_Adjusted_Penalty>
0.23553

> <i_epik_Tot_Q>
1

> <i_epik_Tot_abs_Q>
1

> <r_epik_Metal_State_Penalty>
0.528799

> <b_epik_Metal_Only>
0

> <s_lp_Force_Field>
OPLS_2005

> <r_lp_Energy>
8.8376

> <b_lp_Chiralities_Consistent>
1

> <s_lp_Variant>
AV-unprocessed.smi:3094-1

> <Gold.Version>
5.8.1

> <Gold.Id.Protein>
6NUR|6NUR_protein|mol2

> <Gold.PLP.Fitness>
47.3762

> <Gold.PLP.PLP>
-33.7768

> <Gold.PLP.part.hbond>
-2.0000

> <Gold.PLP.part.metal>
0.0000

> <Gold.PLP.part.buried>
-0.1814

> <Gold.PLP.part.nonpolar>
-32.2422

> <Gold.PLP.part.repulsive>
0.0917

> <Gold.PLP.ligand.clash>
0.0000

> <Gold.PLP.ligand.torsion>
0.7392

> <Gold.PLP.Chemscore.Hbond>
3.0000

> <Gold.PLP.Chemscore.CHOScore>
1.9972

> <Gold.PLP.Chemscore.Metal>
0.0000

> <Gold.Chemscore.Hbonds>
donor molecule, donor type, donor heavy atom, donor atom, acceptor molecule, acceptor atom, score
      L1  H     7    30       P1 10175  2.00
      L1  H     9    24       P1  8028  1.00
      L1  C     5    21       P1  8028  1.00
      L1  C     8    23       P1  7957  1.00

> <Gold.PLP.Chemscore.Internal.Correction>
0.0862

> <Gold.Rescore>
     Score         DG    S(hbond)    S(metal)    S(lipo)     H(rot)  DE(clash)    DE(int)     intcor
     13.14     -15.32       1.94        0.00      70.45       1.90       0.31       1.87       ----

> <Gold.Chemscore.Fitness>
13.1424

> <Gold.Chemscore.DG>
-15.3232

> <Gold.Chemscore.ZeroCoef>
-5.4800

> <Gold.Chemscore.Hbond>
1.9369

> <Gold.Chemscore.Metal>
0.0000

> <Gold.Chemscore.Lipo>
70.4536

> <Gold.Chemscore.Internal_Hbond>
0.0000

> <Gold.Chemscore.DEClash>
0.3102

> <Gold.Chemscore.DEInternal>
1.8706

> <Gold.Chemscore.Rot>
1.9019

> <Gold.Chemscore.Internal.Correction>
   9.000000E+99

> <Gold.Chemscore.Hbonds>
donor molecule, donor type, donor heavy atom, donor atom, acceptor molecule, acceptor atom, score
      L1  H     7    30       P1 10175  0.94
      L1  H     9    24       P1  8028  0.96

> <Gold.Chemscore.Hbond.Weighted>
-6.4691

> <Gold.Chemscore.Metal.Weighted>
-0.0000

> <Gold.Chemscore.Lipo.Weighted>
-8.2431

> <Gold.Chemscore.Internal_Hbond.Weighted>
0.0000

> <Gold.Chemscore.DEClash.Weighted>
0.3102

> <Gold.Chemscore.DEInternal.Weighted>
1.8706

> <Gold.Chemscore.Rot.Weighted>
4.8689

> <Gold.Chemscore.Internal.Correction.Weighted>
   9.000000E+99

> <Gold.Protein.RotatedTorsions>
[ 6907 6896 6895 6894 ] final  168.07 input  -60.11 | X-H torsion
[ 7974 7965 7964 7962 ] final   -5.11 input  175.53 | X-H torsion
[ 8008 7997 7996 7995 ] final   -5.43 input   59.86 | X-H torsion
[ 10167 10162 10161 10158 ] final   49.72 input  -65.29 | X-H torsion
[ 10718 10713 10712 10709 ] final   72.95 input   66.30 | X-H torsion
[ 10763 10752 10751 10750 ] final -160.61 input  -60.55 | X-H torsion
[ 11005 11000 10999 10996 ] final  -52.92 input  -57.11 | X-H torsion

> <Gold.Protein.ActiveResidues>
 VAL166  LYS551  ARG553  GLY616  TRP617  ASP618  TYR619  PRO620  LYS621  CYS622 
 ASP623  PHE694  ASN695  SER759  ASP760  ASP761  ALA762  ILE779  LEU786  VAL792 
 PHE793  MET794  SER795  GLU796  ALA797  LYS798  CYS799  TRP800  GLU811  SER814 

> <Gold.Protein.RotatedAtoms>
  151.8534  133.3444  159.3680 H   0  0  0  0  0  0  0  0  0  0  0  0  # atno 6907 bound_to 6896
  150.7200  134.5276  159.5694 H   0  0  0  0  0  0  0  0  0  0  0  0  # atno 6908 bound_to 6896
  152.2775  134.7866  160.0454 H   0  0  0  0  0  0  0  0  0  0  0  0  # atno 6909 bound_to 6896
  146.2359  140.1972  142.8333 H   0  0  0  0  0  0  0  0  0  0  0  0  # atno 7974 bound_to 7965
  154.6040  140.2459  155.7755 H   0  0  0  0  0  0  0  0  0  0  0  0  # atno 8008 bound_to 7997
  156.2329  140.2960  156.0187 H   0  0  0  0  0  0  0  0  0  0  0  0  # atno 8009 bound_to 7997
  155.2163  140.0399  157.2932 H   0  0  0  0  0  0  0  0  0  0  0  0  # atno 8010 bound_to 7997
  140.2799  144.3168  150.6267 H   0  0  0  0  0  0  0  0  0  0  0  0  # atno 10167 bound_to 10162
  157.6525  130.9604  150.1000 H   0  0  0  0  0  0  0  0  0  0  0  0  # atno 10718 bound_to 10713
  154.7375  135.3061  154.8785 H   0  0  0  0  0  0  0  0  0  0  0  0  # atno 10763 bound_to 10752
  153.9609  135.6753  153.4749 H   0  0  0  0  0  0  0  0  0  0  0  0  # atno 10764 bound_to 10752
  153.0977  135.4927  154.8732 H   0  0  0  0  0  0  0  0  0  0  0  0  # atno 10765 bound_to 10752
  141.0949  133.6626  156.4096 H   0  0  0  0  0  0  0  0  0  0  0  0  # atno 11005 bound_to 11000
  144.9811  140.8459  143.5397 LP  0  0  0  0  0  0  0  0  0  0  0  0  # atno 17320 bound_to 7965
  145.1966  139.2274  143.5215 LP  0  0  0  0  0  0  0  0  0  0  0  0  # atno 17321 bound_to 7965
  140.5820  143.2172  151.7411 LP  0  0  0  0  0  0  0  0  0  0  0  0  # atno 17342 bound_to 10162
  139.4965  144.4066  152.0125 LP  0  0  0  0  0  0  0  0  0  0  0  0  # atno 17343 bound_to 10162
  156.1925  130.3655  149.8891 LP  0  0  0  0  0  0  0  0  0  0  0  0  # atno 17370 bound_to 10713
  156.6816  130.8860  151.3576 LP  0  0  0  0  0  0  0  0  0  0  0  0  # atno 17371 bound_to 10713
  140.5163  134.6347  157.5302 LP  0  0  0  0  0  0  0  0  0  0  0  0  # atno 17394 bound_to 11000
  139.9784  134.7178  155.9906 LP  0  0  0  0  0  0  0  0  0  0  0  0  # atno 17395 bound_to 11000

$$$$
