#       Name:                AV-unprocessed.smi:1239
#       Creating user name   scv26
#       Creation time:       Fri Mar 27 04:27:57 2020


#       File generated by GOLD software.
#

@<TRIPOS>MOLECULE
AV-unprocessed.smi:1239
    53    54     1
SMALL
NO_CHARGES


@<TRIPOS>ATOM
      1 ****        -2.6319   2.2075  -3.5065 C.3            1 S1                 0.0000
      2 ****        -3.1536   1.2238  -2.4292 C.3            1 S1                 0.0000
      3 ****        -2.6824  -0.2444  -2.6185 C.3            1 S1                 0.0000
      4 ****        -1.2414  -0.3945  -2.3871 N.pl3          1 S1                -1.0000
      5 ****        -0.6716  -0.7615  -1.2075 C.2            1 S1                 0.0000
      6 ****        -1.2375  -0.9246  -0.1205 O.2            1 S1                 0.0000
      7 ****         0.6622  -0.8978  -1.3100 N.am           1 S1                 0.0000
      8 ****         1.6060  -1.3016  -0.3271 C.ar           1 S1                 0.0000
      9 ****         2.9558  -0.9488  -0.5297 C.ar           1 S1                 0.0000
     10 ****         3.9331  -1.3441   0.4065 C.ar           1 S1                 0.0000
     11 ****         3.5557  -2.1043   1.5407 C.ar           1 S1                 0.0000
     12 ****         4.4741  -2.5388   2.5210 N.pl3          1 S1                 0.0000
     13 ****         4.0092  -3.3570   3.6357 C.3            1 S1                 0.0000
     14 ****         5.8975  -2.2856   2.3404 C.3            1 S1                 0.0000
     15 ****         2.2481  -2.4311   1.6846 N.pl3          1 S1                 1.0000
     16 ****         1.2805  -2.0734   0.8131 C.ar           1 S1                 0.0000
     17 ****        -2.9473   1.6808  -1.0178 N.4            1 S1                 1.0000
     18 ****        -1.8148   2.6136  -0.7716 C.3            1 S1                 0.0000
     19 ****        -1.6213   2.8107   0.7394 C.3            1 S1                 0.0000
     20 ****        -2.8240   3.3167   1.3061 O.3            1 S1                 0.0000
     21 ****        -3.9126   2.4156   1.1409 C.3            1 S1                 0.0000
     22 ****        -4.1769   2.1803  -0.3562 C.3            1 S1                 0.0000
     23 ****        -2.9168   1.8918  -4.5118 H              1 S1                 0.0000
     24 ****        -1.5457   2.3114  -3.4968 H              1 S1                 0.0000
     25 ****        -3.0591   3.2003  -3.3623 H              1 S1                 0.0000
     26 ****        -4.2313   1.1808  -2.5930 H              1 S1                 0.0000
     27 ****        -3.2696  -0.8855  -1.9589 H              1 S1                 0.0000
     28 ****        -2.9460  -0.5652  -3.6263 H              1 S1                 0.0000
     29 ****         1.0511  -0.6467  -2.2075 H              1 S1                 0.0000
     30 ****         3.2445  -0.3727  -1.3969 H              1 S1                 0.0000
     31 ****         4.9595  -1.0567   0.2359 H              1 S1                 0.0000
     32 ****         3.5822  -4.2920   3.2713 H              1 S1                 0.0000
     33 ****         3.2476  -2.8276   4.2094 H              1 S1                 0.0000
     34 ****         4.8252  -3.6036   4.3152 H              1 S1                 0.0000
     35 ****         6.0951  -1.2140   2.3019 H              1 S1                 0.0000
     36 ****         6.2527  -2.7404   1.4150 H              1 S1                 0.0000
     37 ****         6.4811  -2.7015   3.1617 H              1 S1                 0.0000
     38 ****         0.2930  -2.4332   1.0595 H              1 S1                 0.0000
     39 ****        -0.8948   2.2211  -1.2045 H              1 S1                 0.0000
     40 ****        -2.0091   3.5784  -1.2416 H              1 S1                 0.0000
     41 ****        -1.3392   1.8733   1.2219 H              1 S1                 0.0000
     42 ****        -0.8160   3.5213   0.9260 H              1 S1                 0.0000
     43 ****        -3.6979   1.4739   1.6487 H              1 S1                 0.0000
     44 ****        -4.7972   2.8392   1.6163 H              1 S1                 0.0000
     45 ****        -4.5026   3.1040  -0.8368 H              1 S1                 0.0000
     46 ****        -4.9832   1.4541  -0.4677 H              1 S1                 0.0000
     47 ****         1.9776  -2.9861   2.4965 H              1 S1                 0.0000
     48 ****        -2.7066   0.8326  -0.5231 H              1 S1                 0.0000
     49 ****        -0.6299  -0.2127  -3.1571 LP             1 S1                 0.0000
     50 ****        -2.2247  -0.7839  -0.0446 LP             1 S1                 0.0000
     51 ****        -0.7081  -1.1972   0.6829 LP             1 S1                 0.0000
     52 ****        -3.0514   4.1826   0.8605 LP             1 S1                 0.0000
     53 ****        -2.6797   3.4726   2.2833 LP             1 S1                 0.0000
@<TRIPOS>BOND
    1    1    2 1     
    2    1   23 1     
    3    1   24 1     
    4    1   25 1     
    5    2    3 1     
    6    2   17 1     
    7    2   26 1     
    8    3    4 1     
    9    3   27 1     
   10    3   28 1     
   11    4    5 1     
   12    5    6 2     
   13    5    7 am    
   14    7    8 1     
   15    7   29 1     
   16    8   16 ar    
   17    8    9 ar    
   18    9   10 ar    
   19    9   30 1     
   20   10   11 ar    
   21   10   31 1     
   22   11   12 1     
   23   11   15 ar    
   24   12   13 1     
   25   12   14 1     
   26   13   32 1     
   27   13   33 1     
   28   13   34 1     
   29   14   35 1     
   30   14   36 1     
   31   14   37 1     
   32   15   16 ar    
   33   15   47 1     
   34   16   38 1     
   35   17   22 1     
   36   17   18 1     
   37   17   48 1     
   38   18   19 1     
   39   18   39 1     
   40   18   40 1     
   41   19   20 1     
   42   19   41 1     
   43   19   42 1     
   44   20   21 1     
   45   21   22 1     
   46   21   43 1     
   47   21   44 1     
   48   22   45 1     
   49   22   46 1     
   50    4   49 1     
   51    6   50 1     
   52    6   51 1     
   53   20   52 1     
   54   20   53 1     
@<TRIPOS>SUBSTRUCTURE
      1 S1             1
@<TRIPOS>SET
LONE_PAIRS      STATIC     ATOMS    <user>   **** ""
5 49 50 51 52 53
DONOR_HYDROGENS      STATIC     ATOMS    <user>   **** ""
3 29 47 48
ATOM$BLUE        STATIC     ATOMS    COLORGROUP SYSTEM
5 49 50 51 52 53
ATOM$RED        STATIC     ATOMS    COLORGROUP SYSTEM
3 29 47 48
