#       Name:                AV-unprocessed.smi:667
#       Creating user name   scv26
#       Creation time:       Fri Mar 27 00:20:39 2020


#       File generated by GOLD software.
#

@<TRIPOS>MOLECULE
AV-unprocessed.smi:667
    53    54     1
SMALL
NO_CHARGES


@<TRIPOS>ATOM
      1 ****        -3.0756   0.1148   1.2532 C.3            1 S1                 0.0000
      2 ****        -2.4421   0.8334   0.0963 C.2            1 S1                 0.0000
      3 ****        -2.1437   2.1146   0.2291 N.2            1 S1                 0.0000
      4 ****        -1.5862   2.4631  -0.9473 N.pl3          1 S1                 0.0000
      5 ****        -1.1242   3.8236  -1.1409 C.3            1 S1                 0.0000
      6 ****        -1.5363   1.4009  -1.8280 C.2            1 S1                 0.0000
      7 ****        -0.9530   1.5314  -3.1981 C.3            1 S1                 0.0000
      8 ****        -2.0798   0.3204  -1.1853 C.2            1 S1                 0.0000
      9 ****        -2.2315  -1.0921  -1.6935 C.3            1 S1                 0.0000
     10 ****        -0.9259  -1.8414  -1.4351 C.2            1 S1                 0.0000
     11 ****        -0.0783  -1.9259  -2.3233 O.2            1 S1                 0.0000
     12 ****        -0.7598  -2.3280  -0.1955 N.am           1 S1                 0.0000
     13 ****         0.4913  -2.8441   0.3513 C.3            1 S1                 0.0000
     14 ****         1.1117  -1.8896   1.3962 C.3            1 S1                 0.0000
     15 ****         0.2839  -1.6978   2.6547 C.3            1 S1                 0.0000
     16 ****         0.8676  -0.4152   3.2504 C.3            1 S1                 0.0000
     17 ****         1.5153   0.2705   2.1811 O.3            1 S1                 0.0000
     18 ****         1.2951  -0.4266   0.9610 C.3            1 S1                 0.0000
     19 ****         2.4119  -0.1453  -0.0679 C.3            1 S1                 0.0000
     20 ****         3.8216  -0.4789   0.4505 C.3            1 S1                 0.0000
     21 ****         2.3416   1.3079  -0.5614 C.3            1 S1                 0.0000
     22 ****        -3.0082  -0.9668   1.1395 H              1 S1                 0.0000
     23 ****        -4.1307   0.3736   1.3416 H              1 S1                 0.0000
     24 ****        -2.5875   0.3744   2.1934 H              1 S1                 0.0000
     25 ****        -1.6298   4.2637  -2.0006 H              1 S1                 0.0000
     26 ****        -0.0490   3.8220  -1.3211 H              1 S1                 0.0000
     27 ****        -1.3329   4.4316  -0.2594 H              1 S1                 0.0000
     28 ****        -0.9672   0.5792  -3.7279 H              1 S1                 0.0000
     29 ****         0.0828   1.8671  -3.1482 H              1 S1                 0.0000
     30 ****        -1.5149   2.2528  -3.7911 H              1 S1                 0.0000
     31 ****        -3.0548  -1.6136  -1.2045 H              1 S1                 0.0000
     32 ****        -2.4528  -1.1129  -2.7610 H              1 S1                 0.0000
     33 ****        -1.5244  -2.2191   0.4549 H              1 S1                 0.0000
     34 ****         0.2872  -3.8100   0.8138 H              1 S1                 0.0000
     35 ****         1.2159  -3.0395  -0.4406 H              1 S1                 0.0000
     36 ****         2.0730  -2.3010   1.7040 H              1 S1                 0.0000
     37 ****        -0.7663  -1.5404   2.4078 H              1 S1                 0.0000
     38 ****         0.3447  -2.5453   3.3378 H              1 S1                 0.0000
     39 ****         0.0945   0.2078   3.7013 H              1 S1                 0.0000
     40 ****         1.6090  -0.6432   4.0165 H              1 S1                 0.0000
     41 ****         0.3515  -0.0498   0.5656 H              1 S1                 0.0000
     42 ****         2.2257  -0.7789  -0.9358 H              1 S1                 0.0000
     43 ****         4.0615   0.0914   1.3482 H              1 S1                 0.0000
     44 ****         4.5767  -0.2439  -0.3000 H              1 S1                 0.0000
     45 ****         3.9273  -1.5369   0.6865 H              1 S1                 0.0000
     46 ****         2.5227   2.0125   0.2507 H              1 S1                 0.0000
     47 ****         1.3620   1.5325  -0.9828 H              1 S1                 0.0000
     48 ****         3.0827   1.4966  -1.3384 H              1 S1                 0.0000
     49 ****        -2.2979   2.6971   1.0272 LP             1 S1                 0.0000
     50 ****        -0.2443  -1.5039  -3.2145 LP             1 S1                 0.0000
     51 ****         0.7763  -2.4166  -2.1537 LP             1 S1                 0.0000
     52 ****         2.4972   0.3188   2.3638 LP             1 S1                 0.0000
     53 ****         1.1441   1.1961   2.1067 LP             1 S1                 0.0000
@<TRIPOS>BOND
    1    1    2 1     
    2    1   22 1     
    3    1   23 1     
    4    1   24 1     
    5    2    8 1     
    6    2    3 2     
    7    3    4 1     
    8    4    5 1     
    9    4    6 1     
   10    5   25 1     
   11    5   26 1     
   12    5   27 1     
   13    6    7 1     
   14    6    8 2     
   15    7   28 1     
   16    7   29 1     
   17    7   30 1     
   18    8    9 1     
   19    9   10 1     
   20    9   31 1     
   21    9   32 1     
   22   10   11 2     
   23   10   12 am    
   24   12   13 1     
   25   12   33 1     
   26   13   14 1     
   27   13   34 1     
   28   13   35 1     
   29   14   18 1     
   30   14   15 1     
   31   14   36 1     
   32   15   16 1     
   33   15   37 1     
   34   15   38 1     
   35   16   17 1     
   36   16   39 1     
   37   16   40 1     
   38   17   18 1     
   39   18   19 1     
   40   18   41 1     
   41   19   20 1     
   42   19   21 1     
   43   19   42 1     
   44   20   43 1     
   45   20   44 1     
   46   20   45 1     
   47   21   46 1     
   48   21   47 1     
   49   21   48 1     
   50    3   49 1     
   51   11   50 1     
   52   11   51 1     
   53   17   52 1     
   54   17   53 1     
@<TRIPOS>SUBSTRUCTURE
      1 S1             1
@<TRIPOS>SET
LONE_PAIRS      STATIC     ATOMS    <user>   **** ""
5 49 50 51 52 53
DONOR_HYDROGENS      STATIC     ATOMS    <user>   **** ""
1 33
ATOM$BLUE        STATIC     ATOMS    COLORGROUP SYSTEM
5 49 50 51 52 53
ATOM$RED        STATIC     ATOMS    COLORGROUP SYSTEM
1 33
