#       Name:                AV-unprocessed.smi:3046
#       Creating user name   scv26
#       Creation time:       Fri Mar 27 16:59:58 2020


#       File generated by GOLD software.
#

@<TRIPOS>MOLECULE
AV-unprocessed.smi:3046
    41    41     1
SMALL
NO_CHARGES


@<TRIPOS>ATOM
      1 ****        -5.3790  -0.5711  -1.8773 C.2            1 S1                 0.0000
      2 ****        -4.0983  -0.2179  -1.6926 C.2            1 S1                 0.0000
      3 ****        -3.0110  -1.1574  -1.2180 C.3            1 S1                 0.0000
      4 ****        -2.3509  -0.6200  -0.0377 N.am           1 S1                 0.0000
      5 ****        -1.3067  -1.1982   0.5726 C.2            1 S1                 0.0000
      6 ****        -0.8038  -2.2561   0.1925 O.2            1 S1                 0.0000
      7 ****        -0.7525  -0.4823   1.8115 C.3            1 S1                 0.0000
      8 ****        -1.2620  -1.1724   3.0858 C.3            1 S1                 0.0000
      9 ****         0.7295  -0.4575   1.8146 N.4            1 S1                 1.0000
     10 ****         1.3627   0.4791   0.8562 C.3            1 S1                 0.0000
     11 ****         2.3039   1.4314   1.6112 C.3            1 S1                 0.0000
     12 ****         2.0864  -0.3053  -0.2590 C.3            1 S1                 0.0000
     13 ****         2.6669   0.5603  -1.2690 N.pl3          1 S1                 0.0000
     14 ****         3.9983   0.8115  -1.5268 C.2            1 S1                 0.0000
     15 ****         4.0501   1.6845  -2.5756 C.2            1 S1                 0.0000
     16 ****         2.6823   1.9070  -2.8990 C.2            1 S1                 0.0000
     17 ****         1.8569   1.2315  -2.1159 N.2            1 S1                 0.0000
     18 ****        -5.7170  -1.5793  -1.6871 H              1 S1                 0.0000
     19 ****        -6.1081   0.1472  -2.2226 H              1 S1                 0.0000
     20 ****        -3.7983   0.7996  -1.8977 H              1 S1                 0.0000
     21 ****        -3.4307  -2.1396  -0.9945 H              1 S1                 0.0000
     22 ****        -2.2840  -1.2851  -2.0214 H              1 S1                 0.0000
     23 ****        -2.7144   0.2439   0.3386 H              1 S1                 0.0000
     24 ****        -1.1124   0.5482   1.8270 H              1 S1                 0.0000
     25 ****        -2.3521  -1.1744   3.1262 H              1 S1                 0.0000
     26 ****        -0.9047  -0.6583   3.9788 H              1 S1                 0.0000
     27 ****        -0.9257  -2.2086   3.1445 H              1 S1                 0.0000
     28 ****         1.0215  -0.1784   2.7402 H              1 S1                 0.0000
     29 ****         0.5872   1.0927   0.3945 H              1 S1                 0.0000
     30 ****         2.7279   2.1848   0.9469 H              1 S1                 0.0000
     31 ****         3.1311   0.8900   2.0715 H              1 S1                 0.0000
     32 ****         1.7718   1.9615   2.4017 H              1 S1                 0.0000
     33 ****         2.8791  -0.9230   0.1651 H              1 S1                 0.0000
     34 ****         1.3983  -0.9863  -0.7604 H              1 S1                 0.0000
     35 ****         4.7892   0.3562  -0.9491 H              1 S1                 0.0000
     36 ****         4.9310   2.0992  -3.0428 H              1 S1                 0.0000
     37 ****         2.2676   2.5344  -3.6742 H              1 S1                 0.0000
     38 ****         1.0713  -1.3923   1.6415 H              1 S1                 0.0000
     39 ****        -1.1744  -2.7265  -0.6084 LP             1 S1                 0.0000
     40 ****        -0.0249  -2.6447   0.6847 LP             1 S1                 0.0000
     41 ****         0.8573   1.2205  -2.1447 LP             1 S1                 0.0000
@<TRIPOS>BOND
    1    1    2 2     
    2    1   18 1     
    3    1   19 1     
    4    2    3 1     
    5    2   20 1     
    6    3    4 1     
    7    3   21 1     
    8    3   22 1     
    9    4    5 am    
   10    4   23 1     
   11    5    6 2     
   12    5    7 1     
   13    7    8 1     
   14    7    9 1     
   15    7   24 1     
   16    8   25 1     
   17    8   26 1     
   18    8   27 1     
   19    9   10 1     
   20    9   28 1     
   21    9   38 1     
   22   10   11 1     
   23   10   12 1     
   24   10   29 1     
   25   11   30 1     
   26   11   31 1     
   27   11   32 1     
   28   12   13 1     
   29   12   33 1     
   30   12   34 1     
   31   13   17 1     
   32   13   14 1     
   33   14   15 2     
   34   14   35 1     
   35   15   16 1     
   36   15   36 1     
   37   16   17 2     
   38   16   37 1     
   39    6   39 1     
   40    6   40 1     
   41   17   41 1     
@<TRIPOS>SUBSTRUCTURE
      1 S1             1
@<TRIPOS>SET
LONE_PAIRS      STATIC     ATOMS    <user>   **** ""
3 39 40 41
DONOR_HYDROGENS      STATIC     ATOMS    <user>   **** ""
3 23 28 38
ATOM$BLUE        STATIC     ATOMS    COLORGROUP SYSTEM
3 39 40 41
ATOM$RED        STATIC     ATOMS    COLORGROUP SYSTEM
3 23 28 38
