AV-unprocessed.smi:1766|AV-procd|sdf|7137|dock1
  -GOLD-   22720 8373D 1   1.00000     0.00000
 Structure written by MMmdl.
 40 42  0  0  0  0  0  0  0  0  2 V2000
  149.1135  134.8771  154.5349 N   0  0  0  0  0  0  0  0  0  0  0  0
  149.1199  133.5736  154.8254 C   0  0  0  0  0  0  0  0  0  0  0  0
  149.1836  133.1580  155.9806 O   0  0  0  0  0  0  0  0  0  0  0  0
  149.0476  132.5916  153.6537 C   0  0  0  0  0  0  0  0  0  0  0  0
  147.7763  132.7734  152.8788 C   0  0  0  0  0  0  0  0  0  0  0  0
  147.3927  133.9163  152.2387 N   0  3  0  0  0  0  0  0  0  0  0  0
  146.1544  133.7274  151.6264 C   0  0  0  0  0  0  0  0  0  0  0  0
  145.3670  134.5953  150.8762 C   0  0  0  0  0  0  0  0  0  0  0  0
  144.1442  134.0835  150.3945 C   0  0  0  0  0  0  0  0  0  0  0  0
  143.7470  132.7574  150.6631 C   0  0  0  0  0  0  0  0  0  0  0  0
  144.5558  131.8864  151.4228 C   0  0  0  0  0  0  0  0  0  0  0  0
  145.7632  132.4006  151.8954 C   0  0  0  0  0  0  0  0  0  0  0  0
  146.7958  131.8459  152.6608 N   0  0  0  0  0  0  0  0  0  0  0  0
  146.6832  130.4410  153.0872 C   0  0  0  0  0  0  0  0  0  0  0  0
  146.5971  129.4552  151.9054 C   0  0  2  0  0  0  0  0  0  0  0  0
  145.2690  128.9912  151.7611 O   0  0  0  0  0  0  0  0  0  0  0  0
  147.5910  128.3161  152.0677 C   0  0  0  0  0  0  0  0  0  0  0  0
  148.2968  128.1652  153.2808 C   0  0  0  0  0  0  0  0  0  0  0  0
  149.2122  127.1069  153.4426 C   0  0  0  0  0  0  0  0  0  0  0  0
  149.4255  126.1923  152.3935 C   0  0  0  0  0  0  0  0  0  0  0  0
  150.3057  125.1754  152.5494 F   0  0  0  0  0  0  0  0  0  0  0  0
  148.7217  126.3353  151.1825 C   0  0  0  0  0  0  0  0  0  0  0  0
  147.8057  127.3929  151.0202 C   0  0  0  0  0  0  0  0  0  0  0  0
  149.1656  135.5566  155.2803 H   0  0  0  0  0  0  0  0  0  0  0  0
  149.0625  135.1810  153.5729 H   0  0  0  0  0  0  0  0  0  0  0  0
  149.8960  132.7581  152.9891 H   0  0  0  0  0  0  0  0  0  0  0  0
  149.1321  131.5699  154.0226 H   0  0  0  0  0  0  0  0  0  0  0  0
  145.6697  135.6116  150.6699 H   0  0  0  0  0  0  0  0  0  0  0  0
  143.4981  134.7208  149.8081 H   0  0  0  0  0  0  0  0  0  0  0  0
  142.8024  132.4010  150.2783 H   0  0  0  0  0  0  0  0  0  0  0  0
  144.2409  130.8730  151.6233 H   0  0  0  0  0  0  0  0  0  0  0  0
  147.5386  130.2068  153.7220 H   0  0  0  0  0  0  0  0  0  0  0  0
  145.8066  130.3496  153.7282 H   0  0  0  0  0  0  0  0  0  0  0  0
  146.8387  129.9869  150.9843 H   0  0  0  0  0  0  0  0  0  0  0  0
  145.2618  128.3072  151.1087 H   0  0  0  0  0  0  0  0  0  0  0  0
  148.1387  128.8596  154.0930 H   0  0  0  0  0  0  0  0  0  0  0  0
  149.7506  126.9963  154.3723 H   0  0  0  0  0  0  0  0  0  0  0  0
  148.8838  125.6328  150.3782 H   0  0  0  0  0  0  0  0  0  0  0  0
  147.2669  127.4914  150.0891 H   0  0  0  0  0  0  0  0  0  0  0  0
  147.9408  134.7672  152.2328 H   0  0  0  0  0  0  0  0  0  0  0  0
  1  2  1  0  0  0  0
  1 24  1  0  0  0  0
  1 25  1  0  0  0  0
  2  3  2  0  0  0  0
  2  4  1  0  0  0  0
  4  5  1  0  0  0  0
  4 26  1  0  0  0  0
  4 27  1  0  0  0  0
  5 13  1  0  0  0  0
  5  6  2  0  0  0  0
  6  7  1  0  0  0  0
  6 40  1  0  0  0  0
  7 12  2  0  0  0  0
  7  8  1  0  0  0  0
  8  9  2  0  0  0  0
  8 28  1  0  0  0  0
  9 10  1  0  0  0  0
  9 29  1  0  0  0  0
 10 11  2  0  0  0  0
 10 30  1  0  0  0  0
 11 12  1  0  0  0  0
 11 31  1  0  0  0  0
 12 13  1  0  0  0  0
 13 14  1  0  0  0  0
 14 15  1  0  0  0  0
 14 32  1  0  0  0  0
 14 33  1  0  0  0  0
 15 16  1  0  0  0  0
 15 17  1  0  0  0  0
 15 34  1  0  0  0  0
 16 35  1  0  0  0  0
 17 23  1  0  0  0  0
 17 18  2  0  0  0  0
 18 19  1  0  0  0  0
 18 36  1  0  0  0  0
 19 20  2  0  0  0  0
 19 37  1  0  0  0  0
 20 21  1  0  0  0  0
 20 22  1  0  0  0  0
 22 23  2  0  0  0  0
 22 38  1  0  0  0  0
 23 39  1  0  0  0  0
M  CHG  1   6   1
M  END
> <s_m_source_file>
AV-unprocessed.smi

> <i_m_source_file_index>
1766

> <i_lp_mmshare_version>
43012

> <i_f3d_flags>
0

> <s_epik_input>
W2NIXTFbY0hdW2NIXVtjSF1jKGMxMiluKGMobjIpW0NIMl1DKD1PKVtOSDJdKVtDSDJdW0NASF0oW09IXSljM1tjSF1bY0hdYyhGKVtjSF1bY0hdMw==

> <s_epik_cmdline>
J2VwaWtfcHl0aG9uJywgJy1waCcsICc3LjAnLCAnLXRuJywgJzgnLCAnLW1hJywgJzIwMCcsICctbWV0YWxfYmluZGluZycsICctaW1hZScsICc8aW5maWxlLm1hZT4nLCAnLW9tYWUnLCAnPG91dGZpbGUubWFlPic=

> <r_epik_Ionization_Penalty>
1.66646

> <r_epik_Ionization_Penalty_Charging>
1.66645

> <r_epik_Ionization_Penalty_Neutral>
2.12833e-06

> <r_epik_State_Penalty>
1.76975

> <r_epik_Charging_Adjusted_Penalty>
3.43621

> <i_epik_Tot_Q>
1

> <i_epik_Tot_abs_Q>
1

> <r_epik_Metal_State_Penalty>
1.80493

> <b_epik_Metal_Only>
0

> <s_lp_Force_Field>
OPLS_2005

> <r_lp_Energy>
14.4919

> <b_lp_Chiralities_Consistent>
1

> <s_lp_Variant>
AV-unprocessed.smi:1766-3

> <Gold.Version>
5.8.1

> <Gold.Id.Protein>
6NUR|6NUR_protein|mol2

> <Gold.PLP.Fitness>
52.4779

> <Gold.PLP.PLP>
-44.8941

> <Gold.PLP.part.hbond>
-2.0000

> <Gold.PLP.part.metal>
0.0000

> <Gold.PLP.part.buried>
-2.5018

> <Gold.PLP.part.nonpolar>
-40.1874

> <Gold.PLP.part.repulsive>
0.0487

> <Gold.PLP.ligand.clash>
0.0000

> <Gold.PLP.ligand.torsion>
0.7673

> <Gold.PLP.Chemscore.Hbond>
3.0000

> <Gold.PLP.Chemscore.CHOScore>
0.0000

> <Gold.PLP.Chemscore.Metal>
0.0000

> <Gold.Chemscore.Hbonds>
donor molecule, donor type, donor heavy atom, donor atom, acceptor molecule, acceptor atom, score
      L1  H     1    25       P1  7948  1.00
      L1  H     6    40       P1  7948  2.00

> <Gold.PLP.Chemscore.Internal.Correction>
0.1184

> <Gold.Rescore>
     Score         DG    S(hbond)    S(metal)    S(lipo)     H(rot)  DE(clash)    DE(int)     intcor
     13.10     -15.32       1.63        0.00     104.39       3.05       0.14       2.09       ----

> <Gold.Chemscore.Fitness>
13.0976

> <Gold.Chemscore.DG>
-15.3241

> <Gold.Chemscore.ZeroCoef>
-5.4800

> <Gold.Chemscore.Hbond>
1.6261

> <Gold.Chemscore.Metal>
0.0000

> <Gold.Chemscore.Lipo>
104.3876

> <Gold.Chemscore.Internal_Hbond>
0.0000

> <Gold.Chemscore.DEClash>
0.1398

> <Gold.Chemscore.DEInternal>
2.0867

> <Gold.Chemscore.Rot>
3.0470

> <Gold.Chemscore.Internal.Correction>
   9.000000E+99

> <Gold.Chemscore.Hbonds>
donor molecule, donor type, donor heavy atom, donor atom, acceptor molecule, acceptor atom, score
      L1  H     1    25       P1  7948  0.44
      L1  H     6    40       P1  7948  0.55

> <Gold.Chemscore.Hbond.Weighted>
-5.4312

> <Gold.Chemscore.Metal.Weighted>
-0.0000

> <Gold.Chemscore.Lipo.Weighted>
-12.2134

> <Gold.Chemscore.Internal_Hbond.Weighted>
0.0000

> <Gold.Chemscore.DEClash.Weighted>
0.1398

> <Gold.Chemscore.DEInternal.Weighted>
2.0867

> <Gold.Chemscore.Rot.Weighted>
7.8004

> <Gold.Chemscore.Internal.Correction.Weighted>
   9.000000E+99

> <Gold.Protein.RotatedTorsions>
[ 6907 6896 6895 6894 ] final  -56.27 input  -60.11 | X-H torsion
[ 7974 7965 7964 7962 ] final -102.45 input  175.53 | X-H torsion
[ 8008 7997 7996 7995 ] final   90.41 input   59.86 | X-H torsion
[ 10167 10162 10161 10158 ] final  -53.62 input  -65.29 | X-H torsion
[ 10718 10713 10712 10709 ] final -134.94 input   66.30 | X-H torsion
[ 10763 10752 10751 10750 ] final  176.36 input  -60.55 | X-H torsion
[ 11005 11000 10999 10996 ] final   38.27 input  -57.11 | X-H torsion

> <Gold.Protein.ActiveResidues>
 VAL166  LYS551  ARG553  GLY616  TRP617  ASP618  TYR619  PRO620  LYS621  CYS622 
 ASP623  PHE694  ASN695  SER759  ASP760  ASP761  ALA762  ILE779  LEU786  VAL792 
 PHE793  MET794  SER795  GLU796  ALA797  LYS798  CYS799  TRP800  GLU811  SER814 

> <Gold.Protein.RotatedAtoms>
  150.8182  134.7375  159.6748 H   0  0  0  0  0  0  0  0  0  0  0  0  # atno 6907 bound_to 6896
  152.4299  134.5794  159.9953 H   0  0  0  0  0  0  0  0  0  0  0  0  # atno 6908 bound_to 6896
  151.5985  133.3321  159.3078 H   0  0  0  0  0  0  0  0  0  0  0  0  # atno 6909 bound_to 6896
  145.2686  140.9291  143.2999 H   0  0  0  0  0  0  0  0  0  0  0  0  # atno 7974 bound_to 7965
  156.0116  140.3349  155.6947 H   0  0  0  0  0  0  0  0  0  0  0  0  # atno 8008 bound_to 7997
  155.6149  140.0669  157.2713 H   0  0  0  0  0  0  0  0  0  0  0  0  # atno 8009 bound_to 7997
  154.4283  140.1787  156.1299 H   0  0  0  0  0  0  0  0  0  0  0  0  # atno 8010 bound_to 7997
  140.6475  143.2544  151.4818 H   0  0  0  0  0  0  0  0  0  0  0  0  # atno 10167 bound_to 10162
  156.2608  130.7208  151.1142 H   0  0  0  0  0  0  0  0  0  0  0  0  # atno 10718 bound_to 10713
  154.4800  135.2774  155.1578 H   0  0  0  0  0  0  0  0  0  0  0  0  # atno 10763 bound_to 10752
  154.3292  135.6193  153.5547 H   0  0  0  0  0  0  0  0  0  0  0  0  # atno 10764 bound_to 10752
  152.9874  135.5761  154.5199 H   0  0  0  0  0  0  0  0  0  0  0  0  # atno 10765 bound_to 10752
  140.2143  134.3717  155.8034 H   0  0  0  0  0  0  0  0  0  0  0  0  # atno 11005 bound_to 11000
  144.9355  139.4249  143.6474 LP  0  0  0  0  0  0  0  0  0  0  0  0  # atno 17320 bound_to 7965
  146.3253  139.8288  142.8912 LP  0  0  0  0  0  0  0  0  0  0  0  0  # atno 17321 bound_to 7965
  139.5687  144.1981  152.1803 LP  0  0  0  0  0  0  0  0  0  0  0  0  # atno 17342 bound_to 10162
  140.1270  144.5322  150.6826 LP  0  0  0  0  0  0  0  0  0  0  0  0  # atno 17343 bound_to 10162
  157.7250  131.0656  150.5973 LP  0  0  0  0  0  0  0  0  0  0  0  0  # atno 17370 bound_to 10713
  156.6060  130.4367  149.5878 LP  0  0  0  0  0  0  0  0  0  0  0  0  # atno 17371 bound_to 10713
  141.2225  133.7159  156.8470 LP  0  0  0  0  0  0  0  0  0  0  0  0  # atno 17394 bound_to 11000
  140.1917  134.8960  157.3068 LP  0  0  0  0  0  0  0  0  0  0  0  0  # atno 17395 bound_to 11000

$$$$
