AV-unprocessed.smi:1762|AV-procd|sdf|7102|dock4
  -GOLD-   22720 8323D 1   1.00000     0.00000
 Structure written by MMmdl.
 52 53  0  0  0  0  0  0  0  0  1 V2000
  145.2002  142.9832  158.3196 C   0  0  0  0  0  0  0  0  0  0  0  0
  145.7939  143.4147  156.9742 C   0  0  1  0  0  0  0  0  0  0  0  0
  146.4578  142.2436  156.2248 C   0  0  0  0  0  0  0  0  0  0  0  0
  146.9646  142.6304  154.9028 N   0  0  0  0  0  0  0  0  0  0  0  0
  147.6368  141.5101  154.1866 C   0  0  1  0  0  0  0  0  0  0  0  0
  149.0572  141.2137  154.7240 C   0  0  0  0  0  0  0  0  0  0  0  0
  149.7316  140.3057  154.2366 O   0  0  0  0  0  0  0  0  0  0  0  0
  149.4814  141.9673  155.7509 N   0  0  0  0  0  0  0  0  0  0  0  0
  150.7634  141.8130  156.4270 C   0  0  0  0  0  0  0  0  0  0  0  0
  151.2828  143.1594  156.9587 C   0  0  0  0  0  0  0  0  0  0  0  0
  151.7956  143.0545  158.3822 C   0  0  0  0  0  0  0  0  0  0  0  0
  152.2201  141.8141  158.9049 C   0  0  0  0  0  0  0  0  0  0  0  0
  152.6966  141.7718  160.2294 C   0  0  0  0  0  0  0  0  0  0  0  0
  152.7310  142.9654  160.9758 C   0  0  0  0  0  0  0  0  0  0  0  0
  152.2851  144.1529  160.3621 C   0  0  0  0  0  0  0  0  0  0  0  0
  151.8265  144.2046  159.0928 N   0  0  0  0  0  0  0  0  0  0  0  0
  146.7968  140.1933  154.0761 C   0  0  0  0  0  0  0  0  0  0  0  0
  146.8170  139.3279  155.3516 C   0  0  0  0  0  0  0  0  0  0  0  0
  147.1528  139.3395  152.8423 C   0  0  0  0  0  0  0  0  0  0  0  0
  145.8653  143.2580  154.1479 C   0  0  0  0  0  0  0  0  0  0  0  0
  145.1973  144.4164  154.9135 C   0  0  1  0  0  0  0  0  0  0  0  0
  143.9933  144.9933  154.1601 C   0  0  0  0  0  0  0  0  0  0  0  0
  144.7439  143.9448  156.1758 O   0  0  0  0  0  0  0  0  0  0  0  0
  145.9707  142.5814  158.9779 H   0  0  0  0  0  0  0  0  0  0  0  0
  144.4383  142.2146  158.1863 H   0  0  0  0  0  0  0  0  0  0  0  0
  144.7357  143.8280  158.8288 H   0  0  0  0  0  0  0  0  0  0  0  0
  146.5329  144.1975  157.1545 H   0  0  0  0  0  0  0  0  0  0  0  0
  147.2666  141.8843  156.8578 H   0  0  0  0  0  0  0  0  0  0  0  0
  145.7467  141.4218  156.1238 H   0  0  0  0  0  0  0  0  0  0  0  0
  147.7820  141.8466  153.1576 H   0  0  0  0  0  0  0  0  0  0  0  0
  148.8651  142.6880  156.0977 H   0  0  0  0  0  0  0  0  0  0  0  0
  150.6746  141.0895  157.2392 H   0  0  0  0  0  0  0  0  0  0  0  0
  151.4737  141.3933  155.7141 H   0  0  0  0  0  0  0  0  0  0  0  0
  152.0857  143.5291  156.3192 H   0  0  0  0  0  0  0  0  0  0  0  0
  150.4925  143.9104  156.9204 H   0  0  0  0  0  0  0  0  0  0  0  0
  152.1845  140.9161  158.3056 H   0  0  0  0  0  0  0  0  0  0  0  0
  153.0305  140.8413  160.6644 H   0  0  0  0  0  0  0  0  0  0  0  0
  153.0909  142.9710  161.9942 H   0  0  0  0  0  0  0  0  0  0  0  0
  152.2978  145.0865  160.9050 H   0  0  0  0  0  0  0  0  0  0  0  0
  145.7600  140.4775  153.9044 H   0  0  0  0  0  0  0  0  0  0  0  0
  147.8069  138.9194  155.5521 H   0  0  0  0  0  0  0  0  0  0  0  0
  146.1319  138.4849  155.2576 H   0  0  0  0  0  0  0  0  0  0  0  0
  146.5073  139.8973  156.2281 H   0  0  0  0  0  0  0  0  0  0  0  0
  148.1423  138.8893  152.9254 H   0  0  0  0  0  0  0  0  0  0  0  0
  147.1310  139.9373  151.9307 H   0  0  0  0  0  0  0  0  0  0  0  0
  146.4387  138.5255  152.7146 H   0  0  0  0  0  0  0  0  0  0  0  0
  146.2169  143.6703  153.2027 H   0  0  0  0  0  0  0  0  0  0  0  0
  145.1153  142.5049  153.8997 H   0  0  0  0  0  0  0  0  0  0  0  0
  145.9243  145.2148  155.0730 H   0  0  0  0  0  0  0  0  0  0  0  0
  144.2885  145.3818  153.1852 H   0  0  0  0  0  0  0  0  0  0  0  0
  143.5391  145.8113  154.7198 H   0  0  0  0  0  0  0  0  0  0  0  0
  143.2272  144.2339  154.0005 H   0  0  0  0  0  0  0  0  0  0  0  0
  1  2  1  0  0  0  0
  1 24  1  0  0  0  0
  1 25  1  0  0  0  0
  1 26  1  0  0  0  0
  2 23  1  0  0  0  0
  2  3  1  0  0  0  0
  2 27  1  0  0  0  0
  3  4  1  0  0  0  0
  3 28  1  0  0  0  0
  3 29  1  0  0  0  0
  4  5  1  0  0  0  0
  4 20  1  0  0  0  0
  5  6  1  0  0  0  0
  5 17  1  0  0  0  0
  5 30  1  0  0  0  0
  6  7  2  0  0  0  0
  6  8  1  0  0  0  0
  8  9  1  0  0  0  0
  8 31  1  0  0  0  0
  9 10  1  0  0  0  0
  9 32  1  0  0  0  0
  9 33  1  0  0  0  0
 10 11  1  0  0  0  0
 10 34  1  0  0  0  0
 10 35  1  0  0  0  0
 11 16  1  0  0  0  0
 11 12  2  0  0  0  0
 12 13  1  0  0  0  0
 12 36  1  0  0  0  0
 13 14  2  0  0  0  0
 13 37  1  0  0  0  0
 14 15  1  0  0  0  0
 14 38  1  0  0  0  0
 15 16  2  0  0  0  0
 15 39  1  0  0  0  0
 17 18  1  0  0  0  0
 17 19  1  0  0  0  0
 17 40  1  0  0  0  0
 18 41  1  0  0  0  0
 18 42  1  0  0  0  0
 18 43  1  0  0  0  0
 19 44  1  0  0  0  0
 19 45  1  0  0  0  0
 19 46  1  0  0  0  0
 20 21  1  0  0  0  0
 20 47  1  0  0  0  0
 20 48  1  0  0  0  0
 21 22  1  0  0  0  0
 21 23  1  0  0  0  0
 21 49  1  0  0  0  0
 22 50  1  0  0  0  0
 22 51  1  0  0  0  0
 22 52  1  0  0  0  0
M  END
> <s_m_source_file>
AV-unprocessed.smi

> <i_m_source_file_index>
1762

> <i_lp_mmshare_version>
43012

> <i_f3d_flags>
0

> <s_epik_input>
W0NIM11bQ0BASF0xW0NIMl1OKFtDSDJdW0NASF0oTzEpW0NIM10pW0NAQEhdKFtDSF0oW0NIM10pW0NIM10pQyg9TylbTkhdW0NIMl1bQ0gyXWMyW2NIXVtjSF1bY0hdW2NIXW4y

> <s_epik_cmdline>
J2VwaWtfcHl0aG9uJywgJy1waCcsICc3LjAnLCAnLXRuJywgJzgnLCAnLW1hJywgJzIwMCcsICctbWV0YWxfYmluZGluZycsICctaW1hZScsICc8aW5maWxlLm1hZT4nLCAnLW9tYWUnLCAnPG91dGZpbGUubWFlPic=

> <r_epik_Ionization_Penalty>
0.0399736

> <r_epik_Ionization_Penalty_Charging>
0

> <r_epik_Ionization_Penalty_Neutral>
0.0399736

> <r_epik_State_Penalty>
0.0317634

> <r_epik_Charging_Adjusted_Penalty>
0.0317634

> <i_epik_Tot_Q>
0

> <i_epik_Tot_abs_Q>
0

> <r_epik_Metal_State_Penalty>
0.0307795

> <b_epik_Metal_Only>
0

> <s_lp_Force_Field>
OPLS_2005

> <r_lp_Energy>
24.971

> <b_lp_Chiralities_Consistent>
1

> <s_lp_Variant>
AV-unprocessed.smi:1762-4

> <Gold.Version>
5.8.1

> <Gold.Id.Protein>
6NUR|6NUR_protein|mol2

> <Gold.PLP.Fitness>
42.8780

> <Gold.PLP.PLP>
-42.1507

> <Gold.PLP.part.hbond>
-2.0000

> <Gold.PLP.part.metal>
0.0000

> <Gold.PLP.part.buried>
-5.6963

> <Gold.PLP.part.nonpolar>
-36.3479

> <Gold.PLP.part.repulsive>
2.0736

> <Gold.PLP.ligand.clash>
0.0000

> <Gold.PLP.ligand.torsion>
1.5240

> <Gold.PLP.Chemscore.Hbond>
1.1520

> <Gold.PLP.Chemscore.CHOScore>
0.0000

> <Gold.PLP.Chemscore.Metal>
0.0000

> <Gold.Chemscore.Hbonds>
donor molecule, donor type, donor heavy atom, donor atom, acceptor molecule, acceptor atom, score
      L1  H     8    31       P1  8028  0.51
      P1  H  7989  7998       L1     7  0.68

> <Gold.PLP.Chemscore.Internal.Correction>
0.3193

> <Gold.Rescore>
     Score         DG    S(hbond)    S(metal)    S(lipo)     H(rot)  DE(clash)    DE(int)     intcor
     14.87     -18.69       1.09        0.00     116.93       1.60       1.35       2.48       ----

> <Gold.Chemscore.Fitness>
14.8709

> <Gold.Chemscore.DG>
-18.6932

> <Gold.Chemscore.ZeroCoef>
-5.4800

> <Gold.Chemscore.Hbond>
1.0858

> <Gold.Chemscore.Metal>
0.0000

> <Gold.Chemscore.Lipo>
116.9280

> <Gold.Chemscore.Internal_Hbond>
0.0000

> <Gold.Chemscore.DEClash>
1.3466

> <Gold.Chemscore.DEInternal>
2.4756

> <Gold.Chemscore.Rot>
1.5993

> <Gold.Chemscore.Internal.Correction>
   9.000000E+99

> <Gold.Chemscore.Hbonds>
donor molecule, donor type, donor heavy atom, donor atom, acceptor molecule, acceptor atom, score
      L1  H     8    31       P1  8028  0.50
      P1  H  7989  7998       L1     7  0.59

> <Gold.Chemscore.Hbond.Weighted>
-3.6267

> <Gold.Chemscore.Metal.Weighted>
-0.0000

> <Gold.Chemscore.Lipo.Weighted>
-13.6806

> <Gold.Chemscore.Internal_Hbond.Weighted>
0.0000

> <Gold.Chemscore.DEClash.Weighted>
1.3466

> <Gold.Chemscore.DEInternal.Weighted>
2.4756

> <Gold.Chemscore.Rot.Weighted>
4.0941

> <Gold.Chemscore.Internal.Correction.Weighted>
   9.000000E+99

> <Gold.Protein.RotatedTorsions>
[ 6907 6896 6895 6894 ] final  -43.50 input  -60.11 | X-H torsion
[ 7974 7965 7964 7962 ] final -128.35 input  175.53 | X-H torsion
[ 8008 7997 7996 7995 ] final -139.24 input   59.86 | X-H torsion
[ 10167 10162 10161 10158 ] final  -54.48 input  -65.29 | X-H torsion
[ 10718 10713 10712 10709 ] final -157.30 input   66.30 | X-H torsion
[ 10763 10752 10751 10750 ] final  -42.50 input  -60.55 | X-H torsion
[ 11005 11000 10999 10996 ] final  -73.63 input  -57.11 | X-H torsion

> <Gold.Protein.ActiveResidues>
 VAL166  LYS551  ARG553  GLY616  TRP617  ASP618  TYR619  PRO620  LYS621  CYS622 
 ASP623  PHE694  ASN695  SER759  ASP760  ASP761  ALA762  ILE779  LEU786  VAL792 
 PHE793  MET794  SER795  GLU796  ALA797  LYS798  CYS799  TRP800  GLU811  SER814 

> <Gold.Protein.RotatedAtoms>
  150.9432  134.8839  159.7625 H   0  0  0  0  0  0  0  0  0  0  0  0  # atno 6907 bound_to 6896
  152.5089  134.3912  159.9394 H   0  0  0  0  0  0  0  0  0  0  0  0  # atno 6908 bound_to 6896
  151.3932  133.3742  159.2758 H   0  0  0  0  0  0  0  0  0  0  0  0  # atno 6909 bound_to 6896
  144.9679  140.7515  143.4688 H   0  0  0  0  0  0  0  0  0  0  0  0  # atno 7974 bound_to 7965
  155.4416  140.0532  157.3010 H   0  0  0  0  0  0  0  0  0  0  0  0  # atno 8008 bound_to 7997
  154.4815  140.2083  155.9709 H   0  0  0  0  0  0  0  0  0  0  0  0  # atno 8009 bound_to 7997
  156.1213  140.3188  155.8217 H   0  0  0  0  0  0  0  0  0  0  0  0  # atno 8010 bound_to 7997
  140.6428  143.2517  151.4943 H   0  0  0  0  0  0  0  0  0  0  0  0  # atno 10167 bound_to 10162
  156.5384  130.8552  151.2740 H   0  0  0  0  0  0  0  0  0  0  0  0  # atno 10718 bound_to 10713
  153.9800  135.6718  153.4750 H   0  0  0  0  0  0  0  0  0  0  0  0  # atno 10763 bound_to 10752
  153.0753  135.4952  154.8387 H   0  0  0  0  0  0  0  0  0  0  0  0  # atno 10764 bound_to 10752
  154.7170  135.3109  154.9070 H   0  0  0  0  0  0  0  0  0  0  0  0  # atno 10765 bound_to 10752
  141.1625  133.6884  156.7242 H   0  0  0  0  0  0  0  0  0  0  0  0  # atno 11005 bound_to 11000
  145.2602  139.1995  143.4896 LP  0  0  0  0  0  0  0  0  0  0  0  0  # atno 17320 bound_to 7965
  146.3373  140.2530  142.8599 LP  0  0  0  0  0  0  0  0  0  0  0  0  # atno 17321 bound_to 7965
  139.5637  144.2093  152.1732 LP  0  0  0  0  0  0  0  0  0  0  0  0  # atno 17342 bound_to 10162
  140.1369  144.5238  150.6768 LP  0  0  0  0  0  0  0  0  0  0  0  0  # atno 17343 bound_to 10162
  157.7410  130.9860  150.2413 LP  0  0  0  0  0  0  0  0  0  0  0  0  # atno 17370 bound_to 10713
  156.2995  130.3756  149.7764 LP  0  0  0  0  0  0  0  0  0  0  0  0  # atno 17371 bound_to 10713
  140.2793  134.8329  157.3919 LP  0  0  0  0  0  0  0  0  0  0  0  0  # atno 17394 bound_to 11000
  140.1448  134.4926  155.8005 LP  0  0  0  0  0  0  0  0  0  0  0  0  # atno 17395 bound_to 11000

$$$$
