AV-unprocessed.smi:1027|AV-procd|sdf|4472|dock6
  -GOLD-   22720 2443D 1   1.00000     0.00000
 Structure written by MMmdl.
 34 35  0  0  0  0  0  0  0  0  2 V2000
  152.0765  144.7042  158.1246 C   0  0  0  0  0  0  0  0  0  0  0  0
  151.9313  144.3909  159.6268 C   0  0  0  0  0  0  0  0  0  0  0  0
  152.1071  145.6871  160.4387 C   0  0  0  0  0  0  0  0  0  0  0  0
  152.8974  143.2672  160.0879 C   0  0  1  0  0  0  0  0  0  0  0  0
  152.6276  142.7843  161.5259 C   0  0  0  0  0  0  0  0  0  0  0  0
  152.8063  142.1223  159.1807 N   0  0  0  0  0  0  0  0  0  0  0  0
  151.6819  141.5195  158.7670 C   0  0  0  0  0  0  0  0  0  0  0  0
  150.5838  141.9343  159.1449 O   0  0  0  0  0  0  0  0  0  0  0  0
  151.9003  140.4714  157.9404 N   0  5  0  0  0  0  0  0  0  0  0  0
  151.1771  140.3415  156.8160 C   0  0  0  0  0  0  0  0  0  0  0  0
  151.7010  139.8743  155.6742 N   0  0  0  0  0  0  0  0  0  0  0  0
  150.7824  139.8195  154.6361 N   0  0  0  0  0  0  0  0  0  0  0  0
  149.5722  140.2402  155.0116 C   0  0  0  0  0  0  0  0  0  0  0  0
  148.4130  140.2804  154.0729 C   0  0  0  0  0  0  0  0  0  0  0  0
  147.6150  141.5503  153.8849 C   0  0  0  0  0  0  0  0  0  0  0  0
  146.9889  140.3668  154.5767 C   0  0  0  0  0  0  0  0  0  0  0  0
  149.4626  140.7348  156.6935 S   0  0  0  0  0  0  0  0  0  0  0  0
  153.0939  145.0133  157.8833 H   0  0  0  0  0  0  0  0  0  0  0  0
  151.4054  145.5095  157.8245 H   0  0  0  0  0  0  0  0  0  0  0  0
  151.8347  143.8422  157.5025 H   0  0  0  0  0  0  0  0  0  0  0  0
  150.9095  144.0433  159.7861 H   0  0  0  0  0  0  0  0  0  0  0  0
  153.1314  146.0561  160.3783 H   0  0  0  0  0  0  0  0  0  0  0  0
  151.8625  145.5440  161.4905 H   0  0  0  0  0  0  0  0  0  0  0  0
  151.4499  146.4740  160.0679 H   0  0  0  0  0  0  0  0  0  0  0  0
  153.9127  143.6662  160.0478 H   0  0  0  0  0  0  0  0  0  0  0  0
  152.8031  143.5722  162.2576 H   0  0  0  0  0  0  0  0  0  0  0  0
  153.2857  141.9567  161.7929 H   0  0  0  0  0  0  0  0  0  0  0  0
  151.5997  142.4389  161.6419 H   0  0  0  0  0  0  0  0  0  0  0  0
  153.6788  141.7452  158.8410 H   0  0  0  0  0  0  0  0  0  0  0  0
  148.6058  139.6638  153.1973 H   0  0  0  0  0  0  0  0  0  0  0  0
  147.8789  142.4087  154.4996 H   0  0  0  0  0  0  0  0  0  0  0  0
  147.2747  141.7838  152.8783 H   0  0  0  0  0  0  0  0  0  0  0  0
  146.2300  139.8097  154.0313 H   0  0  0  0  0  0  0  0  0  0  0  0
  146.8262  140.4478  155.6495 H   0  0  0  0  0  0  0  0  0  0  0  0
  1  2  1  0  0  0  0
  1 18  1  0  0  0  0
  1 19  1  0  0  0  0
  1 20  1  0  0  0  0
  2  3  1  0  0  0  0
  2  4  1  0  0  0  0
  2 21  1  0  0  0  0
  3 22  1  0  0  0  0
  3 23  1  0  0  0  0
  3 24  1  0  0  0  0
  4  5  1  0  0  0  0
  4  6  1  0  0  0  0
  4 25  1  0  0  0  0
  5 26  1  0  0  0  0
  5 27  1  0  0  0  0
  5 28  1  0  0  0  0
  6  7  1  0  0  0  0
  6 29  1  0  0  0  0
  7  8  2  0  0  0  0
  7  9  1  0  0  0  0
  9 10  1  0  0  0  0
 10 17  1  0  0  0  0
 10 11  2  0  0  0  0
 11 12  1  0  0  0  0
 12 13  2  0  0  0  0
 13 14  1  0  0  0  0
 13 17  1  0  0  0  0
 14 16  1  0  0  0  0
 14 15  1  0  0  0  0
 14 30  1  0  0  0  0
 15 16  1  0  0  0  0
 15 31  1  0  0  0  0
 15 32  1  0  0  0  0
 16 33  1  0  0  0  0
 16 34  1  0  0  0  0
M  CHG  1   9  -1
M  END
> <s_m_source_file>
AV-unprocessed.smi

> <i_m_source_file_index>
1027

> <i_lp_mmshare_version>
43012

> <i_f3d_flags>
0

> <s_epik_input>
W0NIM11bQ0hdKFtDSDNdKVtDQEhdKFtDSDNdKVtOSF1DKD1PKVtOSF1jMW5uYyhzMSlbQ0hdMltDSDJdW0NIMl0y

> <s_epik_cmdline>
J2VwaWtfcHl0aG9uJywgJy1waCcsICc3LjAnLCAnLXRuJywgJzgnLCAnLW1hJywgJzIwMCcsICctbWV0YWxfYmluZGluZycsICctaW1hZScsICc8aW5maWxlLm1hZT4nLCAnLW9tYWUnLCAnPG91dGZpbGUubWFlPic=

> <r_lp_tautomer_probability>
1

> <r_epik_Ionization_Penalty>
3.99975

> <r_epik_Ionization_Penalty_Charging>
3.83446

> <r_epik_Ionization_Penalty_Neutral>
0.165297

> <r_epik_State_Penalty>
3.83354

> <r_epik_Charging_Adjusted_Penalty>
7.668

> <i_epik_Tot_Q>
-1

> <i_epik_Tot_abs_Q>
1

> <r_epik_Metal_State_Penalty>
0.575872

> <b_epik_Metal_Only>
1

> <s_lp_Force_Field>
OPLS_2005

> <r_lp_Energy>
2.2869

> <b_lp_Chiralities_Consistent>
1

> <s_lp_Variant>
AV-unprocessed.smi:1027-4

> <Gold.Version>
5.8.1

> <Gold.Id.Protein>
6NUR|6NUR_protein|mol2

> <Gold.PLP.Fitness>
38.4882

> <Gold.PLP.PLP>
-37.6526

> <Gold.PLP.part.hbond>
-2.1437

> <Gold.PLP.part.metal>
0.0000

> <Gold.PLP.part.buried>
-6.4087

> <Gold.PLP.part.nonpolar>
-29.2474

> <Gold.PLP.part.repulsive>
0.1726

> <Gold.PLP.ligand.clash>
0.0000

> <Gold.PLP.ligand.torsion>
1.1727

> <Gold.PLP.Chemscore.Hbond>
1.0000

> <Gold.PLP.Chemscore.CHOScore>
0.0000

> <Gold.PLP.Chemscore.Metal>
0.0000

> <Gold.Chemscore.Hbonds>
donor molecule, donor type, donor heavy atom, donor atom, acceptor molecule, acceptor atom, score
      P1  H  7989  7998       L1    12  0.90

> <Gold.PLP.Chemscore.Internal.Correction>
0.1811

> <Gold.Rescore>
     Score         DG    S(hbond)    S(metal)    S(lipo)     H(rot)  DE(clash)    DE(int)     intcor
     10.55     -13.89       0.35        0.00      91.61       1.36       0.01       3.33       ----

> <Gold.Chemscore.Fitness>
10.5532

> <Gold.Chemscore.DG>
-13.8933

> <Gold.Chemscore.ZeroCoef>
-5.4800

> <Gold.Chemscore.Hbond>
0.3537

> <Gold.Chemscore.Metal>
0.0000

> <Gold.Chemscore.Lipo>
91.6101

> <Gold.Chemscore.Internal_Hbond>
0.0000

> <Gold.Chemscore.DEClash>
0.0092

> <Gold.Chemscore.DEInternal>
3.3309

> <Gold.Chemscore.Rot>
1.3618

> <Gold.Chemscore.Internal.Correction>
   9.000000E+99

> <Gold.Chemscore.Hbonds>
donor molecule, donor type, donor heavy atom, donor atom, acceptor molecule, acceptor atom, score
      P1  H  7989  7998       L1    12  0.17

> <Gold.Chemscore.Hbond.Weighted>
-1.1812

> <Gold.Chemscore.Metal.Weighted>
-0.0000

> <Gold.Chemscore.Lipo.Weighted>
-10.7184

> <Gold.Chemscore.Internal_Hbond.Weighted>
0.0000

> <Gold.Chemscore.DEClash.Weighted>
0.0092

> <Gold.Chemscore.DEInternal.Weighted>
3.3309

> <Gold.Chemscore.Rot.Weighted>
3.4863

> <Gold.Chemscore.Internal.Correction.Weighted>
   9.000000E+99

> <Gold.Protein.RotatedTorsions>
[ 6907 6896 6895 6894 ] final  129.66 input  -60.11 | X-H torsion
[ 7974 7965 7964 7962 ] final   95.15 input  175.53 | X-H torsion
[ 8008 7997 7996 7995 ] final -137.22 input   59.86 | X-H torsion
[ 10167 10162 10161 10158 ] final  -99.74 input  -65.29 | X-H torsion
[ 10718 10713 10712 10709 ] final -129.79 input   66.30 | X-H torsion
[ 10763 10752 10751 10750 ] final -108.31 input  -60.55 | X-H torsion
[ 11005 11000 10999 10996 ] final  166.58 input  -57.11 | X-H torsion

> <Gold.Protein.ActiveResidues>
 VAL166  LYS551  ARG553  GLY616  TRP617  ASP618  TYR619  PRO620  LYS621  CYS622 
 ASP623  PHE694  ASN695  SER759  ASP760  ASP761  ALA762  ILE779  LEU786  VAL792 
 PHE793  MET794  SER795  GLU796  ALA797  LYS798  CYS799  TRP800  GLU811  SER814 

> <Gold.Protein.RotatedAtoms>
  152.3602  133.6287  159.6009 H   0  0  0  0  0  0  0  0  0  0  0  0  # atno 6907 bound_to 6896
  150.7596  133.9436  159.3472 H   0  0  0  0  0  0  0  0  0  0  0  0  # atno 6908 bound_to 6896
  151.7275  135.0883  160.0345 H   0  0  0  0  0  0  0  0  0  0  0  0  # atno 6909 bound_to 6896
  145.4561  139.2290  143.3013 H   0  0  0  0  0  0  0  0  0  0  0  0  # atno 7974 bound_to 7965
  155.4081  140.0510  157.3033 H   0  0  0  0  0  0  0  0  0  0  0  0  # atno 8008 bound_to 7997
  154.4959  140.2138  155.9409 H   0  0  0  0  0  0  0  0  0  0  0  0  # atno 8009 bound_to 7997
  156.1404  140.3155  155.8492 H   0  0  0  0  0  0  0  0  0  0  0  0  # atno 8010 bound_to 7997
  140.2592  143.3419  152.0641 H   0  0  0  0  0  0  0  0  0  0  0  0  # atno 10167 bound_to 10162
  156.2081  130.6901  151.0618 H   0  0  0  0  0  0  0  0  0  0  0  0  # atno 10718 bound_to 10713
  154.8128  135.4642  154.0561 H   0  0  0  0  0  0  0  0  0  0  0  0  # atno 10763 bound_to 10752
  153.1979  135.6864  153.8276 H   0  0  0  0  0  0  0  0  0  0  0  0  # atno 10764 bound_to 10752
  153.7771  135.3262  155.3337 H   0  0  0  0  0  0  0  0  0  0  0  0  # atno 10765 bound_to 10752
  140.2679  134.7850  157.3649 H   0  0  0  0  0  0  0  0  0  0  0  0  # atno 11005 bound_to 11000
  146.2477  140.5325  142.8907 LP  0  0  0  0  0  0  0  0  0  0  0  0  # atno 17320 bound_to 7965
  144.8031  140.6250  143.6465 LP  0  0  0  0  0  0  0  0  0  0  0  0  # atno 17321 bound_to 7965
  139.5022  144.6729  151.6198 LP  0  0  0  0  0  0  0  0  0  0  0  0  # atno 17342 bound_to 10162
  140.5979  143.9663  150.6366 LP  0  0  0  0  0  0  0  0  0  0  0  0  # atno 17343 bound_to 10162
  157.7024  131.0771  150.6779 LP  0  0  0  0  0  0  0  0  0  0  0  0  # atno 17370 bound_to 10713
  156.6838  130.4575  149.5620 LP  0  0  0  0  0  0  0  0  0  0  0  0  # atno 17371 bound_to 10713
  140.1402  134.4982  155.8038 LP  0  0  0  0  0  0  0  0  0  0  0  0  # atno 17394 bound_to 11000
  141.2181  133.6822  156.7196 LP  0  0  0  0  0  0  0  0  0  0  0  0  # atno 17395 bound_to 11000

$$$$
