AV-unprocessed.smi:870|AV-procd|sdf|4010|dock1
  -GOLD-   22720 1503D 1   1.00000     0.00000
 Structure written by MMmdl.
 47 49  0  0  0  0  0  0  0  0  2 V2000
  147.9524  141.6221  154.3722 C   0  0  0  0  0  0  0  0  0  0  0  0
  149.3230  141.4384  154.0633 O   0  0  0  0  0  0  0  0  0  0  0  0
  149.9737  140.5705  154.9772 C   0  0  0  0  0  0  0  0  0  0  0  0
  150.5876  141.3171  156.1160 C   0  0  0  0  0  0  0  0  0  0  0  0
  150.5522  142.6669  156.3036 N   0  3  0  0  0  0  0  0  0  0  0  0
  151.2305  143.0000  157.4767 C   0  0  0  0  0  0  0  0  0  0  0  0
  151.4593  144.2330  158.0798 C   0  0  0  0  0  0  0  0  0  0  0  0
  152.1933  144.2216  159.2842 C   0  0  0  0  0  0  0  0  0  0  0  0
  152.6692  143.0174  159.8430 C   0  0  0  0  0  0  0  0  0  0  0  0
  152.4315  141.7734  159.2219 C   0  0  0  0  0  0  0  0  0  0  0  0
  151.7043  141.7941  158.0322 C   0  0  0  0  0  0  0  0  0  0  0  0
  151.2842  140.7839  157.1608 N   0  0  0  0  0  0  0  0  0  0  0  0
  151.6212  139.3852  157.4677 C   0  0  0  0  0  0  0  0  0  0  0  0
  151.9480  138.5562  156.2093 C   0  0  1  0  0  0  0  0  0  0  0  0
  153.3196  138.7109  155.9021 O   0  0  0  0  0  0  0  0  0  0  0  0
  151.6606  137.0617  156.4187 C   0  0  0  0  0  0  0  0  0  0  0  0
  150.2529  136.8669  156.4272 O   0  0  0  0  0  0  0  0  0  0  0  0
  149.7277  135.8208  155.6964 C   0  0  0  0  0  0  0  0  0  0  0  0
  150.5179  134.8262  155.0647 C   0  0  0  0  0  0  0  0  0  0  0  0
  149.9111  133.7871  154.3338 C   0  0  0  0  0  0  0  0  0  0  0  0
  148.5107  133.7260  154.2241 C   0  0  0  0  0  0  0  0  0  0  0  0
  147.7167  134.7054  154.8474 C   0  0  0  0  0  0  0  0  0  0  0  0
  148.3196  135.7491  155.5808 C   0  0  0  0  0  0  0  0  0  0  0  0
  147.4476  136.7978  156.2458 C   0  0  0  0  0  0  0  0  0  0  0  0
  147.5012  142.3022  153.6496 H   0  0  0  0  0  0  0  0  0  0  0  0
  147.8256  142.0543  155.3656 H   0  0  0  0  0  0  0  0  0  0  0  0
  147.4092  140.6772  154.3299 H   0  0  0  0  0  0  0  0  0  0  0  0
  149.2593  139.8489  155.3754 H   0  0  0  0  0  0  0  0  0  0  0  0
  150.7573  140.0098  154.4653 H   0  0  0  0  0  0  0  0  0  0  0  0
  151.0956  145.1565  157.6536 H   0  0  0  0  0  0  0  0  0  0  0  0
  152.3949  145.1548  159.7898 H   0  0  0  0  0  0  0  0  0  0  0  0
  153.2277  143.0477  160.7674 H   0  0  0  0  0  0  0  0  0  0  0  0
  152.7985  140.8562  159.6582 H   0  0  0  0  0  0  0  0  0  0  0  0
  152.4722  139.3895  158.1498 H   0  0  0  0  0  0  0  0  0  0  0  0
  150.7894  138.9461  158.0203 H   0  0  0  0  0  0  0  0  0  0  0  0
  151.3572  138.9268  155.3709 H   0  0  0  0  0  0  0  0  0  0  0  0
  153.5902  137.9776  155.3703 H   0  0  0  0  0  0  0  0  0  0  0  0
  152.1487  136.4622  155.6481 H   0  0  0  0  0  0  0  0  0  0  0  0
  152.0571  136.7508  157.3868 H   0  0  0  0  0  0  0  0  0  0  0  0
  151.5954  134.8361  155.1258 H   0  0  0  0  0  0  0  0  0  0  0  0
  150.5221  133.0351  153.8568 H   0  0  0  0  0  0  0  0  0  0  0  0
  148.0455  132.9285  153.6634 H   0  0  0  0  0  0  0  0  0  0  0  0
  146.6413  134.6518  154.7591 H   0  0  0  0  0  0  0  0  0  0  0  0
  146.3897  136.6185  156.0523 H   0  0  0  0  0  0  0  0  0  0  0  0
  147.6960  137.7911  155.8709 H   0  0  0  0  0  0  0  0  0  0  0  0
  147.6011  136.7885  157.3251 H   0  0  0  0  0  0  0  0  0  0  0  0
  150.0923  143.3087  155.6707 H   0  0  0  0  0  0  0  0  0  0  0  0
  1  2  1  0  0  0  0
  1 25  1  0  0  0  0
  1 26  1  0  0  0  0
  1 27  1  0  0  0  0
  2  3  1  0  0  0  0
  3  4  1  0  0  0  0
  3 28  1  0  0  0  0
  3 29  1  0  0  0  0
  4 12  1  0  0  0  0
  4  5  2  0  0  0  0
  5  6  1  0  0  0  0
  5 47  1  0  0  0  0
  6 11  2  0  0  0  0
  6  7  1  0  0  0  0
  7  8  2  0  0  0  0
  7 30  1  0  0  0  0
  8  9  1  0  0  0  0
  8 31  1  0  0  0  0
  9 10  2  0  0  0  0
  9 32  1  0  0  0  0
 10 11  1  0  0  0  0
 10 33  1  0  0  0  0
 11 12  1  0  0  0  0
 12 13  1  0  0  0  0
 13 14  1  0  0  0  0
 13 34  1  0  0  0  0
 13 35  1  0  0  0  0
 14 15  1  0  0  0  0
 14 16  1  0  0  0  0
 14 36  1  0  0  0  0
 15 37  1  0  0  0  0
 16 17  1  0  0  0  0
 16 38  1  0  0  0  0
 16 39  1  0  0  0  0
 17 18  1  0  0  0  0
 18 23  1  0  0  0  0
 18 19  2  0  0  0  0
 19 20  1  0  0  0  0
 19 40  1  0  0  0  0
 20 21  2  0  0  0  0
 20 41  1  0  0  0  0
 21 22  1  0  0  0  0
 21 42  1  0  0  0  0
 22 23  2  0  0  0  0
 22 43  1  0  0  0  0
 23 24  1  0  0  0  0
 24 44  1  0  0  0  0
 24 45  1  0  0  0  0
 24 46  1  0  0  0  0
M  CHG  1   5   1
M  END
> <s_m_source_file>
AV-unprocessed.smi

> <i_m_source_file_index>
870

> <i_lp_mmshare_version>
43012

> <i_f3d_flags>
0

> <s_epik_input>
W2NIXTFbY0hdW2NIXVtjSF1jKGMxMiluKGMobjIpW0NIMl1PW0NIM10pW0NIMl1bQ0BIXShbT0hdKVtDSDJdT2MzW2NIXVtjSF1bY0hdW2NIXWMzW0NIM10=

> <s_epik_cmdline>
J2VwaWtfcHl0aG9uJywgJy1waCcsICc3LjAnLCAnLXRuJywgJzgnLCAnLW1hJywgJzIwMCcsICctbWV0YWxfYmluZGluZycsICctaW1hZScsICc8aW5maWxlLm1hZT4nLCAnLW9tYWUnLCAnPG91dGZpbGUubWFlPic=

> <r_lp_tautomer_probability>
1

> <r_epik_Ionization_Penalty>
1.55338

> <r_epik_Ionization_Penalty_Charging>
1.55338

> <r_epik_Ionization_Penalty_Neutral>
2.3993e-06

> <r_epik_State_Penalty>
1.64778

> <r_epik_Charging_Adjusted_Penalty>
3.20115

> <i_epik_Tot_Q>
1

> <i_epik_Tot_abs_Q>
1

> <r_epik_Metal_State_Penalty>
5.70266

> <b_epik_Metal_Only>
0

> <s_lp_Force_Field>
OPLS_2005

> <r_lp_Energy>
19.1039

> <b_lp_Chiralities_Consistent>
1

> <s_lp_Variant>
AV-unprocessed.smi:870-4

> <Gold.Version>
5.8.1

> <Gold.Id.Protein>
6NUR|6NUR_protein|mol2

> <Gold.PLP.Fitness>
54.2130

> <Gold.PLP.PLP>
-46.5193

> <Gold.PLP.part.hbond>
-4.0000

> <Gold.PLP.part.metal>
0.0000

> <Gold.PLP.part.buried>
-5.6939

> <Gold.PLP.part.nonpolar>
-38.4764

> <Gold.PLP.part.repulsive>
0.3025

> <Gold.PLP.ligand.clash>
0.0000

> <Gold.PLP.ligand.torsion>
1.2979

> <Gold.PLP.Chemscore.Hbond>
3.3280

> <Gold.PLP.Chemscore.CHOScore>
0.0000

> <Gold.PLP.Chemscore.Metal>
0.0000

> <Gold.Chemscore.Hbonds>
donor molecule, donor type, donor heavy atom, donor atom, acceptor molecule, acceptor atom, score
      L1  H     5    47       P1  8028  1.66
      P1  H  7997  8008       L1    15  0.98
      P1  H  8011  8017       L1     2  0.67

> <Gold.PLP.Chemscore.Internal.Correction>
0.3055

> <Gold.Rescore>
     Score         DG    S(hbond)    S(metal)    S(lipo)     H(rot)  DE(clash)    DE(int)     intcor
     20.24     -21.51       2.34        0.00     123.93       2.45       0.06       1.21       ----

> <Gold.Chemscore.Fitness>
20.2430

> <Gold.Chemscore.DG>
-21.5135

> <Gold.Chemscore.ZeroCoef>
-5.4800

> <Gold.Chemscore.Hbond>
2.3367

> <Gold.Chemscore.Metal>
0.0000

> <Gold.Chemscore.Lipo>
123.9261

> <Gold.Chemscore.Internal_Hbond>
0.0000

> <Gold.Chemscore.DEClash>
0.0563

> <Gold.Chemscore.DEInternal>
1.2142

> <Gold.Chemscore.Rot>
2.4494

> <Gold.Chemscore.Internal.Correction>
   9.000000E+99

> <Gold.Chemscore.Hbonds>
donor molecule, donor type, donor heavy atom, donor atom, acceptor molecule, acceptor atom, score
      L1  H     5    47       P1  8028  0.83
      P1  H  7997  8008       L1    15  0.93
      P1  H  8011  8017       L1     2  0.47

> <Gold.Chemscore.Hbond.Weighted>
-7.8046

> <Gold.Chemscore.Metal.Weighted>
-0.0000

> <Gold.Chemscore.Lipo.Weighted>
-14.4994

> <Gold.Chemscore.Internal_Hbond.Weighted>
0.0000

> <Gold.Chemscore.DEClash.Weighted>
0.0563

> <Gold.Chemscore.DEInternal.Weighted>
1.2142

> <Gold.Chemscore.Rot.Weighted>
6.2704

> <Gold.Chemscore.Internal.Correction.Weighted>
   9.000000E+99

> <Gold.Protein.RotatedTorsions>
[ 6907 6896 6895 6894 ] final  118.81 input  -60.11 | X-H torsion
[ 7974 7965 7964 7962 ] final  155.22 input  175.53 | X-H torsion
[ 8008 7997 7996 7995 ] final  -38.16 input   59.86 | X-H torsion
[ 10167 10162 10161 10158 ] final   -9.34 input  -65.29 | X-H torsion
[ 10718 10713 10712 10709 ] final   33.20 input   66.30 | X-H torsion
[ 10763 10752 10751 10750 ] final  -15.31 input  -60.55 | X-H torsion
[ 11005 11000 10999 10996 ] final  -98.19 input  -57.11 | X-H torsion

> <Gold.Protein.ActiveResidues>
 VAL166  LYS551  ARG553  GLY616  TRP617  ASP618  TYR619  PRO620  LYS621  CYS622 
 ASP623  PHE694  ASN695  SER759  ASP760  ASP761  ALA762  ILE779  LEU786  VAL792 
 PHE793  MET794  SER795  GLU796  ALA797  LYS798  CYS799  TRP800  GLU811  SER814 

> <Gold.Protein.RotatedAtoms>
  152.4517  133.7641  159.6762 H   0  0  0  0  0  0  0  0  0  0  0  0  # atno 6907 bound_to 6896
  150.8430  133.7895  159.3060 H   0  0  0  0  0  0  0  0  0  0  0  0  # atno 6908 bound_to 6896
  151.5514  135.1070  160.0002 H   0  0  0  0  0  0  0  0  0  0  0  0  # atno 6909 bound_to 6896
  144.8038  139.7039  143.6170 H   0  0  0  0  0  0  0  0  0  0  0  0  # atno 7974 bound_to 7965
  154.4041  140.1585  156.2655 H   0  0  0  0  0  0  0  0  0  0  0  0  # atno 8008 bound_to 7997
  155.8999  140.3434  155.5996 H   0  0  0  0  0  0  0  0  0  0  0  0  # atno 8009 bound_to 7997
  155.7460  140.0799  157.2214 H   0  0  0  0  0  0  0  0  0  0  0  0  # atno 8010 bound_to 7997
  140.7084  143.5869  150.8934 H   0  0  0  0  0  0  0  0  0  0  0  0  # atno 10167 bound_to 10162
  157.2949  130.7321  149.6632 H   0  0  0  0  0  0  0  0  0  0  0  0  # atno 10718 bound_to 10713
  153.5415  135.7013  153.5634 H   0  0  0  0  0  0  0  0  0  0  0  0  # atno 10763 bound_to 10752
  153.3598  135.3973  155.1710 H   0  0  0  0  0  0  0  0  0  0  0  0  # atno 10764 bound_to 10752
  154.8673  135.3786  154.4919 H   0  0  0  0  0  0  0  0  0  0  0  0  # atno 10765 bound_to 10752
  141.1353  133.8227  157.0806 H   0  0  0  0  0  0  0  0  0  0  0  0  # atno 11005 bound_to 11000
  146.2326  139.5842  142.9545 LP  0  0  0  0  0  0  0  0  0  0  0  0  # atno 17320 bound_to 7965
  145.5487  141.0415  143.2290 LP  0  0  0  0  0  0  0  0  0  0  0  0  # atno 17321 bound_to 7965
  139.9595  143.6180  152.3006 LP  0  0  0  0  0  0  0  0  0  0  0  0  # atno 17342 bound_to 10162
  139.6728  144.7660  151.1752 LP  0  0  0  0  0  0  0  0  0  0  0  0  # atno 17343 bound_to 10162
  155.9668  130.4297  150.4846 LP  0  0  0  0  0  0  0  0  0  0  0  0  # atno 17370 bound_to 10713
  157.2816  131.0608  151.2194 LP  0  0  0  0  0  0  0  0  0  0  0  0  # atno 17371 bound_to 10713
  140.0454  134.9833  157.1039 LP  0  0  0  0  0  0  0  0  0  0  0  0  # atno 17394 bound_to 11000
  140.4071  134.2020  155.7163 LP  0  0  0  0  0  0  0  0  0  0  0  0  # atno 17395 bound_to 11000

$$$$
