AV-unprocessed.smi:1284|AV-procd|sdf|5365|dock1
  -GOLD-   22720 4503D 1   1.00000     0.00000
 Structure written by MMmdl.
 40 42  0  0  0  0  0  0  0  0  2 V2000
  151.2500  137.7992  153.3490 N   0  0  0  0  0  0  0  0  0  0  0  0
  151.6856  137.9451  154.6030 C   0  0  0  0  0  0  0  0  0  0  0  0
  151.9633  136.9845  155.3183 O   0  0  0  0  0  0  0  0  0  0  0  0
  151.8288  139.3724  155.1364 C   0  0  0  0  0  0  0  0  0  0  0  0
  150.5185  140.1000  155.0799 C   0  0  0  0  0  0  0  0  0  0  0  0
  149.8044  140.3644  153.9469 N   0  3  0  0  0  0  0  0  0  0  0  0
  148.6401  141.0609  154.2686 C   0  0  0  0  0  0  0  0  0  0  0  0
  147.6173  141.5488  153.4613 C   0  0  0  0  0  0  0  0  0  0  0  0
  146.5640  142.2231  154.1134 C   0  0  0  0  0  0  0  0  0  0  0  0
  146.5547  142.3901  155.5135 C   0  0  0  0  0  0  0  0  0  0  0  0
  147.5966  141.8888  156.3214 C   0  0  0  0  0  0  0  0  0  0  0  0
  148.6341  141.2230  155.6686 C   0  0  0  0  0  0  0  0  0  0  0  0
  149.8038  140.6074  156.1290 N   0  0  0  0  0  0  0  0  0  0  0  0
  150.0732  140.5954  157.5767 C   0  0  0  0  0  0  0  0  0  0  0  0
  151.5594  140.8214  157.9178 C   0  0  2  0  0  0  0  0  0  0  0  0
  152.0238  139.7838  158.7593 O   0  0  0  0  0  0  0  0  0  0  0  0
  151.7795  142.1975  158.5252 C   0  0  0  0  0  0  0  0  0  0  0  0
  152.2895  142.3149  159.8362 C   0  0  0  0  0  0  0  0  0  0  0  0
  152.5054  143.5863  160.4029 C   0  0  0  0  0  0  0  0  0  0  0  0
  152.2143  144.7473  159.6614 C   0  0  0  0  0  0  0  0  0  0  0  0
  151.7088  144.6367  158.3520 C   0  0  0  0  0  0  0  0  0  0  0  0
  151.4934  143.3659  157.7844 C   0  0  0  0  0  0  0  0  0  0  0  0
  151.1361  136.8731  152.9622 H   0  0  0  0  0  0  0  0  0  0  0  0
  151.0294  138.6128  152.7919 H   0  0  0  0  0  0  0  0  0  0  0  0
  152.1737  139.3400  156.1704 H   0  0  0  0  0  0  0  0  0  0  0  0
  152.5904  139.9043  154.5667 H   0  0  0  0  0  0  0  0  0  0  0  0
  147.6231  141.4223  152.3885 H   0  0  0  0  0  0  0  0  0  0  0  0
  145.7475  142.6207  153.5279 H   0  0  0  0  0  0  0  0  0  0  0  0
  145.7315  142.9135  155.9779 H   0  0  0  0  0  0  0  0  0  0  0  0
  147.5801  142.0231  157.3928 H   0  0  0  0  0  0  0  0  0  0  0  0
  149.4503  141.3574  158.0469 H   0  0  0  0  0  0  0  0  0  0  0  0
  149.7277  139.6433  157.9786 H   0  0  0  0  0  0  0  0  0  0  0  0
  152.1459  140.7586  157.0006 H   0  0  0  0  0  0  0  0  0  0  0  0
  152.4579  139.1377  158.2227 H   0  0  0  0  0  0  0  0  0  0  0  0
  152.5188  141.4306  160.4125 H   0  0  0  0  0  0  0  0  0  0  0  0
  152.8950  143.6710  161.4067 H   0  0  0  0  0  0  0  0  0  0  0  0
  152.3802  145.7219  160.0963 H   0  0  0  0  0  0  0  0  0  0  0  0
  151.4871  145.5272  157.7823 H   0  0  0  0  0  0  0  0  0  0  0  0
  151.1099  143.2916  156.7774 H   0  0  0  0  0  0  0  0  0  0  0  0
  150.1034  140.0930  153.0187 H   0  0  0  0  0  0  0  0  0  0  0  0
  1  2  1  0  0  0  0
  1 23  1  0  0  0  0
  1 24  1  0  0  0  0
  2  3  2  0  0  0  0
  2  4  1  0  0  0  0
  4  5  1  0  0  0  0
  4 25  1  0  0  0  0
  4 26  1  0  0  0  0
  5 13  1  0  0  0  0
  5  6  2  0  0  0  0
  6  7  1  0  0  0  0
  6 40  1  0  0  0  0
  7 12  2  0  0  0  0
  7  8  1  0  0  0  0
  8  9  2  0  0  0  0
  8 27  1  0  0  0  0
  9 10  1  0  0  0  0
  9 28  1  0  0  0  0
 10 11  2  0  0  0  0
 10 29  1  0  0  0  0
 11 12  1  0  0  0  0
 11 30  1  0  0  0  0
 12 13  1  0  0  0  0
 13 14  1  0  0  0  0
 14 15  1  0  0  0  0
 14 31  1  0  0  0  0
 14 32  1  0  0  0  0
 15 16  1  0  0  0  0
 15 17  1  0  0  0  0
 15 33  1  0  0  0  0
 16 34  1  0  0  0  0
 17 22  1  0  0  0  0
 17 18  2  0  0  0  0
 18 19  1  0  0  0  0
 18 35  1  0  0  0  0
 19 20  2  0  0  0  0
 19 36  1  0  0  0  0
 20 21  1  0  0  0  0
 20 37  1  0  0  0  0
 21 22  2  0  0  0  0
 21 38  1  0  0  0  0
 22 39  1  0  0  0  0
M  CHG  1   6   1
M  END
> <s_m_source_file>
AV-unprocessed.smi

> <i_m_source_file_index>
1284

> <i_lp_mmshare_version>
43012

> <i_f3d_flags>
0

> <s_epik_input>
W2NIXTFbY0hdW2NIXVtjSF1jKGMxMiluKGMobjIpW0NIMl1DKD1PKVtOSDJdKVtDSDJdW0NASF0oW09IXSljM1tjSF1bY0hdW2NIXVtjSF1bY0hdMw==

> <s_epik_cmdline>
J2VwaWtfcHl0aG9uJywgJy1waCcsICc3LjAnLCAnLXRuJywgJzgnLCAnLW1hJywgJzIwMCcsICctbWV0YWxfYmluZGluZycsICctaW1hZScsICc8aW5maWxlLm1hZT4nLCAnLW9tYWUnLCAnPG91dGZpbGUubWFlPic=

> <r_epik_Ionization_Penalty>
1.66646

> <r_epik_Ionization_Penalty_Charging>
1.66645

> <r_epik_Ionization_Penalty_Neutral>
1.67657e-06

> <r_epik_State_Penalty>
1.76975

> <r_epik_Charging_Adjusted_Penalty>
3.43621

> <i_epik_Tot_Q>
1

> <i_epik_Tot_abs_Q>
1

> <r_epik_Metal_State_Penalty>
1.80493

> <b_epik_Metal_Only>
0

> <s_lp_Force_Field>
OPLS_2005

> <r_lp_Energy>
13.978

> <b_lp_Chiralities_Consistent>
1

> <s_lp_Variant>
AV-unprocessed.smi:1284-3

> <Gold.Version>
5.8.1

> <Gold.Id.Protein>
6NUR|6NUR_protein|mol2

> <Gold.PLP.Fitness>
55.0171

> <Gold.PLP.PLP>
-49.0895

> <Gold.PLP.part.hbond>
-3.9124

> <Gold.PLP.part.metal>
0.0000

> <Gold.PLP.part.buried>
-4.0644

> <Gold.PLP.part.nonpolar>
-41.6661

> <Gold.PLP.part.repulsive>
1.9100

> <Gold.PLP.ligand.clash>
0.0000

> <Gold.PLP.ligand.torsion>
1.0365

> <Gold.PLP.Chemscore.Hbond>
2.6160

> <Gold.PLP.Chemscore.CHOScore>
0.0000

> <Gold.PLP.Chemscore.Metal>
0.0000

> <Gold.Chemscore.Hbonds>
donor molecule, donor type, donor heavy atom, donor atom, acceptor molecule, acceptor atom, score
      L1  H     1    23       P1  7949  0.86
      L1  H     6    40       P1  7957  0.91
      P1  H 10752 10765       L1     3  1.00

> <Gold.PLP.Chemscore.Internal.Correction>
0.1526

> <Gold.Rescore>
     Score         DG    S(hbond)    S(metal)    S(lipo)     H(rot)  DE(clash)    DE(int)     intcor
     16.95     -20.75       2.63        0.00     119.47       2.92       2.05       1.75       ----

> <Gold.Chemscore.Fitness>
16.9467

> <Gold.Chemscore.DG>
-20.7479

> <Gold.Chemscore.ZeroCoef>
-5.4800

> <Gold.Chemscore.Hbond>
2.6260

> <Gold.Chemscore.Metal>
0.0000

> <Gold.Chemscore.Lipo>
119.4712

> <Gold.Chemscore.Internal_Hbond>
0.0000

> <Gold.Chemscore.DEClash>
2.0520

> <Gold.Chemscore.DEInternal>
1.7493

> <Gold.Chemscore.Rot>
2.9223

> <Gold.Chemscore.Internal.Correction>
   9.000000E+99

> <Gold.Chemscore.Hbonds>
donor molecule, donor type, donor heavy atom, donor atom, acceptor molecule, acceptor atom, score
      L1  H     1    23       P1  7949  0.38
      L1  H     6    40       P1  7957  0.89
      P1  H 10752 10765       L1     3  0.94

> <Gold.Chemscore.Hbond.Weighted>
-8.7710

> <Gold.Chemscore.Metal.Weighted>
-0.0000

> <Gold.Chemscore.Lipo.Weighted>
-13.9781

> <Gold.Chemscore.Internal_Hbond.Weighted>
0.0000

> <Gold.Chemscore.DEClash.Weighted>
2.0520

> <Gold.Chemscore.DEInternal.Weighted>
1.7493

> <Gold.Chemscore.Rot.Weighted>
7.4812

> <Gold.Chemscore.Internal.Correction.Weighted>
   9.000000E+99

> <Gold.Protein.RotatedTorsions>
[ 6907 6896 6895 6894 ] final  103.14 input  -60.11 | X-H torsion
[ 7974 7965 7964 7962 ] final  -99.91 input  175.53 | X-H torsion
[ 8008 7997 7996 7995 ] final  -85.00 input   59.86 | X-H torsion
[ 10167 10162 10161 10158 ] final  -58.95 input  -65.29 | X-H torsion
[ 10718 10713 10712 10709 ] final  166.63 input   66.30 | X-H torsion
[ 10763 10752 10751 10750 ] final -172.17 input  -60.55 | X-H torsion
[ 11005 11000 10999 10996 ] final   64.11 input  -57.11 | X-H torsion

> <Gold.Protein.ActiveResidues>
 VAL166  LYS551  ARG553  GLY616  TRP617  ASP618  TYR619  PRO620  LYS621  CYS622 
 ASP623  PHE694  ASN695  SER759  ASP760  ASP761  ALA762  ILE779  LEU786  VAL792 
 PHE793  MET794  SER795  GLU796  ALA797  LYS798  CYS799  TRP800  GLU811  SER814 

> <Gold.Protein.RotatedAtoms>
  152.5304  133.9870  159.7832 H   0  0  0  0  0  0  0  0  0  0  0  0  # atno 6907 bound_to 6896
  151.0113  133.5955  159.2689 H   0  0  0  0  0  0  0  0  0  0  0  0  # atno 6908 bound_to 6896
  151.3028  135.0780  159.9298 H   0  0  0  0  0  0  0  0  0  0  0  0  # atno 6909 bound_to 6896
  145.3014  140.9378  143.2821 H   0  0  0  0  0  0  0  0  0  0  0  0  # atno 7974 bound_to 7965
  154.6360  140.0597  156.9789 H   0  0  0  0  0  0  0  0  0  0  0  0  # atno 8008 bound_to 7997
  155.1592  140.3281  155.4396 H   0  0  0  0  0  0  0  0  0  0  0  0  # atno 8009 bound_to 7997
  156.2507  140.1934  156.6700 H   0  0  0  0  0  0  0  0  0  0  0  0  # atno 8010 bound_to 7997
  140.6166  143.2404  151.5583 H   0  0  0  0  0  0  0  0  0  0  0  0  # atno 10167 bound_to 10162
  157.0632  131.0345  151.2639 H   0  0  0  0  0  0  0  0  0  0  0  0  # atno 10718 bound_to 10713
  154.6223  135.2876  155.0311 H   0  0  0  0  0  0  0  0  0  0  0  0  # atno 10763 bound_to 10752
  154.1502  135.6504  153.4965 H   0  0  0  0  0  0  0  0  0  0  0  0  # atno 10764 bound_to 10752
  153.0241  135.5354  154.7018 H   0  0  0  0  0  0  0  0  0  0  0  0  # atno 10765 bound_to 10752
  139.9980  134.6487  155.9978 H   0  0  0  0  0  0  0  0  0  0  0  0  # atno 11005 bound_to 11000
  144.9091  139.4552  143.6596 LP  0  0  0  0  0  0  0  0  0  0  0  0  # atno 17320 bound_to 7965
  146.3151  139.7888  142.8990 LP  0  0  0  0  0  0  0  0  0  0  0  0  # atno 17321 bound_to 7965
  139.5403  144.2665  152.1337 LP  0  0  0  0  0  0  0  0  0  0  0  0  # atno 17342 bound_to 10162
  140.1876  144.4783  150.6495 LP  0  0  0  0  0  0  0  0  0  0  0  0  # atno 17343 bound_to 10162
  157.4938  130.7838  149.7534 LP  0  0  0  0  0  0  0  0  0  0  0  0  # atno 17370 bound_to 10713
  155.9972  130.3901  150.2748 LP  0  0  0  0  0  0  0  0  0  0  0  0  # atno 17371 bound_to 10713
  141.1619  133.6538  156.4349 LP  0  0  0  0  0  0  0  0  0  0  0  0  # atno 17394 bound_to 11000
  140.4782  134.6690  157.5159 LP  0  0  0  0  0  0  0  0  0  0  0  0  # atno 17395 bound_to 11000

$$$$
