AV-unprocessed.smi:2320|AV-procd|sdf|9280|dock10
  -GOLD-   2272012503D 1   1.00000     0.00000
 Structure written by MMmdl.
 41 42  0  0  0  0  0  0  0  0  1 V2000
  153.0890  143.3249  162.6133 C   0  0  0  0  0  0  0  0  0  0  0  0
  152.4516  143.2000  161.2449 C   0  0  0  0  0  0  0  0  0  0  0  0
  151.4608  144.1123  160.8309 C   0  0  0  0  0  0  0  0  0  0  0  0
  150.8745  143.9872  159.5569 C   0  0  0  0  0  0  0  0  0  0  0  0
  151.2644  142.9544  158.6800 C   0  0  0  0  0  0  0  0  0  0  0  0
  150.6375  142.9069  157.4535 O   0  0  0  0  0  0  0  0  0  0  0  0
  151.1550  142.0257  156.4652 C   0  0  0  0  0  0  0  0  0  0  0  0
  149.9831  141.2944  155.7922 C   0  0  1  0  0  0  0  0  0  0  0  0
  149.3516  142.2240  154.9351 O   0  0  0  0  0  0  0  0  0  0  0  0
  150.4542  140.0793  154.9610 C   0  0  0  0  0  0  0  0  0  0  0  0
  151.4807  139.2909  155.6632 N   0  0  0  0  0  0  0  0  0  0  0  0
  152.6463  138.9972  154.9355 C   0  0  0  0  0  0  0  0  0  0  0  0
  153.6125  138.3084  155.4488 N   0  0  0  0  0  0  0  0  0  0  0  0
  153.5122  137.8385  156.7614 C   0  0  0  0  0  0  0  0  0  0  0  0
  154.6977  137.0323  157.2614 C   0  0  0  0  0  0  0  0  0  0  0  0
  152.4141  138.0966  157.5231 C   0  0  0  0  0  0  0  0  0  0  0  0
  152.2490  137.6079  158.9571 C   0  0  0  0  0  0  0  0  0  0  0  0
  151.3074  138.8824  156.9532 C   0  0  0  0  0  0  0  0  0  0  0  0
  150.2872  139.1559  157.5884 O   0  0  0  0  0  0  0  0  0  0  0  0
  152.2623  142.0403  159.1025 C   0  0  0  0  0  0  0  0  0  0  0  0
  152.8495  142.1646  160.3768 C   0  0  0  0  0  0  0  0  0  0  0  0
  152.7007  144.1872  163.1563 H   0  0  0  0  0  0  0  0  0  0  0  0
  154.1690  143.4410  162.5179 H   0  0  0  0  0  0  0  0  0  0  0  0
  152.8896  142.4317  163.2057 H   0  0  0  0  0  0  0  0  0  0  0  0
  151.1464  144.9111  161.4865 H   0  0  0  0  0  0  0  0  0  0  0  0
  150.1157  144.6916  159.2493 H   0  0  0  0  0  0  0  0  0  0  0  0
  151.7051  142.6045  155.7209 H   0  0  0  0  0  0  0  0  0  0  0  0
  151.8422  141.3038  156.9103 H   0  0  0  0  0  0  0  0  0  0  0  0
  149.2697  140.9913  156.5597 H   0  0  0  0  0  0  0  0  0  0  0  0
  149.5015  143.0943  155.2715 H   0  0  0  0  0  0  0  0  0  0  0  0
  149.6030  139.4656  154.6594 H   0  0  0  0  0  0  0  0  0  0  0  0
  150.8730  140.4265  154.0142 H   0  0  0  0  0  0  0  0  0  0  0  0
  152.6763  139.3926  153.9185 H   0  0  0  0  0  0  0  0  0  0  0  0
  154.3836  136.0270  157.5430 H   0  0  0  0  0  0  0  0  0  0  0  0
  155.1492  137.5138  158.1291 H   0  0  0  0  0  0  0  0  0  0  0  0
  155.4673  136.9388  156.4939 H   0  0  0  0  0  0  0  0  0  0  0  0
  152.0923  138.4532  159.6280 H   0  0  0  0  0  0  0  0  0  0  0  0
  153.1127  137.0560  159.3249 H   0  0  0  0  0  0  0  0  0  0  0  0
  151.3822  136.9506  159.0320 H   0  0  0  0  0  0  0  0  0  0  0  0
  152.5968  141.2345  158.4671 H   0  0  0  0  0  0  0  0  0  0  0  0
  153.6091  141.4616  160.6865 H   0  0  0  0  0  0  0  0  0  0  0  0
  1  2  1  0  0  0  0
  1 22  1  0  0  0  0
  1 23  1  0  0  0  0
  1 24  1  0  0  0  0
  2 21  1  0  0  0  0
  2  3  2  0  0  0  0
  3  4  1  0  0  0  0
  3 25  1  0  0  0  0
  4  5  2  0  0  0  0
  4 26  1  0  0  0  0
  5  6  1  0  0  0  0
  5 20  1  0  0  0  0
  6  7  1  0  0  0  0
  7  8  1  0  0  0  0
  7 27  1  0  0  0  0
  7 28  1  0  0  0  0
  8  9  1  0  0  0  0
  8 10  1  0  0  0  0
  8 29  1  0  0  0  0
  9 30  1  0  0  0  0
 10 11  1  0  0  0  0
 10 31  1  0  0  0  0
 10 32  1  0  0  0  0
 11 18  1  0  0  0  0
 11 12  1  0  0  0  0
 12 13  2  0  0  0  0
 12 33  1  0  0  0  0
 13 14  1  0  0  0  0
 14 15  1  0  0  0  0
 14 16  2  0  0  0  0
 15 34  1  0  0  0  0
 15 35  1  0  0  0  0
 15 36  1  0  0  0  0
 16 17  1  0  0  0  0
 16 18  1  0  0  0  0
 17 37  1  0  0  0  0
 17 38  1  0  0  0  0
 17 39  1  0  0  0  0
 18 19  2  0  0  0  0
 20 21  2  0  0  0  0
 20 40  1  0  0  0  0
 21 41  1  0  0  0  0
M  END
> <s_m_source_file>
AV-unprocessed.smi

> <i_m_source_file_index>
2320

> <i_lp_mmshare_version>
43012

> <i_f3d_flags>
0

> <s_epik_input>
W0NIM11jMVtjSF1bY0hdYyhbY0hdW2NIXTEpT1tDSDJdW0NASF0oW09IXSlbQ0gyXW4yW2NIXW5jKFtDSDNdKWMoW0NIM10pYzI9Tw==

> <s_epik_cmdline>
J2VwaWtfcHl0aG9uJywgJy1waCcsICc3LjAnLCAnLXRuJywgJzgnLCAnLW1hJywgJzIwMCcsICctbWV0YWxfYmluZGluZycsICctaW1hZScsICc8aW5maWxlLm1hZT4nLCAnLW9tYWUnLCAnPG91dGZpbGUubWFlPic=

> <r_lp_tautomer_probability>
1

> <r_epik_Ionization_Penalty>
3.74127e-05

> <r_epik_Ionization_Penalty_Charging>
8.43242e-08

> <r_epik_Ionization_Penalty_Neutral>
3.73284e-05

> <r_epik_State_Penalty>
-0

> <r_epik_Charging_Adjusted_Penalty>
8.43242e-08

> <i_epik_Tot_Q>
0

> <i_epik_Tot_abs_Q>
0

> <r_epik_Metal_State_Penalty>
-0

> <b_epik_Metal_Only>
0

> <s_lp_Force_Field>
OPLS_2005

> <r_lp_Energy>
22.1305

> <b_lp_Chiralities_Consistent>
1

> <s_lp_Variant>
AV-unprocessed.smi:2320-2

> <Gold.Version>
5.8.1

> <Gold.Id.Protein>
6NUR|6NUR_protein|mol2

> <Gold.PLP.Fitness>
43.9898

> <Gold.PLP.PLP>
-42.1377

> <Gold.PLP.part.hbond>
-2.9431

> <Gold.PLP.part.metal>
0.0000

> <Gold.PLP.part.buried>
-5.6580

> <Gold.PLP.part.nonpolar>
-33.9905

> <Gold.PLP.part.repulsive>
0.4224

> <Gold.PLP.ligand.clash>
0.0000

> <Gold.PLP.ligand.torsion>
0.7532

> <Gold.PLP.Chemscore.Hbond>
1.1118

> <Gold.PLP.Chemscore.CHOScore>
0.0000

> <Gold.PLP.Chemscore.Metal>
0.0000

> <Gold.Chemscore.Hbonds>
donor molecule, donor type, donor heavy atom, donor atom, acceptor molecule, acceptor atom, score
      L1  H     9    30       P1  8028  0.99
      P1  H  7997  8008       L1    13  0.16

> <Gold.PLP.Chemscore.Internal.Correction>
0.0229

> <Gold.Rescore>
     Score         DG    S(hbond)    S(metal)    S(lipo)     H(rot)  DE(clash)    DE(int)     intcor
     13.62     -15.39       0.90        0.00     110.50       2.35       0.08       1.69       ----

> <Gold.Chemscore.Fitness>
13.6175

> <Gold.Chemscore.DG>
-15.3859

> <Gold.Chemscore.ZeroCoef>
-5.4800

> <Gold.Chemscore.Hbond>
0.8954

> <Gold.Chemscore.Metal>
0.0000

> <Gold.Chemscore.Lipo>
110.5025

> <Gold.Chemscore.Internal_Hbond>
0.0000

> <Gold.Chemscore.DEClash>
0.0776

> <Gold.Chemscore.DEInternal>
1.6908

> <Gold.Chemscore.Rot>
2.3490

> <Gold.Chemscore.Internal.Correction>
   9.000000E+99

> <Gold.Chemscore.Hbonds>
donor molecule, donor type, donor heavy atom, donor atom, acceptor molecule, acceptor atom, score
      L1  H     9    30       P1  8028  0.93

> <Gold.Chemscore.Hbond.Weighted>
-2.9907

> <Gold.Chemscore.Metal.Weighted>
-0.0000

> <Gold.Chemscore.Lipo.Weighted>
-12.9288

> <Gold.Chemscore.Internal_Hbond.Weighted>
0.0000

> <Gold.Chemscore.DEClash.Weighted>
0.0776

> <Gold.Chemscore.DEInternal.Weighted>
1.6908

> <Gold.Chemscore.Rot.Weighted>
6.0136

> <Gold.Chemscore.Internal.Correction.Weighted>
   9.000000E+99

> <Gold.Protein.RotatedTorsions>
[ 6907 6896 6895 6894 ] final   70.65 input  -60.11 | X-H torsion
[ 7974 7965 7964 7962 ] final  -96.39 input  175.53 | X-H torsion
[ 8008 7997 7996 7995 ] final  -16.21 input   59.86 | X-H torsion
[ 10167 10162 10161 10158 ] final   46.47 input  -65.29 | X-H torsion
[ 10718 10713 10712 10709 ] final   30.88 input   66.30 | X-H torsion
[ 10763 10752 10751 10750 ] final  -44.65 input  -60.55 | X-H torsion
[ 11005 11000 10999 10996 ] final  151.13 input  -57.11 | X-H torsion

> <Gold.Protein.ActiveResidues>
 VAL166  LYS551  ARG553  GLY616  TRP617  ASP618  TYR619  PRO620  LYS621  CYS622 
 ASP623  PHE694  ASN695  SER759  ASP760  ASP761  ALA762  ILE779  LEU786  VAL792 
 PHE793  MET794  SER795  GLU796  ALA797  LYS798  CYS799  TRP800  GLU811  SER814 

> <Gold.Protein.RotatedAtoms>
  152.4762  134.4836  159.9673 H   0  0  0  0  0  0  0  0  0  0  0  0  # atno 6907 bound_to 6896
  151.4852  133.3531  159.2852 H   0  0  0  0  0  0  0  0  0  0  0  0  # atno 6908 bound_to 6896
  150.8803  134.8220  159.7281 H   0  0  0  0  0  0  0  0  0  0  0  0  # atno 6909 bound_to 6896
  145.3475  140.9471  143.2573 H   0  0  0  0  0  0  0  0  0  0  0  0  # atno 7974 bound_to 7965
  154.5071  140.2176  155.9230 H   0  0  0  0  0  0  0  0  0  0  0  0  # atno 8008 bound_to 7997
  156.1506  140.3162  155.8609 H   0  0  0  0  0  0  0  0  0  0  0  0  # atno 8009 bound_to 7997
  155.3945  140.0480  157.3030 H   0  0  0  0  0  0  0  0  0  0  0  0  # atno 8010 bound_to 7997
  140.3136  144.2790  150.6195 H   0  0  0  0  0  0  0  0  0  0  0  0  # atno 10167 bound_to 10162
  157.2654  130.7181  149.6475 H   0  0  0  0  0  0  0  0  0  0  0  0  # atno 10718 bound_to 10713
  154.0156  135.6676  153.4768 H   0  0  0  0  0  0  0  0  0  0  0  0  # atno 10763 bound_to 10752
  153.0602  135.5032  154.8072 H   0  0  0  0  0  0  0  0  0  0  0  0  # atno 10764 bound_to 10752
  154.6969  135.3071  154.9363 H   0  0  0  0  0  0  0  0  0  0  0  0  # atno 10765 bound_to 10752
  140.1192  134.8874  157.2048 H   0  0  0  0  0  0  0  0  0  0  0  0  # atno 11005 bound_to 11000
  144.8743  139.4993  143.6753 LP  0  0  0  0  0  0  0  0  0  0  0  0  # atno 17320 bound_to 7965
  146.2982  139.7343  142.9111 LP  0  0  0  0  0  0  0  0  0  0  0  0  # atno 17321 bound_to 7965
  140.5546  143.2201  151.7869 LP  0  0  0  0  0  0  0  0  0  0  0  0  # atno 17342 bound_to 10162
  139.4888  144.4431  151.9742 LP  0  0  0  0  0  0  0  0  0  0  0  0  # atno 17343 bound_to 10162
  155.9663  130.4384  150.5217 LP  0  0  0  0  0  0  0  0  0  0  0  0  # atno 17370 bound_to 10713
  157.3130  131.0667  151.1987 LP  0  0  0  0  0  0  0  0  0  0  0  0  # atno 17371 bound_to 10713
  140.2988  134.3156  155.7295 LP  0  0  0  0  0  0  0  0  0  0  0  0  # atno 17394 bound_to 11000
  141.2148  133.7579  156.9610 LP  0  0  0  0  0  0  0  0  0  0  0  0  # atno 17395 bound_to 11000

$$$$
