#       Name:                AV-unprocessed.smi:36
#       Creating user name   scv26
#       Creation time:       Thu Mar 26 16:08:16 2020


#       File generated by GOLD software.
#

@<TRIPOS>MOLECULE
AV-unprocessed.smi:36
    73    76     1
SMALL
NO_CHARGES


@<TRIPOS>ATOM
      1 ****        -5.7421   2.9640  -0.7239 C.3            1 S1                 0.0000
      2 ****        -5.4804   1.5120  -0.2911 C.3            1 S1                 0.0000
      3 ****        -6.6276   1.0209   0.6070 C.3            1 S1                 0.0000
      4 ****        -5.3696   0.6091  -1.5309 C.3            1 S1                 0.0000
      5 ****        -3.8417   1.4248   0.6872 Si             1 S1                 0.0000
      6 ****        -2.3759   1.9732  -0.3919 C.3            1 S1                 0.0000
      7 ****        -3.9172   2.4904   2.2582 C.3            1 S1                 0.0000
      8 ****        -3.5967  -0.1824   1.1548 O.3            1 S1                 0.0000
      9 ****        -2.4632  -0.6190   1.8751 C.3            1 S1                 0.0000
     10 ****        -2.1624  -2.0768   1.5051 C.3            1 S1                 0.0000
     11 ****        -1.7412  -2.1853   0.1410 O.3            1 S1                 0.0000
     12 ****        -0.6001  -2.9873   0.0321 C.3            1 S1                 0.0000
     13 ****         0.5876  -2.0957  -0.1856 N.pl3          1 S1                 0.0000
     14 ****         0.6145  -0.7499  -0.2587 C.2            1 S1                 0.0000
     15 ****         1.8100  -0.2114  -0.4818 N.2            1 S1                 0.0000
     16 ****         2.6311  -1.3283  -0.5830 C.2            1 S1                 0.0000
     17 ****         4.0833  -1.4262  -0.8438 C.2            1 S1                 0.0000
     18 ****         4.7433  -0.3182  -0.9947 N.2            1 S1                 0.0000
     19 ****         6.1085  -0.3479  -1.2472 C.2            1 S1                 0.0000
     20 ****         6.8569  -1.3247  -1.3414 O.2            1 S1                 0.0000
     21 ****         6.7128   1.0123  -1.3767 C.ar           1 S1                 0.0000
     22 ****         6.5794   1.7352  -2.5813 C.ar           1 S1                 0.0000
     23 ****         7.1418   3.0213  -2.6991 C.ar           1 S1                 0.0000
     24 ****         7.8371   3.5886  -1.6137 C.ar           1 S1                 0.0000
     25 ****         7.9695   2.8704  -0.4093 C.ar           1 S1                 0.0000
     26 ****         7.4075   1.5843  -0.2899 C.ar           1 S1                 0.0000
     27 ****         4.4703  -2.7721  -0.8807 N.pl3          1 S1                 0.0000
     28 ****         3.6234  -3.8769  -0.7020 C.2            1 S1                 0.0000
     29 ****         2.3394  -3.8045  -0.4718 N.2            1 S1                 0.0000
     30 ****         1.9036  -2.4875  -0.4198 C.2            1 S1                 0.0000
     31 ****        -0.4763  -3.7248   1.3656 C.3            1 S1                 0.0000
     32 ****        -1.0278  -2.6952   2.3284 C.3            1 S1                 0.0000
     33 ****        -1.4918  -3.3086   3.5129 O.3            1 S1                 0.0000
     34 ****        -6.6743   3.0478  -1.2840 H              1 S1                 0.0000
     35 ****        -4.9418   3.3391  -1.3620 H              1 S1                 0.0000
     36 ****        -5.8162   3.6284   0.1374 H              1 S1                 0.0000
     37 ****        -6.7338   1.6462   1.4936 H              1 S1                 0.0000
     38 ****        -6.4567  -0.0018   0.9442 H              1 S1                 0.0000
     39 ****        -7.5809   1.0383   0.0778 H              1 S1                 0.0000
     40 ****        -6.2949   0.6123  -2.1081 H              1 S1                 0.0000
     41 ****        -5.1590  -0.4235  -1.2507 H              1 S1                 0.0000
     42 ****        -4.5687   0.9393  -2.1928 H              1 S1                 0.0000
     43 ****        -2.5202   2.9800  -0.7826 H              1 S1                 0.0000
     44 ****        -2.2362   1.3097  -1.2451 H              1 S1                 0.0000
     45 ****        -1.4433   1.9791   0.1715 H              1 S1                 0.0000
     46 ****        -4.0785   3.5419   2.0224 H              1 S1                 0.0000
     47 ****        -2.9912   2.4242   2.8289 H              1 S1                 0.0000
     48 ****        -4.7259   2.1762   2.9178 H              1 S1                 0.0000
     49 ****        -1.6047   0.0228   1.6808 H              1 S1                 0.0000
     50 ****        -2.6849  -0.5403   2.9397 H              1 S1                 0.0000
     51 ****        -3.0640  -2.6827   1.6121 H              1 S1                 0.0000
     52 ****        -0.6236  -3.6336  -0.8460 H              1 S1                 0.0000
     53 ****        -0.2684  -0.1395  -0.1543 H              1 S1                 0.0000
     54 ****         6.0450   1.3077  -3.4175 H              1 S1                 0.0000
     55 ****         7.0383   3.5731  -3.6217 H              1 S1                 0.0000
     56 ****         8.2670   4.5753  -1.7042 H              1 S1                 0.0000
     57 ****         8.5012   3.3066   0.4235 H              1 S1                 0.0000
     58 ****         7.5116   1.0399   0.6377 H              1 S1                 0.0000
     59 ****         4.1306  -4.8402  -0.7716 H              1 S1                 0.0000
     60 ****        -1.1129  -4.6101   1.3264 H              1 S1                 0.0000
     61 ****         0.5449  -4.0347   1.5865 H              1 S1                 0.0000
     62 ****        -0.2634  -1.9531   2.5642 H              1 S1                 0.0000
     63 ****        -2.1485  -3.9478   3.2821 H              1 S1                 0.0000
     64 ****         5.4466  -2.9633  -1.0546 H              1 S1                 0.0000
     65 ****        -1.5344  -1.2725  -0.2112 LP             1 S1                 0.0000
     66 ****        -2.4792  -2.5913  -0.3980 LP             1 S1                 0.0000
     67 ****         2.0564   0.7548  -0.5577 LP             1 S1                 0.0000
     68 ****         4.2673   0.5587  -0.9289 LP             1 S1                 0.0000
     69 ****         6.4899  -2.2483  -1.2306 LP             1 S1                 0.0000
     70 ****         7.8303  -1.1926  -1.5285 LP             1 S1                 0.0000
     71 ****         1.7446  -4.5989  -0.3484 LP             1 S1                 0.0000
     72 ****        -1.8905  -2.6182   4.1165 LP             1 S1                 0.0000
     73 ****        -0.7311  -3.7599   3.9794 LP             1 S1                 0.0000
@<TRIPOS>BOND
    1    1    2 1     
    2    1   34 1     
    3    1   35 1     
    4    1   36 1     
    5    2    3 1     
    6    2    4 1     
    7    2    5 1     
    8    3   37 1     
    9    3   38 1     
   10    3   39 1     
   11    4   40 1     
   12    4   41 1     
   13    4   42 1     
   14    5    6 1     
   15    5    7 1     
   16    5    8 1     
   17    6   43 1     
   18    6   44 1     
   19    6   45 1     
   20    7   46 1     
   21    7   47 1     
   22    7   48 1     
   23    8    9 1     
   24    9   10 1     
   25    9   49 1     
   26    9   50 1     
   27   10   32 1     
   28   10   11 1     
   29   10   51 1     
   30   11   12 1     
   31   12   13 1     
   32   12   31 1     
   33   12   52 1     
   34   13   30 1     
   35   13   14 1     
   36   14   15 2     
   37   14   53 1     
   38   15   16 1     
   39   16   30 2     
   40   16   17 1     
   41   17   18 2     
   42   17   27 1     
   43   18   19 1     
   44   19   20 2     
   45   19   21 1     
   46   21   26 ar    
   47   21   22 ar    
   48   22   23 ar    
   49   22   54 1     
   50   23   24 ar    
   51   23   55 1     
   52   24   25 ar    
   53   24   56 1     
   54   25   26 ar    
   55   25   57 1     
   56   26   58 1     
   57   27   28 1     
   58   27   64 1     
   59   28   29 2     
   60   28   59 1     
   61   29   30 1     
   62   31   32 1     
   63   31   60 1     
   64   31   61 1     
   65   32   33 1     
   66   32   62 1     
   67   33   63 1     
   68   11   65 1     
   69   11   66 1     
   70   15   67 1     
   71   18   68 1     
   72   20   69 1     
   73   20   70 1     
   74   29   71 1     
   75   33   72 1     
   76   33   73 1     
@<TRIPOS>SUBSTRUCTURE
      1 S1             1
@<TRIPOS>SET
LONE_PAIRS      STATIC     ATOMS    <user>   **** ""
9 65 66 67 68 69 70 71 72 73
DONOR_HYDROGENS      STATIC     ATOMS    <user>   **** ""
2 64 63
ATOM$BLUE        STATIC     ATOMS    COLORGROUP SYSTEM
9 65 66 67 68 69 70 71 72 73
ATOM$RED        STATIC     ATOMS    COLORGROUP SYSTEM
2 64 63
