AV-unprocessed.smi:290|AV-procd|sdf|2237|dock4
  -GOLD-   2262022103D 1   1.00000     0.00000
 Structure written by MMmdl.
 59 62  0  0  0  0  0  0  0  0  2 V2000
  149.7456  138.4861  155.2983 C   0  0  0  0  0  0  0  0  0  0  0  0
  149.8716  140.0180  155.2616 C   0  0  2  0  0  0  0  0  0  0  0  0
  151.2434  140.4102  155.2951 O   0  0  0  0  0  0  0  0  0  0  0  0
  151.4838  141.2467  156.4173 C   0  0  0  0  0  0  0  0  0  0  0  0
  150.1426  141.9201  156.6750 C   0  0  0  0  0  0  0  0  0  0  0  0
  149.1520  140.8005  156.3866 C   0  0  2  0  0  0  0  0  0  0  0  0
  149.0284  140.0060  157.5556 O   0  0  0  0  0  0  0  0  0  0  0  0
  147.7445  141.2965  155.9774 C   0  0  0  0  0  0  0  0  0  0  0  0
  146.8008  140.2169  155.7299 N   0  0  0  0  0  0  0  0  0  0  0  0
  145.8226  139.7644  156.5868 C   0  0  0  0  0  0  0  0  0  0  0  0
  145.1023  138.7734  156.1364 N   0  0  0  0  0  0  0  0  0  0  0  0
  145.6182  138.5285  154.8697 C   0  0  0  0  0  0  0  0  0  0  0  0
  145.3182  137.5992  153.8338 C   0  0  0  0  0  0  0  0  0  0  0  0
  144.3525  136.6573  153.8941 N   0  0  0  0  0  0  0  0  0  0  0  0
  143.2360  136.8302  152.9702 C   0  0  0  0  0  0  0  0  0  0  0  0
  142.8697  135.4297  152.4764 C   0  0  0  0  0  0  0  0  0  0  0  0
  144.2038  134.6819  152.5671 C   0  0  2  0  0  0  0  0  0  0  0  0
  144.1184  133.1920  152.5216 N   0  3  1  0  0  0  0  0  0  0  0  0
  143.5004  132.6910  151.2672 C   0  0  0  0  0  0  0  0  0  0  0  0
  145.4315  132.5432  152.7940 C   0  0  0  0  0  0  0  0  0  0  0  0
  146.4492  132.7237  151.6524 C   0  0  0  0  0  0  0  0  0  0  0  0
  146.3055  131.6946  150.6973 O   0  0  0  0  0  0  0  0  0  0  0  0
  144.8062  135.2693  153.8647 C   0  0  2  0  0  0  0  0  0  0  0  0
  144.3555  134.5598  155.1559 C   0  0  0  0  0  0  0  0  0  0  0  0
  146.0485  137.6574  152.6943 N   0  0  0  0  0  0  0  0  0  0  0  0
  147.0212  138.5659  152.5702 C   0  0  0  0  0  0  0  0  0  0  0  0
  147.4178  139.4897  153.4487 N   0  0  0  0  0  0  0  0  0  0  0  0
  146.6820  139.4333  154.5955 C   0  0  0  0  0  0  0  0  0  0  0  0
  144.8138  135.0005  151.7207 H   0  0  0  0  0  0  0  0  0  0  0  0
  145.8957  135.2277  153.8156 H   0  0  0  0  0  0  0  0  0  0  0  0
  148.6995  138.1788  155.2827 H   0  0  0  0  0  0  0  0  0  0  0  0
  150.2092  138.0648  156.1908 H   0  0  0  0  0  0  0  0  0  0  0  0
  150.2361  138.0377  154.4343 H   0  0  0  0  0  0  0  0  0  0  0  0
  149.4970  140.3628  154.2971 H   0  0  0  0  0  0  0  0  0  0  0  0
  151.7754  140.6289  157.2679 H   0  0  0  0  0  0  0  0  0  0  0  0
  152.2847  141.9599  156.2221 H   0  0  0  0  0  0  0  0  0  0  0  0
  150.0579  142.3363  157.6797 H   0  0  0  0  0  0  0  0  0  0  0  0
  150.0089  142.7352  155.9623 H   0  0  0  0  0  0  0  0  0  0  0  0
  149.7585  139.4071  157.5911 H   0  0  0  0  0  0  0  0  0  0  0  0
  147.3272  141.9304  156.7608 H   0  0  0  0  0  0  0  0  0  0  0  0
  147.8059  141.9182  155.0831 H   0  0  0  0  0  0  0  0  0  0  0  0
  145.6629  140.1921  157.5660 H   0  0  0  0  0  0  0  0  0  0  0  0
  142.3928  137.3065  153.4711 H   0  0  0  0  0  0  0  0  0  0  0  0
  143.5183  137.4639  152.1283 H   0  0  0  0  0  0  0  0  0  0  0  0
  142.1320  134.9819  153.1436 H   0  0  0  0  0  0  0  0  0  0  0  0
  142.4517  135.4491  151.4694 H   0  0  0  0  0  0  0  0  0  0  0  0
  144.0769  133.0070  150.3968 H   0  0  0  0  0  0  0  0  0  0  0  0
  142.4800  133.0551  151.1516 H   0  0  0  0  0  0  0  0  0  0  0  0
  143.4351  131.6047  151.2515 H   0  0  0  0  0  0  0  0  0  0  0  0
  145.8405  132.9395  153.7246 H   0  0  0  0  0  0  0  0  0  0  0  0
  145.3020  131.4738  152.9578 H   0  0  0  0  0  0  0  0  0  0  0  0
  146.3639  133.6930  151.1634 H   0  0  0  0  0  0  0  0  0  0  0  0
  147.4608  132.6698  152.0557 H   0  0  0  0  0  0  0  0  0  0  0  0
  147.1549  131.5051  150.3275 H   0  0  0  0  0  0  0  0  0  0  0  0
  144.7191  133.5345  155.2002 H   0  0  0  0  0  0  0  0  0  0  0  0
  143.2692  134.5339  155.2479 H   0  0  0  0  0  0  0  0  0  0  0  0
  144.7464  135.0743  156.0342 H   0  0  0  0  0  0  0  0  0  0  0  0
  147.5604  138.5494  151.6345 H   0  0  0  0  0  0  0  0  0  0  0  0
  143.5037  132.9224  153.2770 H   0  0  0  0  0  0  0  0  0  0  0  0
  1  2  1  0  0  0  0
  1 31  1  0  0  0  0
  1 32  1  0  0  0  0
  1 33  1  0  0  0  0
  2  6  1  0  0  0  0
  2  3  1  0  0  0  0
  2 34  1  0  0  0  0
  3  4  1  0  0  0  0
  4  5  1  0  0  0  0
  4 35  1  0  0  0  0
  4 36  1  0  0  0  0
  5  6  1  0  0  0  0
  5 37  1  0  0  0  0
  5 38  1  0  0  0  0
  6  7  1  0  0  0  0
  6  8  1  0  0  0  0
  7 39  1  0  0  0  0
  8  9  1  0  0  0  0
  8 40  1  0  0  0  0
  8 41  1  0  0  0  0
  9 28  1  0  0  0  0
  9 10  1  0  0  0  0
 10 11  2  0  0  0  0
 10 42  1  0  0  0  0
 11 12  1  0  0  0  0
 12 28  2  0  0  0  0
 12 13  1  0  0  0  0
 13 14  1  0  0  0  0
 13 25  2  0  0  0  0
 14 23  1  0  0  0  0
 14 15  1  0  0  0  0
 15 16  1  0  0  0  0
 15 43  1  0  0  0  0
 15 44  1  0  0  0  0
 16 17  1  0  0  0  0
 16 45  1  0  0  0  0
 16 46  1  0  0  0  0
 17 29  1  0  0  0  0
 17 18  1  0  0  0  0
 17 23  1  0  0  0  0
 18 19  1  0  0  0  0
 18 20  1  0  0  0  0
 18 59  1  0  0  0  0
 19 47  1  0  0  0  0
 19 48  1  0  0  0  0
 19 49  1  0  0  0  0
 20 21  1  0  0  0  0
 20 50  1  0  0  0  0
 20 51  1  0  0  0  0
 21 22  1  0  0  0  0
 21 52  1  0  0  0  0
 21 53  1  0  0  0  0
 22 54  1  0  0  0  0
 23 30  1  0  0  0  0
 23 24  1  0  0  0  0
 24 55  1  0  0  0  0
 24 56  1  0  0  0  0
 24 57  1  0  0  0  0
 25 26  1  0  0  0  0
 26 27  2  0  0  0  0
 26 58  1  0  0  0  0
 27 28  1  0  0  0  0
M  CHG  1  18   1
M  END
> <s_m_source_file>
AV-unprocessed.smi

> <i_m_source_file_index>
290

> <i_lp_mmshare_version>
43012

> <i_f3d_flags>
0

> <s_epik_input>
W0NIMl0xW0NIMl1PW0NAQEhdKFtDSDNdKVtDQEBdMShbT0hdKVtDSDJdbihbY0hdbjIpYyhjMjMpbltjSF1uYzNONFtDSDJdW0NIMl1bQ0BIXShbQ0BIXTRbQ0gzXSlOKFtDSDNdKVtDSDJdW0NIMl1bT0hd

> <s_epik_cmdline>
J2VwaWtfcHl0aG9uJywgJy1waCcsICc3LjAnLCAnLXRuJywgJzgnLCAnLW1hJywgJzIwMCcsICctbWV0YWxfYmluZGluZycsICctaW1hZScsICc8aW5maWxlLm1hZT4nLCAnLW9tYWUnLCAnPG91dGZpbGUubWFlPic=

> <r_lp_tautomer_probability>
1

> <r_epik_Ionization_Penalty>
0.0036983

> <r_epik_Ionization_Penalty_Charging>
0.0032725

> <r_epik_Ionization_Penalty_Neutral>
0.000425798

> <r_epik_State_Penalty>
-0

> <r_epik_Charging_Adjusted_Penalty>
0.0032725

> <i_epik_Tot_Q>
1

> <i_epik_Tot_abs_Q>
1

> <r_epik_Metal_State_Penalty>
-0

> <b_epik_Metal_Only>
0

> <s_lp_Force_Field>
OPLS_2005

> <r_lp_Energy>
65.7953

> <b_lp_Chiralities_Consistent>
1

> <s_lp_Variant>
AV-unprocessed.smi:290-23

> <Gold.Version>
5.8.1

> <Gold.Id.Protein>
6NUR|6NUR_protein|mol2

> <Gold.PLP.Fitness>
41.6619

> <Gold.PLP.PLP>
-27.4061

> <Gold.PLP.part.hbond>
-3.0000

> <Gold.PLP.part.metal>
0.0000

> <Gold.PLP.part.buried>
-5.8978

> <Gold.PLP.part.nonpolar>
-20.6572

> <Gold.PLP.part.repulsive>
0.5860

> <Gold.PLP.ligand.clash>
0.0000

> <Gold.PLP.ligand.torsion>
0.5591

> <Gold.PLP.Chemscore.Hbond>
3.9585

> <Gold.PLP.Chemscore.CHOScore>
1.0431

> <Gold.PLP.Chemscore.Metal>
0.0000

> <Gold.Chemscore.Hbonds>
donor molecule, donor type, donor heavy atom, donor atom, acceptor molecule, acceptor atom, score
      L1  H    18    59       P1 10957  1.82
      L1  H    22    54       P1 10747  1.00
      P1  H  7989  7998       L1     3  0.96
      L1  C    26    58       P1  7948  0.29
      L1  C    26    58       P1  7957  0.89

> <Gold.PLP.Chemscore.Internal.Correction>
0.3692

> <Gold.Rescore>
     Score         DG    S(hbond)    S(metal)    S(lipo)     H(rot)  DE(clash)    DE(int)     intcor
     11.43     -12.25       2.59        0.00      64.11       3.67       0.17       0.66       ----

> <Gold.Chemscore.Fitness>
11.4271

> <Gold.Chemscore.DG>
-12.2520

> <Gold.Chemscore.ZeroCoef>
-5.4800

> <Gold.Chemscore.Hbond>
2.5916

> <Gold.Chemscore.Metal>
0.0000

> <Gold.Chemscore.Lipo>
64.1061

> <Gold.Chemscore.Internal_Hbond>
0.0000

> <Gold.Chemscore.DEClash>
0.1693

> <Gold.Chemscore.DEInternal>
0.6556

> <Gold.Chemscore.Rot>
3.6658

> <Gold.Chemscore.Internal.Correction>
   9.000000E+99

> <Gold.Chemscore.Hbonds>
donor molecule, donor type, donor heavy atom, donor atom, acceptor molecule, acceptor atom, score
      L1  H    18    59       P1 10957  0.57
      L1  H    22    54       P1 10747  0.99
      P1  H  7989  7998       L1     3  0.46

> <Gold.Chemscore.Hbond.Weighted>
-8.6560

> <Gold.Chemscore.Metal.Weighted>
-0.0000

> <Gold.Chemscore.Lipo.Weighted>
-7.5004

> <Gold.Chemscore.Internal_Hbond.Weighted>
0.0000

> <Gold.Chemscore.DEClash.Weighted>
0.1693

> <Gold.Chemscore.DEInternal.Weighted>
0.6556

> <Gold.Chemscore.Rot.Weighted>
9.3844

> <Gold.Chemscore.Internal.Correction.Weighted>
   9.000000E+99

> <Gold.Protein.RotatedTorsions>
[ 6907 6896 6895 6894 ] final  104.46 input  -60.11 | X-H torsion
[ 7974 7965 7964 7962 ] final   70.79 input  175.53 | X-H torsion
[ 8008 7997 7996 7995 ] final  157.64 input   59.86 | X-H torsion
[ 10167 10162 10161 10158 ] final   15.20 input  -65.29 | X-H torsion
[ 10718 10713 10712 10709 ] final  -20.62 input   66.30 | X-H torsion
[ 10763 10752 10751 10750 ] final  -33.70 input  -60.55 | X-H torsion
[ 11005 11000 10999 10996 ] final  108.43 input  -57.11 | X-H torsion

> <Gold.Protein.ActiveResidues>
 VAL166  LYS551  ARG553  GLY616  TRP617  ASP618  TYR619  PRO620  LYS621  CYS622 
 ASP623  PHE694  ASN695  SER759  ASP760  ASP761  ALA762  ILE779  LEU786  VAL792 
 PHE793  MET794  SER795  GLU796  ALA797  LYS798  CYS799  TRP800  GLU811  SER814 

> <Gold.Protein.RotatedAtoms>
  152.5263  133.9673  159.7745 H   0  0  0  0  0  0  0  0  0  0  0  0  # atno 6907 bound_to 6896
  150.9952  133.6102  159.2709 H   0  0  0  0  0  0  0  0  0  0  0  0  # atno 6908 bound_to 6896
  151.3231  135.0829  159.9366 H   0  0  0  0  0  0  0  0  0  0  0  0  # atno 6909 bound_to 6896
  145.7739  139.2856  143.1305 H   0  0  0  0  0  0  0  0  0  0  0  0  # atno 7974 bound_to 7965
  156.2352  140.1880  156.7138 H   0  0  0  0  0  0  0  0  0  0  0  0  # atno 8008 bound_to 7997
  154.6093  140.0624  156.9500 H   0  0  0  0  0  0  0  0  0  0  0  0  # atno 8009 bound_to 7997
  155.2043  140.3295  155.4341 H   0  0  0  0  0  0  0  0  0  0  0  0  # atno 8010 bound_to 7997
  140.5884  143.8845  150.6851 H   0  0  0  0  0  0  0  0  0  0  0  0  # atno 10167 bound_to 10162
  156.5293  130.4651  149.6555 H   0  0  0  0  0  0  0  0  0  0  0  0  # atno 10718 bound_to 10713
  153.8345  135.6863  153.4810 H   0  0  0  0  0  0  0  0  0  0  0  0  # atno 10763 bound_to 10752
  153.1491  135.4625  154.9608 H   0  0  0  0  0  0  0  0  0  0  0  0  # atno 10764 bound_to 10752
  154.7872  135.3289  154.7805 H   0  0  0  0  0  0  0  0  0  0  0  0  # atno 10765 bound_to 10752
  139.8844  134.9430  156.5971 H   0  0  0  0  0  0  0  0  0  0  0  0  # atno 11005 bound_to 11000
  146.0142  140.8407  142.9955 LP  0  0  0  0  0  0  0  0  0  0  0  0  # atno 17320 bound_to 7965
  144.6808  140.2535  143.7328 LP  0  0  0  0  0  0  0  0  0  0  0  0  # atno 17321 bound_to 7965
  140.2361  143.3698  152.1525 LP  0  0  0  0  0  0  0  0  0  0  0  0  # atno 17342 bound_to 10162
  139.5212  144.7042  151.5403 LP  0  0  0  0  0  0  0  0  0  0  0  0  # atno 17343 bound_to 10162
  156.3075  130.7210  151.2096 LP  0  0  0  0  0  0  0  0  0  0  0  0  # atno 17370 bound_to 10713
  157.7424  131.0490  150.5025 LP  0  0  0  0  0  0  0  0  0  0  0  0  # atno 17371 bound_to 10713
  140.7912  133.8581  155.8647 LP  0  0  0  0  0  0  0  0  0  0  0  0  # atno 17394 bound_to 11000
  140.9676  134.1574  157.4603 LP  0  0  0  0  0  0  0  0  0  0  0  0  # atno 17395 bound_to 11000

$$$$
