AV-unprocessed.smi:2453|AV-procd|sdf|9690|dock8
  -GOLD-   2272013333D 1   1.00000     0.00000
 Structure written by MMmdl.
 40 41  0  0  0  0  0  0  0  0  1 V2000
  150.9975  138.0042  154.4672 C   0  0  0  0  0  0  0  0  0  0  0  0
  150.1007  139.2256  154.5675 C   0  0  0  0  0  0  0  0  0  0  0  0
  150.6259  140.4471  155.0416 C   0  0  0  0  0  0  0  0  0  0  0  0
  149.8988  141.5774  155.1579 N   0  0  0  0  0  0  0  0  0  0  0  0
  148.6008  141.5288  154.7949 C   0  0  0  0  0  0  0  0  0  0  0  0
  147.9741  140.3651  154.3084 C   0  0  0  0  0  0  0  0  0  0  0  0
  148.7341  139.1753  154.1994 C   0  0  0  0  0  0  0  0  0  0  0  0
  148.2055  137.9525  153.6960 N   0  0  0  0  0  0  0  0  0  0  0  0
  146.9892  137.4144  153.8908 C   0  0  0  0  0  0  0  0  0  0  0  0
  146.1078  137.8836  154.6107 O   0  0  0  0  0  0  0  0  0  0  0  0
  146.8531  136.2700  153.2052 N   0  0  0  0  0  0  0  0  0  0  0  0
  145.6599  135.4250  153.1978 C   0  0  1  0  0  0  0  0  0  0  0  0
  144.4720  136.2079  152.5978 C   0  0  0  0  0  0  0  0  0  0  0  0
  143.2078  135.3416  152.5048 C   0  0  0  0  0  0  0  0  0  0  0  0
  143.4734  134.0653  151.6954 C   0  0  0  0  0  0  0  0  0  0  0  0
  144.6395  133.2664  152.2962 C   0  0  0  0  0  0  0  0  0  0  0  0
  145.9240  134.1167  152.4064 C   0  0  2  0  0  0  0  0  0  0  0  0
  147.1086  133.2867  152.9506 C   0  0  0  0  0  0  0  0  0  0  0  0
  148.1441  134.1117  153.4447 O   0  0  0  0  0  0  0  0  0  0  0  0
  152.0067  138.2229  154.8174 H   0  0  0  0  0  0  0  0  0  0  0  0
  151.0648  137.6663  153.4328 H   0  0  0  0  0  0  0  0  0  0  0  0
  150.5998  137.1894  155.0729 H   0  0  0  0  0  0  0  0  0  0  0  0
  151.6630  140.5231  155.3342 H   0  0  0  0  0  0  0  0  0  0  0  0
  148.0440  142.4494  154.8871 H   0  0  0  0  0  0  0  0  0  0  0  0
  146.9361  140.4143  154.0187 H   0  0  0  0  0  0  0  0  0  0  0  0
  148.8502  137.3989  153.1516 H   0  0  0  0  0  0  0  0  0  0  0  0
  147.6318  135.9580  152.6439 H   0  0  0  0  0  0  0  0  0  0  0  0
  145.4100  135.1566  154.2261 H   0  0  0  0  0  0  0  0  0  0  0  0
  144.2605  137.0920  153.2005 H   0  0  0  0  0  0  0  0  0  0  0  0
  144.7337  136.5703  151.6027 H   0  0  0  0  0  0  0  0  0  0  0  0
  142.8708  135.0765  153.5078 H   0  0  0  0  0  0  0  0  0  0  0  0
  142.3993  135.9117  152.0467 H   0  0  0  0  0  0  0  0  0  0  0  0
  142.5748  133.4481  151.6698 H   0  0  0  0  0  0  0  0  0  0  0  0
  143.7000  134.3264  150.6608 H   0  0  0  0  0  0  0  0  0  0  0  0
  144.3505  132.9001  153.2820 H   0  0  0  0  0  0  0  0  0  0  0  0
  144.8276  132.3839  151.6838 H   0  0  0  0  0  0  0  0  0  0  0  0
  146.1943  134.4063  151.3894 H   0  0  0  0  0  0  0  0  0  0  0  0
  146.7716  132.6345  153.7569 H   0  0  0  0  0  0  0  0  0  0  0  0
  147.5182  132.6368  152.1771 H   0  0  0  0  0  0  0  0  0  0  0  0
  148.1417  134.9225  152.9589 H   0  0  0  0  0  0  0  0  0  0  0  0
  1  2  1  0  0  0  0
  1 20  1  0  0  0  0
  1 21  1  0  0  0  0
  1 22  1  0  0  0  0
  2  7  1  0  0  0  0
  2  3  2  0  0  0  0
  3  4  1  0  0  0  0
  3 23  1  0  0  0  0
  4  5  2  0  0  0  0
  5  6  1  0  0  0  0
  5 24  1  0  0  0  0
  6  7  2  0  0  0  0
  6 25  1  0  0  0  0
  7  8  1  0  0  0  0
  8  9  1  0  0  0  0
  8 26  1  0  0  0  0
  9 10  2  0  0  0  0
  9 11  1  0  0  0  0
 11 12  1  0  0  0  0
 11 27  1  0  0  0  0
 12 17  1  0  0  0  0
 12 13  1  0  0  0  0
 12 28  1  0  0  0  0
 13 14  1  0  0  0  0
 13 29  1  0  0  0  0
 13 30  1  0  0  0  0
 14 15  1  0  0  0  0
 14 31  1  0  0  0  0
 14 32  1  0  0  0  0
 15 16  1  0  0  0  0
 15 33  1  0  0  0  0
 15 34  1  0  0  0  0
 16 17  1  0  0  0  0
 16 35  1  0  0  0  0
 16 36  1  0  0  0  0
 17 18  1  0  0  0  0
 17 37  1  0  0  0  0
 18 19  1  0  0  0  0
 18 38  1  0  0  0  0
 18 39  1  0  0  0  0
 19 40  1  0  0  0  0
M  END
> <s_m_source_file>
AV-unprocessed.smi

> <i_m_source_file_index>
2453

> <i_lp_mmshare_version>
43012

> <i_f3d_flags>
0

> <s_epik_input>
W0NIM11jMVtjSF1uW2NIXVtjSF1jMVtOSF1DKD1PKVtOSF1bQ0BASF0yW0NIMl1bQ0gyXVtDSDJdW0NIMl1bQ0BIXTJbQ0gyXVtPSF0=

> <s_epik_cmdline>
J2VwaWtfcHl0aG9uJywgJy1waCcsICc3LjAnLCAnLXRuJywgJzgnLCAnLW1hJywgJzIwMCcsICctbWV0YWxfYmluZGluZycsICctaW1hZScsICc8aW5maWxlLm1hZT4nLCAnLW9tYWUnLCAnPG91dGZpbGUubWFlPic=

> <r_epik_Ionization_Penalty>
0.210691

> <r_epik_Ionization_Penalty_Charging>
0

> <r_epik_Ionization_Penalty_Neutral>
0.210691

> <r_epik_State_Penalty>
0.200732

> <r_epik_Charging_Adjusted_Penalty>
0.200732

> <i_epik_Tot_Q>
0

> <i_epik_Tot_abs_Q>
0

> <r_epik_Metal_State_Penalty>
0.147519

> <b_epik_Metal_Only>
0

> <s_lp_Force_Field>
OPLS_2005

> <r_lp_Energy>
20.8004

> <b_lp_Chiralities_Consistent>
1

> <s_lp_Variant>
AV-unprocessed.smi:2453-4

> <Gold.Version>
5.8.1

> <Gold.Id.Protein>
6NUR|6NUR_protein|mol2

> <Gold.PLP.Fitness>
37.8837

> <Gold.PLP.PLP>
-27.1695

> <Gold.PLP.part.hbond>
-3.4707

> <Gold.PLP.part.metal>
0.0000

> <Gold.PLP.part.buried>
-0.2560

> <Gold.PLP.part.nonpolar>
-23.9076

> <Gold.PLP.part.repulsive>
0.2311

> <Gold.PLP.ligand.clash>
0.0000

> <Gold.PLP.ligand.torsion>
0.5191

> <Gold.PLP.Chemscore.Hbond>
2.9120

> <Gold.PLP.Chemscore.CHOScore>
1.0000

> <Gold.PLP.Chemscore.Metal>
0.0000

> <Gold.Chemscore.Hbonds>
donor molecule, donor type, donor heavy atom, donor atom, acceptor molecule, acceptor atom, score
      L1  H     8    26       P1  7948  0.90
      L1  H    11    27       P1  7948  1.00
      L1  H    19    40       P1  7948  1.00
      L1  C     5    24       P1  8028  0.98

> <Gold.PLP.Chemscore.Internal.Correction>
0.0164

> <Gold.Rescore>
     Score         DG    S(hbond)    S(metal)    S(lipo)     H(rot)  DE(clash)    DE(int)     intcor
     15.71     -18.07       2.82        0.00      65.50       1.75       0.05       2.31       ----

> <Gold.Chemscore.Fitness>
15.7129

> <Gold.Chemscore.DG>
-18.0732

> <Gold.Chemscore.ZeroCoef>
-5.4800

> <Gold.Chemscore.Hbond>
2.8167

> <Gold.Chemscore.Metal>
0.0000

> <Gold.Chemscore.Lipo>
65.5005

> <Gold.Chemscore.Internal_Hbond>
0.0000

> <Gold.Chemscore.DEClash>
0.0485

> <Gold.Chemscore.DEInternal>
2.3117

> <Gold.Chemscore.Rot>
1.7493

> <Gold.Chemscore.Internal.Correction>
   9.000000E+99

> <Gold.Chemscore.Hbonds>
donor molecule, donor type, donor heavy atom, donor atom, acceptor molecule, acceptor atom, score
      L1  H     8    26       P1  7948  0.88
      L1  H    11    27       P1  7948  0.92
      L1  H    19    40       P1  7948  0.85

> <Gold.Chemscore.Hbond.Weighted>
-9.4078

> <Gold.Chemscore.Metal.Weighted>
-0.0000

> <Gold.Chemscore.Lipo.Weighted>
-7.6636

> <Gold.Chemscore.Internal_Hbond.Weighted>
0.0000

> <Gold.Chemscore.DEClash.Weighted>
0.0485

> <Gold.Chemscore.DEInternal.Weighted>
2.3117

> <Gold.Chemscore.Rot.Weighted>
4.4782

> <Gold.Chemscore.Internal.Correction.Weighted>
   9.000000E+99

> <Gold.Protein.RotatedTorsions>
[ 6907 6896 6895 6894 ] final  -50.19 input  -60.11 | X-H torsion
[ 7974 7965 7964 7962 ] final -111.40 input  175.53 | X-H torsion
[ 8008 7997 7996 7995 ] final  -20.62 input   59.86 | X-H torsion
[ 10167 10162 10161 10158 ] final  131.02 input  -65.29 | X-H torsion
[ 10718 10713 10712 10709 ] final  102.42 input   66.30 | X-H torsion
[ 10763 10752 10751 10750 ] final  -42.47 input  -60.55 | X-H torsion
[ 11005 11000 10999 10996 ] final   18.15 input  -57.11 | X-H torsion

> <Gold.Protein.ActiveResidues>
 VAL166  LYS551  ARG553  GLY616  TRP617  ASP618  TYR619  PRO620  LYS621  CYS622 
 ASP623  PHE694  ASN695  SER759  ASP760  ASP761  ALA762  ILE779  LEU786  VAL792 
 PHE793  MET794  SER795  GLU796  ALA797  LYS798  CYS799  TRP800  GLU811  SER814 

> <Gold.Protein.RotatedAtoms>
  150.8731  134.8109  159.7169 H   0  0  0  0  0  0  0  0  0  0  0  0  # atno 6907 bound_to 6896
  152.4728  134.4915  159.9706 H   0  0  0  0  0  0  0  0  0  0  0  0  # atno 6908 bound_to 6896
  151.5001  133.3468  159.2903 H   0  0  0  0  0  0  0  0  0  0  0  0  # atno 6909 bound_to 6896
  145.1566  140.8857  143.3615 H   0  0  0  0  0  0  0  0  0  0  0  0  # atno 7974 bound_to 7965
  154.4758  140.2057  155.9883 H   0  0  0  0  0  0  0  0  0  0  0  0  # atno 8008 bound_to 7997
  156.1086  140.3232  155.8010 H   0  0  0  0  0  0  0  0  0  0  0  0  # atno 8009 bound_to 7997
  155.4675  140.0528  157.2974 H   0  0  0  0  0  0  0  0  0  0  0  0  # atno 8010 bound_to 7997
  139.5403  144.6724  151.4647 H   0  0  0  0  0  0  0  0  0  0  0  0  # atno 10167 bound_to 10162
  157.6802  131.0752  150.5402 H   0  0  0  0  0  0  0  0  0  0  0  0  # atno 10718 bound_to 10713
  153.9796  135.6718  153.4749 H   0  0  0  0  0  0  0  0  0  0  0  0  # atno 10763 bound_to 10752
  153.0754  135.4951  154.8390 H   0  0  0  0  0  0  0  0  0  0  0  0  # atno 10764 bound_to 10752
  154.7172  135.3109  154.9066 H   0  0  0  0  0  0  0  0  0  0  0  0  # atno 10765 bound_to 10752
  140.4280  134.1449  155.7678 H   0  0  0  0  0  0  0  0  0  0  0  0  # atno 11005 bound_to 11000
  145.0375  139.3288  143.5993 LP  0  0  0  0  0  0  0  0  0  0  0  0  # atno 17320 bound_to 7965
  146.3488  139.9736  142.8703 LP  0  0  0  0  0  0  0  0  0  0  0  0  # atno 17321 bound_to 7965
  140.6630  143.8458  150.6909 LP  0  0  0  0  0  0  0  0  0  0  0  0  # atno 17342 bound_to 10162
  140.1859  143.4076  152.1899 LP  0  0  0  0  0  0  0  0  0  0  0  0  # atno 17343 bound_to 10162
  156.5709  130.4279  149.6020 LP  0  0  0  0  0  0  0  0  0  0  0  0  # atno 17370 bound_to 10713
  156.2741  130.7034  151.1840 LP  0  0  0  0  0  0  0  0  0  0  0  0  # atno 17371 bound_to 10713
  141.1757  133.8519  157.1429 LP  0  0  0  0  0  0  0  0  0  0  0  0  # atno 17394 bound_to 11000
  140.0154  134.9970  157.0481 LP  0  0  0  0  0  0  0  0  0  0  0  0  # atno 17395 bound_to 11000

$$$$
