AV-unprocessed.smi:150|AV-procd|sdf|1243|dock3
  -GOLD-   2262018463D 1   1.00000     0.00000
 Structure written by MMmdl.
 55 57  0  0  0  0  0  0  0  0  1 V2000
  150.6843  141.8931  156.7970 C   0  0  0  0  0  0  0  0  0  0  0  0
  150.5751  140.5382  157.5135 C   0  0  0  0  0  0  0  0  0  0  0  0
  151.0696  140.6634  158.9648 C   0  0  0  0  0  0  0  0  0  0  0  0
  151.3267  139.4472  156.7186 C   0  0  0  0  0  0  0  0  0  0  0  0
  150.8306  139.1720  155.2712 C   0  0  1  0  0  0  0  0  0  0  0  0
  151.2484  137.7929  154.7036 C   0  0  0  0  0  0  0  0  0  0  0  0
  151.2832  136.8100  155.7162 O   0  0  0  0  0  0  0  0  0  0  0  0
  149.3834  139.4032  155.1380 N   0  0  0  0  0  0  0  0  0  0  0  0
  148.9439  140.6673  154.5547 C   0  0  0  0  0  0  0  0  0  0  0  0
  148.4969  138.3831  154.9832 C   0  0  0  0  0  0  0  0  0  0  0  0
  148.5264  137.3147  155.8226 N   0  0  0  0  0  0  0  0  0  0  0  0
  147.6676  136.3036  155.6654 C   0  0  0  0  0  0  0  0  0  0  0  0
  146.7138  136.1554  154.7449 N   0  0  0  0  0  0  0  0  0  0  0  0
  146.6810  137.2191  153.8927 C   0  0  0  0  0  0  0  0  0  0  0  0
  147.5269  138.3638  153.9400 C   0  0  0  0  0  0  0  0  0  0  0  0
  147.1871  139.2433  152.9185 N   0  0  0  0  0  0  0  0  0  0  0  0
  146.2018  138.6512  152.3014 C   0  0  0  0  0  0  0  0  0  0  0  0
  145.8391  137.4262  152.8138 N   0  0  0  0  0  0  0  0  0  0  0  0
  144.7817  136.5552  152.3231 C   0  0  0  0  0  0  0  0  0  0  0  0
  145.2938  135.2842  151.6002 C   0  0  0  0  0  0  0  0  0  0  0  0
  146.3207  135.6773  150.7066 O   0  0  0  0  0  0  0  0  0  0  0  0
  145.8903  134.2930  152.6197 C   0  0  0  0  0  0  0  0  0  0  0  0
  146.2555  132.9446  151.9743 C   0  0  0  0  0  0  0  0  0  0  0  0
  145.1174  132.3937  151.3231 O   0  0  0  0  0  0  0  0  0  0  0  0
  144.6500  133.2063  150.2535 C   0  0  0  0  0  0  0  0  0  0  0  0
  144.1885  134.5736  150.7885 C   0  0  0  0  0  0  0  0  0  0  0  0
  151.7209  142.2255  156.7318 H   0  0  0  0  0  0  0  0  0  0  0  0
  150.1207  142.6638  157.3237 H   0  0  0  0  0  0  0  0  0  0  0  0
  150.2886  141.8356  155.7826 H   0  0  0  0  0  0  0  0  0  0  0  0
  149.5155  140.2869  157.5370 H   0  0  0  0  0  0  0  0  0  0  0  0
  152.1393  140.8711  159.0026 H   0  0  0  0  0  0  0  0  0  0  0  0
  150.8845  139.7538  159.5353 H   0  0  0  0  0  0  0  0  0  0  0  0
  150.5563  141.4733  159.4836 H   0  0  0  0  0  0  0  0  0  0  0  0
  152.3830  139.7137  156.6984 H   0  0  0  0  0  0  0  0  0  0  0  0
  151.2703  138.5174  157.2866 H   0  0  0  0  0  0  0  0  0  0  0  0
  151.2730  139.9328  154.6285 H   0  0  0  0  0  0  0  0  0  0  0  0
  150.5755  137.4666  153.9106 H   0  0  0  0  0  0  0  0  0  0  0  0
  152.2485  137.8387  154.2717 H   0  0  0  0  0  0  0  0  0  0  0  0
  150.5202  136.9164  156.2635 H   0  0  0  0  0  0  0  0  0  0  0  0
  148.3911  141.2499  155.2917 H   0  0  0  0  0  0  0  0  0  0  0  0
  148.2997  140.5065  153.6889 H   0  0  0  0  0  0  0  0  0  0  0  0
  149.7928  141.2676  154.2265 H   0  0  0  0  0  0  0  0  0  0  0  0
  147.7589  135.4976  156.3784 H   0  0  0  0  0  0  0  0  0  0  0  0
  145.7123  139.0926  151.4454 H   0  0  0  0  0  0  0  0  0  0  0  0
  144.1438  136.2819  153.1650 H   0  0  0  0  0  0  0  0  0  0  0  0
  144.1552  137.1397  151.6478 H   0  0  0  0  0  0  0  0  0  0  0  0
  147.1512  135.6038  151.1511 H   0  0  0  0  0  0  0  0  0  0  0  0
  146.7665  134.7244  153.1058 H   0  0  0  0  0  0  0  0  0  0  0  0
  145.1627  134.1088  153.4112 H   0  0  0  0  0  0  0  0  0  0  0  0
  147.0773  133.0559  151.2653 H   0  0  0  0  0  0  0  0  0  0  0  0
  146.5933  132.2453  152.7394 H   0  0  0  0  0  0  0  0  0  0  0  0
  145.4314  133.3216  149.5010 H   0  0  0  0  0  0  0  0  0  0  0  0
  143.8175  132.6984  149.7661 H   0  0  0  0  0  0  0  0  0  0  0  0
  143.3172  134.4201  151.4265 H   0  0  0  0  0  0  0  0  0  0  0  0
  143.8547  135.1951  149.9568 H   0  0  0  0  0  0  0  0  0  0  0  0
  1  2  1  0  0  0  0
  1 27  1  0  0  0  0
  1 28  1  0  0  0  0
  1 29  1  0  0  0  0
  2  3  1  0  0  0  0
  2  4  1  0  0  0  0
  2 30  1  0  0  0  0
  3 31  1  0  0  0  0
  3 32  1  0  0  0  0
  3 33  1  0  0  0  0
  4  5  1  0  0  0  0
  4 34  1  0  0  0  0
  4 35  1  0  0  0  0
  5  6  1  0  0  0  0
  5  8  1  0  0  0  0
  5 36  1  0  0  0  0
  6  7  1  0  0  0  0
  6 37  1  0  0  0  0
  6 38  1  0  0  0  0
  7 39  1  0  0  0  0
  8  9  1  0  0  0  0
  8 10  1  0  0  0  0
  9 40  1  0  0  0  0
  9 41  1  0  0  0  0
  9 42  1  0  0  0  0
 10 15  1  0  0  0  0
 10 11  2  0  0  0  0
 11 12  1  0  0  0  0
 12 13  2  0  0  0  0
 12 43  1  0  0  0  0
 13 14  1  0  0  0  0
 14 18  1  0  0  0  0
 14 15  2  0  0  0  0
 15 16  1  0  0  0  0
 16 17  2  0  0  0  0
 17 18  1  0  0  0  0
 17 44  1  0  0  0  0
 18 19  1  0  0  0  0
 19 20  1  0  0  0  0
 19 45  1  0  0  0  0
 19 46  1  0  0  0  0
 20 26  1  0  0  0  0
 20 21  1  0  0  0  0
 20 22  1  0  0  0  0
 21 47  1  0  0  0  0
 22 23  1  0  0  0  0
 22 48  1  0  0  0  0
 22 49  1  0  0  0  0
 23 24  1  0  0  0  0
 23 50  1  0  0  0  0
 23 51  1  0  0  0  0
 24 25  1  0  0  0  0
 25 26  1  0  0  0  0
 25 52  1  0  0  0  0
 25 53  1  0  0  0  0
 26 54  1  0  0  0  0
 26 55  1  0  0  0  0
M  END
> <s_m_source_file>
AV-unprocessed.smi

> <i_m_source_file_index>
150

> <i_lp_mmshare_version>
43012

> <i_f3d_flags>
0

> <s_epik_input>
W0NIM11bQ0hdKFtDSDNdKVtDSDJdW0NASF0oW0NIMl1bT0hdKU4oW0NIM10pYyhuW2NIXW4xKWMoYzEyKW5bY0hdbjJbQ0gyXUMzKFtPSF0pW0NIMl1bQ0gyXU9bQ0gyXVtDSDJdMw==

> <s_epik_cmdline>
J2VwaWtfcHl0aG9uJywgJy1waCcsICc3LjAnLCAnLXRuJywgJzgnLCAnLW1hJywgJzIwMCcsICctbWV0YWxfYmluZGluZycsICctaW1hZScsICc8aW5maWxlLm1hZT4nLCAnLW9tYWUnLCAnPG91dGZpbGUubWFlPic=

> <r_lp_tautomer_probability>
1

> <r_epik_Ionization_Penalty>
0.00548416

> <r_epik_Ionization_Penalty_Charging>
0

> <r_epik_Ionization_Penalty_Neutral>
0.00548416

> <r_epik_State_Penalty>
0.0038135

> <r_epik_Charging_Adjusted_Penalty>
0.0038135

> <i_epik_Tot_Q>
0

> <i_epik_Tot_abs_Q>
0

> <r_epik_Metal_State_Penalty>
-0

> <b_epik_Metal_Only>
0

> <s_lp_Force_Field>
OPLS_2005

> <r_lp_Energy>
26.5114

> <b_lp_Chiralities_Consistent>
1

> <s_lp_Variant>
AV-unprocessed.smi:150-2

> <Gold.Version>
5.8.1

> <Gold.Id.Protein>
6NUR|6NUR_protein|mol2

> <Gold.PLP.Fitness>
45.3721

> <Gold.PLP.PLP>
-37.1630

> <Gold.PLP.part.hbond>
-2.5724

> <Gold.PLP.part.metal>
0.0000

> <Gold.PLP.part.buried>
-0.7171

> <Gold.PLP.part.nonpolar>
-35.5466

> <Gold.PLP.part.repulsive>
1.4146

> <Gold.PLP.ligand.clash>
0.0000

> <Gold.PLP.ligand.torsion>
1.8960

> <Gold.PLP.Chemscore.Hbond>
2.0000

> <Gold.PLP.Chemscore.CHOScore>
1.6428

> <Gold.PLP.Chemscore.Metal>
0.0000

> <Gold.Chemscore.Hbonds>
donor molecule, donor type, donor heavy atom, donor atom, acceptor molecule, acceptor atom, score
      L1  H    21    47       P1  7948  1.00
      P1  H 10752 10764       L1     7  0.12
      L1  C    17    44       P1 10171  1.00
      L1  C    17    44       P1 10175  0.37

> <Gold.PLP.Chemscore.Internal.Correction>
1.0728

> <Gold.Rescore>
     Score         DG    S(hbond)    S(metal)    S(lipo)     H(rot)  DE(clash)    DE(int)     intcor
      6.45     -12.18       1.89        0.00      77.84       3.40       1.10       4.63       ----

> <Gold.Chemscore.Fitness>
6.4546

> <Gold.Chemscore.DG>
-12.1848

> <Gold.Chemscore.ZeroCoef>
-5.4800

> <Gold.Chemscore.Hbond>
1.8862

> <Gold.Chemscore.Metal>
0.0000

> <Gold.Chemscore.Lipo>
77.8433

> <Gold.Chemscore.Internal_Hbond>
0.0000

> <Gold.Chemscore.DEClash>
1.1020

> <Gold.Chemscore.DEInternal>
4.6283

> <Gold.Chemscore.Rot>
3.3995

> <Gold.Chemscore.Internal.Correction>
   9.000000E+99

> <Gold.Chemscore.Hbonds>
donor molecule, donor type, donor heavy atom, donor atom, acceptor molecule, acceptor atom, score
      L1  H    21    47       P1  7948  0.87
      P1  H 10752 10764       L1     7  0.01

> <Gold.Chemscore.Hbond.Weighted>
-6.2999

> <Gold.Chemscore.Metal.Weighted>
-0.0000

> <Gold.Chemscore.Lipo.Weighted>
-9.1077

> <Gold.Chemscore.Internal_Hbond.Weighted>
0.0000

> <Gold.Chemscore.DEClash.Weighted>
1.1020

> <Gold.Chemscore.DEInternal.Weighted>
4.6283

> <Gold.Chemscore.Rot.Weighted>
8.7028

> <Gold.Chemscore.Internal.Correction.Weighted>
   9.000000E+99

> <Gold.Protein.RotatedTorsions>
[ 6907 6896 6895 6894 ] final -150.50 input  -60.11 | X-H torsion
[ 7974 7965 7964 7962 ] final -103.50 input  175.53 | X-H torsion
[ 8008 7997 7996 7995 ] final  -19.91 input   59.86 | X-H torsion
[ 10167 10162 10161 10158 ] final -155.70 input  -65.29 | X-H torsion
[ 10718 10713 10712 10709 ] final -154.78 input   66.30 | X-H torsion
[ 10763 10752 10751 10750 ] final  -62.48 input  -60.55 | X-H torsion
[ 11005 11000 10999 10996 ] final   79.22 input  -57.11 | X-H torsion

> <Gold.Protein.ActiveResidues>
 VAL166  LYS551  ARG553  GLY616  TRP617  ASP618  TYR619  PRO620  LYS621  CYS622 
 ASP623  PHE694  ASN695  SER759  ASP760  ASP761  ALA762  ILE779  LEU786  VAL792 
 PHE793  MET794  SER795  GLU796  ALA797  LYS798  CYS799  TRP800  GLU811  SER814 

> <Gold.Protein.RotatedAtoms>
  151.1995  133.4619  159.2595 H   0  0  0  0  0  0  0  0  0  0  0  0  # atno 6907 bound_to 6896
  151.1084  135.0012  159.8492 H   0  0  0  0  0  0  0  0  0  0  0  0  # atno 6908 bound_to 6896
  152.5448  134.1916  159.8729 H   0  0  0  0  0  0  0  0  0  0  0  0  # atno 6909 bound_to 6896
  145.2551  140.9251  143.3073 H   0  0  0  0  0  0  0  0  0  0  0  0  # atno 7974 bound_to 7965
  154.4804  140.2076  155.9776 H   0  0  0  0  0  0  0  0  0  0  0  0  # atno 8008 bound_to 7997
  156.1156  140.3222  155.8105 H   0  0  0  0  0  0  0  0  0  0  0  0  # atno 8009 bound_to 7997
  155.4558  140.0520  157.2987 H   0  0  0  0  0  0  0  0  0  0  0  0  # atno 8010 bound_to 7997
  139.6910  143.9420  152.2385 H   0  0  0  0  0  0  0  0  0  0  0  0  # atno 10167 bound_to 10162
  156.5039  130.8404  151.2620 H   0  0  0  0  0  0  0  0  0  0  0  0  # atno 10718 bound_to 10713
  154.3006  135.6235  153.5423 H   0  0  0  0  0  0  0  0  0  0  0  0  # atno 10763 bound_to 10752
  152.9841  135.5677  154.5288 H   0  0  0  0  0  0  0  0  0  0  0  0  # atno 10764 bound_to 10752
  154.4918  135.2867  155.1467 H   0  0  0  0  0  0  0  0  0  0  0  0  # atno 10765 bound_to 10752
  139.9181  134.7825  156.1751 H   0  0  0  0  0  0  0  0  0  0  0  0  # atno 11005 bound_to 11000
  144.9468  139.4127  143.6422 LP  0  0  0  0  0  0  0  0  0  0  0  0  # atno 17320 bound_to 7965
  146.3291  139.8455  142.8882 LP  0  0  0  0  0  0  0  0  0  0  0  0  # atno 17321 bound_to 7965
  139.9236  144.6784  150.8435 LP  0  0  0  0  0  0  0  0  0  0  0  0  # atno 17342 bound_to 10162
  140.7682  143.3357  151.2314 LP  0  0  0  0  0  0  0  0  0  0  0  0  # atno 17343 bound_to 10162
  157.7459  130.9972  150.2808 LP  0  0  0  0  0  0  0  0  0  0  0  0  # atno 17370 bound_to 10713
  156.3305  130.3799  149.7495 LP  0  0  0  0  0  0  0  0  0  0  0  0  # atno 17371 bound_to 10713
  141.0677  133.6811  156.2077 LP  0  0  0  0  0  0  0  0  0  0  0  0  # atno 17394 bound_to 11000
  140.6559  134.5019  157.5580 LP  0  0  0  0  0  0  0  0  0  0  0  0  # atno 17395 bound_to 11000

$$$$
