AV-unprocessed.smi:1492|AV-procd|sdf|6038|dock6
  -GOLD-   22720 6143D 1   1.00000     0.00000
 Structure written by MMmdl.
 53 54  0  0  0  0  0  0  0  0  2 V2000
  149.1385  133.7435  153.7095 C   0  0  0  0  0  0  0  0  0  0  0  0
  149.2173  134.4389  155.0807 C   0  0  0  0  0  0  0  0  0  0  0  0
  148.4187  135.7733  155.2070 C   0  0  1  0  0  0  0  0  0  0  0  0
  147.1052  135.6011  154.3995 C   0  0  0  0  0  0  0  0  0  0  0  0
  148.0786  136.0250  156.7091 C   0  0  0  0  0  0  0  0  0  0  0  0
  147.2289  134.9918  157.2986 N   0  0  0  0  0  0  0  0  0  0  0  0
  147.3500  134.4862  158.5361 C   0  0  0  0  0  0  0  0  0  0  0  0
  148.2047  134.8542  159.3410 O   0  0  0  0  0  0  0  0  0  0  0  0
  146.3391  133.4084  158.9276 C   0  0  0  0  0  0  0  0  0  0  0  0
  145.3479  133.8051  160.0201 C   0  0  0  0  0  0  0  0  0  0  0  0
  145.7271  134.0924  161.2998 C   0  0  0  0  0  0  0  0  0  0  0  0
  147.1734  134.0442  161.7608 C   0  0  0  0  0  0  0  0  0  0  0  0
  144.7925  134.4607  162.2778 N   0  0  0  0  0  0  0  0  0  0  0  0
  143.5439  134.5264  161.9512 C   0  0  0  0  0  0  0  0  0  0  0  0
  142.4391  134.9150  162.9109 C   0  0  0  0  0  0  0  0  0  0  0  0
  143.0902  134.2397  160.6649 N   0  0  0  0  0  0  0  0  0  0  0  0
  143.9179  133.8721  159.6614 C   0  0  0  0  0  0  0  0  0  0  0  0
  143.4671  133.6089  158.5473 O   0  0  0  0  0  0  0  0  0  0  0  0
  149.2225  136.9200  154.6444 N   0  3  0  0  0  0  0  0  0  0  0  0
  148.6033  138.2714  154.7583 C   0  0  0  0  0  0  0  0  0  0  0  0
  149.4277  139.3118  153.9809 C   0  0  0  0  0  0  0  0  0  0  0  0
  150.7649  139.3237  154.4601 O   0  0  0  0  0  0  0  0  0  0  0  0
  151.3994  138.0663  154.2760 C   0  0  0  0  0  0  0  0  0  0  0  0
  150.6480  136.9897  155.0751 C   0  0  0  0  0  0  0  0  0  0  0  0
  142.1017  134.3014  160.4693 H   0  0  0  0  0  0  0  0  0  0  0  0
  149.7299  132.8277  153.7141 H   0  0  0  0  0  0  0  0  0  0  0  0
  149.5259  134.3737  152.9091 H   0  0  0  0  0  0  0  0  0  0  0  0
  148.1165  133.4646  153.4546 H   0  0  0  0  0  0  0  0  0  0  0  0
  148.8610  133.7282  155.8275 H   0  0  0  0  0  0  0  0  0  0  0  0
  150.2646  134.5944  155.3383 H   0  0  0  0  0  0  0  0  0  0  0  0
  146.6182  134.6503  154.6175 H   0  0  0  0  0  0  0  0  0  0  0  0
  147.2831  135.6295  153.3242 H   0  0  0  0  0  0  0  0  0  0  0  0
  146.3762  136.3773  154.6326 H   0  0  0  0  0  0  0  0  0  0  0  0
  148.9880  136.0400  157.3087 H   0  0  0  0  0  0  0  0  0  0  0  0
  147.6174  137.0031  156.8476 H   0  0  0  0  0  0  0  0  0  0  0  0
  146.4900  134.6252  156.7154 H   0  0  0  0  0  0  0  0  0  0  0  0
  145.7868  133.1152  158.0345 H   0  0  0  0  0  0  0  0  0  0  0  0
  146.8831  132.5084  159.2177 H   0  0  0  0  0  0  0  0  0  0  0  0
  147.6051  133.0610  161.5740 H   0  0  0  0  0  0  0  0  0  0  0  0
  147.2557  134.2456  162.8295 H   0  0  0  0  0  0  0  0  0  0  0  0
  147.7680  134.7911  161.2344 H   0  0  0  0  0  0  0  0  0  0  0  0
  142.6055  135.9256  163.2845 H   0  0  0  0  0  0  0  0  0  0  0  0
  142.4233  134.2334  163.7616 H   0  0  0  0  0  0  0  0  0  0  0  0
  141.4596  134.8855  162.4318 H   0  0  0  0  0  0  0  0  0  0  0  0
  147.5923  138.2873  154.3557 H   0  0  0  0  0  0  0  0  0  0  0  0
  148.5383  138.5712  155.8044 H   0  0  0  0  0  0  0  0  0  0  0  0
  149.4135  139.0998  152.9106 H   0  0  0  0  0  0  0  0  0  0  0  0
  148.9981  140.3049  154.1133 H   0  0  0  0  0  0  0  0  0  0  0  0
  151.4364  137.8119  153.2154 H   0  0  0  0  0  0  0  0  0  0  0  0
  152.4306  138.1393  154.6222 H   0  0  0  0  0  0  0  0  0  0  0  0
  150.7129  137.2251  156.1376 H   0  0  0  0  0  0  0  0  0  0  0  0
  151.1606  136.0420  154.9240 H   0  0  0  0  0  0  0  0  0  0  0  0
  149.2574  136.7345  153.6521 H   0  0  0  0  0  0  0  0  0  0  0  0
  1  2  1  0  0  0  0
  1 26  1  0  0  0  0
  1 27  1  0  0  0  0
  1 28  1  0  0  0  0
  2  3  1  0  0  0  0
  2 29  1  0  0  0  0
  2 30  1  0  0  0  0
  3  4  1  0  0  0  0
  3  5  1  0  0  0  0
  3 19  1  0  0  0  0
  4 31  1  0  0  0  0
  4 32  1  0  0  0  0
  4 33  1  0  0  0  0
  5  6  1  0  0  0  0
  5 34  1  0  0  0  0
  5 35  1  0  0  0  0
  6  7  1  0  0  0  0
  6 36  1  0  0  0  0
  7  8  2  0  0  0  0
  7  9  1  0  0  0  0
  9 10  1  0  0  0  0
  9 37  1  0  0  0  0
  9 38  1  0  0  0  0
 10 17  1  0  0  0  0
 10 11  2  0  0  0  0
 11 12  1  0  0  0  0
 11 13  1  0  0  0  0
 12 39  1  0  0  0  0
 12 40  1  0  0  0  0
 12 41  1  0  0  0  0
 13 14  2  0  0  0  0
 14 15  1  0  0  0  0
 14 16  1  0  0  0  0
 15 42  1  0  0  0  0
 15 43  1  0  0  0  0
 15 44  1  0  0  0  0
 16 25  1  0  0  0  0
 16 17  1  0  0  0  0
 17 18  2  0  0  0  0
 19 24  1  0  0  0  0
 19 20  1  0  0  0  0
 19 53  1  0  0  0  0
 20 21  1  0  0  0  0
 20 45  1  0  0  0  0
 20 46  1  0  0  0  0
 21 22  1  0  0  0  0
 21 47  1  0  0  0  0
 21 48  1  0  0  0  0
 22 23  1  0  0  0  0
 23 24  1  0  0  0  0
 23 49  1  0  0  0  0
 23 50  1  0  0  0  0
 24 51  1  0  0  0  0
 24 52  1  0  0  0  0
M  CHG  1  19   1
M  END
> <s_m_source_file>
AV-unprocessed.smi

> <i_m_source_file_index>
1492

> <i_lp_mmshare_version>
43012

> <i_f3d_flags>
0

> <s_epik_input>
W0NIMl0xW0NIMl1PW0NIMl1bQ0gyXU4xW0NAQF0oW0NIM10pKFtDSDJdW0NIM10pW0NIMl1bTkhdQyg9TylbQ0gyXWMyYyhbQ0gzXSluYyhbQ0gzXSlbbkhdYzI9Tw==

> <s_epik_cmdline>
J2VwaWtfcHl0aG9uJywgJy1waCcsICc3LjAnLCAnLXRuJywgJzgnLCAnLW1hJywgJzIwMCcsICctbWV0YWxfYmluZGluZycsICctaW1hZScsICc8aW5maWxlLm1hZT4nLCAnLW9tYWUnLCAnPG91dGZpbGUubWFlPic=

> <r_lp_tautomer_probability>
0.839158

> <r_epik_Ionization_Penalty>
0.506959

> <r_epik_Ionization_Penalty_Charging>
0.506936

> <r_epik_Ionization_Penalty_Neutral>
2.27768e-05

> <r_epik_State_Penalty>
0.6046

> <r_epik_Charging_Adjusted_Penalty>
1.11154

> <i_epik_Tot_Q>
1

> <i_epik_Tot_abs_Q>
1

> <r_epik_Metal_State_Penalty>
0.783136

> <b_epik_Metal_Only>
0

> <s_lp_Force_Field>
OPLS_2005

> <r_lp_Energy>
29.8272

> <b_lp_Chiralities_Consistent>
1

> <s_lp_Variant>
AV-unprocessed.smi:1492-3

> <Gold.Version>
5.8.1

> <Gold.Id.Protein>
6NUR|6NUR_protein|mol2

> <Gold.PLP.Fitness>
39.8050

> <Gold.PLP.PLP>
-29.1580

> <Gold.PLP.part.hbond>
-2.9807

> <Gold.PLP.part.metal>
0.0000

> <Gold.PLP.part.buried>
-3.4916

> <Gold.PLP.part.nonpolar>
-22.6453

> <Gold.PLP.part.repulsive>
0.2038

> <Gold.PLP.ligand.clash>
0.0000

> <Gold.PLP.ligand.torsion>
0.7397

> <Gold.PLP.Chemscore.Hbond>
3.9913

> <Gold.PLP.Chemscore.CHOScore>
0.0000

> <Gold.PLP.Chemscore.Metal>
0.0000

> <Gold.Chemscore.Hbonds>
donor molecule, donor type, donor heavy atom, donor atom, acceptor molecule, acceptor atom, score
      L1  H    19    53       P1  7948  2.00
      P1  H  7989  7998       L1    22  1.00

> <Gold.PLP.Chemscore.Internal.Correction>
0.1527

> <Gold.Rescore>
     Score         DG    S(hbond)    S(metal)    S(lipo)     H(rot)  DE(clash)    DE(int)     intcor
     14.43     -17.15       2.74        0.00      69.66       2.19       0.05       2.68       ----

> <Gold.Chemscore.Fitness>
14.4300

> <Gold.Chemscore.DG>
-17.1545

> <Gold.Chemscore.ZeroCoef>
-5.4800

> <Gold.Chemscore.Hbond>
2.7357

> <Gold.Chemscore.Metal>
0.0000

> <Gold.Chemscore.Lipo>
69.6593

> <Gold.Chemscore.Internal_Hbond>
0.0000

> <Gold.Chemscore.DEClash>
0.0451

> <Gold.Chemscore.DEInternal>
2.6794

> <Gold.Chemscore.Rot>
2.1926

> <Gold.Chemscore.Internal.Correction>
   9.000000E+99

> <Gold.Chemscore.Hbonds>
donor molecule, donor type, donor heavy atom, donor atom, acceptor molecule, acceptor atom, score
      L1  H    19    53       P1  7948  0.97
      P1  H  6896  6907       L1     8  0.03
      P1  H  7989  7998       L1    22  0.39

> <Gold.Chemscore.Hbond.Weighted>
-9.1373

> <Gold.Chemscore.Metal.Weighted>
-0.0000

> <Gold.Chemscore.Lipo.Weighted>
-8.1501

> <Gold.Chemscore.Internal_Hbond.Weighted>
0.0000

> <Gold.Chemscore.DEClash.Weighted>
0.0451

> <Gold.Chemscore.DEInternal.Weighted>
2.6794

> <Gold.Chemscore.Rot.Weighted>
5.6129

> <Gold.Chemscore.Internal.Correction.Weighted>
   9.000000E+99

> <Gold.Protein.RotatedTorsions>
[ 6907 6896 6895 6894 ] final  -79.68 input  -60.11 | X-H torsion
[ 7974 7965 7964 7962 ] final -146.41 input  175.53 | X-H torsion
[ 8008 7997 7996 7995 ] final   77.37 input   59.86 | X-H torsion
[ 10167 10162 10161 10158 ] final   83.96 input  -65.29 | X-H torsion
[ 10718 10713 10712 10709 ] final  -50.91 input   66.30 | X-H torsion
[ 10763 10752 10751 10750 ] final -101.82 input  -60.55 | X-H torsion
[ 11005 11000 10999 10996 ] final  128.19 input  -57.11 | X-H torsion

> <Gold.Protein.ActiveResidues>
 VAL166  LYS551  ARG553  GLY616  TRP617  ASP618  TYR619  PRO620  LYS621  CYS622 
 ASP623  PHE694  ASN695  SER759  ASP760  ASP761  ALA762  ILE779  LEU786  VAL792 
 PHE793  MET794  SER795  GLU796  ALA797  LYS798  CYS799  TRP800  GLU811  SER814 

> <Gold.Protein.RotatedAtoms>
  150.6944  134.4084  159.5150 H   0  0  0  0  0  0  0  0  0  0  0  0  # atno 6907 bound_to 6896
  152.1846  134.8721  160.0532 H   0  0  0  0  0  0  0  0  0  0  0  0  # atno 6908 bound_to 6896
  151.9699  133.3687  159.4104 H   0  0  0  0  0  0  0  0  0  0  0  0  # atno 6909 bound_to 6896
  144.8161  140.5459  143.5609 H   0  0  0  0  0  0  0  0  0  0  0  0  # atno 7974 bound_to 7965
  155.8406  140.3462  155.5629 H   0  0  0  0  0  0  0  0  0  0  0  0  # atno 8008 bound_to 7997
  155.8145  140.0903  157.1905 H   0  0  0  0  0  0  0  0  0  0  0  0  # atno 8009 bound_to 7997
  154.4005  140.1441  156.3413 H   0  0  0  0  0  0  0  0  0  0  0  0  # atno 8010 bound_to 7997
  139.9130  144.6260  150.8518 H   0  0  0  0  0  0  0  0  0  0  0  0  # atno 10167 bound_to 10162
  156.1757  130.4150  149.9580 H   0  0  0  0  0  0  0  0  0  0  0  0  # atno 10718 bound_to 10713
  154.7687  135.4883  153.9605 H   0  0  0  0  0  0  0  0  0  0  0  0  # atno 10763 bound_to 10752
  153.1340  135.6759  153.9140 H   0  0  0  0  0  0  0  0  0  0  0  0  # atno 10764 bound_to 10752
  153.8835  135.3129  155.3424 H   0  0  0  0  0  0  0  0  0  0  0  0  # atno 10765 bound_to 10752
  139.9547  134.9615  156.8966 H   0  0  0  0  0  0  0  0  0  0  0  0  # atno 11005 bound_to 11000
  145.5211  139.1476  143.3552 LP  0  0  0  0  0  0  0  0  0  0  0  0  # atno 17320 bound_to 7965
  146.2464  140.5352  142.8912 LP  0  0  0  0  0  0  0  0  0  0  0  0  # atno 17321 bound_to 7965
  140.7681  143.3352  151.2325 LP  0  0  0  0  0  0  0  0  0  0  0  0  # atno 17342 bound_to 10162
  139.6926  143.9666  152.2867 LP  0  0  0  0  0  0  0  0  0  0  0  0  # atno 17343 bound_to 10162
  156.7366  130.9064  151.3629 LP  0  0  0  0  0  0  0  0  0  0  0  0  # atno 17370 bound_to 10713
  157.6834  130.9162  150.0324 LP  0  0  0  0  0  0  0  0  0  0  0  0  # atno 17371 bound_to 10713
  140.5636  134.0511  155.7407 LP  0  0  0  0  0  0  0  0  0  0  0  0  # atno 17394 bound_to 11000
  141.1217  133.9450  157.2716 LP  0  0  0  0  0  0  0  0  0  0  0  0  # atno 17395 bound_to 11000

$$$$
