AV-unprocessed.smi:2510|AV-procd|sdf|9876|dock6
  -GOLD-   2272013513D 1   1.00000     0.00000
 Structure written by MMmdl.
 48 49  0  0  0  0  0  0  0  0  1 V2000
  146.6183  138.9369  154.1924 C   0  0  0  0  0  0  0  0  0  0  0  0
  147.6545  137.8057  154.3297 C   0  0  0  0  0  0  0  0  0  0  0  0
  148.7453  137.9766  155.4258 C   0  0  0  0  0  0  0  0  0  0  0  0
  148.0684  138.0457  156.8122 C   0  0  0  0  0  0  0  0  0  0  0  0
  149.0334  137.9503  158.0056 C   0  0  0  0  0  0  0  0  0  0  0  0
  150.0039  137.0662  155.3509 C   0  0  1  0  0  0  0  0  0  0  0  0
  149.8170  135.7808  154.6891 N   0  0  0  0  0  0  0  0  0  0  0  0
  149.9874  134.5894  155.2814 C   0  0  0  0  0  0  0  0  0  0  0  0
  150.2743  134.4579  156.4710 O   0  0  0  0  0  0  0  0  0  0  0  0
  149.8031  133.3568  154.3961 C   0  0  0  0  0  0  0  0  0  0  0  0
  148.4182  133.3482  153.8052 C   0  0  0  0  0  0  0  0  0  0  0  0
  148.0487  133.2994  152.4276 C   0  0  0  0  0  0  0  0  0  0  0  0
  146.6823  133.3093  152.4425 C   0  0  0  0  0  0  0  0  0  0  0  0
  145.6818  133.2696  151.3380 C   0  0  0  0  0  0  0  0  0  0  0  0
  146.3134  133.3663  153.7664 N   0  0  0  0  0  0  0  0  0  0  0  0
  147.3632  133.3934  154.6075 N   0  0  0  0  0  0  0  0  0  0  0  0
  150.6773  138.0963  154.4392 C   0  0  2  0  0  0  0  0  0  0  0  0
  152.1919  138.2587  154.4756 C   0  0  0  0  0  0  0  0  0  0  0  0
  149.7486  139.1241  155.1119 C   0  0  2  0  0  0  0  0  0  0  0  0
  150.3170  139.6795  156.2940 O   0  0  0  0  0  0  0  0  0  0  0  0
  151.2766  140.6884  156.0300 C   0  0  0  0  0  0  0  0  0  0  0  0
  145.3622  133.3868  154.1059 H   0  0  0  0  0  0  0  0  0  0  0  0
  145.8448  138.6544  153.4782 H   0  0  0  0  0  0  0  0  0  0  0  0
  147.0671  139.8578  153.8216 H   0  0  0  0  0  0  0  0  0  0  0  0
  146.1217  139.1612  155.1340 H   0  0  0  0  0  0  0  0  0  0  0  0
  147.1001  136.8826  154.4959 H   0  0  0  0  0  0  0  0  0  0  0  0
  148.1287  137.6616  153.3589 H   0  0  0  0  0  0  0  0  0  0  0  0
  147.4612  138.9456  156.9037 H   0  0  0  0  0  0  0  0  0  0  0  0
  147.3465  137.2342  156.9085 H   0  0  0  0  0  0  0  0  0  0  0  0
  148.4803  137.9332  158.9447 H   0  0  0  0  0  0  0  0  0  0  0  0
  149.7140  138.7999  158.0474 H   0  0  0  0  0  0  0  0  0  0  0  0
  149.6331  137.0411  157.9617 H   0  0  0  0  0  0  0  0  0  0  0  0
  150.5246  136.9945  156.3092 H   0  0  0  0  0  0  0  0  0  0  0  0
  149.5741  135.7984  153.7093 H   0  0  0  0  0  0  0  0  0  0  0  0
  150.5634  133.3602  153.6136 H   0  0  0  0  0  0  0  0  0  0  0  0
  149.9712  132.4541  154.9847 H   0  0  0  0  0  0  0  0  0  0  0  0
  148.6918  133.2577  151.5611 H   0  0  0  0  0  0  0  0  0  0  0  0
  146.1744  133.2594  150.3653 H   0  0  0  0  0  0  0  0  0  0  0  0
  145.0281  134.1414  151.3751 H   0  0  0  0  0  0  0  0  0  0  0  0
  145.0606  132.3766  151.4105 H   0  0  0  0  0  0  0  0  0  0  0  0
  150.3505  137.9539  153.4078 H   0  0  0  0  0  0  0  0  0  0  0  0
  152.5582  138.3965  155.4932 H   0  0  0  0  0  0  0  0  0  0  0  0
  152.5115  139.1183  153.8868 H   0  0  0  0  0  0  0  0  0  0  0  0
  152.6884  137.3788  154.0668 H   0  0  0  0  0  0  0  0  0  0  0  0
  149.3397  139.8745  154.4326 H   0  0  0  0  0  0  0  0  0  0  0  0
  151.7014  141.0429  156.9689 H   0  0  0  0  0  0  0  0  0  0  0  0
  150.8172  141.5401  155.5271 H   0  0  0  0  0  0  0  0  0  0  0  0
  152.0922  140.3162  155.4102 H   0  0  0  0  0  0  0  0  0  0  0  0
  1  2  1  0  0  0  0
  1 23  1  0  0  0  0
  1 24  1  0  0  0  0
  1 25  1  0  0  0  0
  2  3  1  0  0  0  0
  2 26  1  0  0  0  0
  2 27  1  0  0  0  0
  3 19  1  0  0  0  0
  3  4  1  0  0  0  0
  3  6  1  0  0  0  0
  4  5  1  0  0  0  0
  4 28  1  0  0  0  0
  4 29  1  0  0  0  0
  5 30  1  0  0  0  0
  5 31  1  0  0  0  0
  5 32  1  0  0  0  0
  6  7  1  0  0  0  0
  6 17  1  0  0  0  0
  6 33  1  0  0  0  0
  7  8  1  0  0  0  0
  7 34  1  0  0  0  0
  8  9  2  0  0  0  0
  8 10  1  0  0  0  0
 10 11  1  0  0  0  0
 10 35  1  0  0  0  0
 10 36  1  0  0  0  0
 11 16  2  0  0  0  0
 11 12  1  0  0  0  0
 12 13  2  0  0  0  0
 12 37  1  0  0  0  0
 13 14  1  0  0  0  0
 13 15  1  0  0  0  0
 14 38  1  0  0  0  0
 14 39  1  0  0  0  0
 14 40  1  0  0  0  0
 15 22  1  0  0  0  0
 15 16  1  0  0  0  0
 17 18  1  0  0  0  0
 17 19  1  0  0  0  0
 17 41  1  0  0  0  0
 18 42  1  0  0  0  0
 18 43  1  0  0  0  0
 18 44  1  0  0  0  0
 19 20  1  0  0  0  0
 19 45  1  0  0  0  0
 20 21  1  0  0  0  0
 21 46  1  0  0  0  0
 21 47  1  0  0  0  0
 21 48  1  0  0  0  0
M  END
> <s_m_source_file>
AV-unprocessed.smi

> <i_m_source_file_index>
2510

> <i_lp_mmshare_version>
43012

> <i_f3d_flags>
0

> <s_epik_input>
W0NIM11PW0NAQEhdMVtDQEhdKFtDSDNdKVtDQEBIXShDMShbQ0gyXVtDSDNdKVtDSDJdW0NIM10pW05IXUMoPU8pW0NIMl1jMltjSF1jKFtDSDNdKVtuSF1uMg==

> <s_epik_cmdline>
J2VwaWtfcHl0aG9uJywgJy1waCcsICc3LjAnLCAnLXRuJywgJzgnLCAnLW1hJywgJzIwMCcsICctbWV0YWxfYmluZGluZycsICctaW1hZScsICc8aW5maWxlLm1hZT4nLCAnLW9tYWUnLCAnPG91dGZpbGUubWFlPic=

> <r_lp_tautomer_probability>
0.5

> <r_epik_Ionization_Penalty>
9.73156e-05

> <r_epik_Ionization_Penalty_Charging>
0

> <r_epik_Ionization_Penalty_Neutral>
9.73156e-05

> <r_epik_State_Penalty>
0.41068

> <r_epik_Charging_Adjusted_Penalty>
0.41068

> <i_epik_Tot_Q>
0

> <i_epik_Tot_abs_Q>
0

> <r_epik_Metal_State_Penalty>
0.410699

> <b_epik_Metal_Only>
0

> <s_lp_Force_Field>
OPLS_2005

> <r_lp_Energy>
28.6218

> <b_lp_Chiralities_Consistent>
1

> <s_lp_Variant>
AV-unprocessed.smi:2510-7

> <Gold.Version>
5.8.1

> <Gold.Id.Protein>
6NUR|6NUR_protein|mol2

> <Gold.PLP.Fitness>
31.8911

> <Gold.PLP.PLP>
-29.1996

> <Gold.PLP.part.hbond>
-1.0000

> <Gold.PLP.part.metal>
0.0000

> <Gold.PLP.part.buried>
-3.5384

> <Gold.PLP.part.nonpolar>
-23.4840

> <Gold.PLP.part.repulsive>
0.0843

> <Gold.PLP.ligand.clash>
0.0000

> <Gold.PLP.ligand.torsion>
0.5071

> <Gold.PLP.Chemscore.Hbond>
1.0000

> <Gold.PLP.Chemscore.CHOScore>
0.0000

> <Gold.PLP.Chemscore.Metal>
0.0000

> <Gold.Chemscore.Hbonds>
donor molecule, donor type, donor heavy atom, donor atom, acceptor molecule, acceptor atom, score
      L1  H     7    34       P1  7948  1.00

> <Gold.PLP.Chemscore.Internal.Correction>
0.7057

> <Gold.Rescore>
     Score         DG    S(hbond)    S(metal)    S(lipo)     H(rot)  DE(clash)    DE(int)     intcor
      9.67     -11.65       0.84        0.00      68.35       1.81       0.02       1.96       ----

> <Gold.Chemscore.Fitness>
9.6693

> <Gold.Chemscore.DG>
-11.6511

> <Gold.Chemscore.ZeroCoef>
-5.4800

> <Gold.Chemscore.Hbond>
0.8408

> <Gold.Chemscore.Metal>
0.0000

> <Gold.Chemscore.Lipo>
68.3508

> <Gold.Chemscore.Internal_Hbond>
0.0000

> <Gold.Chemscore.DEClash>
0.0189

> <Gold.Chemscore.DEInternal>
1.9629

> <Gold.Chemscore.Rot>
1.8102

> <Gold.Chemscore.Internal.Correction>
   9.000000E+99

> <Gold.Chemscore.Hbonds>
donor molecule, donor type, donor heavy atom, donor atom, acceptor molecule, acceptor atom, score
      L1  H     7    34       P1  7948  0.30

> <Gold.Chemscore.Hbond.Weighted>
-2.8082

> <Gold.Chemscore.Metal.Weighted>
-0.0000

> <Gold.Chemscore.Lipo.Weighted>
-7.9970

> <Gold.Chemscore.Internal_Hbond.Weighted>
0.0000

> <Gold.Chemscore.DEClash.Weighted>
0.0189

> <Gold.Chemscore.DEInternal.Weighted>
1.9629

> <Gold.Chemscore.Rot.Weighted>
4.6341

> <Gold.Chemscore.Internal.Correction.Weighted>
   9.000000E+99

> <Gold.Protein.RotatedTorsions>
[ 6907 6896 6895 6894 ] final   90.57 input  -60.11 | X-H torsion
[ 7974 7965 7964 7962 ] final  145.04 input  175.53 | X-H torsion
[ 8008 7997 7996 7995 ] final  110.66 input   59.86 | X-H torsion
[ 10167 10162 10161 10158 ] final  -32.16 input  -65.29 | X-H torsion
[ 10718 10713 10712 10709 ] final  -85.77 input   66.30 | X-H torsion
[ 10763 10752 10751 10750 ] final  -51.31 input  -60.55 | X-H torsion
[ 11005 11000 10999 10996 ] final  -57.69 input  -57.11 | X-H torsion

> <Gold.Protein.ActiveResidues>
 VAL166  LYS551  ARG553  GLY616  TRP617  ASP618  TYR619  PRO620  LYS621  CYS622 
 ASP623  PHE694  ASN695  SER759  ASP760  ASP761  ALA762  ILE779  LEU786  VAL792 
 PHE793  MET794  SER795  GLU796  ALA797  LYS798  CYS799  TRP800  GLU811  SER814 

> <Gold.Protein.RotatedAtoms>
  152.5445  134.1791  159.8627 H   0  0  0  0  0  0  0  0  0  0  0  0  # atno 6907 bound_to 6896
  151.1795  133.4727  159.2601 H   0  0  0  0  0  0  0  0  0  0  0  0  # atno 6908 bound_to 6896
  151.1193  135.0082  159.8586 H   0  0  0  0  0  0  0  0  0  0  0  0  # atno 6909 bound_to 6896
  144.8785  139.5735  143.5854 H   0  0  0  0  0  0  0  0  0  0  0  0  # atno 7974 bound_to 7965
  156.2069  140.3034  155.9646 H   0  0  0  0  0  0  0  0  0  0  0  0  # atno 8008 bound_to 7997
  155.2820  140.0438  157.3033 H   0  0  0  0  0  0  0  0  0  0  0  0  # atno 8009 bound_to 7997
  154.5645  140.2330  155.8293 H   0  0  0  0  0  0  0  0  0  0  0  0  # atno 8010 bound_to 7997
  140.7225  143.3716  151.1768 H   0  0  0  0  0  0  0  0  0  0  0  0  # atno 10167 bound_to 10162
  155.9994  130.4742  150.4613 H   0  0  0  0  0  0  0  0  0  0  0  0  # atno 10718 bound_to 10713
  154.1246  135.6529  153.4910 H   0  0  0  0  0  0  0  0  0  0  0  0  # atno 10763 bound_to 10752
  153.0214  135.5278  154.7062 H   0  0  0  0  0  0  0  0  0  0  0  0  # atno 10764 bound_to 10752
  154.6280  135.2972  155.0220 H   0  0  0  0  0  0  0  0  0  0  0  0  # atno 10765 bound_to 10752
  141.1175  133.6611  156.4808 H   0  0  0  0  0  0  0  0  0  0  0  0  # atno 11005 bound_to 11000
  146.2979  139.7333  142.9113 LP  0  0  0  0  0  0  0  0  0  0  0  0  # atno 17320 bound_to 7965
  145.3998  141.0383  143.3077 LP  0  0  0  0  0  0  0  0  0  0  0  0  # atno 17321 bound_to 7965
  139.7288  143.9105  152.3012 LP  0  0  0  0  0  0  0  0  0  0  0  0  # atno 17342 bound_to 10162
  139.8887  144.6977  150.8794 LP  0  0  0  0  0  0  0  0  0  0  0  0  # atno 17343 bound_to 10162
  157.2637  131.0572  151.2304 LP  0  0  0  0  0  0  0  0  0  0  0  0  # atno 17370 bound_to 10713
  157.3409  130.7033  149.6381 LP  0  0  0  0  0  0  0  0  0  0  0  0  # atno 17371 bound_to 10713
  140.4603  134.6848  157.5082 LP  0  0  0  0  0  0  0  0  0  0  0  0  # atno 17394 bound_to 11000
  140.0108  134.6693  155.9383 LP  0  0  0  0  0  0  0  0  0  0  0  0  # atno 17395 bound_to 11000

$$$$
