AV-unprocessed.smi:2655|AV-procd|sdf|10303|dock5
  -GOLD-   2272014313D 1   1.00000     0.00000
 Structure written by MMmdl.
 33 34  0  0  0  0  0  0  0  0  2 V2000
  149.0557  141.2888  154.7652 C   0  0  0  0  0  0  0  0  0  0  0  0
  149.3615  139.8397  154.4542 C   0  0  0  0  0  0  0  0  0  0  0  0
  148.5644  139.1047  153.6251 N   0  0  0  0  0  0  0  0  0  0  0  0
  149.0470  137.8211  153.5825 N   0  0  0  0  0  0  0  0  0  0  0  0
  150.1518  137.7242  154.3400 C   0  0  0  0  0  0  0  0  0  0  0  0
  150.8275  136.7102  154.5012 O   0  0  0  0  0  0  0  0  0  0  0  0
  150.3490  139.0547  154.9054 C   0  0  0  0  0  0  0  0  0  0  0  0
  151.4572  139.4062  155.8798 C   0  0  0  0  0  0  0  0  0  0  0  0
  151.4994  138.4455  157.0794 C   0  0  0  0  0  0  0  0  0  0  0  0
  150.1606  138.1549  157.5800 N   0  0  0  0  0  0  0  0  0  0  0  0
  149.8317  137.1473  158.4013 C   0  0  0  0  0  0  0  0  0  0  0  0
  150.7022  136.3702  158.8006 O   0  0  0  0  0  0  0  0  0  0  0  0
  148.5141  137.1011  158.7066 N   0  5  0  0  0  0  0  0  0  0  0  0
  148.1025  136.4901  159.8282 C   0  0  0  0  0  0  0  0  0  0  0  0
  147.8827  135.0945  159.9881 C   0  0  0  0  0  0  0  0  0  0  0  0
  147.4672  134.9903  161.2852 C   0  0  0  0  0  0  0  0  0  0  0  0
  147.0693  133.8285  162.1300 C   0  0  0  0  0  0  0  0  0  0  0  0
  147.4244  136.2191  161.8672 O   0  0  0  0  0  0  0  0  0  0  0  0
  147.8268  137.1742  160.9261 N   0  0  0  0  0  0  0  0  0  0  0  0
  149.9007  141.9193  154.4879 H   0  0  0  0  0  0  0  0  0  0  0  0
  148.8672  141.4145  155.8315 H   0  0  0  0  0  0  0  0  0  0  0  0
  148.1769  141.6310  154.2178 H   0  0  0  0  0  0  0  0  0  0  0  0
  148.5806  137.1244  153.0199 H   0  0  0  0  0  0  0  0  0  0  0  0
  151.3153  140.4343  156.2155 H   0  0  0  0  0  0  0  0  0  0  0  0
  152.4134  139.3818  155.3564 H   0  0  0  0  0  0  0  0  0  0  0  0
  152.0102  137.5176  156.8153 H   0  0  0  0  0  0  0  0  0  0  0  0
  152.0719  138.8936  157.8919 H   0  0  0  0  0  0  0  0  0  0  0  0
  149.4176  138.7684  157.2793 H   0  0  0  0  0  0  0  0  0  0  0  0
  148.0142  134.3002  159.2687 H   0  0  0  0  0  0  0  0  0  0  0  0
  146.1639  133.3624  161.7415 H   0  0  0  0  0  0  0  0  0  0  0  0
  146.8764  134.1366  163.1578 H   0  0  0  0  0  0  0  0  0  0  0  0
  147.8578  133.0761  162.1458 H   0  0  0  0  0  0  0  0  0  0  0  0
  147.6622  139.3616  153.2510 H   0  0  0  0  0  0  0  0  0  0  0  0
  1 20  1  0  0  0  0
  1 21  1  0  0  0  0
  1 22  1  0  0  0  0
  1  2  1  0  0  0  0
  2  7  2  0  0  0  0
  2  3  1  0  0  0  0
  3  4  1  0  0  0  0
  3 33  1  0  0  0  0
  4 23  1  0  0  0  0
  4  5  1  0  0  0  0
  5  7  1  0  0  0  0
  5  6  2  0  0  0  0
  7  8  1  0  0  0  0
  8  9  1  0  0  0  0
  8 24  1  0  0  0  0
  8 25  1  0  0  0  0
  9 10  1  0  0  0  0
  9 26  1  0  0  0  0
  9 27  1  0  0  0  0
 10 11  1  0  0  0  0
 10 28  1  0  0  0  0
 11 12  2  0  0  0  0
 11 13  1  0  0  0  0
 13 14  1  0  0  0  0
 14 19  2  0  0  0  0
 14 15  1  0  0  0  0
 15 16  2  0  0  0  0
 15 29  1  0  0  0  0
 16 17  1  0  0  0  0
 16 18  1  0  0  0  0
 17 30  1  0  0  0  0
 17 31  1  0  0  0  0
 17 32  1  0  0  0  0
 18 19  1  0  0  0  0
M  CHG  1  13  -1
M  END
> <s_m_source_file>
AV-unprocessed.smi

> <i_m_source_file_index>
2655

> <i_lp_mmshare_version>
43012

> <i_f3d_flags>
0

> <s_epik_input>
W0NIM11DMT1OW05IXUMoPU8pW0NASF0xW0NIMl1bQ0gyXVtOSF1DKD1PKVtOSF1jMltjSF1jKFtDSDNdKW9uMg==

> <s_epik_cmdline>
J2VwaWtfcHl0aG9uJywgJy1waCcsICc3LjAnLCAnLXRuJywgJzgnLCAnLW1hJywgJzIwMCcsICctbWV0YWxfYmluZGluZycsICctaW1hZScsICc8aW5maWxlLm1hZT4nLCAnLW9tYWUnLCAnPG91dGZpbGUubWFlPic=

> <r_lp_tautomer_probability>
0.00220696

> <r_epik_Ionization_Penalty>
6.47655

> <r_epik_Ionization_Penalty_Charging>
6.44485

> <r_epik_Ionization_Penalty_Neutral>
0.0316949

> <r_epik_State_Penalty>
7.07162

> <r_epik_Charging_Adjusted_Penalty>
13.5165

> <i_epik_Tot_Q>
-1

> <i_epik_Tot_abs_Q>
1

> <r_epik_Metal_State_Penalty>
4.39363

> <b_epik_Metal_Only>
1

> <s_lp_Force_Field>
OPLS_2005

> <r_lp_Energy>
11.561

> <b_lp_Chiralities_Consistent>
1

> <s_lp_Variant>
AV-unprocessed.smi:2655-6

> <Gold.Version>
5.8.1

> <Gold.Id.Protein>
6NUR|6NUR_protein|mol2

> <Gold.PLP.Fitness>
47.1104

> <Gold.PLP.PLP>
-34.9172

> <Gold.PLP.part.hbond>
-7.2916

> <Gold.PLP.part.metal>
0.0000

> <Gold.PLP.part.buried>
-5.4265

> <Gold.PLP.part.nonpolar>
-23.5539

> <Gold.PLP.part.repulsive>
0.2995

> <Gold.PLP.ligand.clash>
0.0000

> <Gold.PLP.ligand.torsion>
1.0715

> <Gold.PLP.Chemscore.Hbond>
4.7520

> <Gold.PLP.Chemscore.CHOScore>
0.0000

> <Gold.PLP.Chemscore.Metal>
0.0000

> <Gold.Chemscore.Hbonds>
donor molecule, donor type, donor heavy atom, donor atom, acceptor molecule, acceptor atom, score
      L1  H     4    23       P1  7948  0.65
      P1  H  6896  6908       L1    12  0.91
      P1  H  6931  6943       L1    19  0.90
      P1  H  6934  6947       L1    19  0.83

> <Gold.PLP.Chemscore.Internal.Correction>
0.0802

> <Gold.Rescore>
     Score         DG    S(hbond)    S(metal)    S(lipo)     H(rot)  DE(clash)    DE(int)     intcor
     20.60     -21.69       4.53        0.00      49.98       1.86       0.01       1.08       ----

> <Gold.Chemscore.Fitness>
20.5955

> <Gold.Chemscore.DG>
-21.6853

> <Gold.Chemscore.ZeroCoef>
-5.4800

> <Gold.Chemscore.Hbond>
4.5297

> <Gold.Chemscore.Metal>
0.0000

> <Gold.Chemscore.Lipo>
49.9834

> <Gold.Chemscore.Internal_Hbond>
0.0000

> <Gold.Chemscore.DEClash>
0.0111

> <Gold.Chemscore.DEInternal>
1.0787

> <Gold.Chemscore.Rot>
1.8640

> <Gold.Chemscore.Internal.Correction>
   9.000000E+99

> <Gold.Chemscore.Hbonds>
donor molecule, donor type, donor heavy atom, donor atom, acceptor molecule, acceptor atom, score
      L1  H     4    23       P1  7948  0.62
      P1  H  6896  6908       L1    12  0.90
      P1  H  6931  6943       L1    19  0.35
      P1  H  6934  6947       L1    19  0.82
      P1  H 10752 10765       L1     6  0.05

> <Gold.Chemscore.Hbond.Weighted>
-15.1291

> <Gold.Chemscore.Metal.Weighted>
-0.0000

> <Gold.Chemscore.Lipo.Weighted>
-5.8481

> <Gold.Chemscore.Internal_Hbond.Weighted>
0.0000

> <Gold.Chemscore.DEClash.Weighted>
0.0111

> <Gold.Chemscore.DEInternal.Weighted>
1.0787

> <Gold.Chemscore.Rot.Weighted>
4.7719

> <Gold.Chemscore.Internal.Correction.Weighted>
   9.000000E+99

> <Gold.Protein.RotatedTorsions>
[ 6907 6896 6895 6894 ] final -141.66 input  -60.11 | X-H torsion
[ 7974 7965 7964 7962 ] final   40.96 input  175.53 | X-H torsion
[ 8008 7997 7996 7995 ] final   90.61 input   59.86 | X-H torsion
[ 10167 10162 10161 10158 ] final  126.13 input  -65.29 | X-H torsion
[ 10718 10713 10712 10709 ] final   39.30 input   66.30 | X-H torsion
[ 10763 10752 10751 10750 ] final -170.73 input  -60.55 | X-H torsion
[ 11005 11000 10999 10996 ] final    0.85 input  -57.11 | X-H torsion

> <Gold.Protein.ActiveResidues>
 VAL166  LYS551  ARG553  GLY616  TRP617  ASP618  TYR619  PRO620  LYS621  CYS622 
 ASP623  PHE694  ASN695  SER759  ASP760  ASP761  ALA762  ILE779  LEU786  VAL792 
 PHE793  MET794  SER795  GLU796  ALA797  LYS798  CYS799  TRP800  GLU811  SER814 

> <Gold.Protein.RotatedAtoms>
  151.0767  133.5422  159.2623 H   0  0  0  0  0  0  0  0  0  0  0  0  # atno 6907 bound_to 6896
  151.2341  135.0564  159.9009 H   0  0  0  0  0  0  0  0  0  0  0  0  # atno 6908 bound_to 6896
  152.5418  134.0552  159.8181 H   0  0  0  0  0  0  0  0  0  0  0  0  # atno 6909 bound_to 6896
  146.0862  139.5471  142.9505 H   0  0  0  0  0  0  0  0  0  0  0  0  # atno 7974 bound_to 7965
  156.0140  140.3347  155.6970 H   0  0  0  0  0  0  0  0  0  0  0  0  # atno 8008 bound_to 7997
  155.6116  140.0666  157.2722 H   0  0  0  0  0  0  0  0  0  0  0  0  # atno 8009 bound_to 7997
  154.4292  140.1792  156.1266 H   0  0  0  0  0  0  0  0  0  0  0  0  # atno 8010 bound_to 7997
  139.5648  144.6904  151.3942 H   0  0  0  0  0  0  0  0  0  0  0  0  # atno 10167 bound_to 10162
  157.3689  130.7690  149.7104 H   0  0  0  0  0  0  0  0  0  0  0  0  # atno 10718 bound_to 10713
  154.6383  135.2895  155.0135 H   0  0  0  0  0  0  0  0  0  0  0  0  # atno 10763 bound_to 10752
  154.1271  135.6539  153.4918 H   0  0  0  0  0  0  0  0  0  0  0  0  # atno 10764 bound_to 10752
  153.0313  135.5301  154.7238 H   0  0  0  0  0  0  0  0  0  0  0  0  # atno 10765 bound_to 10752
  140.6219  133.9653  155.8229 H   0  0  0  0  0  0  0  0  0  0  0  0  # atno 11005 bound_to 11000
  145.6125  141.0337  143.1959 LP  0  0  0  0  0  0  0  0  0  0  0  0  # atno 17320 bound_to 7965
  144.7328  139.7676  143.7341 LP  0  0  0  0  0  0  0  0  0  0  0  0  # atno 17321 bound_to 7965
  140.6930  143.7815  150.7284 LP  0  0  0  0  0  0  0  0  0  0  0  0  # atno 17342 bound_to 10162
  140.1303  143.4532  152.2258 LP  0  0  0  0  0  0  0  0  0  0  0  0  # atno 17343 bound_to 10162
  155.9751  130.4093  150.3870 LP  0  0  0  0  0  0  0  0  0  0  0  0  # atno 17370 bound_to 10713
  157.1958  131.0426  151.2676 LP  0  0  0  0  0  0  0  0  0  0  0  0  # atno 17371 bound_to 10713
  141.0736  134.0168  157.3490 LP  0  0  0  0  0  0  0  0  0  0  0  0  # atno 17394 bound_to 11000
  139.9150  135.0195  156.7844 LP  0  0  0  0  0  0  0  0  0  0  0  0  # atno 17395 bound_to 11000

$$$$
