AV-unprocessed.smi:189|AV-procd|sdf|1482|dock3
  -GOLD-   2262019303D 1   1.00000     0.00000
 Structure written by MMmdl.
 53 57  0  0  0  0  0  0  0  0  1 V2000
  150.3955  140.3455  155.1181 C   0  0  0  0  0  0  0  0  0  0  0  0
  151.1395  140.8477  156.3708 C   0  0  1  0  0  0  0  0  0  0  0  0
  150.9666  142.3451  156.6861 C   0  0  0  0  0  0  0  0  0  0  0  0
  150.8274  142.4060  158.2141 C   0  0  2  0  0  0  0  0  0  0  0  0
  151.5002  143.5955  158.9291 C   0  0  0  0  0  0  0  0  0  0  0  0
  153.0098  143.4078  159.1324 C   0  0  0  0  0  0  0  0  0  0  0  0
  153.3013  142.0731  159.8294 C   0  0  0  0  0  0  0  0  0  0  0  0
  152.7909  140.9102  158.9720 C   0  0  0  0  0  0  0  0  0  0  0  0
  151.2717  141.0095  158.6973 C   0  0  2  0  0  0  0  0  0  0  0  0
  150.8811  140.1119  157.6141 N   0  0  0  0  0  0  0  0  0  0  0  0
  149.6817  139.5081  157.7950 C   0  0  0  0  0  0  0  0  0  0  0  0
  148.5222  140.1425  157.4755 N   0  0  0  0  0  0  0  0  0  0  0  0
  147.3496  139.5336  157.6766 C   0  0  0  0  0  0  0  0  0  0  0  0
  147.1145  138.3206  158.1823 N   0  0  0  0  0  0  0  0  0  0  0  0
  148.2775  137.6859  158.5079 C   0  0  0  0  0  0  0  0  0  0  0  0
  149.5923  138.2035  158.3452 C   0  0  0  0  0  0  0  0  0  0  0  0
  150.5293  137.2761  158.7815 N   0  0  0  0  0  0  0  0  0  0  0  0
  149.8077  136.2657  159.1845 C   0  0  0  0  0  0  0  0  0  0  0  0
  148.4451  136.4315  159.0683 N   0  0  0  0  0  0  0  0  0  0  0  0
  147.4140  135.4766  159.4454 C   0  0  0  0  0  0  0  0  0  0  0  0
  147.2189  135.3325  160.9760 C   0  0  1  0  0  0  0  0  0  0  0  0
  147.7647  136.4697  161.6198 O   0  0  0  0  0  0  0  0  0  0  0  0
  145.7614  135.1623  161.4108 C   0  0  0  0  0  0  0  0  0  0  0  0
  145.6314  133.6562  161.5787 C   0  0  0  0  0  0  0  0  0  0  0  0
  146.8710  133.3118  162.1715 O   0  0  0  0  0  0  0  0  0  0  0  0
  147.8929  134.0543  161.5162 C   0  0  0  0  0  0  0  0  0  0  0  0
  150.7537  140.8624  154.2279 H   0  0  0  0  0  0  0  0  0  0  0  0
  149.3212  140.5180  155.1795 H   0  0  0  0  0  0  0  0  0  0  0  0
  150.5584  139.2782  154.9654 H   0  0  0  0  0  0  0  0  0  0  0  0
  152.1969  140.6835  156.1628 H   0  0  0  0  0  0  0  0  0  0  0  0
  151.8314  142.9075  156.3329 H   0  0  0  0  0  0  0  0  0  0  0  0
  150.0816  142.7646  156.2060 H   0  0  0  0  0  0  0  0  0  0  0  0
  149.7594  142.4964  158.4151 H   0  0  0  0  0  0  0  0  0  0  0  0
  151.3031  144.5205  158.3864 H   0  0  0  0  0  0  0  0  0  0  0  0
  151.0365  143.7170  159.9088 H   0  0  0  0  0  0  0  0  0  0  0  0
  153.5225  143.4434  158.1706 H   0  0  0  0  0  0  0  0  0  0  0  0
  153.4072  144.2318  159.7256 H   0  0  0  0  0  0  0  0  0  0  0  0
  154.3738  141.9675  159.9953 H   0  0  0  0  0  0  0  0  0  0  0  0
  152.8285  142.0504  160.8122 H   0  0  0  0  0  0  0  0  0  0  0  0
  153.3567  140.9039  158.0403 H   0  0  0  0  0  0  0  0  0  0  0  0
  153.0111  139.9613  159.4623 H   0  0  0  0  0  0  0  0  0  0  0  0
  150.7405  140.7646  159.6192 H   0  0  0  0  0  0  0  0  0  0  0  0
  146.4747  140.1007  157.3952 H   0  0  0  0  0  0  0  0  0  0  0  0
  150.2524  135.3673  159.5875 H   0  0  0  0  0  0  0  0  0  0  0  0
  146.4784  135.7841  158.9766 H   0  0  0  0  0  0  0  0  0  0  0  0
  147.6700  134.5112  159.0067 H   0  0  0  0  0  0  0  0  0  0  0  0
  147.6104  136.3901  162.5488 H   0  0  0  0  0  0  0  0  0  0  0  0
  145.5895  135.6356  162.3791 H   0  0  0  0  0  0  0  0  0  0  0  0
  145.0281  135.5723  160.7181 H   0  0  0  0  0  0  0  0  0  0  0  0
  144.7888  133.3721  162.2094 H   0  0  0  0  0  0  0  0  0  0  0  0
  145.5279  133.1592  160.6128 H   0  0  0  0  0  0  0  0  0  0  0  0
  148.2976  133.4456  160.7062 H   0  0  0  0  0  0  0  0  0  0  0  0
  148.7111  134.2583  162.2083 H   0  0  0  0  0  0  0  0  0  0  0  0
  1  2  1  0  0  0  0
  1 27  1  0  0  0  0
  1 28  1  0  0  0  0
  1 29  1  0  0  0  0
  2 10  1  0  0  0  0
  2  3  1  0  0  0  0
  2 30  1  0  0  0  0
  3  4  1  0  0  0  0
  3 31  1  0  0  0  0
  3 32  1  0  0  0  0
  4  9  1  0  0  0  0
  4  5  1  0  0  0  0
  4 33  1  0  0  0  0
  5  6  1  0  0  0  0
  5 34  1  0  0  0  0
  5 35  1  0  0  0  0
  6  7  1  0  0  0  0
  6 36  1  0  0  0  0
  6 37  1  0  0  0  0
  7  8  1  0  0  0  0
  7 38  1  0  0  0  0
  7 39  1  0  0  0  0
  8  9  1  0  0  0  0
  8 40  1  0  0  0  0
  8 41  1  0  0  0  0
  9 10  1  0  0  0  0
  9 42  1  0  0  0  0
 10 11  1  0  0  0  0
 11 16  1  0  0  0  0
 11 12  2  0  0  0  0
 12 13  1  0  0  0  0
 13 14  2  0  0  0  0
 13 43  1  0  0  0  0
 14 15  1  0  0  0  0
 15 19  1  0  0  0  0
 15 16  2  0  0  0  0
 16 17  1  0  0  0  0
 17 18  2  0  0  0  0
 18 19  1  0  0  0  0
 18 44  1  0  0  0  0
 19 20  1  0  0  0  0
 20 21  1  0  0  0  0
 20 45  1  0  0  0  0
 20 46  1  0  0  0  0
 21 26  1  0  0  0  0
 21 22  1  0  0  0  0
 21 23  1  0  0  0  0
 22 47  1  0  0  0  0
 23 24  1  0  0  0  0
 23 48  1  0  0  0  0
 23 49  1  0  0  0  0
 24 25  1  0  0  0  0
 24 50  1  0  0  0  0
 24 51  1  0  0  0  0
 25 26  1  0  0  0  0
 26 52  1  0  0  0  0
 26 53  1  0  0  0  0
M  END
> <s_m_source_file>
AV-unprocessed.smi

> <i_m_source_file_index>
189

> <i_lp_mmshare_version>
43012

> <i_f3d_flags>
0

> <s_epik_input>
W0NIMl0xW0NIMl1bQ0gyXVtDSDJdW0NASF0oW0NASF0xMilOKFtDQEhdKFtDSDNdKVtDSDJdMiljKG5bY0hdbjMpYyhjMzQpbltjSF1uNFtDSDJdW0NAQF01KFtPSF0pW0NIMl1bQ0gyXU9bQ0gyXTU=

> <s_epik_cmdline>
J2VwaWtfcHl0aG9uJywgJy1waCcsICc3LjAnLCAnLXRuJywgJzgnLCAnLW1hJywgJzIwMCcsICctbWV0YWxfYmluZGluZycsICctaW1hZScsICc8aW5maWxlLm1hZT4nLCAnLW9tYWUnLCAnPG91dGZpbGUubWFlPic=

> <r_lp_tautomer_probability>
1

> <r_epik_Ionization_Penalty>
0.00594261

> <r_epik_Ionization_Penalty_Charging>
0

> <r_epik_Ionization_Penalty_Neutral>
0.00594261

> <r_epik_State_Penalty>
0.00429776

> <r_epik_Charging_Adjusted_Penalty>
0.00429776

> <i_epik_Tot_Q>
0

> <i_epik_Tot_abs_Q>
0

> <r_epik_Metal_State_Penalty>
-0

> <b_epik_Metal_Only>
0

> <s_lp_Force_Field>
OPLS_2005

> <r_lp_Energy>
63.5443

> <b_lp_Chiralities_Consistent>
1

> <s_lp_Variant>
AV-unprocessed.smi:189-8

> <Gold.Version>
5.8.1

> <Gold.Id.Protein>
6NUR|6NUR_protein|mol2

> <Gold.PLP.Fitness>
47.2727

> <Gold.PLP.PLP>
-45.5518

> <Gold.PLP.part.hbond>
-3.2736

> <Gold.PLP.part.metal>
0.0000

> <Gold.PLP.part.buried>
-4.6058

> <Gold.PLP.part.nonpolar>
-37.1064

> <Gold.PLP.part.repulsive>
0.0036

> <Gold.PLP.ligand.clash>
0.0000

> <Gold.PLP.ligand.torsion>
1.5430

> <Gold.PLP.Chemscore.Hbond>
1.5840

> <Gold.PLP.Chemscore.CHOScore>
0.0000

> <Gold.PLP.Chemscore.Metal>
0.0000

> <Gold.Chemscore.Hbonds>
donor molecule, donor type, donor heavy atom, donor atom, acceptor molecule, acceptor atom, score
      P1  H  6931  6943       L1    22  0.34

> <Gold.PLP.Chemscore.Internal.Correction>
0.0550

> <Gold.Rescore>
     Score         DG    S(hbond)    S(metal)    S(lipo)     H(rot)  DE(clash)    DE(int)     intcor
     13.71     -17.33       0.99        0.00     117.33       2.03       1.13       2.48       ----

> <Gold.Chemscore.Fitness>
13.7108

> <Gold.Chemscore.DG>
-17.3277

> <Gold.Chemscore.ZeroCoef>
-5.4800

> <Gold.Chemscore.Hbond>
0.9929

> <Gold.Chemscore.Metal>
0.0000

> <Gold.Chemscore.Lipo>
117.3275

> <Gold.Chemscore.Internal_Hbond>
0.0000

> <Gold.Chemscore.DEClash>
1.1321

> <Gold.Chemscore.DEInternal>
2.4849

> <Gold.Chemscore.Rot>
2.0297

> <Gold.Chemscore.Internal.Correction>
   9.000000E+99

> <Gold.Chemscore.Hbonds>
donor molecule, donor type, donor heavy atom, donor atom, acceptor molecule, acceptor atom, score
      P1  H  6931  6943       L1    22  0.02

> <Gold.Chemscore.Hbond.Weighted>
-3.3164

> <Gold.Chemscore.Metal.Weighted>
-0.0000

> <Gold.Chemscore.Lipo.Weighted>
-13.7273

> <Gold.Chemscore.Internal_Hbond.Weighted>
0.0000

> <Gold.Chemscore.DEClash.Weighted>
1.1321

> <Gold.Chemscore.DEInternal.Weighted>
2.4849

> <Gold.Chemscore.Rot.Weighted>
5.1960

> <Gold.Chemscore.Internal.Correction.Weighted>
   9.000000E+99

> <Gold.Protein.RotatedTorsions>
[ 6907 6896 6895 6894 ] final  -68.45 input  -60.11 | X-H torsion
[ 7974 7965 7964 7962 ] final -178.09 input  175.53 | X-H torsion
[ 8008 7997 7996 7995 ] final -174.95 input   59.86 | X-H torsion
[ 10167 10162 10161 10158 ] final -100.89 input  -65.29 | X-H torsion
[ 10718 10713 10712 10709 ] final  123.36 input   66.30 | X-H torsion
[ 10763 10752 10751 10750 ] final  -10.63 input  -60.55 | X-H torsion
[ 11005 11000 10999 10996 ] final -166.86 input  -57.11 | X-H torsion

> <Gold.Protein.ActiveResidues>
 VAL166  LYS551  ARG553  GLY616  TRP617  ASP618  TYR619  PRO620  LYS621  CYS622 
 ASP623  PHE694  ASN695  SER759  ASP760  ASP761  ALA762  ILE779  LEU786  VAL792 
 PHE793  MET794  SER795  GLU796  ALA797  LYS798  CYS799  TRP800  GLU811  SER814 

> <Gold.Protein.RotatedAtoms>
  150.7355  134.5737  159.5903 H   0  0  0  0  0  0  0  0  0  0  0  0  # atno 6907 bound_to 6896
  152.3169  134.7425  160.0332 H   0  0  0  0  0  0  0  0  0  0  0  0  # atno 6908 bound_to 6896
  151.7954  133.3328  159.3548 H   0  0  0  0  0  0  0  0  0  0  0  0  # atno 6909 bound_to 6896
  144.7129  140.0921  143.6421 H   0  0  0  0  0  0  0  0  0  0  0  0  # atno 7974 bound_to 7965
  155.9765  140.1173  157.0765 H   0  0  0  0  0  0  0  0  0  0  0  0  # atno 8008 bound_to 7997
  154.4171  140.1153  156.5445 H   0  0  0  0  0  0  0  0  0  0  0  0  # atno 8009 bound_to 7997
  155.6527  140.3473  155.4756 H   0  0  0  0  0  0  0  0  0  0  0  0  # atno 8010 bound_to 7997
  140.2472  143.3498  152.0748 H   0  0  0  0  0  0  0  0  0  0  0  0  # atno 10167 bound_to 10162
  157.5671  131.1086  150.8435 H   0  0  0  0  0  0  0  0  0  0  0  0  # atno 10718 bound_to 10713
  153.4720  135.7017  153.5988 H   0  0  0  0  0  0  0  0  0  0  0  0  # atno 10763 bound_to 10752
  153.4237  135.3819  155.2128 H   0  0  0  0  0  0  0  0  0  0  0  0  # atno 10764 bound_to 10752
  154.8725  135.3934  154.4159 H   0  0  0  0  0  0  0  0  0  0  0  0  # atno 10765 bound_to 10752
  140.5597  134.5345  157.5140 H   0  0  0  0  0  0  0  0  0  0  0  0  # atno 11005 bound_to 11000
  145.9611  139.2801  143.1155 LP  0  0  0  0  0  0  0  0  0  0  0  0  # atno 17320 bound_to 7965
  145.9219  140.9109  143.0400 LP  0  0  0  0  0  0  0  0  0  0  0  0  # atno 17321 bound_to 7965
  139.5058  144.6802  151.6029 LP  0  0  0  0  0  0  0  0  0  0  0  0  # atno 17342 bound_to 10162
  140.6069  143.9508  150.6425 LP  0  0  0  0  0  0  0  0  0  0  0  0  # atno 17343 bound_to 10162
  156.8916  130.5215  149.5286 LP  0  0  0  0  0  0  0  0  0  0  0  0  # atno 17370 bound_to 10713
  156.0718  130.5749  150.9399 LP  0  0  0  0  0  0  0  0  0  0  0  0  # atno 17371 bound_to 10713
  139.9414  134.7781  156.0670 LP  0  0  0  0  0  0  0  0  0  0  0  0  # atno 17394 bound_to 11000
  141.1122  133.6639  156.3006 LP  0  0  0  0  0  0  0  0  0  0  0  0  # atno 17395 bound_to 11000

$$$$
