AV-unprocessed.smi:3261|AV-procd|sdf|12481|dock7
  -GOLD-   2272018383D 1   1.00000     0.00000
 Structure written by MMmdl.
 31 32  0  0  0  0  0  0  0  0  2 V2000
  147.0283  133.5525  153.7069 O   0  0  0  0  0  0  0  0  0  0  0  0
  147.6522  132.8757  152.8930 C   0  0  0  0  0  0  0  0  0  0  0  0
  147.1825  132.4980  151.6871 N   0  0  0  0  0  0  0  0  0  0  0  0
  145.9417  132.8150  151.0693 C   0  0  0  0  0  0  0  0  0  0  0  0
  145.2890  133.9944  151.4919 C   0  0  0  0  0  0  0  0  0  0  0  0
  144.0477  134.3460  150.9232 C   0  0  0  0  0  0  0  0  0  0  0  0
  143.4881  133.5504  149.9870 N   0  3  0  0  0  0  0  0  0  0  0  0
  144.0662  132.4074  149.5602 C   0  0  0  0  0  0  0  0  0  0  0  0
  145.3081  132.0044  150.0923 C   0  0  0  0  0  0  0  0  0  0  0  0
  148.8877  132.4217  153.1719 N   0  0  0  0  0  0  0  0  0  0  0  0
  149.6856  132.6424  154.3793 C   0  0  1  0  0  0  0  0  0  0  0  0
  149.6611  134.1253  154.7942 C   0  0  0  0  0  0  0  0  0  0  0  0
  150.1952  134.2449  156.2272 C   0  0  0  0  0  0  0  0  0  0  0  0
  149.7541  132.6770  157.0689 S   0  0  0  0  0  0  0  0  0  0  0  0
  150.9853  132.0299  157.5465 O   0  0  0  0  0  0  0  0  0  0  0  0
  148.6164  132.9022  157.9730 O   0  0  0  0  0  0  0  0  0  0  0  0
  149.1622  131.8159  155.5648 C   0  0  0  0  0  0  0  0  0  0  0  0
  147.7769  131.8722  151.1634 H   0  0  0  0  0  0  0  0  0  0  0  0
  145.7351  134.6301  152.2433 H   0  0  0  0  0  0  0  0  0  0  0  0
  143.4892  135.2319  151.1887 H   0  0  0  0  0  0  0  0  0  0  0  0
  143.5193  131.8489  148.8145 H   0  0  0  0  0  0  0  0  0  0  0  0
  145.7386  131.0771  149.7479 H   0  0  0  0  0  0  0  0  0  0  0  0
  149.3166  131.8376  152.4681 H   0  0  0  0  0  0  0  0  0  0  0  0
  150.7279  132.3758  154.1959 H   0  0  0  0  0  0  0  0  0  0  0  0
  150.2296  134.7495  154.1040 H   0  0  0  0  0  0  0  0  0  0  0  0
  148.6321  134.4876  154.7751 H   0  0  0  0  0  0  0  0  0  0  0  0
  151.2820  134.3331  156.2295 H   0  0  0  0  0  0  0  0  0  0  0  0
  149.7767  135.0943  156.7673 H   0  0  0  0  0  0  0  0  0  0  0  0
  148.0716  131.8135  155.5927 H   0  0  0  0  0  0  0  0  0  0  0  0
  149.5125  130.7838  155.5624 H   0  0  0  0  0  0  0  0  0  0  0  0
  142.5885  133.8214  149.5892 H   0  0  0  0  0  0  0  0  0  0  0  0
  1  2  2  0  0  0  0
  2  3  1  0  0  0  0
  2 10  1  0  0  0  0
  3  4  1  0  0  0  0
  3 18  1  0  0  0  0
  4  9  1  0  0  0  0
  4  5  2  0  0  0  0
  5  6  1  0  0  0  0
  5 19  1  0  0  0  0
  6  7  2  0  0  0  0
  6 20  1  0  0  0  0
  7  8  1  0  0  0  0
  7 31  1  0  0  0  0
  8  9  2  0  0  0  0
  8 21  1  0  0  0  0
  9 22  1  0  0  0  0
 10 11  1  0  0  0  0
 10 23  1  0  0  0  0
 11 17  1  0  0  0  0
 11 12  1  0  0  0  0
 11 24  1  0  0  0  0
 12 13  1  0  0  0  0
 12 25  1  0  0  0  0
 12 26  1  0  0  0  0
 13 14  1  0  0  0  0
 13 27  1  0  0  0  0
 13 28  1  0  0  0  0
 14 15  2  0  0  0  0
 14 16  2  0  0  0  0
 14 17  1  0  0  0  0
 17 29  1  0  0  0  0
 17 30  1  0  0  0  0
M  CHG  1   7   1
M  END
> <s_m_source_file>
AV-unprocessed.smi

> <i_m_source_file_index>
3261

> <i_lp_mmshare_version>
43012

> <i_f3d_flags>
0

> <s_epik_input>
Tz1TMSg9TylbQ0gyXVtDSDJdW0NASF0oW0NIMl0xKVtOSF1DKD1PKVtOSF1jMltjSF1bY0hdbltjSF1bY0hdMg==

> <s_epik_cmdline>
J2VwaWtfcHl0aG9uJywgJy1waCcsICc3LjAnLCAnLXRuJywgJzgnLCAnLW1hJywgJzIwMCcsICctbWV0YWxfYmluZGluZycsICctaW1hZScsICc8aW5maWxlLm1hZT4nLCAnLW9tYWUnLCAnPG91dGZpbGUubWFlPic=

> <r_epik_Ionization_Penalty>
1.10375

> <r_epik_Ionization_Penalty_Charging>
1.10372

> <r_epik_Ionization_Penalty_Neutral>
2.06752e-05

> <r_epik_State_Penalty>
1.16109

> <r_epik_Charging_Adjusted_Penalty>
2.26482

> <i_epik_Tot_Q>
1

> <i_epik_Tot_abs_Q>
1

> <r_epik_Metal_State_Penalty>
1.24883

> <b_epik_Metal_Only>
0

> <s_lp_Force_Field>
OPLS_2005

> <r_lp_Energy>
25.5271

> <b_lp_Chiralities_Consistent>
1

> <s_lp_Variant>
AV-unprocessed.smi:3261-4

> <Gold.Version>
5.8.1

> <Gold.Id.Protein>
6NUR|6NUR_protein|mol2

> <Gold.PLP.Fitness>
41.8972

> <Gold.PLP.PLP>
-30.1674

> <Gold.PLP.part.hbond>
-3.2436

> <Gold.PLP.part.metal>
0.0000

> <Gold.PLP.part.buried>
-5.5980

> <Gold.PLP.part.nonpolar>
-21.6630

> <Gold.PLP.part.repulsive>
0.1697

> <Gold.PLP.ligand.clash>
0.0000

> <Gold.PLP.ligand.torsion>
0.2970

> <Gold.PLP.Chemscore.Hbond>
4.1077

> <Gold.PLP.Chemscore.CHOScore>
0.0000

> <Gold.PLP.Chemscore.Metal>
0.0000

> <Gold.Chemscore.Hbonds>
donor molecule, donor type, donor heavy atom, donor atom, acceptor molecule, acceptor atom, score
      L1  H     3    18       P1 10747  1.00
      L1  H     7    31       P1 10186  2.00
      L1  H    10    23       P1 10747  0.09
      P1  H  6896  6908       L1    15  0.63

> <Gold.PLP.Chemscore.Internal.Correction>
0.0005

> <Gold.Rescore>
     Score         DG    S(hbond)    S(metal)    S(lipo)     H(rot)  DE(clash)    DE(int)     intcor
     17.83     -19.94       2.87        0.00      63.47       1.00       0.04       2.08       ----

> <Gold.Chemscore.Fitness>
17.8252

> <Gold.Chemscore.DG>
-19.9389

> <Gold.Chemscore.ZeroCoef>
-5.4800

> <Gold.Chemscore.Hbond>
2.8722

> <Gold.Chemscore.Metal>
0.0000

> <Gold.Chemscore.Lipo>
63.4664

> <Gold.Chemscore.Internal_Hbond>
0.0000

> <Gold.Chemscore.DEClash>
0.0358

> <Gold.Chemscore.DEInternal>
2.0779

> <Gold.Chemscore.Rot>
1.0000

> <Gold.Chemscore.Internal.Correction>
   9.000000E+99

> <Gold.Chemscore.Hbonds>
donor molecule, donor type, donor heavy atom, donor atom, acceptor molecule, acceptor atom, score
      L1  H     3    18       P1 10747  1.00
      L1  H     7    31       P1 10186  0.99
      L1  H    10    23       P1 10747  0.04
      P1  H  6896  6908       L1    15  0.14

> <Gold.Chemscore.Hbond.Weighted>
-9.5933

> <Gold.Chemscore.Metal.Weighted>
-0.0000

> <Gold.Chemscore.Lipo.Weighted>
-7.4256

> <Gold.Chemscore.Internal_Hbond.Weighted>
0.0000

> <Gold.Chemscore.DEClash.Weighted>
0.0358

> <Gold.Chemscore.DEInternal.Weighted>
2.0779

> <Gold.Chemscore.Rot.Weighted>
2.5600

> <Gold.Chemscore.Internal.Correction.Weighted>
   9.000000E+99

> <Gold.Protein.RotatedTorsions>
[ 6907 6896 6895 6894 ] final   73.18 input  -60.11 | X-H torsion
[ 7974 7965 7964 7962 ] final -165.82 input  175.53 | X-H torsion
[ 8008 7997 7996 7995 ] final -130.41 input   59.86 | X-H torsion
[ 10167 10162 10161 10158 ] final  115.66 input  -65.29 | X-H torsion
[ 10718 10713 10712 10709 ] final  -56.69 input   66.30 | X-H torsion
[ 10763 10752 10751 10750 ] final   11.04 input  -60.55 | X-H torsion
[ 11005 11000 10999 10996 ] final -114.80 input  -57.11 | X-H torsion

> <Gold.Protein.ActiveResidues>
 VAL166  LYS551  ARG553  GLY616  TRP617  ASP618  TYR619  PRO620  LYS621  CYS622 
 ASP623  PHE694  ASN695  SER759  ASP760  ASP761  ALA762  ILE779  LEU786  VAL792 
 PHE793  MET794  SER795  GLU796  ALA797  LYS798  CYS799  TRP800  GLU811  SER814 

> <Gold.Protein.RotatedAtoms>
  152.4909  134.4461  159.9558 H   0  0  0  0  0  0  0  0  0  0  0  0  # atno 6907 bound_to 6896
  151.4448  133.3627  159.2794 H   0  0  0  0  0  0  0  0  0  0  0  0  # atno 6908 bound_to 6896
  150.9062  134.8501  159.7454 H   0  0  0  0  0  0  0  0  0  0  0  0  # atno 6909 bound_to 6896
  144.7260  140.2758  143.6243 H   0  0  0  0  0  0  0  0  0  0  0  0  # atno 7974 bound_to 7965
  155.2953  140.0450  157.3026 H   0  0  0  0  0  0  0  0  0  0  0  0  # atno 8008 bound_to 7997
  154.5518  140.2319  155.8441 H   0  0  0  0  0  0  0  0  0  0  0  0  # atno 8009 bound_to 7997
  156.1973  140.3035  155.9460 H   0  0  0  0  0  0  0  0  0  0  0  0  # atno 8010 bound_to 7997
  139.6301  144.7114  151.2450 H   0  0  0  0  0  0  0  0  0  0  0  0  # atno 10167 bound_to 10162
  156.1269  130.4162  150.0339 H   0  0  0  0  0  0  0  0  0  0  0  0  # atno 10718 bound_to 10713
  153.1968  135.6850  153.8282 H   0  0  0  0  0  0  0  0  0  0  0  0  # atno 10763 bound_to 10752
  153.7562  135.3216  155.3330 H   0  0  0  0  0  0  0  0  0  0  0  0  # atno 10764 bound_to 10752
  154.8149  135.4692  154.0716 H   0  0  0  0  0  0  0  0  0  0  0  0  # atno 10765 bound_to 10752
  141.0529  133.9659  157.2805 H   0  0  0  0  0  0  0  0  0  0  0  0  # atno 11005 bound_to 11000
  145.7998  139.1959  143.2055 LP  0  0  0  0  0  0  0  0  0  0  0  0  # atno 17320 bound_to 7965
  146.0686  140.7893  142.9699 LP  0  0  0  0  0  0  0  0  0  0  0  0  # atno 17321 bound_to 7965
  140.7434  143.6495  150.8261 LP  0  0  0  0  0  0  0  0  0  0  0  0  # atno 17342 bound_to 10162
  140.0119  143.5633  152.2835 LP  0  0  0  0  0  0  0  0  0  0  0  0  # atno 17343 bound_to 10162
  156.8262  130.9376  151.3639 LP  0  0  0  0  0  0  0  0  0  0  0  0  # atno 17370 bound_to 10713
  157.6450  130.8836  149.9520 LP  0  0  0  0  0  0  0  0  0  0  0  0  # atno 17371 bound_to 10713
  139.9365  135.0196  156.8573 LP  0  0  0  0  0  0  0  0  0  0  0  0  # atno 17394 bound_to 11000
  140.6021  134.0162  155.7541 LP  0  0  0  0  0  0  0  0  0  0  0  0  # atno 17395 bound_to 11000

$$$$
