AV-unprocessed.smi:528|AV-procd|sdf|2833|dock6
  -GOLD-   2262023323D 1   1.00000     0.00000
 Structure written by MMmdl.
 45 47  0  0  0  0  0  0  0  0  1 V2000
  148.1091  136.7343  158.1695 C   0  0  0  0  0  0  0  0  0  0  0  0
  148.6186  137.2460  159.5284 C   0  0  2  0  0  0  0  0  0  0  0  0
  150.0549  137.4981  159.4200 N   0  0  0  0  0  0  0  0  0  0  0  0
  150.6233  138.5356  158.7868 C   0  0  0  0  0  0  0  0  0  0  0  0
  149.9774  139.4250  158.2307 O   0  0  0  0  0  0  0  0  0  0  0  0
  152.1589  138.5629  158.8004 C   0  0  0  0  0  0  0  0  0  0  0  0
  152.7238  139.8134  159.3360 N   0  0  0  0  0  0  0  0  0  0  0  0
  152.2465  141.0196  158.7863 C   0  0  0  0  0  0  0  0  0  0  0  0
  152.6695  142.2308  159.1968 C   0  0  0  0  0  0  0  0  0  0  0  0
  152.1762  143.5139  158.5462 C   0  0  0  0  0  0  0  0  0  0  0  0
  153.1501  144.1072  157.8556 F   0  0  0  0  0  0  0  0  0  0  0  0
  151.1599  143.2746  157.7165 F   0  0  0  0  0  0  0  0  0  0  0  0
  151.7552  144.3630  159.4826 F   0  0  0  0  0  0  0  0  0  0  0  0
  153.6873  142.2426  160.2291 C   0  0  0  0  0  0  0  0  0  0  0  0
  154.1638  141.0981  160.7568 C   0  0  0  0  0  0  0  0  0  0  0  0
  153.6774  139.7891  160.3151 C   0  0  0  0  0  0  0  0  0  0  0  0
  154.1012  138.7366  160.7937 O   0  0  0  0  0  0  0  0  0  0  0  0
  148.3537  136.2538  160.6880 C   0  0  1  0  0  0  0  0  0  0  0  0
  148.2891  136.9328  162.0799 C   0  0  0  0  0  0  0  0  0  0  0  0
  146.9394  136.4577  162.6463 C   0  0  2  0  0  0  0  0  0  0  0  0
  147.0160  134.9543  162.9679 C   0  0  0  0  0  0  0  0  0  0  0  0
  147.0190  134.3104  161.5692 C   0  0  0  0  0  0  0  0  0  0  0  0
  146.9825  135.5326  160.6313 C   0  0  1  0  0  0  0  0  0  0  0  0
  146.0628  136.4746  161.4019 C   0  0  0  0  0  0  0  0  0  0  0  0
  147.0265  136.6173  158.1590 H   0  0  0  0  0  0  0  0  0  0  0  0
  148.5522  135.7705  157.9168 H   0  0  0  0  0  0  0  0  0  0  0  0
  148.3592  137.4327  157.3701 H   0  0  0  0  0  0  0  0  0  0  0  0
  148.1028  138.1807  159.7540 H   0  0  0  0  0  0  0  0  0  0  0  0
  150.6651  136.8205  159.8538 H   0  0  0  0  0  0  0  0  0  0  0  0
  152.5085  137.7065  159.3787 H   0  0  0  0  0  0  0  0  0  0  0  0
  152.5276  138.3908  157.7873 H   0  0  0  0  0  0  0  0  0  0  0  0
  151.5156  140.8970  158.0002 H   0  0  0  0  0  0  0  0  0  0  0  0
  154.0730  143.1857  160.5875 H   0  0  0  0  0  0  0  0  0  0  0  0
  154.9217  141.1451  161.5249 H   0  0  0  0  0  0  0  0  0  0  0  0
  149.1539  135.5115  160.6833 H   0  0  0  0  0  0  0  0  0  0  0  0
  149.1283  136.6520  162.7169 H   0  0  0  0  0  0  0  0  0  0  0  0
  148.2894  138.0207  161.9968 H   0  0  0  0  0  0  0  0  0  0  0  0
  146.5746  137.0653  163.4750 H   0  0  0  0  0  0  0  0  0  0  0  0
  147.9060  134.7013  163.5451 H   0  0  0  0  0  0  0  0  0  0  0  0
  146.1433  134.6315  163.5368 H   0  0  0  0  0  0  0  0  0  0  0  0
  147.8918  133.6786  161.4011 H   0  0  0  0  0  0  0  0  0  0  0  0
  146.1306  133.6924  161.4320 H   0  0  0  0  0  0  0  0  0  0  0  0
  146.6376  135.2808  159.6294 H   0  0  0  0  0  0  0  0  0  0  0  0
  145.0656  136.0634  161.5706 H   0  0  0  0  0  0  0  0  0  0  0  0
  145.9686  137.4630  160.9494 H   0  0  0  0  0  0  0  0  0  0  0  0
  1  2  1  0  0  0  0
  1 25  1  0  0  0  0
  1 26  1  0  0  0  0
  1 27  1  0  0  0  0
  2  3  1  0  0  0  0
  2 18  1  0  0  0  0
  2 28  1  0  0  0  0
  3  4  1  0  0  0  0
  3 29  1  0  0  0  0
  4  5  2  0  0  0  0
  4  6  1  0  0  0  0
  6  7  1  0  0  0  0
  6 30  1  0  0  0  0
  6 31  1  0  0  0  0
  7 16  1  0  0  0  0
  7  8  1  0  0  0  0
  8  9  2  0  0  0  0
  8 32  1  0  0  0  0
  9 10  1  0  0  0  0
  9 14  1  0  0  0  0
 10 11  1  0  0  0  0
 10 12  1  0  0  0  0
 10 13  1  0  0  0  0
 14 15  2  0  0  0  0
 14 33  1  0  0  0  0
 15 16  1  0  0  0  0
 15 34  1  0  0  0  0
 16 17  2  0  0  0  0
 18 23  1  0  0  0  0
 18 19  1  0  0  0  0
 18 35  1  0  0  0  0
 19 20  1  0  0  0  0
 19 36  1  0  0  0  0
 19 37  1  0  0  0  0
 20 24  1  0  0  0  0
 20 21  1  0  0  0  0
 20 38  1  0  0  0  0
 21 22  1  0  0  0  0
 21 39  1  0  0  0  0
 21 40  1  0  0  0  0
 22 23  1  0  0  0  0
 22 41  1  0  0  0  0
 22 42  1  0  0  0  0
 23 24  1  0  0  0  0
 23 43  1  0  0  0  0
 24 44  1  0  0  0  0
 24 45  1  0  0  0  0
M  END
> <s_m_source_file>
AV-unprocessed.smi

> <i_m_source_file_index>
528

> <i_lp_mmshare_version>
43012

> <i_f3d_flags>
0

> <s_epik_input>
W0NIMl0xW0NIMl1bQ0BASF0oW0NIMl0yKVtDQEBIXShbQ0gyXVtDQEhdMTIpW0NASF0oW0NIM10pW05IXUMoPU8pW0NIMl1uM1tjSF1jKEMoRikoRilGKVtjSF1bY0hdYzM9Tw==

> <s_epik_cmdline>
J2VwaWtfcHl0aG9uJywgJy1waCcsICc3LjAnLCAnLXRuJywgJzgnLCAnLW1hJywgJzIwMCcsICctbWV0YWxfYmluZGluZycsICctaW1hZScsICc8aW5maWxlLm1hZT4nLCAnLW9tYWUnLCAnPG91dGZpbGUubWFlPic=

> <r_lp_tautomer_probability>
1

> <r_epik_Ionization_Penalty>
4.09479e-08

> <r_epik_Ionization_Penalty_Charging>
1.9321e-08

> <r_epik_Ionization_Penalty_Neutral>
2.16269e-08

> <r_epik_State_Penalty>
-0

> <r_epik_Charging_Adjusted_Penalty>
1.9321e-08

> <i_epik_Tot_Q>
0

> <i_epik_Tot_abs_Q>
0

> <r_epik_Metal_State_Penalty>
-0

> <b_epik_Metal_Only>
0

> <s_lp_Force_Field>
OPLS_2005

> <r_lp_Energy>
62.8308

> <b_lp_Chiralities_Consistent>
1

> <s_lp_Variant>
AV-unprocessed.smi:528-3

> <Gold.Version>
5.8.1

> <Gold.Id.Protein>
6NUR|6NUR_protein|mol2

> <Gold.PLP.Fitness>
46.7754

> <Gold.PLP.PLP>
-49.5616

> <Gold.PLP.part.hbond>
0.0000

> <Gold.PLP.part.metal>
0.0000

> <Gold.PLP.part.buried>
-4.2421

> <Gold.PLP.part.nonpolar>
-46.0635

> <Gold.PLP.part.repulsive>
0.2158

> <Gold.PLP.ligand.clash>
1.0048

> <Gold.PLP.ligand.torsion>
0.9332

> <Gold.PLP.Chemscore.Hbond>
0.0000

> <Gold.PLP.Chemscore.CHOScore>
0.0000

> <Gold.PLP.Chemscore.Metal>
0.0000

> <Gold.PLP.Chemscore.Internal.Correction>
0.0849

> <Gold.Rescore>
     Score         DG    S(hbond)    S(metal)    S(lipo)     H(rot)  DE(clash)    DE(int)     intcor
     11.40     -14.00       0.00        0.00     110.28       1.71       0.52       2.08       ----

> <Gold.Chemscore.Fitness>
11.4036

> <Gold.Chemscore.DG>
-13.9987

> <Gold.Chemscore.ZeroCoef>
-5.4800

> <Gold.Chemscore.Hbond>
0.0000

> <Gold.Chemscore.Metal>
0.0000

> <Gold.Chemscore.Lipo>
110.2795

> <Gold.Chemscore.Internal_Hbond>
0.0000

> <Gold.Chemscore.DEClash>
0.5155

> <Gold.Chemscore.DEInternal>
2.0797

> <Gold.Chemscore.Rot>
1.7125

> <Gold.Chemscore.Internal.Correction>
   9.000000E+99

> <Gold.Chemscore.Hbond.Weighted>
-0.0000

> <Gold.Chemscore.Metal.Weighted>
-0.0000

> <Gold.Chemscore.Lipo.Weighted>
-12.9027

> <Gold.Chemscore.Internal_Hbond.Weighted>
0.0000

> <Gold.Chemscore.DEClash.Weighted>
0.5155

> <Gold.Chemscore.DEInternal.Weighted>
2.0797

> <Gold.Chemscore.Rot.Weighted>
4.3840

> <Gold.Chemscore.Internal.Correction.Weighted>
   9.000000E+99

> <Gold.Protein.RotatedTorsions>
[ 6907 6896 6895 6894 ] final  166.10 input  -60.11 | X-H torsion
[ 7974 7965 7964 7962 ] final  158.41 input  175.53 | X-H torsion
[ 8008 7997 7996 7995 ] final  -52.32 input   59.86 | X-H torsion
[ 10167 10162 10161 10158 ] final   24.31 input  -65.29 | X-H torsion
[ 10718 10713 10712 10709 ] final -165.16 input   66.30 | X-H torsion
[ 10763 10752 10751 10750 ] final   78.96 input  -60.55 | X-H torsion
[ 11005 11000 10999 10996 ] final -178.73 input  -57.11 | X-H torsion

> <Gold.Protein.ActiveResidues>
 VAL166  LYS551  ARG553  GLY616  TRP617  ASP618  TYR619  PRO620  LYS621  CYS622 
 ASP623  PHE694  ASN695  SER759  ASP760  ASP761  ALA762  ILE779  LEU786  VAL792 
 PHE793  MET794  SER795  GLU796  ALA797  LYS798  CYS799  TRP800  GLU811  SER814 

> <Gold.Protein.RotatedAtoms>
  151.8841  133.3501  159.3776 H   0  0  0  0  0  0  0  0  0  0  0  0  # atno 6907 bound_to 6896
  150.7120  134.4989  159.5561 H   0  0  0  0  0  0  0  0  0  0  0  0  # atno 6908 bound_to 6896
  152.2546  134.8097  160.0491 H   0  0  0  0  0  0  0  0  0  0  0  0  # atno 6909 bound_to 6896
  144.7847  139.7474  143.6245 H   0  0  0  0  0  0  0  0  0  0  0  0  # atno 7974 bound_to 7965
  154.4104  140.1227  156.4972 H   0  0  0  0  0  0  0  0  0  0  0  0  # atno 8008 bound_to 7997
  155.6931  140.3495  155.4882 H   0  0  0  0  0  0  0  0  0  0  0  0  # atno 8009 bound_to 7997
  155.9451  140.1094  157.1013 H   0  0  0  0  0  0  0  0  0  0  0  0  # atno 8010 bound_to 7997
  140.5198  144.0021  150.6411 H   0  0  0  0  0  0  0  0  0  0  0  0  # atno 10167 bound_to 10162
  156.6495  130.9001  151.3010 H   0  0  0  0  0  0  0  0  0  0  0  0  # atno 10718 bound_to 10713
  153.0915  135.4857  154.8699 H   0  0  0  0  0  0  0  0  0  0  0  0  # atno 10763 bound_to 10752
  154.7275  135.3053  154.8949 H   0  0  0  0  0  0  0  0  0  0  0  0  # atno 10764 bound_to 10752
  153.9595  135.6814  153.4798 H   0  0  0  0  0  0  0  0  0  0  0  0  # atno 10765 bound_to 10752
  140.4265  134.6558  157.4690 H   0  0  0  0  0  0  0  0  0  0  0  0  # atno 11005 bound_to 11000
  146.2074  139.5407  142.9704 LP  0  0  0  0  0  0  0  0  0  0  0  0  # atno 17320 bound_to 7965
  145.5953  141.0363  143.2048 LP  0  0  0  0  0  0  0  0  0  0  0  0  # atno 17321 bound_to 7965
  140.3367  143.3044  152.0631 LP  0  0  0  0  0  0  0  0  0  0  0  0  # atno 17342 bound_to 10162
  139.4920  144.6471  151.6754 LP  0  0  0  0  0  0  0  0  0  0  0  0  # atno 17343 bound_to 10162
  157.7145  130.9481  150.1207 LP  0  0  0  0  0  0  0  0  0  0  0  0  # atno 17370 bound_to 10713
  156.2096  130.3666  149.8687 LP  0  0  0  0  0  0  0  0  0  0  0  0  # atno 17371 bound_to 10713
  140.0164  134.6613  155.9304 LP  0  0  0  0  0  0  0  0  0  0  0  0  # atno 17394 bound_to 11000
  141.1763  133.6541  156.4841 LP  0  0  0  0  0  0  0  0  0  0  0  0  # atno 17395 bound_to 11000

$$$$
