AV-unprocessed.smi:3251|AV-procd|sdf|12437|dock2
  -GOLD-   2272018323D 1   1.00000     0.00000
 Structure written by MMmdl.
 40 41  0  0  0  0  0  0  0  0  1 V2000
  145.6380  132.6012  150.4271 C   0  0  0  0  0  0  0  0  0  0  0  0
  144.8366  133.6976  151.0668 C   0  0  0  0  0  0  0  0  0  0  0  0
  144.4643  134.9512  150.5036 C   0  0  0  0  0  0  0  0  0  0  0  0
  143.7471  135.6945  151.3305 N   0  0  0  0  0  0  0  0  0  0  0  0
  143.6349  134.9436  152.4465 N   0  0  0  0  0  0  0  0  0  0  0  0
  142.8748  135.4440  153.5779 C   0  0  0  0  0  0  0  0  0  0  0  0
  141.3710  135.5088  153.2683 C   0  0  0  0  0  0  0  0  0  0  0  0
  140.6236  135.7912  154.4904 N   0  0  0  0  0  0  0  0  0  0  0  0
  139.2131  136.1380  154.2478 C   0  0  2  0  0  0  0  0  0  0  0  0
  139.1324  137.2505  153.1913 C   0  0  0  0  0  0  0  0  0  0  0  0
  138.4810  136.5851  155.5338 C   0  0  0  0  0  0  0  0  0  0  0  0
  139.1395  136.7616  156.5608 O   0  0  0  0  0  0  0  0  0  0  0  0
  137.1433  136.7694  155.5084 N   0  0  0  0  0  0  0  0  0  0  0  0
  136.2974  137.1526  156.6384 C   0  0  0  0  0  0  0  0  0  0  0  0
  134.8563  136.9792  156.1581 C   0  0  0  0  0  0  0  0  0  0  0  0
  134.9476  137.1309  154.6467 C   0  0  0  0  0  0  0  0  0  0  0  0
  136.3357  136.5913  154.3026 C   0  0  0  0  0  0  0  0  0  0  0  0
  144.2833  133.7339  152.3153 C   0  0  0  0  0  0  0  0  0  0  0  0
  146.2624  132.9768  149.6162 H   0  0  0  0  0  0  0  0  0  0  0  0
  144.9944  131.8284  150.0066 H   0  0  0  0  0  0  0  0  0  0  0  0
  146.3004  132.1147  151.1433 H   0  0  0  0  0  0  0  0  0  0  0  0
  144.6918  135.3401  149.5220 H   0  0  0  0  0  0  0  0  0  0  0  0
  143.0696  134.8117  154.4452 H   0  0  0  0  0  0  0  0  0  0  0  0
  143.2455  136.4390  153.8279 H   0  0  0  0  0  0  0  0  0  0  0  0
  141.1714  136.3019  152.5471 H   0  0  0  0  0  0  0  0  0  0  0  0
  141.0589  134.5732  152.8033 H   0  0  0  0  0  0  0  0  0  0  0  0
  141.1019  136.5043  155.0217 H   0  0  0  0  0  0  0  0  0  0  0  0
  138.7362  135.2531  153.8274 H   0  0  0  0  0  0  0  0  0  0  0  0
  138.0976  137.5175  152.9734 H   0  0  0  0  0  0  0  0  0  0  0  0
  139.5900  136.9331  152.2540 H   0  0  0  0  0  0  0  0  0  0  0  0
  139.6466  138.1546  153.5208 H   0  0  0  0  0  0  0  0  0  0  0  0
  136.4890  136.5451  157.5238 H   0  0  0  0  0  0  0  0  0  0  0  0
  136.4901  138.1969  156.8887 H   0  0  0  0  0  0  0  0  0  0  0  0
  134.5076  135.9749  156.4024 H   0  0  0  0  0  0  0  0  0  0  0  0
  134.1694  137.6921  156.6150 H   0  0  0  0  0  0  0  0  0  0  0  0
  134.1481  136.6100  154.1190 H   0  0  0  0  0  0  0  0  0  0  0  0
  134.8901  138.1876  154.3820 H   0  0  0  0  0  0  0  0  0  0  0  0
  136.7604  137.1120  153.4428 H   0  0  0  0  0  0  0  0  0  0  0  0
  136.2849  135.5280  154.0639 H   0  0  0  0  0  0  0  0  0  0  0  0
  144.2896  133.0031  153.1106 H   0  0  0  0  0  0  0  0  0  0  0  0
  1  2  1  0  0  0  0
  1 19  1  0  0  0  0
  1 20  1  0  0  0  0
  1 21  1  0  0  0  0
  2 18  2  0  0  0  0
  2  3  1  0  0  0  0
  3  4  2  0  0  0  0
  3 22  1  0  0  0  0
  4  5  1  0  0  0  0
  5  6  1  0  0  0  0
  5 18  1  0  0  0  0
  6  7  1  0  0  0  0
  6 23  1  0  0  0  0
  6 24  1  0  0  0  0
  7  8  1  0  0  0  0
  7 25  1  0  0  0  0
  7 26  1  0  0  0  0
  8  9  1  0  0  0  0
  8 27  1  0  0  0  0
  9 10  1  0  0  0  0
  9 11  1  0  0  0  0
  9 28  1  0  0  0  0
 10 29  1  0  0  0  0
 10 30  1  0  0  0  0
 10 31  1  0  0  0  0
 11 12  2  0  0  0  0
 11 13  1  0  0  0  0
 13 17  1  0  0  0  0
 13 14  1  0  0  0  0
 14 15  1  0  0  0  0
 14 32  1  0  0  0  0
 14 33  1  0  0  0  0
 15 16  1  0  0  0  0
 15 34  1  0  0  0  0
 15 35  1  0  0  0  0
 16 17  1  0  0  0  0
 16 36  1  0  0  0  0
 16 37  1  0  0  0  0
 17 38  1  0  0  0  0
 17 39  1  0  0  0  0
 18 40  1  0  0  0  0
M  END
> <s_m_source_file>
AV-unprocessed.smi

> <i_m_source_file_index>
3251

> <i_lp_mmshare_version>
43012

> <i_f3d_flags>
0

> <s_epik_input>
W0NIM11jMVtjSF1ubihbY0hdMSlbQ0gyXVtDSDJdW05IXVtDQEhdKFtDSDNdKUMoPU8pTjJbQ0gyXVtDSDJdW0NIMl1bQ0gyXTI=

> <s_epik_cmdline>
J2VwaWtfcHl0aG9uJywgJy1waCcsICc3LjAnLCAnLXRuJywgJzgnLCAnLW1hJywgJzIwMCcsICctbWV0YWxfYmluZGluZycsICctaW1hZScsICc8aW5maWxlLm1hZT4nLCAnLW9tYWUnLCAnPG91dGZpbGUubWFlPic=

> <r_lp_tautomer_probability>
1

> <r_epik_Ionization_Penalty>
0.734676

> <r_epik_Ionization_Penalty_Charging>
0

> <r_epik_Ionization_Penalty_Neutral>
0.734676

> <r_epik_State_Penalty>
0.75825

> <r_epik_Charging_Adjusted_Penalty>
0.75825

> <i_epik_Tot_Q>
0

> <i_epik_Tot_abs_Q>
0

> <r_epik_Metal_State_Penalty>
0.756914

> <b_epik_Metal_Only>
0

> <s_lp_Force_Field>
OPLS_2005

> <r_lp_Energy>
32.0163

> <b_lp_Chiralities_Consistent>
1

> <s_lp_Variant>
AV-unprocessed.smi:3251-3

> <Gold.Version>
5.8.1

> <Gold.Id.Protein>
6NUR|6NUR_protein|mol2

> <Gold.PLP.Fitness>
42.7320

> <Gold.PLP.PLP>
-34.2354

> <Gold.PLP.part.hbond>
-2.0000

> <Gold.PLP.part.metal>
0.0000

> <Gold.PLP.part.buried>
-6.6441

> <Gold.PLP.part.nonpolar>
-25.3790

> <Gold.PLP.part.repulsive>
0.2444

> <Gold.PLP.ligand.clash>
0.0000

> <Gold.PLP.ligand.torsion>
0.2775

> <Gold.PLP.Chemscore.Hbond>
1.0000

> <Gold.PLP.Chemscore.CHOScore>
1.9944

> <Gold.PLP.Chemscore.Metal>
0.0000

> <Gold.Chemscore.Hbonds>
donor molecule, donor type, donor heavy atom, donor atom, acceptor molecule, acceptor atom, score
      P1  H 11000 11005       L1    12  0.80
      L1  C     3    22       P1  7921  1.00
      L1  C    18    40       P1 10957  0.75

> <Gold.PLP.Chemscore.Internal.Correction>
0.0684

> <Gold.Rescore>
     Score         DG    S(hbond)    S(metal)    S(lipo)     H(rot)  DE(clash)    DE(int)     intcor
     11.80     -12.89       0.82        0.00      77.03       1.70       0.09       1.00       ----

> <Gold.Chemscore.Fitness>
11.7984

> <Gold.Chemscore.DG>
-12.8950

> <Gold.Chemscore.ZeroCoef>
-5.4800

> <Gold.Chemscore.Hbond>
0.8211

> <Gold.Chemscore.Metal>
0.0000

> <Gold.Chemscore.Lipo>
77.0260

> <Gold.Chemscore.Internal_Hbond>
0.0000

> <Gold.Chemscore.DEClash>
0.0917

> <Gold.Chemscore.DEInternal>
1.0049

> <Gold.Chemscore.Rot>
1.6951

> <Gold.Chemscore.Internal.Correction>
   9.000000E+99

> <Gold.Chemscore.Hbonds>
donor molecule, donor type, donor heavy atom, donor atom, acceptor molecule, acceptor atom, score
      P1  H 11000 11005       L1    12  0.12

> <Gold.Chemscore.Hbond.Weighted>
-2.7425

> <Gold.Chemscore.Metal.Weighted>
-0.0000

> <Gold.Chemscore.Lipo.Weighted>
-9.0120

> <Gold.Chemscore.Internal_Hbond.Weighted>
0.0000

> <Gold.Chemscore.DEClash.Weighted>
0.0917

> <Gold.Chemscore.DEInternal.Weighted>
1.0049

> <Gold.Chemscore.Rot.Weighted>
4.3395

> <Gold.Chemscore.Internal.Correction.Weighted>
   9.000000E+99

> <Gold.Protein.RotatedTorsions>
[ 6907 6896 6895 6894 ] final  168.10 input  -60.11 | X-H torsion
[ 7974 7965 7964 7962 ] final -146.93 input  175.53 | X-H torsion
[ 8008 7997 7996 7995 ] final  153.13 input   59.86 | X-H torsion
[ 10167 10162 10161 10158 ] final   82.60 input  -65.29 | X-H torsion
[ 10718 10713 10712 10709 ] final  151.02 input   66.30 | X-H torsion
[ 10763 10752 10751 10750 ] final  -98.99 input  -60.55 | X-H torsion
[ 11005 11000 10999 10996 ] final  110.80 input  -57.11 | X-H torsion

> <Gold.Protein.ActiveResidues>
 VAL166  LYS551  ARG553  GLY616  TRP617  ASP618  TYR619  PRO620  LYS621  CYS622 
 ASP623  PHE694  ASN695  SER759  ASP760  ASP761  ALA762  ILE779  LEU786  VAL792 
 PHE793  MET794  SER795  GLU796  ALA797  LYS798  CYS799  TRP800  GLU811  SER814 

> <Gold.Protein.RotatedAtoms>
  151.8529  133.3443  159.3678 H   0  0  0  0  0  0  0  0  0  0  0  0  # atno 6907 bound_to 6896
  150.7201  134.5281  159.5696 H   0  0  0  0  0  0  0  0  0  0  0  0  # atno 6908 bound_to 6896
  152.2779  134.7862  160.0453 H   0  0  0  0  0  0  0  0  0  0  0  0  # atno 6909 bound_to 6896
  144.8127  140.5393  143.5631 H   0  0  0  0  0  0  0  0  0  0  0  0  # atno 7974 bound_to 7965
  156.2596  140.2002  156.6442 H   0  0  0  0  0  0  0  0  0  0  0  0  # atno 8008 bound_to 7997
  154.6586  140.0563  157.0062 H   0  0  0  0  0  0  0  0  0  0  0  0  # atno 8009 bound_to 7997
  155.1309  140.3233  155.4477 H   0  0  0  0  0  0  0  0  0  0  0  0  # atno 8010 bound_to 7997
  139.9271  144.6176  150.8382 H   0  0  0  0  0  0  0  0  0  0  0  0  # atno 10167 bound_to 10162
  157.2761  131.0826  151.1565 H   0  0  0  0  0  0  0  0  0  0  0  0  # atno 10718 bound_to 10713
  154.7460  135.4989  153.9205 H   0  0  0  0  0  0  0  0  0  0  0  0  # atno 10763 bound_to 10752
  153.1093  135.6705  153.9538 H   0  0  0  0  0  0  0  0  0  0  0  0  # atno 10764 bound_to 10752
  153.9302  135.3079  155.3425 H   0  0  0  0  0  0  0  0  0  0  0  0  # atno 10765 bound_to 10752
  139.8889  134.9493  156.6335 H   0  0  0  0  0  0  0  0  0  0  0  0  # atno 11005 bound_to 11000
  145.5286  139.1475  143.3512 LP  0  0  0  0  0  0  0  0  0  0  0  0  # atno 17320 bound_to 7965
  146.2427  140.5427  142.8927 LP  0  0  0  0  0  0  0  0  0  0  0  0  # atno 17321 bound_to 7965
  140.7647  143.3256  151.2523 LP  0  0  0  0  0  0  0  0  0  0  0  0  # atno 17342 bound_to 10162
  139.6813  143.9849  152.2810 LP  0  0  0  0  0  0  0  0  0  0  0  0  # atno 17343 bound_to 10162
  157.3018  130.6846  149.6168 LP  0  0  0  0  0  0  0  0  0  0  0  0  # atno 17370 bound_to 10713
  155.9664  130.4390  150.5239 LP  0  0  0  0  0  0  0  0  0  0  0  0  # atno 17371 bound_to 10713
  140.7648  133.8787  155.8446 LP  0  0  0  0  0  0  0  0  0  0  0  0  # atno 17394 bound_to 11000
  140.9891  134.1302  157.4424 LP  0  0  0  0  0  0  0  0  0  0  0  0  # atno 17395 bound_to 11000

$$$$
