AV-unprocessed.smi:1278|AV-procd|sdf|5352|dock3
  -GOLD-   22720 4483D 1   1.00000     0.00000
 Structure written by MMmdl.
 38 39  0  0  0  0  0  0  0  0  3 V2000
  149.7066  143.0711  158.6272 C   0  0  0  0  0  0  0  0  0  0  0  0
  151.0749  143.0739  157.9231 C   0  0  1  0  0  0  0  0  0  0  0  0
  152.2551  143.0248  158.9114 C   0  0  0  0  0  0  0  0  0  0  0  0
  152.4122  141.6255  159.5230 C   0  0  0  0  0  0  0  0  0  0  0  0
  152.5012  140.5503  158.4284 C   0  0  0  0  0  0  0  0  0  0  0  0
  151.3252  140.6084  157.5224 N   0  3  2  0  0  0  0  0  0  0  0  0
  151.3090  139.4866  156.5511 C   0  0  0  0  0  0  0  0  0  0  0  0
  151.0763  138.1254  157.2342 C   0  0  0  0  0  0  0  0  0  0  0  0
  149.9002  138.1586  158.0953 N   0  0  0  0  0  0  0  0  0  0  0  0
  149.3028  137.0907  158.6432 C   0  0  0  0  0  0  0  0  0  0  0  0
  149.7533  135.9613  158.4358 O   0  0  0  0  0  0  0  0  0  0  0  0
  148.2192  137.3980  159.3904 N   0  5  0  0  0  0  0  0  0  0  0  0
  147.8794  136.6204  160.4314 C   0  0  0  0  0  0  0  0  0  0  0  0
  147.5780  137.1100  161.6395 N   0  0  0  0  0  0  0  0  0  0  0  0
  147.2509  136.1241  162.5723 C   0  0  0  0  0  0  0  0  0  0  0  0
  147.2958  134.8547  162.0600 C   0  0  0  0  0  0  0  0  0  0  0  0
  147.7509  134.8598  160.3800 S   0  0  0  0  0  0  0  0  0  0  0  0
  151.1954  141.9443  156.8792 C   0  0  0  0  0  0  0  0  0  0  0  0
  149.5310  142.1445  159.1735 H   0  0  0  0  0  0  0  0  0  0  0  0
  148.8965  143.1855  157.9062 H   0  0  0  0  0  0  0  0  0  0  0  0
  149.6300  143.8949  159.3372 H   0  0  0  0  0  0  0  0  0  0  0  0
  151.1408  144.0216  157.3870 H   0  0  0  0  0  0  0  0  0  0  0  0
  153.1743  143.2877  158.3861 H   0  0  0  0  0  0  0  0  0  0  0  0
  152.1292  143.7706  159.6973 H   0  0  0  0  0  0  0  0  0  0  0  0
  153.3056  141.5927  160.1473 H   0  0  0  0  0  0  0  0  0  0  0  0
  151.5713  141.4100  160.1829 H   0  0  0  0  0  0  0  0  0  0  0  0
  153.4165  140.6756  157.8477 H   0  0  0  0  0  0  0  0  0  0  0  0
  152.5572  139.5687  158.9006 H   0  0  0  0  0  0  0  0  0  0  0  0
  150.5569  139.6700  155.7821 H   0  0  0  0  0  0  0  0  0  0  0  0
  152.2702  139.4514  156.0365 H   0  0  0  0  0  0  0  0  0  0  0  0
  150.9717  137.3344  156.4898 H   0  0  0  0  0  0  0  0  0  0  0  0
  151.9249  137.8520  157.8599 H   0  0  0  0  0  0  0  0  0  0  0  0
  149.5028  139.0649  158.2967 H   0  0  0  0  0  0  0  0  0  0  0  0
  146.9979  136.4166  163.5805 H   0  0  0  0  0  0  0  0  0  0  0  0
  147.0883  133.9229  162.5639 H   0  0  0  0  0  0  0  0  0  0  0  0
  150.3282  141.9722  156.2203 H   0  0  0  0  0  0  0  0  0  0  0  0
  152.0679  142.1195  156.2473 H   0  0  0  0  0  0  0  0  0  0  0  0
  150.5134  140.4827  158.1099 H   0  0  0  0  0  0  0  0  0  0  0  0
  1  2  1  0  0  0  0
  1 19  1  0  0  0  0
  1 20  1  0  0  0  0
  1 21  1  0  0  0  0
  2 18  1  0  0  0  0
  2  3  1  0  0  0  0
  2 22  1  0  0  0  0
  3  4  1  0  0  0  0
  3 23  1  0  0  0  0
  3 24  1  0  0  0  0
  4  5  1  0  0  0  0
  4 25  1  0  0  0  0
  4 26  1  0  0  0  0
  5  6  1  0  0  0  0
  5 27  1  0  0  0  0
  5 28  1  0  0  0  0
  6  7  1  0  0  0  0
  6 18  1  0  0  0  0
  6 38  1  0  0  0  0
  7  8  1  0  0  0  0
  7 29  1  0  0  0  0
  7 30  1  0  0  0  0
  8  9  1  0  0  0  0
  8 31  1  0  0  0  0
  8 32  1  0  0  0  0
  9 10  1  0  0  0  0
  9 33  1  0  0  0  0
 10 11  2  0  0  0  0
 10 12  1  0  0  0  0
 12 13  1  0  0  0  0
 13 17  1  0  0  0  0
 13 14  2  0  0  0  0
 14 15  1  0  0  0  0
 15 16  2  0  0  0  0
 15 34  1  0  0  0  0
 16 17  1  0  0  0  0
 16 35  1  0  0  0  0
 18 36  1  0  0  0  0
 18 37  1  0  0  0  0
M  CHG  1   6   1
M  CHG  1  12  -1
M  END
> <s_m_source_file>
AV-unprocessed.smi

> <i_m_source_file_index>
1278

> <i_lp_mmshare_version>
43012

> <i_f3d_flags>
0

> <s_epik_input>
W0NIM11bQ0BASF0xW0NIMl1bQ0gyXVtDSDJdTihbQ0gyXTEpW0NIMl1bQ0gyXVtOSF1DKD1PKVtOSF1jMm5bY0hdW2NIXXMy

> <s_epik_cmdline>
J2VwaWtfcHl0aG9uJywgJy1waCcsICc3LjAnLCAnLXRuJywgJzgnLCAnLW1hJywgJzIwMCcsICctbWV0YWxfYmluZGluZycsICctaW1hZScsICc8aW5maWxlLm1hZT4nLCAnLW9tYWUnLCAnPG91dGZpbGUubWFlPic=

> <r_lp_tautomer_probability>
0.999

> <r_epik_Ionization_Penalty>
6.22019

> <r_epik_Ionization_Penalty_Charging>
5.38911

> <r_epik_Ionization_Penalty_Neutral>
0.831074

> <r_epik_State_Penalty>
5.38904

> <r_epik_Charging_Adjusted_Penalty>
10.7782

> <i_epik_Tot_Q>
0

> <i_epik_Tot_abs_Q>
2

> <r_epik_Metal_State_Penalty>
1.41502

> <b_epik_Metal_Only>
1

> <s_lp_Force_Field>
OPLS_2005

> <r_lp_Energy>
8.87374

> <b_lp_Chiralities_Consistent>
1

> <s_lp_Variant>
AV-unprocessed.smi:1278-6

> <Gold.Version>
5.8.1

> <Gold.Id.Protein>
6NUR|6NUR_protein|mol2

> <Gold.PLP.Fitness>
40.0170

> <Gold.PLP.PLP>
-33.7521

> <Gold.PLP.part.hbond>
-3.9049

> <Gold.PLP.part.metal>
0.0000

> <Gold.PLP.part.buried>
-4.3166

> <Gold.PLP.part.nonpolar>
-24.8959

> <Gold.PLP.part.repulsive>
0.1736

> <Gold.PLP.ligand.clash>
0.0000

> <Gold.PLP.ligand.torsion>
0.7495

> <Gold.PLP.Chemscore.Hbond>
2.5516

> <Gold.PLP.Chemscore.CHOScore>
0.0000

> <Gold.PLP.Chemscore.Metal>
0.0000

> <Gold.Chemscore.Hbonds>
donor molecule, donor type, donor heavy atom, donor atom, acceptor molecule, acceptor atom, score
      P1  H  6896  6907       L1    11  1.00
      P1  H  6931  6943       L1    14  1.00
      P1  H  6934  6947       L1    14  0.54

> <Gold.PLP.Chemscore.Internal.Correction>
0.1091

> <Gold.Rescore>
     Score         DG    S(hbond)    S(metal)    S(lipo)     H(rot)  DE(clash)    DE(int)     intcor
     17.36     -18.33       2.16        0.00      82.43       1.57       0.01       0.96       ----

> <Gold.Chemscore.Fitness>
17.3571

> <Gold.Chemscore.DG>
-18.3261

> <Gold.Chemscore.ZeroCoef>
-5.4800

> <Gold.Chemscore.Hbond>
2.1600

> <Gold.Chemscore.Metal>
0.0000

> <Gold.Chemscore.Lipo>
82.4347

> <Gold.Chemscore.Internal_Hbond>
0.0000

> <Gold.Chemscore.DEClash>
0.0057

> <Gold.Chemscore.DEInternal>
0.9633

> <Gold.Chemscore.Rot>
1.5676

> <Gold.Chemscore.Internal.Correction>
   9.000000E+99

> <Gold.Chemscore.Hbonds>
donor molecule, donor type, donor heavy atom, donor atom, acceptor molecule, acceptor atom, score
      P1  H  6896  6907       L1    11  0.98
      P1  H  6931  6943       L1    14  0.28
      P1  H  6934  6947       L1    14  0.06

> <Gold.Chemscore.Hbond.Weighted>
-7.2143

> <Gold.Chemscore.Metal.Weighted>
-0.0000

> <Gold.Chemscore.Lipo.Weighted>
-9.6449

> <Gold.Chemscore.Internal_Hbond.Weighted>
0.0000

> <Gold.Chemscore.DEClash.Weighted>
0.0057

> <Gold.Chemscore.DEInternal.Weighted>
0.9633

> <Gold.Chemscore.Rot.Weighted>
4.0130

> <Gold.Chemscore.Internal.Correction.Weighted>
   9.000000E+99

> <Gold.Protein.RotatedTorsions>
[ 6907 6896 6895 6894 ] final  -57.65 input  -60.11 | X-H torsion
[ 7974 7965 7964 7962 ] final  -28.01 input  175.53 | X-H torsion
[ 8008 7997 7996 7995 ] final   13.16 input   59.86 | X-H torsion
[ 10167 10162 10161 10158 ] final   24.84 input  -65.29 | X-H torsion
[ 10718 10713 10712 10709 ] final  119.15 input   66.30 | X-H torsion
[ 10763 10752 10751 10750 ] final -106.42 input  -60.55 | X-H torsion
[ 11005 11000 10999 10996 ] final   64.76 input  -57.11 | X-H torsion

> <Gold.Protein.ActiveResidues>
 VAL166  LYS551  ARG553  GLY616  TRP617  ASP618  TYR619  PRO620  LYS621  CYS622 
 ASP623  PHE694  ASN695  SER759  ASP760  ASP761  ALA762  ILE779  LEU786  VAL792 
 PHE793  MET794  SER795  GLU796  ALA797  LYS798  CYS799  TRP800  GLU811  SER814 

> <Gold.Protein.RotatedAtoms>
  150.8069  134.7199  159.6651 H   0  0  0  0  0  0  0  0  0  0  0  0  # atno 6907 bound_to 6896
  152.4188  134.5989  160.0004 H   0  0  0  0  0  0  0  0  0  0  0  0  # atno 6908 bound_to 6896
  151.6210  133.3302  159.3124 H   0  0  0  0  0  0  0  0  0  0  0  0  # atno 6909 bound_to 6896
  146.1318  140.5227  142.8690 H   0  0  0  0  0  0  0  0  0  0  0  0  # atno 7974 bound_to 7965
  154.8306  140.2899  155.5725 H   0  0  0  0  0  0  0  0  0  0  0  0  # atno 8008 bound_to 7997
  156.3005  140.2532  156.3162 H   0  0  0  0  0  0  0  0  0  0  0  0  # atno 8009 bound_to 7997
  154.9235  140.0385  157.2000 H   0  0  0  0  0  0  0  0  0  0  0  0  # atno 8010 bound_to 7997
  140.5155  144.0090  150.6392 H   0  0  0  0  0  0  0  0  0  0  0  0  # atno 10167 bound_to 10162
  157.5981  131.1055  150.7856 H   0  0  0  0  0  0  0  0  0  0  0  0  # atno 10718 bound_to 10713
  154.8011  135.4712  154.0277 H   0  0  0  0  0  0  0  0  0  0  0  0  # atno 10763 bound_to 10752
  153.1782  135.6836  153.8520 H   0  0  0  0  0  0  0  0  0  0  0  0  # atno 10764 bound_to 10752
  153.8080  135.3221  155.3375 H   0  0  0  0  0  0  0  0  0  0  0  0  # atno 10765 bound_to 10752
  139.9938  134.6549  156.0045 H   0  0  0  0  0  0  0  0  0  0  0  0  # atno 11005 bound_to 11000
  144.7698  140.5613  143.6678 LP  0  0  0  0  0  0  0  0  0  0  0  0  # atno 17320 bound_to 7965
  145.5244  139.1476  143.3534 LP  0  0  0  0  0  0  0  0  0  0  0  0  # atno 17321 bound_to 7965
  140.3424  143.3011  152.0574 LP  0  0  0  0  0  0  0  0  0  0  0  0  # atno 17342 bound_to 10162
  139.4908  144.6433  151.6832 LP  0  0  0  0  0  0  0  0  0  0  0  0  # atno 17343 bound_to 10162
  156.8261  130.5000  149.5337 LP  0  0  0  0  0  0  0  0  0  0  0  0  # atno 17370 bound_to 10713
  156.1048  130.5996  150.9953 LP  0  0  0  0  0  0  0  0  0  0  0  0  # atno 17371 bound_to 10713
  141.1588  133.6540  156.4249 LP  0  0  0  0  0  0  0  0  0  0  0  0  # atno 17394 bound_to 11000
  140.4857  134.6623  157.5190 LP  0  0  0  0  0  0  0  0  0  0  0  0  # atno 17395 bound_to 11000

$$$$
