AV-unprocessed.smi:184|AV-procd|sdf|1461|dock2
  -GOLD-   2262019273D 1   1.00000     0.00000
 Structure written by MMmdl.
 54 58  0  0  0  0  0  0  0  0  1 V2000
  141.7193  134.7417  154.1865 O   0  0  0  0  0  0  0  0  0  0  0  0
  142.6538  134.9303  153.4114 C   0  0  0  0  0  0  0  0  0  0  0  0
  143.6714  136.0465  153.7096 C   0  0  0  0  0  0  0  0  0  0  0  0
  144.6899  136.2297  152.6621 N   0  0  0  0  0  0  0  0  0  0  0  0
  145.5908  137.2347  152.8156 C   0  0  0  0  0  0  0  0  0  0  0  0
  145.9651  137.9683  151.7338 N   0  0  0  0  0  0  0  0  0  0  0  0
  146.8433  138.9665  151.8639 C   0  0  0  0  0  0  0  0  0  0  0  0
  147.4652  139.3915  152.9646 N   0  0  0  0  0  0  0  0  0  0  0  0
  147.1040  138.6542  154.0528 C   0  0  0  0  0  0  0  0  0  0  0  0
  146.1841  137.5673  154.0673 C   0  0  0  0  0  0  0  0  0  0  0  0
  146.0882  137.0501  155.3543 N   0  0  0  0  0  0  0  0  0  0  0  0
  146.8911  137.7977  156.0608 C   0  0  0  0  0  0  0  0  0  0  0  0
  147.5366  138.7916  155.3605 N   0  0  0  0  0  0  0  0  0  0  0  0
  148.4841  139.7592  155.8949 C   0  0  0  0  0  0  0  0  0  0  0  0
  149.7630  139.9378  155.0315 C   0  0  0  0  0  0  0  0  0  0  0  0
  149.4275  140.7760  153.9407 O   0  0  0  0  0  0  0  0  0  0  0  0
  150.8893  140.6389  155.8171 C   0  0  0  0  0  0  0  0  0  0  0  0
  151.5536  139.6882  156.8298 C   0  0  0  0  0  0  0  0  0  0  0  0
  152.0362  138.5265  156.1636 O   0  0  0  0  0  0  0  0  0  0  0  0
  151.0028  137.7724  155.5396 C   0  0  0  0  0  0  0  0  0  0  0  0
  150.3208  138.6202  154.4514 C   0  0  0  0  0  0  0  0  0  0  0  0
  145.1201  135.0516  151.9065 C   0  0  1  0  0  0  0  0  0  0  0  0
  145.9583  134.0918  152.7865 C   0  0  0  0  0  0  0  0  0  0  0  0
  146.3064  132.7937  152.0439 C   0  0  0  0  0  0  0  0  0  0  0  0
  145.0368  132.0940  151.5372 C   0  0  0  0  0  0  0  0  0  0  0  0
  144.2273  133.0271  150.6229 C   0  0  0  0  0  0  0  0  0  0  0  0
  143.8706  134.3580  151.3135 C   0  0  1  0  0  0  0  0  0  0  0  0
  142.8201  134.1718  152.3145 N   0  0  0  0  0  0  0  0  0  0  0  0
  143.1272  136.9817  153.8486 H   0  0  0  0  0  0  0  0  0  0  0  0
  144.1505  135.8069  154.6600 H   0  0  0  0  0  0  0  0  0  0  0  0
  147.0814  139.5018  150.9566 H   0  0  0  0  0  0  0  0  0  0  0  0
  147.0347  137.6452  157.1206 H   0  0  0  0  0  0  0  0  0  0  0  0
  147.9656  140.7138  155.9973 H   0  0  0  0  0  0  0  0  0  0  0  0
  148.7408  139.4523  156.9084 H   0  0  0  0  0  0  0  0  0  0  0  0
  149.3600  140.2434  153.1629 H   0  0  0  0  0  0  0  0  0  0  0  0
  151.6579  140.9876  155.1252 H   0  0  0  0  0  0  0  0  0  0  0  0
  150.5106  141.5269  156.3246 H   0  0  0  0  0  0  0  0  0  0  0  0
  152.3945  140.1875  157.3109 H   0  0  0  0  0  0  0  0  0  0  0  0
  150.8629  139.4054  157.6247 H   0  0  0  0  0  0  0  0  0  0  0  0
  151.4418  136.8796  155.0944 H   0  0  0  0  0  0  0  0  0  0  0  0
  150.2871  137.4312  156.2877 H   0  0  0  0  0  0  0  0  0  0  0  0
  149.5438  138.0433  153.9497 H   0  0  0  0  0  0  0  0  0  0  0  0
  151.0641  138.8456  153.6850 H   0  0  0  0  0  0  0  0  0  0  0  0
  145.7477  135.3460  151.0663 H   0  0  0  0  0  0  0  0  0  0  0  0
  146.8758  134.5866  153.1070 H   0  0  0  0  0  0  0  0  0  0  0  0
  145.4171  133.8380  153.6984 H   0  0  0  0  0  0  0  0  0  0  0  0
  146.9654  133.0161  151.2038 H   0  0  0  0  0  0  0  0  0  0  0  0
  146.8603  132.1260  152.7044 H   0  0  0  0  0  0  0  0  0  0  0  0
  145.3039  131.1857  150.9966 H   0  0  0  0  0  0  0  0  0  0  0  0
  144.4251  131.7806  152.3842 H   0  0  0  0  0  0  0  0  0  0  0  0
  144.8118  133.2370  149.7261 H   0  0  0  0  0  0  0  0  0  0  0  0
  143.3218  132.5240  150.2817 H   0  0  0  0  0  0  0  0  0  0  0  0
  143.4418  135.0196  150.5591 H   0  0  0  0  0  0  0  0  0  0  0  0
  142.1520  133.4339  152.1453 H   0  0  0  0  0  0  0  0  0  0  0  0
  1  2  2  0  0  0  0
  2 28  1  0  0  0  0
  2  3  1  0  0  0  0
  3  4  1  0  0  0  0
  3 29  1  0  0  0  0
  3 30  1  0  0  0  0
  4  5  1  0  0  0  0
  4 22  1  0  0  0  0
  5 10  1  0  0  0  0
  5  6  2  0  0  0  0
  6  7  1  0  0  0  0
  7  8  2  0  0  0  0
  7 31  1  0  0  0  0
  8  9  1  0  0  0  0
  9 13  1  0  0  0  0
  9 10  2  0  0  0  0
 10 11  1  0  0  0  0
 11 12  2  0  0  0  0
 12 13  1  0  0  0  0
 12 32  1  0  0  0  0
 13 14  1  0  0  0  0
 14 15  1  0  0  0  0
 14 33  1  0  0  0  0
 14 34  1  0  0  0  0
 15 21  1  0  0  0  0
 15 16  1  0  0  0  0
 15 17  1  0  0  0  0
 16 35  1  0  0  0  0
 17 18  1  0  0  0  0
 17 36  1  0  0  0  0
 17 37  1  0  0  0  0
 18 19  1  0  0  0  0
 18 38  1  0  0  0  0
 18 39  1  0  0  0  0
 19 20  1  0  0  0  0
 20 21  1  0  0  0  0
 20 40  1  0  0  0  0
 20 41  1  0  0  0  0
 21 42  1  0  0  0  0
 21 43  1  0  0  0  0
 22 27  1  0  0  0  0
 22 23  1  0  0  0  0
 22 44  1  0  0  0  0
 23 24  1  0  0  0  0
 23 45  1  0  0  0  0
 23 46  1  0  0  0  0
 24 25  1  0  0  0  0
 24 47  1  0  0  0  0
 24 48  1  0  0  0  0
 25 26  1  0  0  0  0
 25 49  1  0  0  0  0
 25 50  1  0  0  0  0
 26 27  1  0  0  0  0
 26 51  1  0  0  0  0
 26 52  1  0  0  0  0
 27 28  1  0  0  0  0
 27 53  1  0  0  0  0
 28 54  1  0  0  0  0
M  END
> <s_m_source_file>
AV-unprocessed.smi

> <i_m_source_file_index>
184

> <i_lp_mmshare_version>
43012

> <i_f3d_flags>
0

> <s_epik_input>
W0NIMl0xW0NIMl1bQ0gyXVtDSDJdW0NASF0oW0NASF0xMilbTkhdQyg9TylbQ0gyXU4yYyhuW2NIXW4zKWMoYzM0KW5bY0hdbjRbQ0gyXUM1KFtPSF0pW0NIMl1bQ0gyXU9bQ0gyXVtDSDJdNQ==

> <s_epik_cmdline>
J2VwaWtfcHl0aG9uJywgJy1waCcsICc3LjAnLCAnLXRuJywgJzgnLCAnLW1hJywgJzIwMCcsICctbWV0YWxfYmluZGluZycsICctaW1hZScsICc8aW5maWxlLm1hZT4nLCAnLW9tYWUnLCAnPG91dGZpbGUubWFlPic=

> <r_lp_tautomer_probability>
1

> <r_epik_Ionization_Penalty>
0.000822761

> <r_epik_Ionization_Penalty_Charging>
0

> <r_epik_Ionization_Penalty_Neutral>
0.000822761

> <r_epik_State_Penalty>
0.000403048

> <r_epik_Charging_Adjusted_Penalty>
0.000403048

> <i_epik_Tot_Q>
0

> <i_epik_Tot_abs_Q>
0

> <r_epik_Metal_State_Penalty>
-0

> <b_epik_Metal_Only>
0

> <s_lp_Force_Field>
OPLS_2005

> <r_lp_Energy>
37.4229

> <b_lp_Chiralities_Consistent>
1

> <s_lp_Variant>
AV-unprocessed.smi:184-1

> <Gold.Version>
5.8.1

> <Gold.Id.Protein>
6NUR|6NUR_protein|mol2

> <Gold.PLP.Fitness>
42.6115

> <Gold.PLP.PLP>
-37.6324

> <Gold.PLP.part.hbond>
-4.1314

> <Gold.PLP.part.metal>
0.0000

> <Gold.PLP.part.buried>
-6.7662

> <Gold.PLP.part.nonpolar>
-32.0090

> <Gold.PLP.part.repulsive>
5.5885

> <Gold.PLP.ligand.clash>
0.0000

> <Gold.PLP.ligand.torsion>
1.3732

> <Gold.PLP.Chemscore.Hbond>
2.2087

> <Gold.PLP.Chemscore.CHOScore>
0.2998

> <Gold.PLP.Chemscore.Metal>
0.0000

> <Gold.Chemscore.Hbonds>
donor molecule, donor type, donor heavy atom, donor atom, acceptor molecule, acceptor atom, score
      L1  H    16    35       P1  7957  0.98
      P1  H  7989  7998       L1    16  0.03
      P1  H  8011  8017       L1    16  0.01
      P1  H 11000 11005       L1     1  0.94
      L1  C     7    31       P1  7957  0.52

> <Gold.PLP.Chemscore.Internal.Correction>
0.2003

> <Gold.Rescore>
     Score         DG    S(hbond)    S(metal)    S(lipo)     H(rot)  DE(clash)    DE(int)     intcor
     11.32     -15.28       1.78        0.00      72.89       1.83       2.50       1.46       ----

> <Gold.Chemscore.Fitness>
11.3210

> <Gold.Chemscore.DG>
-15.2797

> <Gold.Chemscore.ZeroCoef>
-5.4800

> <Gold.Chemscore.Hbond>
1.7799

> <Gold.Chemscore.Metal>
0.0000

> <Gold.Chemscore.Lipo>
72.8878

> <Gold.Chemscore.Internal_Hbond>
0.0000

> <Gold.Chemscore.DEClash>
2.4955

> <Gold.Chemscore.DEInternal>
1.4632

> <Gold.Chemscore.Rot>
1.8255

> <Gold.Chemscore.Internal.Correction>
   9.000000E+99

> <Gold.Chemscore.Hbonds>
donor molecule, donor type, donor heavy atom, donor atom, acceptor molecule, acceptor atom, score
      L1  H    16    35       P1  7957  0.87
      P1  H 11000 11005       L1     1  0.84

> <Gold.Chemscore.Hbond.Weighted>
-5.9450

> <Gold.Chemscore.Metal.Weighted>
-0.0000

> <Gold.Chemscore.Lipo.Weighted>
-8.5279

> <Gold.Chemscore.Internal_Hbond.Weighted>
0.0000

> <Gold.Chemscore.DEClash.Weighted>
2.4955

> <Gold.Chemscore.DEInternal.Weighted>
1.4632

> <Gold.Chemscore.Rot.Weighted>
4.6732

> <Gold.Chemscore.Internal.Correction.Weighted>
   9.000000E+99

> <Gold.Protein.RotatedTorsions>
[ 6907 6896 6895 6894 ] final   95.84 input  -60.11 | X-H torsion
[ 7974 7965 7964 7962 ] final   24.04 input  175.53 | X-H torsion
[ 8008 7997 7996 7995 ] final  174.04 input   59.86 | X-H torsion
[ 10167 10162 10161 10158 ] final   79.22 input  -65.29 | X-H torsion
[ 10718 10713 10712 10709 ] final   73.57 input   66.30 | X-H torsion
[ 10763 10752 10751 10750 ] final  -32.07 input  -60.55 | X-H torsion
[ 11005 11000 10999 10996 ] final    9.00 input  -57.11 | X-H torsion

> <Gold.Protein.ActiveResidues>
 VAL166  LYS551  ARG553  GLY616  TRP617  ASP618  TYR619  PRO620  LYS621  CYS622 
 ASP623  PHE694  ASN695  SER759  ASP760  ASP761  ALA762  ILE779  LEU786  VAL792 
 PHE793  MET794  SER795  GLU796  ALA797  LYS798  CYS799  TRP800  GLU811  SER814 

> <Gold.Protein.RotatedAtoms>
  152.5440  134.0978  159.8304 H   0  0  0  0  0  0  0  0  0  0  0  0  # atno 6907 bound_to 6896
  151.1059  133.5201  159.2615 H   0  0  0  0  0  0  0  0  0  0  0  0  # atno 6908 bound_to 6896
  151.1939  135.0423  159.8898 H   0  0  0  0  0  0  0  0  0  0  0  0  # atno 6909 bound_to 6896
  146.1956  139.7660  142.8800 H   0  0  0  0  0  0  0  0  0  0  0  0  # atno 7974 bound_to 7965
  156.1014  140.1444  156.9462 H   0  0  0  0  0  0  0  0  0  0  0  0  # atno 8008 bound_to 7997
  154.4705  140.0911  156.7177 H   0  0  0  0  0  0  0  0  0  0  0  0  # atno 8009 bound_to 7997
  155.4753  140.3443  155.4334 H   0  0  0  0  0  0  0  0  0  0  0  0  # atno 8010 bound_to 7997
  139.9626  144.5950  150.8058 H   0  0  0  0  0  0  0  0  0  0  0  0  # atno 10167 bound_to 10162
  157.6554  130.9635  150.1088 H   0  0  0  0  0  0  0  0  0  0  0  0  # atno 10718 bound_to 10713
  153.8078  135.6885  153.4845 H   0  0  0  0  0  0  0  0  0  0  0  0  # atno 10763 bound_to 10752
  153.1647  135.4566  154.9819 H   0  0  0  0  0  0  0  0  0  0  0  0  # atno 10764 bound_to 10752
  154.7980  135.3326  154.7561 H   0  0  0  0  0  0  0  0  0  0  0  0  # atno 10765 bound_to 10752
  140.5307  134.0469  155.7872 H   0  0  0  0  0  0  0  0  0  0  0  0  # atno 11005 bound_to 11000
  145.3654  141.0333  143.3261 LP  0  0  0  0  0  0  0  0  0  0  0  0  # atno 17320 bound_to 7965
  144.8574  139.5229  143.6828 LP  0  0  0  0  0  0  0  0  0  0  0  0  # atno 17321 bound_to 7965
  140.7548  143.3034  151.3022 LP  0  0  0  0  0  0  0  0  0  0  0  0  # atno 17342 bound_to 10162
  139.6542  144.0306  152.2648 LP  0  0  0  0  0  0  0  0  0  0  0  0  # atno 17343 bound_to 10162
  156.1990  130.3659  149.8812 LP  0  0  0  0  0  0  0  0  0  0  0  0  # atno 17370 bound_to 10713
  156.6721  130.8824  151.3563 LP  0  0  0  0  0  0  0  0  0  0  0  0  # atno 17371 bound_to 10713
  141.1283  133.9346  157.2589 LP  0  0  0  0  0  0  0  0  0  0  0  0  # atno 17394 bound_to 11000
  139.9556  135.0166  156.9118 LP  0  0  0  0  0  0  0  0  0  0  0  0  # atno 17395 bound_to 11000

$$$$
