AV-unprocessed.smi:1722|AV-procd|sdf|6944|dock6
  -GOLD-   22720 8153D 1   1.00000     0.00000
 Structure written by MMmdl.
 38 39  0  0  0  0  0  0  0  0  2 V2000
  153.1673  139.1904  157.5191 O   0  0  0  0  0  0  0  0  0  0  0  0
  152.0379  139.5339  157.8664 C   0  0  0  0  0  0  0  0  0  0  0  0
  151.8682  140.8106  158.6879 C   0  0  0  0  0  0  0  0  0  0  0  0
  153.1416  141.4200  158.8557 O   0  0  0  0  0  0  0  0  0  0  0  0
  153.0992  142.7667  159.3062 C   0  0  0  0  0  0  0  0  0  0  0  0
  152.2830  142.7847  160.6109 C   0  0  0  0  0  0  0  0  0  0  0  0
  152.1006  144.2152  161.1430 C   0  0  0  0  0  0  0  0  0  0  0  0
  151.4550  145.1229  160.0842 C   0  0  0  0  0  0  0  0  0  0  0  0
  152.2637  145.1115  158.7774 C   0  0  0  0  0  0  0  0  0  0  0  0
  152.4477  143.6802  158.2466 C   0  0  0  0  0  0  0  0  0  0  0  0
  150.9019  138.8563  157.6087 N   0  0  0  0  0  0  0  0  0  0  0  0
  150.7099  137.6887  156.8512 C   0  0  0  0  0  0  0  0  0  0  0  0
  149.9072  136.6509  157.2160 C   0  0  0  0  0  0  0  0  0  0  0  0
  149.7621  135.4521  156.3996 C   0  0  0  0  0  0  0  0  0  0  0  0
  148.9398  134.2445  156.8136 C   0  0  0  0  0  0  0  0  0  0  0  0
  147.9950  134.0056  155.9054 F   0  0  0  0  0  0  0  0  0  0  0  0
  149.7033  133.1563  156.9150 F   0  0  0  0  0  0  0  0  0  0  0  0
  148.3443  134.4509  157.9883 F   0  0  0  0  0  0  0  0  0  0  0  0
  150.5456  135.4948  155.2626 C   0  0  0  0  0  0  0  0  0  0  0  0
  151.3575  136.4823  154.8253 N   0  5  0  0  0  0  0  0  0  0  0  0
  151.4793  137.6022  155.5927 C   0  0  0  0  0  0  0  0  0  0  0  0
  152.2104  138.5354  155.2591 O   0  0  0  0  0  0  0  0  0  0  0  0
  151.1883  141.4831  158.1628 H   0  0  0  0  0  0  0  0  0  0  0  0
  151.4195  140.5663  159.6511 H   0  0  0  0  0  0  0  0  0  0  0  0
  154.1090  143.1172  159.5283 H   0  0  0  0  0  0  0  0  0  0  0  0
  151.3043  142.3349  160.4378 H   0  0  0  0  0  0  0  0  0  0  0  0
  152.7754  142.1697  161.3651 H   0  0  0  0  0  0  0  0  0  0  0  0
  151.4871  144.2012  162.0444 H   0  0  0  0  0  0  0  0  0  0  0  0
  153.0693  144.6235  161.4340 H   0  0  0  0  0  0  0  0  0  0  0  0
  150.4364  144.7865  159.8864 H   0  0  0  0  0  0  0  0  0  0  0  0
  151.3758  146.1415  160.4648 H   0  0  0  0  0  0  0  0  0  0  0  0
  151.7653  145.7249  158.0267 H   0  0  0  0  0  0  0  0  0  0  0  0
  153.2407  145.5652  158.9484 H   0  0  0  0  0  0  0  0  0  0  0  0
  153.0505  143.7094  157.3396 H   0  0  0  0  0  0  0  0  0  0  0  0
  151.4776  143.2723  157.9595 H   0  0  0  0  0  0  0  0  0  0  0  0
  150.0605  139.2200  158.0327 H   0  0  0  0  0  0  0  0  0  0  0  0
  149.3609  136.6754  158.1445 H   0  0  0  0  0  0  0  0  0  0  0  0
  150.5200  134.5976  154.6080 H   0  0  0  0  0  0  0  0  0  0  0  0
  1  2  2  0  0  0  0
  2  3  1  0  0  0  0
  2 11  1  0  0  0  0
  3  4  1  0  0  0  0
  3 23  1  0  0  0  0
  3 24  1  0  0  0  0
  4  5  1  0  0  0  0
  5 10  1  0  0  0  0
  5  6  1  0  0  0  0
  5 25  1  0  0  0  0
  6  7  1  0  0  0  0
  6 26  1  0  0  0  0
  6 27  1  0  0  0  0
  7  8  1  0  0  0  0
  7 28  1  0  0  0  0
  7 29  1  0  0  0  0
  8  9  1  0  0  0  0
  8 30  1  0  0  0  0
  8 31  1  0  0  0  0
  9 10  1  0  0  0  0
  9 32  1  0  0  0  0
  9 33  1  0  0  0  0
 10 34  1  0  0  0  0
 10 35  1  0  0  0  0
 11 12  1  0  0  0  0
 11 36  1  0  0  0  0
 12 21  1  0  0  0  0
 12 13  2  0  0  0  0
 13 14  1  0  0  0  0
 13 37  1  0  0  0  0
 14 15  1  0  0  0  0
 14 19  2  0  0  0  0
 15 16  1  0  0  0  0
 15 17  1  0  0  0  0
 15 18  1  0  0  0  0
 19 20  1  0  0  0  0
 19 38  1  0  0  0  0
 20 21  1  0  0  0  0
 21 22  2  0  0  0  0
M  CHG  1  20  -1
M  END
> <s_m_source_file>
AV-unprocessed.smi

> <i_m_source_file_index>
1722

> <i_lp_mmshare_version>
43012

> <i_f3d_flags>
0

> <s_epik_input>
Tz1jMVtuSF1bY0hdYyhDKEYpKEYpRilbY0hdYzFbTkhdQyg9TylbQ0gyXU9bQ0hdMltDSDJdW0NIMl1bQ0gyXVtDSDJdW0NIMl0y

> <s_epik_cmdline>
J2VwaWtfcHl0aG9uJywgJy1waCcsICc3LjAnLCAnLXRuJywgJzgnLCAnLW1hJywgJzIwMCcsICctbWV0YWxfYmluZGluZycsICctaW1hZScsICc8aW5maWxlLm1hZT4nLCAnLW9tYWUnLCAnPG91dGZpbGUubWFlPic=

> <r_epik_Ionization_Penalty>
2.55378

> <r_epik_Ionization_Penalty_Charging>
0.0617094

> <r_epik_Ionization_Penalty_Neutral>
2.49207

> <r_epik_State_Penalty>
2.65647

> <r_epik_Charging_Adjusted_Penalty>
2.71818

> <i_epik_Tot_Q>
-1

> <i_epik_Tot_abs_Q>
1

> <r_epik_Metal_State_Penalty>
0.516461

> <b_epik_Metal_Only>
0

> <s_lp_Force_Field>
OPLS_2005

> <r_lp_Energy>
27.5399

> <b_lp_Chiralities_Consistent>
1

> <s_lp_Variant>
AV-unprocessed.smi:1722-2

> <Gold.Version>
5.8.1

> <Gold.Id.Protein>
6NUR|6NUR_protein|mol2

> <Gold.PLP.Fitness>
45.8152

> <Gold.PLP.PLP>
-37.6016

> <Gold.PLP.part.hbond>
-2.0000

> <Gold.PLP.part.metal>
0.0000

> <Gold.PLP.part.buried>
-5.3379

> <Gold.PLP.part.nonpolar>
-30.6446

> <Gold.PLP.part.repulsive>
0.1935

> <Gold.PLP.ligand.clash>
0.0000

> <Gold.PLP.ligand.torsion>
0.4334

> <Gold.PLP.Chemscore.Hbond>
3.0000

> <Gold.PLP.Chemscore.CHOScore>
0.0000

> <Gold.PLP.Chemscore.Metal>
0.0000

> <Gold.Chemscore.Hbonds>
donor molecule, donor type, donor heavy atom, donor atom, acceptor molecule, acceptor atom, score
      P1  H  7997  8010       L1     1  1.00
      P1  H 10752 10764       L1    20  2.00

> <Gold.PLP.Chemscore.Internal.Correction>
0.0804

> <Gold.Rescore>
     Score         DG    S(hbond)    S(metal)    S(lipo)     H(rot)  DE(clash)    DE(int)     intcor
     13.94     -19.10       1.86        0.00      97.56       1.57       0.02       5.14       ----

> <Gold.Chemscore.Fitness>
13.9367

> <Gold.Chemscore.DG>
-19.0975

> <Gold.Chemscore.ZeroCoef>
-5.4800

> <Gold.Chemscore.Hbond>
1.8644

> <Gold.Chemscore.Metal>
0.0000

> <Gold.Chemscore.Lipo>
97.5550

> <Gold.Chemscore.Internal_Hbond>
0.0000

> <Gold.Chemscore.DEClash>
0.0234

> <Gold.Chemscore.DEInternal>
5.1374

> <Gold.Chemscore.Rot>
1.5717

> <Gold.Chemscore.Internal.Correction>
   9.000000E+99

> <Gold.Chemscore.Hbonds>
donor molecule, donor type, donor heavy atom, donor atom, acceptor molecule, acceptor atom, score
      P1  H  7997  8010       L1     1  0.96
      P1  H 10752 10764       L1    20  0.36

> <Gold.Chemscore.Hbond.Weighted>
-6.2272

> <Gold.Chemscore.Metal.Weighted>
-0.0000

> <Gold.Chemscore.Lipo.Weighted>
-11.4139

> <Gold.Chemscore.Internal_Hbond.Weighted>
0.0000

> <Gold.Chemscore.DEClash.Weighted>
0.0234

> <Gold.Chemscore.DEInternal.Weighted>
5.1374

> <Gold.Chemscore.Rot.Weighted>
4.0237

> <Gold.Chemscore.Internal.Correction.Weighted>
   9.000000E+99

> <Gold.Protein.RotatedTorsions>
[ 6907 6896 6895 6894 ] final   81.49 input  -60.11 | X-H torsion
[ 7974 7965 7964 7962 ] final   16.69 input  175.53 | X-H torsion
[ 8008 7997 7996 7995 ] final   65.82 input   59.86 | X-H torsion
[ 10167 10162 10161 10158 ] final  169.87 input  -65.29 | X-H torsion
[ 10718 10713 10712 10709 ] final  143.46 input   66.30 | X-H torsion
[ 10763 10752 10751 10750 ] final  -66.48 input  -60.55 | X-H torsion
[ 11005 11000 10999 10996 ] final  130.19 input  -57.11 | X-H torsion

> <Gold.Protein.ActiveResidues>
 VAL166  LYS551  ARG553  GLY616  TRP617  ASP618  TYR619  PRO620  LYS621  CYS622 
 ASP623  PHE694  ASN695  SER759  ASP760  ASP761  ALA762  ILE779  LEU786  VAL792 
 PHE793  MET794  SER795  GLU796  ALA797  LYS798  CYS799  TRP800  GLU811  SER814 

> <Gold.Protein.RotatedAtoms>
  152.5270  134.3196  159.9143 H   0  0  0  0  0  0  0  0  0  0  0  0  # atno 6907 bound_to 6896
  151.3146  133.4059  159.2657 H   0  0  0  0  0  0  0  0  0  0  0  0  # atno 6908 bound_to 6896
  151.0010  134.9339  159.8011 H   0  0  0  0  0  0  0  0  0  0  0  0  # atno 6909 bound_to 6896
  146.2242  139.8711  142.8587 H   0  0  0  0  0  0  0  0  0  0  0  0  # atno 7974 bound_to 7965
  155.6678  140.3497  155.4806 H   0  0  0  0  0  0  0  0  0  0  0  0  # atno 8008 bound_to 7997
  155.9714  140.1156  157.0831 H   0  0  0  0  0  0  0  0  0  0  0  0  # atno 8009 bound_to 7997
  154.4167  140.1156  156.5298 H   0  0  0  0  0  0  0  0  0  0  0  0  # atno 8010 bound_to 7997
  139.5003  144.3658  151.9777 H   0  0  0  0  0  0  0  0  0  0  0  0  # atno 10167 bound_to 10162
  157.3687  131.0976  151.0848 H   0  0  0  0  0  0  0  0  0  0  0  0  # atno 10718 bound_to 10713
  154.3605  135.6117  153.5688 H   0  0  0  0  0  0  0  0  0  0  0  0  # atno 10763 bound_to 10752
  152.9794  135.5814  154.4639 H   0  0  0  0  0  0  0  0  0  0  0  0  # atno 10764 bound_to 10752
  154.4376  135.2849  155.1847 H   0  0  0  0  0  0  0  0  0  0  0  0  # atno 10765 bound_to 10752
  139.9658  134.9591  156.9257 H   0  0  0  0  0  0  0  0  0  0  0  0  # atno 11005 bound_to 11000
  145.2607  141.0076  143.3828 LP  0  0  0  0  0  0  0  0  0  0  0  0  # atno 17320 bound_to 7965
  144.9301  139.4309  143.6499 LP  0  0  0  0  0  0  0  0  0  0  0  0  # atno 17321 bound_to 7965
  140.3094  144.3555  150.6038 LP  0  0  0  0  0  0  0  0  0  0  0  0  # atno 17342 bound_to 10162
  140.5810  143.2173  151.7428 LP  0  0  0  0  0  0  0  0  0  0  0  0  # atno 17343 bound_to 10162
  157.1961  130.6373  149.5721 LP  0  0  0  0  0  0  0  0  0  0  0  0  # atno 17370 bound_to 10713
  155.9751  130.4706  150.6436 LP  0  0  0  0  0  0  0  0  0  0  0  0  # atno 17371 bound_to 10713
  140.5401  134.0729  155.7339 LP  0  0  0  0  0  0  0  0  0  0  0  0  # atno 17394 bound_to 11000
  141.1337  133.9258  157.2480 LP  0  0  0  0  0  0  0  0  0  0  0  0  # atno 17395 bound_to 11000

$$$$
