AV-unprocessed.smi:2881|AV-procd|sdf|11056|dock3
  -GOLD-   2272015523D 1   1.00000     0.00000
 Structure written by MMmdl.
 40 42  0  0  0  0  0  0  0  0  1 V2000
  147.1375  141.0319  153.4369 C   0  0  0  0  0  0  0  0  0  0  0  0
  148.2318  140.5908  154.3480 C   0  0  0  0  0  0  0  0  0  0  0  0
  148.3102  140.5446  155.7112 C   0  0  0  0  0  0  0  0  0  0  0  0
  149.6096  140.0179  155.9732 C   0  0  0  0  0  0  0  0  0  0  0  0
  150.2374  139.7205  157.3104 C   0  0  0  0  0  0  0  0  0  0  0  0
  151.3958  140.6845  157.5742 C   0  0  0  0  0  0  0  0  0  0  0  0
  152.5518  140.2653  157.6237 O   0  0  0  0  0  0  0  0  0  0  0  0
  151.0697  141.9763  157.7309 N   0  0  0  0  0  0  0  0  0  0  0  0
  152.0143  143.0770  157.9074 C   0  0  1  0  0  0  0  0  0  0  0  0
  151.3252  144.4638  158.0140 C   0  0  1  0  0  0  0  0  0  0  0  0
  150.1718  144.4400  159.0404 C   0  0  0  0  0  0  0  0  0  0  0  0
  150.9189  144.3036  160.3787 C   0  0  0  0  0  0  0  0  0  0  0  0
  152.4020  144.3154  159.9501 C   0  0  2  0  0  0  0  0  0  0  0  0
  152.3654  145.2814  158.7723 C   0  0  0  0  0  0  0  0  0  0  0  0
  152.8111  143.0021  159.2427 C   0  0  1  0  0  0  0  0  0  0  0  0
  152.6690  141.7282  160.1075 C   0  0  0  0  0  0  0  0  0  0  0  0
  153.4079  141.8590  161.3042 O   0  0  0  0  0  0  0  0  0  0  0  0
  150.2854  139.7668  154.8596 N   0  0  0  0  0  0  0  0  0  0  0  0
  149.4346  140.1172  153.8777 N   0  0  0  0  0  0  0  0  0  0  0  0
  149.6853  140.0305  152.9030 H   0  0  0  0  0  0  0  0  0  0  0  0
  146.3455  141.5334  153.9933 H   0  0  0  0  0  0  0  0  0  0  0  0
  146.6979  140.1787  152.9200 H   0  0  0  0  0  0  0  0  0  0  0  0
  147.5127  141.7272  152.6858 H   0  0  0  0  0  0  0  0  0  0  0  0
  147.5483  140.8339  156.4198 H   0  0  0  0  0  0  0  0  0  0  0  0
  149.5084  139.8103  158.1170 H   0  0  0  0  0  0  0  0  0  0  0  0
  150.6047  138.6939  157.3351 H   0  0  0  0  0  0  0  0  0  0  0  0
  150.0914  142.2221  157.6851 H   0  0  0  0  0  0  0  0  0  0  0  0
  152.7190  143.0736  157.0738 H   0  0  0  0  0  0  0  0  0  0  0  0
  151.0352  144.8805  157.0491 H   0  0  0  0  0  0  0  0  0  0  0  0
  149.6190  145.3799  159.0111 H   0  0  0  0  0  0  0  0  0  0  0  0
  149.4503  143.6395  158.8775 H   0  0  0  0  0  0  0  0  0  0  0  0
  150.6986  145.1573  161.0208 H   0  0  0  0  0  0  0  0  0  0  0  0
  150.6359  143.4057  160.9265 H   0  0  0  0  0  0  0  0  0  0  0  0
  153.0831  144.6050  160.7508 H   0  0  0  0  0  0  0  0  0  0  0  0
  153.3180  145.3643  158.2460 H   0  0  0  0  0  0  0  0  0  0  0  0
  152.0205  146.2817  159.0408 H   0  0  0  0  0  0  0  0  0  0  0  0
  153.8710  143.0981  158.9988 H   0  0  0  0  0  0  0  0  0  0  0  0
  151.6229  141.5746  160.3727 H   0  0  0  0  0  0  0  0  0  0  0  0
  152.9980  140.8321  159.5817 H   0  0  0  0  0  0  0  0  0  0  0  0
  152.8175  141.7581  162.0353 H   0  0  0  0  0  0  0  0  0  0  0  0
  1  2  1  0  0  0  0
  1 21  1  0  0  0  0
  1 22  1  0  0  0  0
  1 23  1  0  0  0  0
  2 19  1  0  0  0  0
  2  3  2  0  0  0  0
  3  4  1  0  0  0  0
  3 24  1  0  0  0  0
  4  5  1  0  0  0  0
  4 18  2  0  0  0  0
  5  6  1  0  0  0  0
  5 25  1  0  0  0  0
  5 26  1  0  0  0  0
  6  7  2  0  0  0  0
  6  8  1  0  0  0  0
  8  9  1  0  0  0  0
  8 27  1  0  0  0  0
  9 15  1  0  0  0  0
  9 10  1  0  0  0  0
  9 28  1  0  0  0  0
 10 14  1  0  0  0  0
 10 11  1  0  0  0  0
 10 29  1  0  0  0  0
 11 12  1  0  0  0  0
 11 30  1  0  0  0  0
 11 31  1  0  0  0  0
 12 13  1  0  0  0  0
 12 32  1  0  0  0  0
 12 33  1  0  0  0  0
 13 14  1  0  0  0  0
 13 15  1  0  0  0  0
 13 34  1  0  0  0  0
 14 35  1  0  0  0  0
 14 36  1  0  0  0  0
 15 16  1  0  0  0  0
 15 37  1  0  0  0  0
 16 17  1  0  0  0  0
 16 38  1  0  0  0  0
 16 39  1  0  0  0  0
 17 40  1  0  0  0  0
 18 19  1  0  0  0  0
 19 20  1  0  0  0  0
M  END
> <s_m_source_file>
AV-unprocessed.smi

> <i_m_source_file_index>
2881

> <i_lp_mmshare_version>
43012

> <i_f3d_flags>
0

> <s_epik_input>
W0NIM11jMVtjSF1jKG5bbkhdMSlbQ0gyXUMoPU8pW05IXVtDQEhdKFtDQEBIXTIzKVtDQEhdKFtDSDJdW09IXSlbQ0BASF0oW0NIMl0zKVtDSDJdW0NIMl0y

> <s_epik_cmdline>
J2VwaWtfcHl0aG9uJywgJy1waCcsICc3LjAnLCAnLXRuJywgJzgnLCAnLW1hJywgJzIwMCcsICctbWV0YWxfYmluZGluZycsICctaW1hZScsICc8aW5maWxlLm1hZT4nLCAnLW9tYWUnLCAnPG91dGZpbGUubWFlPic=

> <r_lp_tautomer_probability>
0.5

> <r_epik_Ionization_Penalty>
9.4349e-05

> <r_epik_Ionization_Penalty_Charging>
0

> <r_epik_Ionization_Penalty_Neutral>
9.4349e-05

> <r_epik_State_Penalty>
0.41068

> <r_epik_Charging_Adjusted_Penalty>
0.41068

> <i_epik_Tot_Q>
0

> <i_epik_Tot_abs_Q>
0

> <r_epik_Metal_State_Penalty>
0.4107

> <b_epik_Metal_Only>
0

> <s_lp_Force_Field>
OPLS_2005

> <r_lp_Energy>
48.3908

> <b_lp_Chiralities_Consistent>
1

> <s_lp_Variant>
AV-unprocessed.smi:2881-2

> <Gold.Version>
5.8.1

> <Gold.Id.Protein>
6NUR|6NUR_protein|mol2

> <Gold.PLP.Fitness>
43.5168

> <Gold.PLP.PLP>
-37.9471

> <Gold.PLP.part.hbond>
-2.8097

> <Gold.PLP.part.metal>
0.0000

> <Gold.PLP.part.buried>
-7.7664

> <Gold.PLP.part.nonpolar>
-28.8793

> <Gold.PLP.part.repulsive>
0.9238

> <Gold.PLP.ligand.clash>
0.0000

> <Gold.PLP.ligand.torsion>
0.1379

> <Gold.PLP.Chemscore.Hbond>
1.9440

> <Gold.PLP.Chemscore.CHOScore>
0.0000

> <Gold.PLP.Chemscore.Metal>
0.0000

> <Gold.Chemscore.Hbonds>
donor molecule, donor type, donor heavy atom, donor atom, acceptor molecule, acceptor atom, score
      L1  H    19    20       P1  7957  1.00
      P1  H  7997  8010       L1     7  0.90

> <Gold.PLP.Chemscore.Internal.Correction>
0.0134

> <Gold.Rescore>
     Score         DG    S(hbond)    S(metal)    S(lipo)     H(rot)  DE(clash)    DE(int)     intcor
     19.05     -19.55       1.94        0.00     114.54       2.28       0.19       0.31       ----

> <Gold.Chemscore.Fitness>
19.0456

> <Gold.Chemscore.DG>
-19.5470

> <Gold.Chemscore.ZeroCoef>
-5.4800

> <Gold.Chemscore.Hbond>
1.9435

> <Gold.Chemscore.Metal>
0.0000

> <Gold.Chemscore.Lipo>
114.5393

> <Gold.Chemscore.Internal_Hbond>
0.0000

> <Gold.Chemscore.DEClash>
0.1909

> <Gold.Chemscore.DEInternal>
0.3105

> <Gold.Chemscore.Rot>
2.2755

> <Gold.Chemscore.Internal.Correction>
   9.000000E+99

> <Gold.Chemscore.Hbonds>
donor molecule, donor type, donor heavy atom, donor atom, acceptor molecule, acceptor atom, score
      L1  H    19    20       P1  7957  1.00
      P1  H  7997  8010       L1     7  0.83

> <Gold.Chemscore.Hbond.Weighted>
-6.4911

> <Gold.Chemscore.Metal.Weighted>
-0.0000

> <Gold.Chemscore.Lipo.Weighted>
-13.4011

> <Gold.Chemscore.Internal_Hbond.Weighted>
0.0000

> <Gold.Chemscore.DEClash.Weighted>
0.1909

> <Gold.Chemscore.DEInternal.Weighted>
0.3105

> <Gold.Chemscore.Rot.Weighted>
5.8252

> <Gold.Chemscore.Internal.Correction.Weighted>
   9.000000E+99

> <Gold.Protein.RotatedTorsions>
[ 6907 6896 6895 6894 ] final   83.50 input  -60.11 | X-H torsion
[ 7974 7965 7964 7962 ] final   74.08 input  175.53 | X-H torsion
[ 8008 7997 7996 7995 ] final   50.38 input   59.86 | X-H torsion
[ 10167 10162 10161 10158 ] final  109.02 input  -65.29 | X-H torsion
[ 10718 10713 10712 10709 ] final   25.52 input   66.30 | X-H torsion
[ 10763 10752 10751 10750 ] final   78.80 input  -60.55 | X-H torsion
[ 11005 11000 10999 10996 ] final  -52.06 input  -57.11 | X-H torsion

> <Gold.Protein.ActiveResidues>
 VAL166  LYS551  ARG553  GLY616  TRP617  ASP618  TYR619  PRO620  LYS621  CYS622 
 ASP623  PHE694  ASN695  SER759  ASP760  ASP761  ALA762  ILE779  LEU786  VAL792 
 PHE793  MET794  SER795  GLU796  ALA797  LYS798  CYS799  TRP800  GLU811  SER814 

> <Gold.Protein.RotatedAtoms>
  152.5329  134.2885  159.9033 H   0  0  0  0  0  0  0  0  0  0  0  0  # atno 6907 bound_to 6896
  151.2838  133.4191  159.2636 H   0  0  0  0  0  0  0  0  0  0  0  0  # atno 6908 bound_to 6896
  151.0260  134.9520  159.8142 H   0  0  0  0  0  0  0  0  0  0  0  0  # atno 6909 bound_to 6896
  145.7328  139.2690  143.1531 H   0  0  0  0  0  0  0  0  0  0  0  0  # atno 7974 bound_to 7965
  155.4179  140.3445  155.4269 H   0  0  0  0  0  0  0  0  0  0  0  0  # atno 8008 bound_to 7997
  156.1410  140.1542  156.8951 H   0  0  0  0  0  0  0  0  0  0  0  0  # atno 8009 bound_to 7997
  154.4971  140.0825  156.7701 H   0  0  0  0  0  0  0  0  0  0  0  0  # atno 8010 bound_to 7997
  139.6800  144.7119  151.1533 H   0  0  0  0  0  0  0  0  0  0  0  0  # atno 10167 bound_to 10162
  157.1945  130.6861  149.6163 H   0  0  0  0  0  0  0  0  0  0  0  0  # atno 10718 bound_to 10713
  153.0902  135.4863  154.8675 H   0  0  0  0  0  0  0  0  0  0  0  0  # atno 10763 bound_to 10752
  154.7260  135.3049  154.8972 H   0  0  0  0  0  0  0  0  0  0  0  0  # atno 10764 bound_to 10752
  153.9622  135.6811  153.4798 H   0  0  0  0  0  0  0  0  0  0  0  0  # atno 10765 bound_to 10752
  141.0904  133.6634  156.3968 H   0  0  0  0  0  0  0  0  0  0  0  0  # atno 11005 bound_to 11000
  146.0521  140.8058  142.9776 LP  0  0  0  0  0  0  0  0  0  0  0  0  # atno 17320 bound_to 7965
  144.6889  140.3069  143.7254 LP  0  0  0  0  0  0  0  0  0  0  0  0  # atno 17321 bound_to 7965
  140.7649  143.5714  150.8992 LP  0  0  0  0  0  0  0  0  0  0  0  0  # atno 17342 bound_to 10162
  139.9385  143.6409  152.3059 LP  0  0  0  0  0  0  0  0  0  0  0  0  # atno 17343 bound_to 10162
  155.9707  130.4603  150.6069 LP  0  0  0  0  0  0  0  0  0  0  0  0  # atno 17370 bound_to 10713
  157.3828  131.0783  151.1462 LP  0  0  0  0  0  0  0  0  0  0  0  0  # atno 17371 bound_to 10713
  140.5265  134.6254  157.5336 LP  0  0  0  0  0  0  0  0  0  0  0  0  # atno 17394 bound_to 11000
  139.9729  134.7263  156.0006 LP  0  0  0  0  0  0  0  0  0  0  0  0  # atno 17395 bound_to 11000

$$$$
