AV-unprocessed.smi:3169|AV-procd|sdf|12103|dock10
  -GOLD-   2272017543D 1   1.00000     0.00000
 Structure written by MMmdl.
 36 37  0  0  0  0  0  0  0  0  2 V2000
  149.2414  132.4382  154.6885 O   0  0  0  0  0  0  0  0  0  0  0  0
  149.1159  133.4274  153.9663 C   0  0  0  0  0  0  0  0  0  0  0  0
  148.3049  133.4768  152.9005 N   0  0  0  0  0  0  0  0  0  0  0  0
  147.4656  132.3757  152.4440 C   0  0  0  0  0  0  0  0  0  0  0  0
  145.9928  132.5903  152.8316 C   0  0  0  0  0  0  0  0  0  0  0  0
  145.1207  132.6065  151.6568 N   0  0  0  0  0  0  0  0  0  0  0  0
  145.4293  132.2002  150.3842 C   0  0  0  0  0  0  0  0  0  0  0  0
  144.3047  132.4035  149.6265 C   0  0  0  0  0  0  0  0  0  0  0  0
  143.3588  132.9253  150.4681 N   0  3  0  0  0  0  0  0  0  0  0  0
  143.8572  133.0478  151.7028 C   0  0  0  0  0  0  0  0  0  0  0  0
  149.7778  134.5791  154.1418 N   0  0  0  0  0  0  0  0  0  0  0  0
  150.7484  134.8428  155.1993 C   0  0  0  0  0  0  0  0  0  0  0  0
  151.0923  136.3389  155.3018 C   0  0  2  0  0  0  0  0  0  0  0  0
  149.9482  137.2949  154.9609 C   0  0  0  0  0  0  0  0  0  0  0  0
  150.7041  138.5412  154.5626 C   0  0  0  0  0  0  0  0  0  0  0  0
  151.8968  137.9551  153.8122 C   0  0  0  0  0  0  0  0  0  0  0  0
  152.1293  136.6687  154.3817 O   0  0  0  0  0  0  0  0  0  0  0  0
  148.2667  134.3341  152.3684 H   0  0  0  0  0  0  0  0  0  0  0  0
  147.5662  132.2574  151.3636 H   0  0  0  0  0  0  0  0  0  0  0  0
  147.8389  131.4550  152.8933 H   0  0  0  0  0  0  0  0  0  0  0  0
  145.6486  131.7960  153.4956 H   0  0  0  0  0  0  0  0  0  0  0  0
  145.8576  133.5338  153.3630 H   0  0  0  0  0  0  0  0  0  0  0  0
  146.4004  131.8073  150.1194 H   0  0  0  0  0  0  0  0  0  0  0  0
  144.1118  132.2209  148.5794 H   0  0  0  0  0  0  0  0  0  0  0  0
  143.3417  133.4295  152.5664 H   0  0  0  0  0  0  0  0  0  0  0  0
  149.6030  135.3317  153.4921 H   0  0  0  0  0  0  0  0  0  0  0  0
  150.3081  134.5088  156.1391 H   0  0  0  0  0  0  0  0  0  0  0  0
  151.6534  134.2490  155.0600 H   0  0  0  0  0  0  0  0  0  0  0  0
  151.4637  136.5674  156.3023 H   0  0  0  0  0  0  0  0  0  0  0  0
  149.3739  136.9220  154.1116 H   0  0  0  0  0  0  0  0  0  0  0  0
  149.2638  137.4571  155.7940 H   0  0  0  0  0  0  0  0  0  0  0  0
  150.1137  139.2286  153.9563 H   0  0  0  0  0  0  0  0  0  0  0  0
  151.0431  139.0732  155.4527 H   0  0  0  0  0  0  0  0  0  0  0  0
  151.6566  137.8258  152.7566 H   0  0  0  0  0  0  0  0  0  0  0  0
  152.7819  138.5875  153.8831 H   0  0  0  0  0  0  0  0  0  0  0  0
  142.4174  133.1820  150.1981 H   0  0  0  0  0  0  0  0  0  0  0  0
  1  2  2  0  0  0  0
  2  3  1  0  0  0  0
  2 11  1  0  0  0  0
  3  4  1  0  0  0  0
  3 18  1  0  0  0  0
  4  5  1  0  0  0  0
  4 19  1  0  0  0  0
  4 20  1  0  0  0  0
  5  6  1  0  0  0  0
  5 21  1  0  0  0  0
  5 22  1  0  0  0  0
  6 10  1  0  0  0  0
  6  7  1  0  0  0  0
  7  8  2  0  0  0  0
  7 23  1  0  0  0  0
  8  9  1  0  0  0  0
  8 24  1  0  0  0  0
  9 10  2  0  0  0  0
  9 36  1  0  0  0  0
 10 25  1  0  0  0  0
 11 12  1  0  0  0  0
 11 26  1  0  0  0  0
 12 13  1  0  0  0  0
 12 27  1  0  0  0  0
 12 28  1  0  0  0  0
 13 17  1  0  0  0  0
 13 14  1  0  0  0  0
 13 29  1  0  0  0  0
 14 15  1  0  0  0  0
 14 30  1  0  0  0  0
 14 31  1  0  0  0  0
 15 16  1  0  0  0  0
 15 32  1  0  0  0  0
 15 33  1  0  0  0  0
 16 17  1  0  0  0  0
 16 34  1  0  0  0  0
 16 35  1  0  0  0  0
M  CHG  1   9   1
M  END
> <s_m_source_file>
AV-unprocessed.smi

> <i_m_source_file_index>
3169

> <i_lp_mmshare_version>
43012

> <i_f3d_flags>
0

> <s_epik_input>
TzFbQ0gyXVtDSDJdW0NIMl1bQ0BIXTFbQ0gyXVtOSF1DKD1PKVtOSF1bQ0gyXVtDSDJdbjJbY0hdW2NIXW5bY0hdMg==

> <s_epik_cmdline>
J2VwaWtfcHl0aG9uJywgJy1waCcsICc3LjAnLCAnLXRuJywgJzgnLCAnLW1hJywgJzIwMCcsICctbWV0YWxfYmluZGluZycsICctaW1hZScsICc8aW5maWxlLm1hZT4nLCAnLW9tYWUnLCAnPG91dGZpbGUubWFlPic=

> <r_lp_tautomer_probability>
1

> <r_epik_Ionization_Penalty>
0.256136

> <r_epik_Ionization_Penalty_Charging>
0

> <r_epik_Ionization_Penalty_Neutral>
0.256136

> <r_epik_State_Penalty>
0.247629

> <r_epik_Charging_Adjusted_Penalty>
0.247629

> <i_epik_Tot_Q>
1

> <i_epik_Tot_abs_Q>
1

> <r_epik_Metal_State_Penalty>
0.537113

> <b_epik_Metal_Only>
0

> <s_lp_Force_Field>
OPLS_2005

> <r_lp_Energy>
17.2765

> <b_lp_Chiralities_Consistent>
1

> <s_lp_Variant>
AV-unprocessed.smi:3169-1

> <Gold.Version>
5.8.1

> <Gold.Id.Protein>
6NUR|6NUR_protein|mol2

> <Gold.PLP.Fitness>
48.6020

> <Gold.PLP.PLP>
-32.9952

> <Gold.PLP.part.hbond>
-4.0000

> <Gold.PLP.part.metal>
0.0000

> <Gold.PLP.part.buried>
-6.9894

> <Gold.PLP.part.nonpolar>
-22.4444

> <Gold.PLP.part.repulsive>
0.2341

> <Gold.PLP.ligand.clash>
0.0000

> <Gold.PLP.ligand.torsion>
1.0238

> <Gold.PLP.Chemscore.Hbond>
4.9500

> <Gold.PLP.Chemscore.CHOScore>
0.9269

> <Gold.PLP.Chemscore.Metal>
0.0000

> <Gold.Chemscore.Hbonds>
donor molecule, donor type, donor heavy atom, donor atom, acceptor molecule, acceptor atom, score
      L1  H     3    18       P1  7948  0.75
      L1  H     9    36       P1 10186  2.00
      L1  H    11    26       P1  7948  0.60
      P1  H 10752 10763       L1    17  0.42
      L1  C     7    23       P1 10747  0.48
      L1  C    10    25       P1 10957  0.18

> <Gold.PLP.Chemscore.Internal.Correction>
0.0239

> <Gold.Rescore>
     Score         DG    S(hbond)    S(metal)    S(lipo)     H(rot)  DE(clash)    DE(int)     intcor
     15.58     -16.29       3.12        0.00      54.37       2.33       0.00       0.71       ----

> <Gold.Chemscore.Fitness>
15.5820

> <Gold.Chemscore.DG>
-16.2922

> <Gold.Chemscore.ZeroCoef>
-5.4800

> <Gold.Chemscore.Hbond>
3.1174

> <Gold.Chemscore.Metal>
0.0000

> <Gold.Chemscore.Lipo>
54.3725

> <Gold.Chemscore.Internal_Hbond>
0.0000

> <Gold.Chemscore.DEClash>
0.0000

> <Gold.Chemscore.DEInternal>
0.7102

> <Gold.Chemscore.Rot>
2.3288

> <Gold.Chemscore.Internal.Correction>
   9.000000E+99

> <Gold.Chemscore.Hbonds>
donor molecule, donor type, donor heavy atom, donor atom, acceptor molecule, acceptor atom, score
      L1  H     3    18       P1  7948  0.08
      L1  H     9    36       P1 10186  0.95
      L1  H    11    26       P1  7948  0.04
      P1  H 10752 10763       L1    17  0.22

> <Gold.Chemscore.Hbond.Weighted>
-10.4123

> <Gold.Chemscore.Metal.Weighted>
-0.0000

> <Gold.Chemscore.Lipo.Weighted>
-6.3616

> <Gold.Chemscore.Internal_Hbond.Weighted>
0.0000

> <Gold.Chemscore.DEClash.Weighted>
0.0000

> <Gold.Chemscore.DEInternal.Weighted>
0.7102

> <Gold.Chemscore.Rot.Weighted>
5.9617

> <Gold.Chemscore.Internal.Correction.Weighted>
   9.000000E+99

> <Gold.Protein.RotatedTorsions>
[ 6907 6896 6895 6894 ] final   36.26 input  -60.11 | X-H torsion
[ 7974 7965 7964 7962 ] final   36.66 input  175.53 | X-H torsion
[ 8008 7997 7996 7995 ] final  -19.96 input   59.86 | X-H torsion
[ 10167 10162 10161 10158 ] final   32.03 input  -65.29 | X-H torsion
[ 10718 10713 10712 10709 ] final   75.96 input   66.30 | X-H torsion
[ 10763 10752 10751 10750 ] final   46.55 input  -60.55 | X-H torsion
[ 11005 11000 10999 10996 ] final -126.44 input  -57.11 | X-H torsion

> <Gold.Protein.ActiveResidues>
 VAL166  LYS551  ARG553  GLY616  TRP617  ASP618  TYR619  PRO620  LYS621  CYS622 
 ASP623  PHE694  ASN695  SER759  ASP760  ASP761  ALA762  ILE779  LEU786  VAL792 
 PHE793  MET794  SER795  GLU796  ALA797  LYS798  CYS799  TRP800  GLU811  SER814 

> <Gold.Protein.RotatedAtoms>
  152.1273  134.9161  160.0560 H   0  0  0  0  0  0  0  0  0  0  0  0  # atno 6907 bound_to 6896
  152.0279  133.3920  159.4293 H   0  0  0  0  0  0  0  0  0  0  0  0  # atno 6908 bound_to 6896
  150.6853  134.3475  159.4938 H   0  0  0  0  0  0  0  0  0  0  0  0  # atno 6909 bound_to 6896
  146.1195  139.5990  142.9299 H   0  0  0  0  0  0  0  0  0  0  0  0  # atno 7974 bound_to 7965
  154.4801  140.2074  155.9784 H   0  0  0  0  0  0  0  0  0  0  0  0  # atno 8008 bound_to 7997
  156.1152  140.3222  155.8098 H   0  0  0  0  0  0  0  0  0  0  0  0  # atno 8009 bound_to 7997
  155.4566  140.0521  157.2986 H   0  0  0  0  0  0  0  0  0  0  0  0  # atno 8010 bound_to 7997
  140.4536  144.1012  150.6197 H   0  0  0  0  0  0  0  0  0  0  0  0  # atno 10167 bound_to 10162
  157.6655  130.9751  150.1428 H   0  0  0  0  0  0  0  0  0  0  0  0  # atno 10718 bound_to 10713
  152.9809  135.6004  154.3619 H   0  0  0  0  0  0  0  0  0  0  0  0  # atno 10763 bound_to 10752
  154.3300  135.2768  155.2479 H   0  0  0  0  0  0  0  0  0  0  0  0  # atno 10764 bound_to 10752
  154.4607  135.5966  153.6309 H   0  0  0  0  0  0  0  0  0  0  0  0  # atno 10765 bound_to 10752
  140.9681  134.0843  157.3898 H   0  0  0  0  0  0  0  0  0  0  0  0  # atno 11005 bound_to 11000
  145.5497  141.0414  143.2285 LP  0  0  0  0  0  0  0  0  0  0  0  0  # atno 17320 bound_to 7965
  144.7583  139.7018  143.7245 LP  0  0  0  0  0  0  0  0  0  0  0  0  # atno 17321 bound_to 7965
  140.4178  143.2626  151.9753 LP  0  0  0  0  0  0  0  0  0  0  0  0  # atno 17342 bound_to 10162
  139.4799  144.5858  151.7856 LP  0  0  0  0  0  0  0  0  0  0  0  0  # atno 17343 bound_to 10162
  156.2247  130.3677  149.8515 LP  0  0  0  0  0  0  0  0  0  0  0  0  # atno 17370 bound_to 10713
  156.6358  130.8684  151.3504 LP  0  0  0  0  0  0  0  0  0  0  0  0  # atno 17371 bound_to 10713
  139.8902  135.0110  156.6723 LP  0  0  0  0  0  0  0  0  0  0  0  0  # atno 17394 bound_to 11000
  140.7369  133.9011  155.8250 LP  0  0  0  0  0  0  0  0  0  0  0  0  # atno 17395 bound_to 11000

$$$$
