AV-unprocessed.smi:2232|AV-procd|sdf|9039|dock10
  -GOLD-   2272012243D 1   1.00000     0.00000
 Structure written by MMmdl.
 43 44  0  0  0  0  0  0  0  0  2 V2000
  151.8321  145.3862  159.3766 C   0  0  0  0  0  0  0  0  0  0  0  0
  152.0693  143.9013  159.1986 C   0  0  0  0  0  0  0  0  0  0  0  0
  153.0095  143.2199  159.9949 C   0  0  0  0  0  0  0  0  0  0  0  0
  153.1865  141.8390  159.7797 C   0  0  0  0  0  0  0  0  0  0  0  0
  154.1781  141.0427  160.6013 C   0  0  0  0  0  0  0  0  0  0  0  0
  152.4996  141.1448  158.8474 N   0  0  0  0  0  0  0  0  0  0  0  0
  151.5928  141.7911  158.0735 C   0  0  0  0  0  0  0  0  0  0  0  0
  150.8245  141.1539  157.0631 N   0  0  0  0  0  0  0  0  0  0  0  0
  151.2138  140.1914  156.2088 C   0  0  0  0  0  0  0  0  0  0  0  0
  152.3295  139.6705  156.1797 O   0  0  0  0  0  0  0  0  0  0  0  0
  150.2254  139.8554  155.3668 N   0  0  0  0  0  0  0  0  0  0  0  0
  150.3362  138.8465  154.3194 C   0  0  0  0  0  0  0  0  0  0  0  0
  150.7861  137.4871  154.8896 C   0  0  0  0  0  0  0  0  0  0  0  0
  149.7284  136.4511  154.7900 N   0  3  0  0  0  0  0  0  0  0  0  0
  150.2244  135.1035  155.1590 C   0  0  0  0  0  0  0  0  0  0  0  0
  149.1107  134.0550  154.9994 C   0  0  0  0  0  0  0  0  0  0  0  0
  147.9911  134.4244  155.7943 O   0  0  0  0  0  0  0  0  0  0  0  0
  147.4465  135.6758  155.3953 C   0  0  0  0  0  0  0  0  0  0  0  0
  148.5045  136.7796  155.5633 C   0  0  0  0  0  0  0  0  0  0  0  0
  151.3530  143.1752  158.2257 C   0  0  0  0  0  0  0  0  0  0  0  0
  152.2630  145.7454  160.3116 H   0  0  0  0  0  0  0  0  0  0  0  0
  150.7634  145.6026  159.3903 H   0  0  0  0  0  0  0  0  0  0  0  0
  152.2856  145.9407  158.5546 H   0  0  0  0  0  0  0  0  0  0  0  0
  153.5797  143.7412  160.7500 H   0  0  0  0  0  0  0  0  0  0  0  0
  154.7136  141.6816  161.3040 H   0  0  0  0  0  0  0  0  0  0  0  0
  154.9105  140.5624  159.9519 H   0  0  0  0  0  0  0  0  0  0  0  0
  153.6624  140.2682  161.1699 H   0  0  0  0  0  0  0  0  0  0  0  0
  149.8734  141.4790  156.9733 H   0  0  0  0  0  0  0  0  0  0  0  0
  149.3372  140.3271  155.4586 H   0  0  0  0  0  0  0  0  0  0  0  0
  149.3801  138.7675  153.8014 H   0  0  0  0  0  0  0  0  0  0  0  0
  151.0596  139.1987  153.5835 H   0  0  0  0  0  0  0  0  0  0  0  0
  151.6616  137.1586  154.3274 H   0  0  0  0  0  0  0  0  0  0  0  0
  151.1059  137.5799  155.9286 H   0  0  0  0  0  0  0  0  0  0  0  0
  151.0727  134.8341  154.5286 H   0  0  0  0  0  0  0  0  0  0  0  0
  150.5812  135.1145  156.1903 H   0  0  0  0  0  0  0  0  0  0  0  0
  148.8145  133.9558  153.9540 H   0  0  0  0  0  0  0  0  0  0  0  0
  149.4665  133.0769  155.3237 H   0  0  0  0  0  0  0  0  0  0  0  0
  147.0987  135.6227  154.3624 H   0  0  0  0  0  0  0  0  0  0  0  0
  146.5753  135.8942  156.0133 H   0  0  0  0  0  0  0  0  0  0  0  0
  148.7573  136.8926  156.6188 H   0  0  0  0  0  0  0  0  0  0  0  0
  148.0854  137.7292  155.2331 H   0  0  0  0  0  0  0  0  0  0  0  0
  150.6282  143.6788  157.6025 H   0  0  0  0  0  0  0  0  0  0  0  0
  149.4618  136.3989  153.8172 H   0  0  0  0  0  0  0  0  0  0  0  0
  1  2  1  0  0  0  0
  1 21  1  0  0  0  0
  1 22  1  0  0  0  0
  1 23  1  0  0  0  0
  2 20  1  0  0  0  0
  2  3  2  0  0  0  0
  3  4  1  0  0  0  0
  3 24  1  0  0  0  0
  4  5  1  0  0  0  0
  4  6  2  0  0  0  0
  5 25  1  0  0  0  0
  5 26  1  0  0  0  0
  5 27  1  0  0  0  0
  6  7  1  0  0  0  0
  7  8  1  0  0  0  0
  7 20  2  0  0  0  0
  8  9  1  0  0  0  0
  8 28  1  0  0  0  0
  9 10  2  0  0  0  0
  9 11  1  0  0  0  0
 11 12  1  0  0  0  0
 11 29  1  0  0  0  0
 12 13  1  0  0  0  0
 12 30  1  0  0  0  0
 12 31  1  0  0  0  0
 13 14  1  0  0  0  0
 13 32  1  0  0  0  0
 13 33  1  0  0  0  0
 14 19  1  0  0  0  0
 14 15  1  0  0  0  0
 14 43  1  0  0  0  0
 15 16  1  0  0  0  0
 15 34  1  0  0  0  0
 15 35  1  0  0  0  0
 16 17  1  0  0  0  0
 16 36  1  0  0  0  0
 16 37  1  0  0  0  0
 17 18  1  0  0  0  0
 18 19  1  0  0  0  0
 18 38  1  0  0  0  0
 18 39  1  0  0  0  0
 19 40  1  0  0  0  0
 19 41  1  0  0  0  0
 20 42  1  0  0  0  0
M  CHG  1  14   1
M  END
> <s_m_source_file>
AV-unprocessed.smi

> <i_m_source_file_index>
2232

> <i_lp_mmshare_version>
43012

> <i_f3d_flags>
0

> <s_epik_input>
W0NIM11jMVtjSF1jKFtDSDNdKW5jKFtjSF0xKVtOSF1DKD1PKVtOSF1bQ0gyXVtDSDJdTjJbQ0gyXVtDSDJdT1tDSDJdW0NIMl0y

> <s_epik_cmdline>
J2VwaWtfcHl0aG9uJywgJy1waCcsICc3LjAnLCAnLXRuJywgJzgnLCAnLW1hJywgJzIwMCcsICctbWV0YWxfYmluZGluZycsICctaW1hZScsICc8aW5maWxlLm1hZT4nLCAnLW9tYWUnLCAnPG91dGZpbGUubWFlPic=

> <r_epik_Ionization_Penalty>
0.602717

> <r_epik_Ionization_Penalty_Charging>
0.602531

> <r_epik_Ionization_Penalty_Neutral>
0.000186219

> <r_epik_State_Penalty>
0.617039

> <r_epik_Charging_Adjusted_Penalty>
1.21957

> <i_epik_Tot_Q>
1

> <i_epik_Tot_abs_Q>
1

> <r_epik_Metal_State_Penalty>
0.617067

> <b_epik_Metal_Only>
0

> <s_lp_Force_Field>
OPLS_2005

> <r_lp_Energy>
15.6528

> <b_lp_Chiralities_Consistent>
1

> <s_lp_Variant>
AV-unprocessed.smi:2232-2

> <Gold.Version>
5.8.1

> <Gold.Id.Protein>
6NUR|6NUR_protein|mol2

> <Gold.PLP.Fitness>
49.2435

> <Gold.PLP.PLP>
-41.5874

> <Gold.PLP.part.hbond>
-2.0558

> <Gold.PLP.part.metal>
0.0000

> <Gold.PLP.part.buried>
-5.6543

> <Gold.PLP.part.nonpolar>
-34.4777

> <Gold.PLP.part.repulsive>
0.2825

> <Gold.PLP.ligand.clash>
0.0000

> <Gold.PLP.ligand.torsion>
0.6816

> <Gold.PLP.Chemscore.Hbond>
3.0000

> <Gold.PLP.Chemscore.CHOScore>
0.0000

> <Gold.PLP.Chemscore.Metal>
0.0000

> <Gold.Chemscore.Hbonds>
donor molecule, donor type, donor heavy atom, donor atom, acceptor molecule, acceptor atom, score
      L1  H    14    43       P1  7948  2.00
      P1  H  7997  8010       L1    10  0.93

> <Gold.PLP.Chemscore.Internal.Correction>
0.0193

> <Gold.Rescore>
     Score         DG    S(hbond)    S(metal)    S(lipo)     H(rot)  DE(clash)    DE(int)     intcor
     18.16     -19.58       1.97        0.00      96.99       1.49       0.04       1.38       ----

> <Gold.Chemscore.Fitness>
18.1610

> <Gold.Chemscore.DG>
-19.5794

> <Gold.Chemscore.ZeroCoef>
-5.4800

> <Gold.Chemscore.Hbond>
1.9681

> <Gold.Chemscore.Metal>
0.0000

> <Gold.Chemscore.Lipo>
96.9898

> <Gold.Chemscore.Internal_Hbond>
0.0000

> <Gold.Chemscore.DEClash>
0.0354

> <Gold.Chemscore.DEInternal>
1.3830

> <Gold.Chemscore.Rot>
1.4930

> <Gold.Chemscore.Internal.Correction>
   9.000000E+99

> <Gold.Chemscore.Hbonds>
donor molecule, donor type, donor heavy atom, donor atom, acceptor molecule, acceptor atom, score
      L1  H    14    43       P1  7948  0.75
      P1  H  7997  8010       L1    10  0.89

> <Gold.Chemscore.Hbond.Weighted>
-6.5736

> <Gold.Chemscore.Metal.Weighted>
-0.0000

> <Gold.Chemscore.Lipo.Weighted>
-11.3478

> <Gold.Chemscore.Internal_Hbond.Weighted>
0.0000

> <Gold.Chemscore.DEClash.Weighted>
0.0354

> <Gold.Chemscore.DEInternal.Weighted>
1.3830

> <Gold.Chemscore.Rot.Weighted>
3.8220

> <Gold.Chemscore.Internal.Correction.Weighted>
   9.000000E+99

> <Gold.Protein.RotatedTorsions>
[ 6907 6896 6895 6894 ] final  122.00 input  -60.11 | X-H torsion
[ 7974 7965 7964 7962 ] final -100.97 input  175.53 | X-H torsion
[ 8008 7997 7996 7995 ] final   80.91 input   59.86 | X-H torsion
[ 10167 10162 10161 10158 ] final -137.65 input  -65.29 | X-H torsion
[ 10718 10713 10712 10709 ] final   93.69 input   66.30 | X-H torsion
[ 10763 10752 10751 10750 ] final  -83.20 input  -60.55 | X-H torsion
[ 11005 11000 10999 10996 ] final -121.03 input  -57.11 | X-H torsion

> <Gold.Protein.ActiveResidues>
 VAL166  LYS551  ARG553  GLY616  TRP617  ASP618  TYR619  PRO620  LYS621  CYS622 
 ASP623  PHE694  ASN695  SER759  ASP760  ASP761  ALA762  ILE779  LEU786  VAL792 
 PHE793  MET794  SER795  GLU796  ALA797  LYS798  CYS799  TRP800  GLU811  SER814 

> <Gold.Protein.RotatedAtoms>
  152.4278  133.7224  159.6540 H   0  0  0  0  0  0  0  0  0  0  0  0  # atno 6907 bound_to 6896
  150.8155  133.8334  159.3168 H   0  0  0  0  0  0  0  0  0  0  0  0  # atno 6908 bound_to 6896
  151.6032  135.1048  160.0116 H   0  0  0  0  0  0  0  0  0  0  0  0  # atno 6909 bound_to 6896
  145.2876  140.9344  143.2896 H   0  0  0  0  0  0  0  0  0  0  0  0  # atno 7974 bound_to 7965
  155.8899  140.3439  155.5949 H   0  0  0  0  0  0  0  0  0  0  0  0  # atno 8008 bound_to 7997
  155.7622  140.0834  157.2168 H   0  0  0  0  0  0  0  0  0  0  0  0  # atno 8009 bound_to 7997
  154.4032  140.1533  156.2833 H   0  0  0  0  0  0  0  0  0  0  0  0  # atno 8010 bound_to 7997
  139.8556  143.7142  152.2654 H   0  0  0  0  0  0  0  0  0  0  0  0  # atno 10167 bound_to 10162
  157.6953  131.0487  150.4073 H   0  0  0  0  0  0  0  0  0  0  0  0  # atno 10718 bound_to 10713
  154.5849  135.5564  153.7221 H   0  0  0  0  0  0  0  0  0  0  0  0  # atno 10763 bound_to 10752
  153.0095  135.6329  154.1931 H   0  0  0  0  0  0  0  0  0  0  0  0  # atno 10764 bound_to 10752
  154.1872  135.2884  155.3013 H   0  0  0  0  0  0  0  0  0  0  0  0  # atno 10765 bound_to 10752
  141.0100  134.0278  157.3426 H   0  0  0  0  0  0  0  0  0  0  0  0  # atno 11005 bound_to 11000
  144.9200  139.4424  143.6546 LP  0  0  0  0  0  0  0  0  0  0  0  0  # atno 17320 bound_to 7965
  146.3195  139.8054  142.8956 LP  0  0  0  0  0  0  0  0  0  0  0  0  # atno 17321 bound_to 7965
  139.7423  144.7556  151.0634 LP  0  0  0  0  0  0  0  0  0  0  0  0  # atno 17342 bound_to 10162
  140.7782  143.4958  150.9834 LP  0  0  0  0  0  0  0  0  0  0  0  0  # atno 17343 bound_to 10162
  156.4460  130.4001  149.6666 LP  0  0  0  0  0  0  0  0  0  0  0  0  # atno 17370 bound_to 10713
  156.3833  130.7590  151.2585 LP  0  0  0  0  0  0  0  0  0  0  0  0  # atno 17371 bound_to 10713
  139.9085  135.0185  156.7589 LP  0  0  0  0  0  0  0  0  0  0  0  0  # atno 17394 bound_to 11000
  140.6749  133.9527  155.7877 LP  0  0  0  0  0  0  0  0  0  0  0  0  # atno 17395 bound_to 11000

$$$$
