AV-unprocessed.smi:3091|AV-procd|sdf|11780|dock1
  -GOLD-   2272017163D 1   1.00000     0.00000
 Structure written by MMmdl.
 28 29  0  0  0  0  0  0  0  0  1 V2000
  149.7771  144.4579  159.0101 N   0  0  0  0  0  0  0  0  0  0  0  0
  151.1984  144.7040  159.1432 C   0  0  0  0  0  0  0  0  0  0  0  0
  151.9822  143.4263  159.3569 C   0  0  0  0  0  0  0  0  0  0  0  0
  152.7124  143.2236  160.5447 C   0  0  0  0  0  0  0  0  0  0  0  0
  153.4328  142.0224  160.6905 C   0  0  0  0  0  0  0  0  0  0  0  0
  153.4604  141.0562  159.7482 N   0  0  0  0  0  0  0  0  0  0  0  0
  152.7612  141.2544  158.6025 C   0  0  0  0  0  0  0  0  0  0  0  0
  152.7793  140.2778  157.6265 O   0  0  0  0  0  0  0  0  0  0  0  0
  151.5494  139.8306  157.0518 C   0  0  2  0  0  0  0  0  0  0  0  0
  151.7357  138.5067  156.3219 C   0  0  0  0  0  0  0  0  0  0  0  0
  152.1674  138.9566  154.9344 C   0  0  0  0  0  0  0  0  0  0  0  0
  151.3416  140.0836  154.6960 O   0  0  0  0  0  0  0  0  0  0  0  0
  151.1777  140.7978  155.9177 C   0  0  0  0  0  0  0  0  0  0  0  0
  152.0102  142.4240  158.3661 C   0  0  0  0  0  0  0  0  0  0  0  0
  149.3981  145.0547  158.2887 H   0  0  0  0  0  0  0  0  0  0  0  0
  149.6219  143.5057  158.7114 H   0  0  0  0  0  0  0  0  0  0  0  0
  151.5597  145.2145  158.2499 H   0  0  0  0  0  0  0  0  0  0  0  0
  151.3646  145.3778  159.9842 H   0  0  0  0  0  0  0  0  0  0  0  0
  152.7220  143.9698  161.3254 H   0  0  0  0  0  0  0  0  0  0  0  0
  154.0031  141.8330  161.5878 H   0  0  0  0  0  0  0  0  0  0  0  0
  150.7496  139.7907  157.7930 H   0  0  0  0  0  0  0  0  0  0  0  0
  152.4546  137.8367  156.7934 H   0  0  0  0  0  0  0  0  0  0  0  0
  150.7811  137.9834  156.2561 H   0  0  0  0  0  0  0  0  0  0  0  0
  153.2149  139.2620  154.9322 H   0  0  0  0  0  0  0  0  0  0  0  0
  152.0283  138.1866  154.1756 H   0  0  0  0  0  0  0  0  0  0  0  0
  150.1434  141.1323  155.9999 H   0  0  0  0  0  0  0  0  0  0  0  0
  151.8138  141.6839  155.9203 H   0  0  0  0  0  0  0  0  0  0  0  0
  151.4680  142.5472  157.4399 H   0  0  0  0  0  0  0  0  0  0  0  0
  1  2  1  0  0  0  0
  1 15  1  0  0  0  0
  1 16  1  0  0  0  0
  2  3  1  0  0  0  0
  2 17  1  0  0  0  0
  2 18  1  0  0  0  0
  3 14  1  0  0  0  0
  3  4  2  0  0  0  0
  4  5  1  0  0  0  0
  4 19  1  0  0  0  0
  5  6  2  0  0  0  0
  5 20  1  0  0  0  0
  6  7  1  0  0  0  0
  7  8  1  0  0  0  0
  7 14  2  0  0  0  0
  8  9  1  0  0  0  0
  9 13  1  0  0  0  0
  9 10  1  0  0  0  0
  9 21  1  0  0  0  0
 10 11  1  0  0  0  0
 10 22  1  0  0  0  0
 10 23  1  0  0  0  0
 11 12  1  0  0  0  0
 11 24  1  0  0  0  0
 11 25  1  0  0  0  0
 12 13  1  0  0  0  0
 13 26  1  0  0  0  0
 13 27  1  0  0  0  0
 14 28  1  0  0  0  0
M  END
> <s_m_source_file>
AV-unprocessed.smi

> <i_m_source_file_index>
3091

> <i_lp_mmshare_version>
43012

> <i_f3d_flags>
0

> <s_epik_input>
W05IMl1bQ0gyXWMxW2NIXVtjSF1uYyhbY0hdMSlPW0NAQEhdMltDSDJdW0NIMl1PW0NIMl0y

> <s_epik_cmdline>
J2VwaWtfcHl0aG9uJywgJy1waCcsICc3LjAnLCAnLXRuJywgJzgnLCAnLW1hJywgJzIwMCcsICctbWV0YWxfYmluZGluZycsICctaW1hZScsICc8aW5maWxlLm1hZT4nLCAnLW9tYWUnLCAnPG91dGZpbGUubWFlPic=

> <r_lp_tautomer_probability>
1

> <r_epik_Ionization_Penalty>
1.24495

> <r_epik_Ionization_Penalty_Charging>
0

> <r_epik_Ionization_Penalty_Neutral>
1.24495

> <r_epik_State_Penalty>
1.3141

> <r_epik_Charging_Adjusted_Penalty>
1.3141

> <i_epik_Tot_Q>
0

> <i_epik_Tot_abs_Q>
0

> <r_epik_Metal_State_Penalty>
1.31398

> <b_epik_Metal_Only>
0

> <s_lp_Force_Field>
OPLS_2005

> <r_lp_Energy>
14.7712

> <b_lp_Chiralities_Consistent>
1

> <s_lp_Variant>
AV-unprocessed.smi:3091-3

> <Gold.Version>
5.8.1

> <Gold.Id.Protein>
6NUR|6NUR_protein|mol2

> <Gold.PLP.Fitness>
40.2055

> <Gold.PLP.PLP>
-31.8621

> <Gold.PLP.part.hbond>
-2.9804

> <Gold.PLP.part.metal>
0.0000

> <Gold.PLP.part.buried>
-4.1664

> <Gold.PLP.part.nonpolar>
-24.3774

> <Gold.PLP.part.repulsive>
0.0722

> <Gold.PLP.ligand.clash>
0.0000

> <Gold.PLP.ligand.torsion>
0.3168

> <Gold.PLP.Chemscore.Hbond>
2.9840

> <Gold.PLP.Chemscore.CHOScore>
0.0000

> <Gold.PLP.Chemscore.Metal>
0.0000

> <Gold.Chemscore.Hbonds>
donor molecule, donor type, donor heavy atom, donor atom, acceptor molecule, acceptor atom, score
      L1  H     1    15       P1  8029  1.00
      P1  H  7989  7998       L1    12  0.83
      P1  H  7997  8009       L1     8  0.96

> <Gold.PLP.Chemscore.Internal.Correction>
0.0252

> <Gold.Rescore>
     Score         DG    S(hbond)    S(metal)    S(lipo)     H(rot)  DE(clash)    DE(int)     intcor
     18.17     -19.43       2.57        0.00      79.75       1.54       0.00       1.26       ----

> <Gold.Chemscore.Fitness>
18.1746

> <Gold.Chemscore.DG>
-19.4307

> <Gold.Chemscore.ZeroCoef>
-5.4800

> <Gold.Chemscore.Hbond>
2.5655

> <Gold.Chemscore.Metal>
0.0000

> <Gold.Chemscore.Lipo>
79.7497

> <Gold.Chemscore.Internal_Hbond>
0.0000

> <Gold.Chemscore.DEClash>
0.0004

> <Gold.Chemscore.DEInternal>
1.2557

> <Gold.Chemscore.Rot>
1.5424

> <Gold.Chemscore.Internal.Correction>
   9.000000E+99

> <Gold.Chemscore.Hbonds>
donor molecule, donor type, donor heavy atom, donor atom, acceptor molecule, acceptor atom, score
      L1  H     1    15       P1  8029  0.47
      P1  H  7989  7998       L1    12  0.70
      P1  H  7997  8009       L1     8  0.81

> <Gold.Chemscore.Hbond.Weighted>
-8.5686

> <Gold.Chemscore.Metal.Weighted>
-0.0000

> <Gold.Chemscore.Lipo.Weighted>
-9.3307

> <Gold.Chemscore.Internal_Hbond.Weighted>
0.0000

> <Gold.Chemscore.DEClash.Weighted>
0.0004

> <Gold.Chemscore.DEInternal.Weighted>
1.2557

> <Gold.Chemscore.Rot.Weighted>
3.9487

> <Gold.Chemscore.Internal.Correction.Weighted>
   9.000000E+99

> <Gold.Protein.RotatedTorsions>
[ 6907 6896 6895 6894 ] final -134.62 input  -60.11 | X-H torsion
[ 7974 7965 7964 7962 ] final  -30.44 input  175.53 | X-H torsion
[ 8008 7997 7996 7995 ] final  172.49 input   59.86 | X-H torsion
[ 10167 10162 10161 10158 ] final -142.49 input  -65.29 | X-H torsion
[ 10718 10713 10712 10709 ] final  136.38 input   66.30 | X-H torsion
[ 10763 10752 10751 10750 ] final  167.62 input  -60.55 | X-H torsion
[ 11005 11000 10999 10996 ] final  170.96 input  -57.11 | X-H torsion

> <Gold.Protein.ActiveResidues>
 VAL166  LYS551  ARG553  GLY616  TRP617  ASP618  TYR619  PRO620  LYS621  CYS622 
 ASP623  PHE694  ASN695  SER759  ASP760  ASP761  ALA762  ILE779  LEU786  VAL792 
 PHE793  MET794  SER795  GLU796  ALA797  LYS798  CYS799  TRP800  GLU811  SER814 

> <Gold.Protein.RotatedAtoms>
  150.9880  133.6178  159.2712 H   0  0  0  0  0  0  0  0  0  0  0  0  # atno 6907 bound_to 6896
  151.3409  135.0862  159.9380 H   0  0  0  0  0  0  0  0  0  0  0  0  # atno 6908 bound_to 6896
  152.5237  133.9492  159.7718 H   0  0  0  0  0  0  0  0  0  0  0  0  # atno 6909 bound_to 6896
  146.1142  140.5541  142.8764 H   0  0  0  0  0  0  0  0  0  0  0  0  # atno 7974 bound_to 7965
  156.1169  140.1484  156.9260 H   0  0  0  0  0  0  0  0  0  0  0  0  # atno 8008 bound_to 7997
  154.4807  140.0880  156.7412 H   0  0  0  0  0  0  0  0  0  0  0  0  # atno 8009 bound_to 7997
  155.4498  140.3434  155.4301 H   0  0  0  0  0  0  0  0  0  0  0  0  # atno 8010 bound_to 7997
  139.8083  143.7738  152.2662 H   0  0  0  0  0  0  0  0  0  0  0  0  # atno 10167 bound_to 10162
  157.4473  131.1063  151.0075 H   0  0  0  0  0  0  0  0  0  0  0  0  # atno 10718 bound_to 10713
  154.3565  135.2753  155.2343 H   0  0  0  0  0  0  0  0  0  0  0  0  # atno 10763 bound_to 10752
  154.4550  135.5921  153.6220 H   0  0  0  0  0  0  0  0  0  0  0  0  # atno 10764 bound_to 10752
  152.9846  135.6051  154.3781 H   0  0  0  0  0  0  0  0  0  0  0  0  # atno 10765 bound_to 10752
  140.3139  134.7493  157.4013 H   0  0  0  0  0  0  0  0  0  0  0  0  # atno 11005 bound_to 11000
  144.7538  140.5258  143.6783 LP  0  0  0  0  0  0  0  0  0  0  0  0  # atno 17320 bound_to 7965
  145.5600  139.1479  143.3346 LP  0  0  0  0  0  0  0  0  0  0  0  0  # atno 17321 bound_to 7965
  139.7879  144.7421  150.9996 LP  0  0  0  0  0  0  0  0  0  0  0  0  # atno 17342 bound_to 10162
  140.7818  143.4473  151.0464 LP  0  0  0  0  0  0  0  0  0  0  0  0  # atno 17343 bound_to 10162
  157.0917  130.5945  149.5441 LP  0  0  0  0  0  0  0  0  0  0  0  0  # atno 17370 bound_to 10713
  155.9972  130.5043  150.7527 LP  0  0  0  0  0  0  0  0  0  0  0  0  # atno 17371 bound_to 10713
  140.1000  134.5485  155.8362 LP  0  0  0  0  0  0  0  0  0  0  0  0  # atno 17394 bound_to 11000
  141.2102  133.6692  156.6492 LP  0  0  0  0  0  0  0  0  0  0  0  0  # atno 17395 bound_to 11000

$$$$
