#       Name:                AV-unprocessed.smi:3051
#       Creating user name   scv26
#       Creation time:       Fri Mar 27 17:02:39 2020


#       File generated by GOLD software.
#

@<TRIPOS>MOLECULE
AV-unprocessed.smi:3051
    42    42     1
SMALL
NO_CHARGES


@<TRIPOS>ATOM
      1 ****        -3.3389   3.0102   3.2940 C.3            1 S1                 0.0000
      2 ****        -2.5033   1.7388   3.0962 C.3            1 S1                 0.0000
      3 ****        -2.4027   1.3769   1.6878 N.am           1 S1                 0.0000
      4 ****        -3.3284   0.6946   0.9952 C.2            1 S1                 0.0000
      5 ****        -4.3896   0.3041   1.4812 O.2            1 S1                 0.0000
      6 ****        -3.0094   0.4093  -0.4734 C.3            1 S1                 0.0000
      7 ****        -1.9821  -0.6092  -0.5976 N.pl3          1 S1                 0.0000
      8 ****        -2.1335  -1.9820  -0.6183 C.2            1 S1                 0.0000
      9 ****        -0.8873  -2.5308  -0.7293 C.2            1 S1                 0.0000
     10 ****        -0.0333  -1.3950  -0.7655 C.2            1 S1                 0.0000
     11 ****         1.3583  -1.5154  -0.8621 N.pl3          1 S1                 0.0000
     12 ****         1.9916  -2.8276  -0.9300 C.3            1 S1                 0.0000
     13 ****         1.8514  -3.4320  -2.3376 C.3            1 S1                 0.0000
     14 ****         3.4701  -2.7245  -0.5252 C.3            1 S1                 0.0000
     15 ****         3.5590  -2.4143   0.8560 O.3            1 S1                 0.0000
     16 ****         4.8991  -2.3115   1.3039 C.3            1 S1                 0.0000
     17 ****        -0.6846  -0.2442  -0.6952 N.2            1 S1                 0.0000
     18 ****        -3.3778   3.2867   4.3477 H              1 S1                 0.0000
     19 ****        -4.3645   2.8694   2.9514 H              1 S1                 0.0000
     20 ****        -2.9136   3.8511   2.7453 H              1 S1                 0.0000
     21 ****        -1.4949   1.8988   3.4779 H              1 S1                 0.0000
     22 ****        -2.9254   0.9131   3.6712 H              1 S1                 0.0000
     23 ****        -1.5597   1.6527   1.2044 H              1 S1                 0.0000
     24 ****        -3.9066   0.0677  -0.9916 H              1 S1                 0.0000
     25 ****        -2.6800   1.3235  -0.9701 H              1 S1                 0.0000
     26 ****        -3.1054  -2.4479  -0.5482 H              1 S1                 0.0000
     27 ****        -0.6293  -3.5787  -0.7709 H              1 S1                 0.0000
     28 ****         1.9374  -0.6888  -0.8965 H              1 S1                 0.0000
     29 ****         1.4964  -3.4927  -0.2212 H              1 S1                 0.0000
     30 ****         2.3060  -4.4219  -2.3846 H              1 S1                 0.0000
     31 ****         2.3381  -2.8074  -3.0875 H              1 S1                 0.0000
     32 ****         0.8061  -3.5430  -2.6263 H              1 S1                 0.0000
     33 ****         3.9701  -3.6775  -0.7063 H              1 S1                 0.0000
     34 ****         3.9826  -1.9700  -1.1248 H              1 S1                 0.0000
     35 ****         4.9130  -2.0656   2.3656 H              1 S1                 0.0000
     36 ****         5.4347  -1.5256   0.7696 H              1 S1                 0.0000
     37 ****         5.4330  -3.2531   1.1696 H              1 S1                 0.0000
     38 ****        -4.5989   0.4914   2.4410 LP             1 S1                 0.0000
     39 ****        -5.0425  -0.2005   0.9164 LP             1 S1                 0.0000
     40 ****         3.1013  -3.1350   1.3767 LP             1 S1                 0.0000
     41 ****         3.0985  -1.5417   1.0190 LP             1 S1                 0.0000
     42 ****        -0.3044   0.6806  -0.7107 LP             1 S1                 0.0000
@<TRIPOS>BOND
    1    1    2 1     
    2    1   18 1     
    3    1   19 1     
    4    1   20 1     
    5    2    3 1     
    6    2   21 1     
    7    2   22 1     
    8    3    4 am    
    9    3   23 1     
   10    4    5 2     
   11    4    6 1     
   12    6    7 1     
   13    6   24 1     
   14    6   25 1     
   15    7   17 1     
   16    7    8 1     
   17    8    9 2     
   18    8   26 1     
   19    9   10 1     
   20    9   27 1     
   21   10   11 1     
   22   10   17 2     
   23   11   12 1     
   24   11   28 1     
   25   12   13 1     
   26   12   14 1     
   27   12   29 1     
   28   13   30 1     
   29   13   31 1     
   30   13   32 1     
   31   14   15 1     
   32   14   33 1     
   33   14   34 1     
   34   15   16 1     
   35   16   35 1     
   36   16   36 1     
   37   16   37 1     
   38    5   38 1     
   39    5   39 1     
   40   15   40 1     
   41   15   41 1     
   42   17   42 1     
@<TRIPOS>SUBSTRUCTURE
      1 S1             1
@<TRIPOS>SET
LONE_PAIRS      STATIC     ATOMS    <user>   **** ""
5 38 39 40 41 42
DONOR_HYDROGENS      STATIC     ATOMS    <user>   **** ""
2 23 28
ATOM$BLUE        STATIC     ATOMS    COLORGROUP SYSTEM
5 38 39 40 41 42
ATOM$RED        STATIC     ATOMS    COLORGROUP SYSTEM
2 23 28
