#       Name:                AV-unprocessed.smi:415
#       Creating user name   scv26
#       Creation time:       Thu Mar 26 22:47:59 2020


#       File generated by GOLD software.
#

@<TRIPOS>MOLECULE
AV-unprocessed.smi:415
    61    62     1
SMALL
NO_CHARGES


@<TRIPOS>ATOM
      1 ****        -3.3100  -2.3019  -0.2844 C.3            1 S1                 0.0000
      2 ****        -3.6042  -1.0420   0.2980 O.3            1 S1                 0.0000
      3 ****        -4.7441  -0.4008  -0.2577 C.3            1 S1                 0.0000
      4 ****        -4.4268   0.3313  -1.5777 C.3            1 S1                 0.0000
      5 ****        -3.5441   1.4684  -1.3950 N.am           1 S1                 0.0000
      6 ****        -4.0002   2.7264  -1.0106 C.2            1 S1                 0.0000
      7 ****        -5.3541   2.9318  -0.8131 N.pl3          1 S1                 0.0000
      8 ****        -3.1474   3.7559  -0.8131 C.2            1 S1                 0.0000
      9 ****        -1.7092   3.6072  -0.9840 C.2            1 S1                 0.0000
     10 ****        -0.9155   4.5299  -0.7975 O.2            1 S1                 0.0000
     11 ****        -1.2670   2.3212  -1.3699 N.am           1 S1                 0.0000
     12 ****         0.1850   2.0819  -1.5230 C.3            1 S1                 0.0000
     13 ****         0.8391   1.5063  -0.2579 C.2            1 S1                 0.0000
     14 ****         0.2918   1.6070   0.8412 O.2            1 S1                 0.0000
     15 ****         2.0232   0.9023  -0.4356 N.am           1 S1                 0.0000
     16 ****         2.8055   0.2517   0.6126 C.3            1 S1                 0.0000
     17 ****         4.2898   0.2045   0.2013 C.3            1 S1                 0.0000
     18 ****         5.1500  -0.4503   1.2923 C.3            1 S1                 0.0000
     19 ****         4.6238  -1.8454   1.6646 C.3            1 S1                 0.0000
     20 ****         3.1375  -1.7964   2.0727 C.3            1 S1                 0.0000
     21 ****         2.6300  -3.1678   2.5483 C.3            1 S1                 0.0000
     22 ****         2.2599  -1.1612   0.9613 C.3            1 S1                 0.0000
     23 ****         2.0798  -2.0685  -0.2787 C.3            1 S1                 0.0000
     24 ****        -2.1549   1.2394  -1.5702 C.2            1 S1                 0.0000
     25 ****        -1.7160   0.1285  -1.8807 O.2            1 S1                 0.0000
     26 ****        -2.4164  -2.7167   0.1818 H              1 S1                 0.0000
     27 ****        -3.1208  -2.2232  -1.3547 H              1 S1                 0.0000
     28 ****        -4.1271  -3.0068  -0.1266 H              1 S1                 0.0000
     29 ****        -5.5515  -1.1199  -0.4039 H              1 S1                 0.0000
     30 ****        -5.1114   0.3182   0.4750 H              1 S1                 0.0000
     31 ****        -4.0133  -0.3242  -2.3447 H              1 S1                 0.0000
     32 ****        -5.3387   0.7280  -2.0235 H              1 S1                 0.0000
     33 ****        -6.0284   2.1906  -0.9402 H              1 S1                 0.0000
     34 ****        -5.7302   3.8485  -0.6183 H              1 S1                 0.0000
     35 ****        -3.5333   4.7198  -0.5131 H              1 S1                 0.0000
     36 ****         0.3720   1.4065  -2.3599 H              1 S1                 0.0000
     37 ****         0.7185   2.9932  -1.7964 H              1 S1                 0.0000
     38 ****         2.4023   0.8707  -1.3707 H              1 S1                 0.0000
     39 ****         2.7414   0.8712   1.5096 H              1 S1                 0.0000
     40 ****         4.4060  -0.3430  -0.7346 H              1 S1                 0.0000
     41 ****         4.6549   1.2146   0.0113 H              1 S1                 0.0000
     42 ****         6.1855  -0.5194   0.9582 H              1 S1                 0.0000
     43 ****         5.1547   0.1845   2.1794 H              1 S1                 0.0000
     44 ****         4.7624  -2.5276   0.8254 H              1 S1                 0.0000
     45 ****         5.2204  -2.2475   2.4841 H              1 S1                 0.0000
     46 ****         3.0702  -1.1357   2.9386 H              1 S1                 0.0000
     47 ****         2.7492  -3.9333   1.7817 H              1 S1                 0.0000
     48 ****         1.5751  -3.1242   2.8208 H              1 S1                 0.0000
     49 ****         3.1819  -3.5014   3.4275 H              1 S1                 0.0000
     50 ****         1.2633  -1.0262   1.3846 H              1 S1                 0.0000
     51 ****         3.0288  -2.2928  -0.7642 H              1 S1                 0.0000
     52 ****         1.4320  -1.6068  -1.0238 H              1 S1                 0.0000
     53 ****         1.6113  -3.0161  -0.0152 H              1 S1                 0.0000
     54 ****        -2.8131  -0.4438   0.1698 LP             1 S1                 0.0000
     55 ****        -3.7648  -1.1773   1.2757 LP             1 S1                 0.0000
     56 ****        -1.2510   5.4289  -0.5160 LP             1 S1                 0.0000
     57 ****         0.0647   4.3803  -0.9274 LP             1 S1                 0.0000
     58 ****        -0.5916   2.0690   0.9194 LP             1 S1                 0.0000
     59 ****         0.7310   1.2268   1.6552 LP             1 S1                 0.0000
     60 ****        -2.3444  -0.6377  -2.0151 LP             1 S1                 0.0000
     61 ****        -0.7319  -0.0055  -1.9978 LP             1 S1                 0.0000
@<TRIPOS>BOND
    1    1    2 1     
    2    1   26 1     
    3    1   27 1     
    4    1   28 1     
    5    2    3 1     
    6    3    4 1     
    7    3   29 1     
    8    3   30 1     
    9    4    5 1     
   10    4   31 1     
   11    4   32 1     
   12    5   24 am    
   13    5    6 1     
   14    6    7 1     
   15    6    8 2     
   16    7   33 1     
   17    7   34 1     
   18    8    9 1     
   19    8   35 1     
   20    9   10 2     
   21    9   11 am    
   22   11   12 1     
   23   11   24 am    
   24   12   13 1     
   25   12   36 1     
   26   12   37 1     
   27   13   14 2     
   28   13   15 am    
   29   15   16 1     
   30   15   38 1     
   31   16   22 1     
   32   16   17 1     
   33   16   39 1     
   34   17   18 1     
   35   17   40 1     
   36   17   41 1     
   37   18   19 1     
   38   18   42 1     
   39   18   43 1     
   40   19   20 1     
   41   19   44 1     
   42   19   45 1     
   43   20   21 1     
   44   20   22 1     
   45   20   46 1     
   46   21   47 1     
   47   21   48 1     
   48   21   49 1     
   49   22   23 1     
   50   22   50 1     
   51   23   51 1     
   52   23   52 1     
   53   23   53 1     
   54   24   25 2     
   55    2   54 1     
   56    2   55 1     
   57   10   56 1     
   58   10   57 1     
   59   14   58 1     
   60   14   59 1     
   61   25   60 1     
   62   25   61 1     
@<TRIPOS>SUBSTRUCTURE
      1 S1             1
@<TRIPOS>SET
LONE_PAIRS      STATIC     ATOMS    <user>   **** ""
8 54 55 56 57 58 59 60 61
DONOR_HYDROGENS      STATIC     ATOMS    <user>   **** ""
3 33 34 38
ATOM$BLUE        STATIC     ATOMS    COLORGROUP SYSTEM
8 54 55 56 57 58 59 60 61
ATOM$RED        STATIC     ATOMS    COLORGROUP SYSTEM
3 33 34 38
