AV-unprocessed.smi:249|AV-procd|sdf|1898|dock2
  -GOLD-   2262020573D 1   1.00000     0.00000
 Structure written by MMmdl.
 64 67  0  0  0  0  0  0  0  0  2 V2000
  145.0499  133.4832  162.0978 C   0  0  0  0  0  0  0  0  0  0  0  0
  144.9230  135.0038  161.9093 C   0  0  0  0  0  0  0  0  0  0  0  0
  145.9641  135.5809  161.0099 N   0  3  2  0  0  0  0  0  0  0  0  0
  145.9853  134.9046  159.6806 C   0  0  0  0  0  0  0  0  0  0  0  0
  146.9586  135.5775  158.7039 C   0  0  0  0  0  0  0  0  0  0  0  0
  148.3815  135.5970  159.2851 C   0  0  1  0  0  0  0  0  0  0  0  0
  149.3813  136.1533  158.3632 N   0  0  0  0  0  0  0  0  0  0  0  0
  149.7369  135.3498  157.1988 C   0  0  0  0  0  0  0  0  0  0  0  0
  149.3271  137.4828  158.1102 C   0  0  0  0  0  0  0  0  0  0  0  0
  148.1489  138.0555  157.7485 N   0  0  0  0  0  0  0  0  0  0  0  0
  148.0907  139.3687  157.5060 C   0  0  0  0  0  0  0  0  0  0  0  0
  149.0711  140.2724  157.5645 N   0  0  0  0  0  0  0  0  0  0  0  0
  150.2563  139.6973  157.9180 C   0  0  0  0  0  0  0  0  0  0  0  0
  150.4707  138.3204  158.2036 C   0  0  0  0  0  0  0  0  0  0  0  0
  151.8050  138.1010  158.5227 N   0  0  0  0  0  0  0  0  0  0  0  0
  152.3499  139.2838  158.4334 C   0  0  0  0  0  0  0  0  0  0  0  0
  151.4903  140.3009  158.0841 N   0  0  0  0  0  0  0  0  0  0  0  0
  151.8311  141.7032  157.9191 C   0  0  0  0  0  0  0  0  0  0  0  0
  151.4157  142.5793  159.1269 C   0  0  2  0  0  0  0  0  0  0  0  0
  150.9397  143.9925  158.7091 C   0  0  0  0  0  0  0  0  0  0  0  0
  149.6171  143.9677  158.2129 O   0  0  0  0  0  0  0  0  0  0  0  0
  152.5295  142.6310  160.2031 C   0  0  2  0  0  0  0  0  0  0  0  0
  153.0589  141.2765  160.6404 C   0  0  0  0  0  0  0  0  0  0  0  0
  153.7418  141.6138  161.9604 C   0  0  0  0  0  0  0  0  0  0  0  0
  152.9589  142.6524  162.5361 O   0  0  0  0  0  0  0  0  0  0  0  0
  152.0908  143.2094  161.5535 C   0  0  0  0  0  0  0  0  0  0  0  0
  148.3373  136.2995  160.6540 C   0  0  0  0  0  0  0  0  0  0  0  0
  147.3337  135.6329  161.6191 C   0  0  1  0  0  0  0  0  0  0  0  0
  147.3758  136.3863  162.9652 C   0  0  0  0  0  0  0  0  0  0  0  0
  144.1761  133.0918  162.6194 H   0  0  0  0  0  0  0  0  0  0  0  0
  145.9191  133.2084  162.6944 H   0  0  0  0  0  0  0  0  0  0  0  0
  145.1164  132.9694  161.1383 H   0  0  0  0  0  0  0  0  0  0  0  0
  143.9312  135.1657  161.4937 H   0  0  0  0  0  0  0  0  0  0  0  0
  144.9420  135.5105  162.8752 H   0  0  0  0  0  0  0  0  0  0  0  0
  146.2520  133.8543  159.8102 H   0  0  0  0  0  0  0  0  0  0  0  0
  144.9984  134.9231  159.2218 H   0  0  0  0  0  0  0  0  0  0  0  0
  146.9400  135.0409  157.7553 H   0  0  0  0  0  0  0  0  0  0  0  0
  146.6151  136.5915  158.4960 H   0  0  0  0  0  0  0  0  0  0  0  0
  148.6826  134.5635  159.4619 H   0  0  0  0  0  0  0  0  0  0  0  0
  150.6282  135.7493  156.7134 H   0  0  0  0  0  0  0  0  0  0  0  0
  148.9293  135.3283  156.4666 H   0  0  0  0  0  0  0  0  0  0  0  0
  149.9523  134.3237  157.4973 H   0  0  0  0  0  0  0  0  0  0  0  0
  147.1204  139.7502  157.2241 H   0  0  0  0  0  0  0  0  0  0  0  0
  153.4001  139.4503  158.6254 H   0  0  0  0  0  0  0  0  0  0  0  0
  152.9075  141.7606  157.7561 H   0  0  0  0  0  0  0  0  0  0  0  0
  151.3630  142.0725  157.0059 H   0  0  0  0  0  0  0  0  0  0  0  0
  150.5531  142.0920  159.5842 H   0  0  0  0  0  0  0  0  0  0  0  0
  150.9866  144.6873  159.5476 H   0  0  0  0  0  0  0  0  0  0  0  0
  151.5909  144.4088  157.9405 H   0  0  0  0  0  0  0  0  0  0  0  0
  149.3669  144.8475  157.9755 H   0  0  0  0  0  0  0  0  0  0  0  0
  153.3699  143.2193  159.8306 H   0  0  0  0  0  0  0  0  0  0  0  0
  152.2364  140.5801  160.8107 H   0  0  0  0  0  0  0  0  0  0  0  0
  153.7444  140.8275  159.9209 H   0  0  0  0  0  0  0  0  0  0  0  0
  153.8177  140.7533  162.6254 H   0  0  0  0  0  0  0  0  0  0  0  0
  154.7480  141.9951  161.7812 H   0  0  0  0  0  0  0  0  0  0  0  0
  152.1302  144.2988  161.5702 H   0  0  0  0  0  0  0  0  0  0  0  0
  151.0706  142.9061  161.7926 H   0  0  0  0  0  0  0  0  0  0  0  0
  149.3336  136.2840  161.0975 H   0  0  0  0  0  0  0  0  0  0  0  0
  148.0655  137.3495  160.5335 H   0  0  0  0  0  0  0  0  0  0  0  0
  147.6616  134.6071  161.7961 H   0  0  0  0  0  0  0  0  0  0  0  0
  148.4048  136.5425  163.2913 H   0  0  0  0  0  0  0  0  0  0  0  0
  146.8893  135.8330  163.7676 H   0  0  0  0  0  0  0  0  0  0  0  0
  146.9058  137.3674  162.8883 H   0  0  0  0  0  0  0  0  0  0  0  0
  145.6939  136.5396  160.8421 H   0  0  0  0  0  0  0  0  0  0  0  0
  1  2  1  0  0  0  0
  1 30  1  0  0  0  0
  1 31  1  0  0  0  0
  1 32  1  0  0  0  0
  2  3  1  0  0  0  0
  2 33  1  0  0  0  0
  2 34  1  0  0  0  0
  3 28  1  0  0  0  0
  3  4  1  0  0  0  0
  3 64  1  0  0  0  0
  4  5  1  0  0  0  0
  4 35  1  0  0  0  0
  4 36  1  0  0  0  0
  5  6  1  0  0  0  0
  5 37  1  0  0  0  0
  5 38  1  0  0  0  0
  6  7  1  0  0  0  0
  6 27  1  0  0  0  0
  6 39  1  0  0  0  0
  7  8  1  0  0  0  0
  7  9  1  0  0  0  0
  8 40  1  0  0  0  0
  8 41  1  0  0  0  0
  8 42  1  0  0  0  0
  9 14  1  0  0  0  0
  9 10  2  0  0  0  0
 10 11  1  0  0  0  0
 11 12  2  0  0  0  0
 11 43  1  0  0  0  0
 12 13  1  0  0  0  0
 13 17  1  0  0  0  0
 13 14  2  0  0  0  0
 14 15  1  0  0  0  0
 15 16  2  0  0  0  0
 16 17  1  0  0  0  0
 16 44  1  0  0  0  0
 17 18  1  0  0  0  0
 18 19  1  0  0  0  0
 18 45  1  0  0  0  0
 18 46  1  0  0  0  0
 19 20  1  0  0  0  0
 19 22  1  0  0  0  0
 19 47  1  0  0  0  0
 20 21  1  0  0  0  0
 20 48  1  0  0  0  0
 20 49  1  0  0  0  0
 21 50  1  0  0  0  0
 22 26  1  0  0  0  0
 22 23  1  0  0  0  0
 22 51  1  0  0  0  0
 23 24  1  0  0  0  0
 23 52  1  0  0  0  0
 23 53  1  0  0  0  0
 24 25  1  0  0  0  0
 24 54  1  0  0  0  0
 24 55  1  0  0  0  0
 25 26  1  0  0  0  0
 26 56  1  0  0  0  0
 26 57  1  0  0  0  0
 27 28  1  0  0  0  0
 27 58  1  0  0  0  0
 27 59  1  0  0  0  0
 28 29  1  0  0  0  0
 28 60  1  0  0  0  0
 29 61  1  0  0  0  0
 29 62  1  0  0  0  0
 29 63  1  0  0  0  0
M  CHG  1   3   1
M  END
> <s_m_source_file>
AV-unprocessed.smi

> <i_m_source_file_index>
249

> <i_lp_mmshare_version>
43012

> <i_f3d_flags>
0

> <s_epik_input>
W0NIM11bQ0gyXU4xW0NIMl1bQ0gyXVtDQEhdKFtDSDJdW0NASF0xW0NIM10pTihbQ0gzXSljKG5bY0hdbjIpYyhjMjMpbltjSF1uM1tDSDJdW0NASF0oW0NIMl1bT0hdKVtDQEBIXTRbQ0gyXVtDSDJdT1tDSDJdNA==

> <s_epik_cmdline>
J2VwaWtfcHl0aG9uJywgJy1waCcsICc3LjAnLCAnLXRuJywgJzgnLCAnLW1hJywgJzIwMCcsICctbWV0YWxfYmluZGluZycsICctaW1hZScsICc8aW5maWxlLm1hZT4nLCAnLW9tYWUnLCAnPG91dGZpbGUubWFlPic=

> <r_lp_tautomer_probability>
1

> <r_epik_Ionization_Penalty>
0.00294688

> <r_epik_Ionization_Penalty_Charging>
0.00169971

> <r_epik_Ionization_Penalty_Neutral>
0.00124717

> <r_epik_State_Penalty>
-0

> <r_epik_Charging_Adjusted_Penalty>
0.00169971

> <i_epik_Tot_Q>
1

> <i_epik_Tot_abs_Q>
1

> <r_epik_Metal_State_Penalty>
-0

> <b_epik_Metal_Only>
0

> <s_lp_Force_Field>
OPLS_2005

> <r_lp_Energy>
53.6814

> <b_lp_Chiralities_Consistent>
1

> <s_lp_Variant>
AV-unprocessed.smi:249-1

> <Gold.Version>
5.8.1

> <Gold.Id.Protein>
6NUR|6NUR_protein|mol2

> <Gold.PLP.Fitness>
48.9082

> <Gold.PLP.PLP>
-48.1382

> <Gold.PLP.part.hbond>
-2.1657

> <Gold.PLP.part.metal>
0.0000

> <Gold.PLP.part.buried>
-6.1193

> <Gold.PLP.part.nonpolar>
-39.4118

> <Gold.PLP.part.repulsive>
0.0923

> <Gold.PLP.ligand.clash>
0.0000

> <Gold.PLP.ligand.torsion>
1.5814

> <Gold.PLP.Chemscore.Hbond>
0.8906

> <Gold.PLP.Chemscore.CHOScore>
0.0000

> <Gold.PLP.Chemscore.Metal>
0.0000

> <Gold.Chemscore.Hbonds>
donor molecule, donor type, donor heavy atom, donor atom, acceptor molecule, acceptor atom, score
      L1  H    21    50       P1  8029  0.72

> <Gold.PLP.Chemscore.Internal.Correction>
1.2608

> <Gold.Rescore>
     Score         DG    S(hbond)    S(metal)    S(lipo)     H(rot)  DE(clash)    DE(int)     intcor
     11.95     -15.15       0.74        0.00     125.03       2.90       0.07       3.13       ----

> <Gold.Chemscore.Fitness>
11.9538

> <Gold.Chemscore.DG>
-15.1549

> <Gold.Chemscore.ZeroCoef>
-5.4800

> <Gold.Chemscore.Hbond>
0.7402

> <Gold.Chemscore.Metal>
0.0000

> <Gold.Chemscore.Lipo>
125.0268

> <Gold.Chemscore.Internal_Hbond>
0.0000

> <Gold.Chemscore.DEClash>
0.0732

> <Gold.Chemscore.DEInternal>
3.1279

> <Gold.Chemscore.Rot>
2.9006

> <Gold.Chemscore.Internal.Correction>
   9.000000E+99

> <Gold.Chemscore.Hbonds>
donor molecule, donor type, donor heavy atom, donor atom, acceptor molecule, acceptor atom, score
      L1  H    21    50       P1  8029  0.10

> <Gold.Chemscore.Hbond.Weighted>
-2.4724

> <Gold.Chemscore.Metal.Weighted>
-0.0000

> <Gold.Chemscore.Lipo.Weighted>
-14.6281

> <Gold.Chemscore.Internal_Hbond.Weighted>
0.0000

> <Gold.Chemscore.DEClash.Weighted>
0.0732

> <Gold.Chemscore.DEInternal.Weighted>
3.1279

> <Gold.Chemscore.Rot.Weighted>
7.4256

> <Gold.Chemscore.Internal.Correction.Weighted>
   9.000000E+99

> <Gold.Protein.RotatedTorsions>
[ 6907 6896 6895 6894 ] final   83.19 input  -60.11 | X-H torsion
[ 7974 7965 7964 7962 ] final   76.38 input  175.53 | X-H torsion
[ 8008 7997 7996 7995 ] final  -22.04 input   59.86 | X-H torsion
[ 10167 10162 10161 10158 ] final -164.87 input  -65.29 | X-H torsion
[ 10718 10713 10712 10709 ] final -135.94 input   66.30 | X-H torsion
[ 10763 10752 10751 10750 ] final  -16.69 input  -60.55 | X-H torsion
[ 11005 11000 10999 10996 ] final  135.26 input  -57.11 | X-H torsion

> <Gold.Protein.ActiveResidues>
 VAL166  LYS551  ARG553  GLY616  TRP617  ASP618  TYR619  PRO620  LYS621  CYS622 
 ASP623  PHE694  ASN695  SER759  ASP760  ASP761  ALA762  ILE779  LEU786  VAL792 
 PHE793  MET794  SER795  GLU796  ALA797  LYS798  CYS799  TRP800  GLU811  SER814 

> <Gold.Protein.RotatedAtoms>
  152.5320  134.2934  159.9051 H   0  0  0  0  0  0  0  0  0  0  0  0  # atno 6907 bound_to 6896
  151.2886  133.4169  159.2639 H   0  0  0  0  0  0  0  0  0  0  0  0  # atno 6908 bound_to 6896
  151.0221  134.9492  159.8122 H   0  0  0  0  0  0  0  0  0  0  0  0  # atno 6909 bound_to 6896
  145.7035  139.2591  143.1691 H   0  0  0  0  0  0  0  0  0  0  0  0  # atno 7974 bound_to 7965
  154.4668  140.2018  156.0096 H   0  0  0  0  0  0  0  0  0  0  0  0  # atno 8008 bound_to 7997
  156.0942  140.3253  155.7826 H   0  0  0  0  0  0  0  0  0  0  0  0  # atno 8009 bound_to 7997
  155.4906  140.0546  157.2945 H   0  0  0  0  0  0  0  0  0  0  0  0  # atno 8010 bound_to 7997
  139.6221  144.0604  152.1942 H   0  0  0  0  0  0  0  0  0  0  0  0  # atno 10167 bound_to 10162
  156.2716  130.7269  151.1238 H   0  0  0  0  0  0  0  0  0  0  0  0  # atno 10718 bound_to 10713
  153.5624  135.7009  153.5541 H   0  0  0  0  0  0  0  0  0  0  0  0  # atno 10763 bound_to 10752
  153.3417  135.4019  155.1577 H   0  0  0  0  0  0  0  0  0  0  0  0  # atno 10764 bound_to 10752
  154.8646  135.3744  154.5142 H   0  0  0  0  0  0  0  0  0  0  0  0  # atno 10765 bound_to 10752
  139.9968  134.9494  156.9983 H   0  0  0  0  0  0  0  0  0  0  0  0  # atno 11005 bound_to 11000
  146.0776  140.7800  142.9657 LP  0  0  0  0  0  0  0  0  0  0  0  0  # atno 17320 bound_to 7965
  144.6962  140.3439  143.7194 LP  0  0  0  0  0  0  0  0  0  0  0  0  # atno 17321 bound_to 7965
  140.0249  144.6125  150.7536 LP  0  0  0  0  0  0  0  0  0  0  0  0  # atno 17342 bound_to 10162
  140.7388  143.2783  151.3674 LP  0  0  0  0  0  0  0  0  0  0  0  0  # atno 17343 bound_to 10162
  157.7286  131.0631  150.5814 LP  0  0  0  0  0  0  0  0  0  0  0  0  # atno 17370 bound_to 10713
  156.5911  130.4329  149.5936 LP  0  0  0  0  0  0  0  0  0  0  0  0  # atno 17371 bound_to 10713
  140.4802  134.1297  155.7216 LP  0  0  0  0  0  0  0  0  0  0  0  0  # atno 17394 bound_to 11000
  141.1611  133.8791  157.1845 LP  0  0  0  0  0  0  0  0  0  0  0  0  # atno 17395 bound_to 11000

$$$$
