AV-unprocessed.smi:2467|AV-procd|sdf|9725|dock4
  -GOLD-   2272013363D 1   1.00000     0.00000
 Structure written by MMmdl.
 46 47  0  0  0  0  0  0  0  0  1 V2000
  151.6462  138.1128  154.3964 C   0  0  0  0  0  0  0  0  0  0  0  0
  151.0073  139.3057  155.1248 C   0  0  0  0  0  0  0  0  0  0  0  0
  149.8168  139.9611  154.3805 C   0  0  0  0  0  0  0  0  0  0  0  0
  149.5038  141.3674  154.9520 C   0  0  0  0  0  0  0  0  0  0  0  0
  149.1983  141.3897  156.4576 C   0  0  0  0  0  0  0  0  0  0  0  0
  148.5703  139.0376  154.3796 C   0  0  2  0  0  0  0  0  0  0  0  0
  147.3907  139.5496  153.5194 C   0  0  0  0  0  0  0  0  0  0  0  0
  146.2042  138.5736  153.5696 C   0  0  1  0  0  0  0  0  0  0  0  0
  146.5287  137.3561  152.8311 N   0  0  0  0  0  0  0  0  0  0  0  0
  145.6547  136.4761  152.3189 C   0  0  0  0  0  0  0  0  0  0  0  0
  144.4365  136.6198  152.4074 O   0  0  0  0  0  0  0  0  0  0  0  0
  146.1894  135.4033  151.6962 N   0  0  0  0  0  0  0  0  0  0  0  0
  145.5827  134.2864  151.0465 C   0  0  0  0  0  0  0  0  0  0  0  0
  146.4986  133.3281  150.5561 C   0  0  0  0  0  0  0  0  0  0  0  0
  146.0197  132.1797  149.8962 C   0  0  0  0  0  0  0  0  0  0  0  0
  144.6317  132.0154  149.7428 C   0  0  0  0  0  0  0  0  0  0  0  0
  143.7859  133.0137  150.2587 C   0  0  0  0  0  0  0  0  0  0  0  0
  144.2443  134.1149  150.8905 N   0  0  0  0  0  0  0  0  0  0  0  0
  145.8611  138.2689  155.0393 C   0  0  0  0  0  0  0  0  0  0  0  0
  147.1095  137.8379  155.8292 C   0  0  0  0  0  0  0  0  0  0  0  0
  148.1289  138.8264  155.7192 O   0  0  0  0  0  0  0  0  0  0  0  0
  152.5583  137.8000  154.9049 H   0  0  0  0  0  0  0  0  0  0  0  0
  151.9125  138.3711  153.3712 H   0  0  0  0  0  0  0  0  0  0  0  0
  150.9859  137.2470  154.3679 H   0  0  0  0  0  0  0  0  0  0  0  0
  150.6986  138.9990  156.1249 H   0  0  0  0  0  0  0  0  0  0  0  0
  151.7961  140.0416  155.2722 H   0  0  0  0  0  0  0  0  0  0  0  0
  150.1186  140.0919  153.3401 H   0  0  0  0  0  0  0  0  0  0  0  0
  150.3502  142.0329  154.7955 H   0  0  0  0  0  0  0  0  0  0  0  0
  148.6725  141.8142  154.4056 H   0  0  0  0  0  0  0  0  0  0  0  0
  149.0907  142.4156  156.8103 H   0  0  0  0  0  0  0  0  0  0  0  0
  150.0032  140.9280  157.0300 H   0  0  0  0  0  0  0  0  0  0  0  0
  148.2714  140.8702  156.6975 H   0  0  0  0  0  0  0  0  0  0  0  0
  148.8669  138.0751  153.9656 H   0  0  0  0  0  0  0  0  0  0  0  0
  147.0469  140.5181  153.8792 H   0  0  0  0  0  0  0  0  0  0  0  0
  147.7106  139.7019  152.4876 H   0  0  0  0  0  0  0  0  0  0  0  0
  145.3453  139.0460  153.0899 H   0  0  0  0  0  0  0  0  0  0  0  0
  147.5111  137.1539  152.7077 H   0  0  0  0  0  0  0  0  0  0  0  0
  147.1987  135.3965  151.6755 H   0  0  0  0  0  0  0  0  0  0  0  0
  147.5627  133.4674  150.6820 H   0  0  0  0  0  0  0  0  0  0  0  0
  146.7068  131.4384  149.5157 H   0  0  0  0  0  0  0  0  0  0  0  0
  144.2263  131.1478  149.2435 H   0  0  0  0  0  0  0  0  0  0  0  0
  142.7137  132.9263  150.1632 H   0  0  0  0  0  0  0  0  0  0  0  0
  145.4442  139.1648  155.5012 H   0  0  0  0  0  0  0  0  0  0  0  0
  145.0869  137.5039  155.1072 H   0  0  0  0  0  0  0  0  0  0  0  0
  146.8582  137.7102  156.8822 H   0  0  0  0  0  0  0  0  0  0  0  0
  147.4826  136.8753  155.4760 H   0  0  0  0  0  0  0  0  0  0  0  0
  1  2  1  0  0  0  0
  1 22  1  0  0  0  0
  1 23  1  0  0  0  0
  1 24  1  0  0  0  0
  2  3  1  0  0  0  0
  2 25  1  0  0  0  0
  2 26  1  0  0  0  0
  3  4  1  0  0  0  0
  3  6  1  0  0  0  0
  3 27  1  0  0  0  0
  4  5  1  0  0  0  0
  4 28  1  0  0  0  0
  4 29  1  0  0  0  0
  5 30  1  0  0  0  0
  5 31  1  0  0  0  0
  5 32  1  0  0  0  0
  6 21  1  0  0  0  0
  6  7  1  0  0  0  0
  6 33  1  0  0  0  0
  7  8  1  0  0  0  0
  7 34  1  0  0  0  0
  7 35  1  0  0  0  0
  8  9  1  0  0  0  0
  8 19  1  0  0  0  0
  8 36  1  0  0  0  0
  9 10  1  0  0  0  0
  9 37  1  0  0  0  0
 10 11  2  0  0  0  0
 10 12  1  0  0  0  0
 12 13  1  0  0  0  0
 12 38  1  0  0  0  0
 13 18  1  0  0  0  0
 13 14  2  0  0  0  0
 14 15  1  0  0  0  0
 14 39  1  0  0  0  0
 15 16  2  0  0  0  0
 15 40  1  0  0  0  0
 16 17  1  0  0  0  0
 16 41  1  0  0  0  0
 17 18  2  0  0  0  0
 17 42  1  0  0  0  0
 19 20  1  0  0  0  0
 19 43  1  0  0  0  0
 19 44  1  0  0  0  0
 20 21  1  0  0  0  0
 20 45  1  0  0  0  0
 20 46  1  0  0  0  0
M  END
> <s_m_source_file>
AV-unprocessed.smi

> <i_m_source_file_index>
2467

> <i_lp_mmshare_version>
43012

> <i_f3d_flags>
0

> <s_epik_input>
W0NIM11bQ0gyXVtDSF0oW0NIMl1bQ0gzXSlbQ0BASF0xW0NIMl1bQ0BIXShbQ0gyXVtDSDJdTzEpW05IXUMoPU8pW05IXWMyW2NIXVtjSF1bY0hdW2NIXW4y

> <s_epik_cmdline>
J2VwaWtfcHl0aG9uJywgJy1waCcsICc3LjAnLCAnLXRuJywgJzgnLCAnLW1hJywgJzIwMCcsICctbWV0YWxfYmluZGluZycsICctaW1hZScsICc8aW5maWxlLm1hZT4nLCAnLW9tYWUnLCAnPG91dGZpbGUubWFlPic=

> <r_lp_tautomer_probability>
1

> <r_epik_Ionization_Penalty>
4.80427e-05

> <r_epik_Ionization_Penalty_Charging>
0

> <r_epik_Ionization_Penalty_Neutral>
4.80427e-05

> <r_epik_State_Penalty>
-0

> <r_epik_Charging_Adjusted_Penalty>
0

> <i_epik_Tot_Q>
0

> <i_epik_Tot_abs_Q>
0

> <r_epik_Metal_State_Penalty>
-0

> <b_epik_Metal_Only>
0

> <s_lp_Force_Field>
OPLS_2005

> <r_lp_Energy>
18.1019

> <b_lp_Chiralities_Consistent>
1

> <s_lp_Variant>
AV-unprocessed.smi:2467-1

> <Gold.Version>
5.8.1

> <Gold.Id.Protein>
6NUR|6NUR_protein|mol2

> <Gold.PLP.Fitness>
43.6311

> <Gold.PLP.PLP>
-35.3463

> <Gold.PLP.part.hbond>
-2.0000

> <Gold.PLP.part.metal>
0.0000

> <Gold.PLP.part.buried>
-3.0929

> <Gold.PLP.part.nonpolar>
-30.9676

> <Gold.PLP.part.repulsive>
0.4318

> <Gold.PLP.ligand.clash>
0.0000

> <Gold.PLP.ligand.torsion>
0.4235

> <Gold.PLP.Chemscore.Hbond>
2.0000

> <Gold.PLP.Chemscore.CHOScore>
1.0000

> <Gold.PLP.Chemscore.Metal>
0.0000

> <Gold.Chemscore.Hbonds>
donor molecule, donor type, donor heavy atom, donor atom, acceptor molecule, acceptor atom, score
      L1  H     9    37       P1  7948  1.00
      L1  H    12    38       P1  7948  1.00
      L1  C    17    42       P1 10186  1.00

> <Gold.PLP.Chemscore.Internal.Correction>
0.1318

> <Gold.Rescore>
     Score         DG    S(hbond)    S(metal)    S(lipo)     H(rot)  DE(clash)    DE(int)     intcor
     17.16     -19.16       1.92        0.00      94.67       1.49       0.12       1.88       ----

> <Gold.Chemscore.Fitness>
17.1572

> <Gold.Chemscore.DG>
-19.1593

> <Gold.Chemscore.ZeroCoef>
-5.4800

> <Gold.Chemscore.Hbond>
1.9179

> <Gold.Chemscore.Metal>
0.0000

> <Gold.Chemscore.Lipo>
94.6701

> <Gold.Chemscore.Internal_Hbond>
0.0000

> <Gold.Chemscore.DEClash>
0.1195

> <Gold.Chemscore.DEInternal>
1.8826

> <Gold.Chemscore.Rot>
1.4856

> <Gold.Chemscore.Internal.Correction>
   9.000000E+99

> <Gold.Chemscore.Hbonds>
donor molecule, donor type, donor heavy atom, donor atom, acceptor molecule, acceptor atom, score
      L1  H     9    37       P1  7948  0.96
      L1  H    12    38       P1  7948  0.96

> <Gold.Chemscore.Hbond.Weighted>
-6.4059

> <Gold.Chemscore.Metal.Weighted>
-0.0000

> <Gold.Chemscore.Lipo.Weighted>
-11.0764

> <Gold.Chemscore.Internal_Hbond.Weighted>
0.0000

> <Gold.Chemscore.DEClash.Weighted>
0.1195

> <Gold.Chemscore.DEInternal.Weighted>
1.8826

> <Gold.Chemscore.Rot.Weighted>
3.8031

> <Gold.Chemscore.Internal.Correction.Weighted>
   9.000000E+99

> <Gold.Protein.RotatedTorsions>
[ 6907 6896 6895 6894 ] final -125.37 input  -60.11 | X-H torsion
[ 7974 7965 7964 7962 ] final -137.45 input  175.53 | X-H torsion
[ 8008 7997 7996 7995 ] final   78.57 input   59.86 | X-H torsion
[ 10167 10162 10161 10158 ] final  -32.73 input  -65.29 | X-H torsion
[ 10718 10713 10712 10709 ] final  -66.33 input   66.30 | X-H torsion
[ 10763 10752 10751 10750 ] final   81.07 input  -60.55 | X-H torsion
[ 11005 11000 10999 10996 ] final -135.45 input  -57.11 | X-H torsion

> <Gold.Protein.ActiveResidues>
 VAL166  LYS551  ARG553  GLY616  TRP617  ASP618  TYR619  PRO620  LYS621  CYS622 
 ASP623  PHE694  ASN695  SER759  ASP760  ASP761  ALA762  ILE779  LEU786  VAL792 
 PHE793  MET794  SER795  GLU796  ALA797  LYS798  CYS799  TRP800  GLU811  SER814 

> <Gold.Protein.RotatedAtoms>
  150.8861  133.7306  159.2917 H   0  0  0  0  0  0  0  0  0  0  0  0  # atno 6907 bound_to 6896
  151.4871  135.1054  159.9803 H   0  0  0  0  0  0  0  0  0  0  0  0  # atno 6908 bound_to 6896
  152.4791  133.8163  159.7085 H   0  0  0  0  0  0  0  0  0  0  0  0  # atno 6909 bound_to 6896
  144.8841  140.6549  143.5187 H   0  0  0  0  0  0  0  0  0  0  0  0  # atno 7974 bound_to 7965
  155.8576  140.3455  155.5734 H   0  0  0  0  0  0  0  0  0  0  0  0  # atno 8008 bound_to 7997
  155.7969  140.0879  157.1998 H   0  0  0  0  0  0  0  0  0  0  0  0  # atno 8009 bound_to 7997
  154.4010  140.1472  156.3216 H   0  0  0  0  0  0  0  0  0  0  0  0  # atno 8010 bound_to 7997
  140.7216  143.3673  151.1846 H   0  0  0  0  0  0  0  0  0  0  0  0  # atno 10167 bound_to 10162
  156.0618  130.4260  150.1694 H   0  0  0  0  0  0  0  0  0  0  0  0  # atno 10718 bound_to 10713
  153.1086  135.4779  154.8995 H   0  0  0  0  0  0  0  0  0  0  0  0  # atno 10763 bound_to 10752
  154.7456  135.3093  154.8653 H   0  0  0  0  0  0  0  0  0  0  0  0  # atno 10764 bound_to 10752
  153.9248  135.6851  153.4800 H   0  0  0  0  0  0  0  0  0  0  0  0  # atno 10765 bound_to 10752
  140.8897  134.1827  157.4536 H   0  0  0  0  0  0  0  0  0  0  0  0  # atno 11005 bound_to 11000
  145.3901  139.1618  143.4233 LP  0  0  0  0  0  0  0  0  0  0  0  0  # atno 17320 bound_to 7965
  146.3013  140.3990  142.8703 LP  0  0  0  0  0  0  0  0  0  0  0  0  # atno 17321 bound_to 7965
  139.7237  143.9182  152.2995 LP  0  0  0  0  0  0  0  0  0  0  0  0  # atno 17342 bound_to 10162
  139.8948  144.6945  150.8730 LP  0  0  0  0  0  0  0  0  0  0  0  0  # atno 17343 bound_to 10162
  156.9761  130.9849  151.3448 LP  0  0  0  0  0  0  0  0  0  0  0  0  # atno 17370 bound_to 10713
  157.5632  130.8260  149.8293 LP  0  0  0  0  0  0  0  0  0  0  0  0  # atno 17371 bound_to 10713
  139.8728  134.9853  156.5276 LP  0  0  0  0  0  0  0  0  0  0  0  0  # atno 17394 bound_to 11000
  140.8362  133.8241  155.9030 LP  0  0  0  0  0  0  0  0  0  0  0  0  # atno 17395 bound_to 11000

$$$$
