AV-unprocessed.smi:697|AV-procd|sdf|3395|dock7
  -GOLD-   22720 0373D 1   1.00000     0.00000
 Structure written by MMmdl.
 43 44  0  0  0  0  0  0  0  0  2 V2000
  151.7879  139.7561  157.9951 C   0  0  0  0  0  0  0  0  0  0  0  0
  152.0201  138.7727  156.9940 O   0  0  0  0  0  0  0  0  0  0  0  0
  151.3073  138.9123  155.7574 C   0  0  1  0  0  0  0  0  0  0  0  0
  151.3393  140.3692  155.2781 C   0  0  0  0  0  0  0  0  0  0  0  0
  151.7115  137.7887  154.7839 C   0  0  0  0  0  0  0  0  0  0  0  0
  150.6916  136.9034  155.4975 C   0  0  2  0  0  0  0  0  0  0  0  0
  149.9768  136.0196  154.5826 N   0  0  0  0  0  0  0  0  0  0  0  0
  149.7873  134.7092  154.7861 C   0  0  0  0  0  0  0  0  0  0  0  0
  150.2258  134.1126  155.7693 O   0  0  0  0  0  0  0  0  0  0  0  0
  149.0717  134.1696  153.7827 N   0  0  0  0  0  0  0  0  0  0  0  0
  148.6114  132.8519  153.6124 C   0  0  0  0  0  0  0  0  0  0  0  0
  149.2056  131.7421  154.1329 C   0  0  0  0  0  0  0  0  0  0  0  0
  148.6691  130.4020  153.9318 C   0  0  0  0  0  0  0  0  0  0  0  0
  149.3585  129.1385  154.4159 C   0  0  0  0  0  0  0  0  0  0  0  0
  150.5532  129.4126  154.9399 F   0  0  0  0  0  0  0  0  0  0  0  0
  148.6251  128.5194  155.3408 F   0  0  0  0  0  0  0  0  0  0  0  0
  149.5349  128.2995  153.3964 F   0  0  0  0  0  0  0  0  0  0  0  0
  147.5232  130.4060  153.1604 C   0  0  0  0  0  0  0  0  0  0  0  0
  146.8582  131.4561  152.6312 N   0  5  0  0  0  0  0  0  0  0  0  0
  147.3683  132.7050  152.8266 C   0  0  0  0  0  0  0  0  0  0  0  0
  146.8158  133.7047  152.3658 O   0  0  0  0  0  0  0  0  0  0  0  0
  149.9262  138.1916  155.8965 C   0  0  0  0  0  0  0  0  0  0  0  0
  149.2914  138.1883  157.2917 C   0  0  0  0  0  0  0  0  0  0  0  0
  148.8187  138.6636  154.9349 C   0  0  0  0  0  0  0  0  0  0  0  0
  152.5107  139.6214  158.7993 H   0  0  0  0  0  0  0  0  0  0  0  0
  150.7956  139.6542  158.4343 H   0  0  0  0  0  0  0  0  0  0  0  0
  151.9004  140.7713  157.6160 H   0  0  0  0  0  0  0  0  0  0  0  0
  150.7181  140.5195  154.3961 H   0  0  0  0  0  0  0  0  0  0  0  0
  152.3437  140.6830  154.9955 H   0  0  0  0  0  0  0  0  0  0  0  0
  150.9797  141.0486  156.0511 H   0  0  0  0  0  0  0  0  0  0  0  0
  151.4491  138.0122  153.7484 H   0  0  0  0  0  0  0  0  0  0  0  0
  152.7388  137.4340  154.8581 H   0  0  0  0  0  0  0  0  0  0  0  0
  151.1340  136.3889  156.3537 H   0  0  0  0  0  0  0  0  0  0  0  0
  149.5902  136.4356  153.7479 H   0  0  0  0  0  0  0  0  0  0  0  0
  148.8324  134.7893  153.0225 H   0  0  0  0  0  0  0  0  0  0  0  0
  150.0954  131.8177  154.7348 H   0  0  0  0  0  0  0  0  0  0  0  0
  147.0746  129.4159  152.9311 H   0  0  0  0  0  0  0  0  0  0  0  0
  148.3774  137.5938  157.3148 H   0  0  0  0  0  0  0  0  0  0  0  0
  149.0379  139.1974  157.6175 H   0  0  0  0  0  0  0  0  0  0  0  0
  149.9575  137.7626  158.0425 H   0  0  0  0  0  0  0  0  0  0  0  0
  147.9485  138.0071  154.9690 H   0  0  0  0  0  0  0  0  0  0  0  0
  149.1555  138.6893  153.8984 H   0  0  0  0  0  0  0  0  0  0  0  0
  148.4732  139.6668  155.1855 H   0  0  0  0  0  0  0  0  0  0  0  0
  1  2  1  0  0  0  0
  1 25  1  0  0  0  0
  1 26  1  0  0  0  0
  1 27  1  0  0  0  0
  2  3  1  0  0  0  0
  3 22  1  0  0  0  0
  3  4  1  0  0  0  0
  3  5  1  0  0  0  0
  4 28  1  0  0  0  0
  4 29  1  0  0  0  0
  4 30  1  0  0  0  0
  5  6  1  0  0  0  0
  5 31  1  0  0  0  0
  5 32  1  0  0  0  0
  6  7  1  0  0  0  0
  6 22  1  0  0  0  0
  6 33  1  0  0  0  0
  7  8  1  0  0  0  0
  7 34  1  0  0  0  0
  8  9  2  0  0  0  0
  8 10  1  0  0  0  0
 10 11  1  0  0  0  0
 10 35  1  0  0  0  0
 11 20  1  0  0  0  0
 11 12  2  0  0  0  0
 12 13  1  0  0  0  0
 12 36  1  0  0  0  0
 13 14  1  0  0  0  0
 13 18  2  0  0  0  0
 14 15  1  0  0  0  0
 14 16  1  0  0  0  0
 14 17  1  0  0  0  0
 18 19  1  0  0  0  0
 18 37  1  0  0  0  0
 19 20  1  0  0  0  0
 20 21  2  0  0  0  0
 22 23  1  0  0  0  0
 22 24  1  0  0  0  0
 23 38  1  0  0  0  0
 23 39  1  0  0  0  0
 23 40  1  0  0  0  0
 24 41  1  0  0  0  0
 24 42  1  0  0  0  0
 24 43  1  0  0  0  0
M  CHG  1  19  -1
M  END
> <s_m_source_file>
AV-unprocessed.smi

> <i_m_source_file_index>
697

> <i_lp_mmshare_version>
43012

> <i_f3d_flags>
0

> <s_epik_input>
W0NIM11PW0NAQF0xKFtDSDNdKVtDSDJdW0NASF0oQzEoW0NIM10pW0NIM10pW05IXUMoPU8pW05IXWMyW2NIXWMoQyhGKShGKUYpW2NIXVtuSF1jMj1P

> <s_epik_cmdline>
J2VwaWtfcHl0aG9uJywgJy1waCcsICc3LjAnLCAnLXRuJywgJzgnLCAnLW1hJywgJzIwMCcsICctbWV0YWxfYmluZGluZycsICctaW1hZScsICc8aW5maWxlLm1hZT4nLCAnLW9tYWUnLCAnPG91dGZpbGUubWFlPic=

> <r_lp_tautomer_probability>
1

> <r_epik_Ionization_Penalty>
3.20094

> <r_epik_Ionization_Penalty_Charging>
0.180017

> <r_epik_Ionization_Penalty_Neutral>
3.02092

> <r_epik_State_Penalty>
3.01726

> <r_epik_Charging_Adjusted_Penalty>
3.19727

> <i_epik_Tot_Q>
-1

> <i_epik_Tot_abs_Q>
1

> <r_epik_Metal_State_Penalty>
0.455096

> <b_epik_Metal_Only>
1

> <s_lp_Force_Field>
OPLS_2005

> <r_lp_Energy>
36.256

> <b_lp_Chiralities_Consistent>
1

> <s_lp_Variant>
AV-unprocessed.smi:697-7

> <Gold.Version>
5.8.1

> <Gold.Id.Protein>
6NUR|6NUR_protein|mol2

> <Gold.PLP.Fitness>
36.1976

> <Gold.PLP.PLP>
-31.2759

> <Gold.PLP.part.hbond>
-2.0000

> <Gold.PLP.part.metal>
0.0000

> <Gold.PLP.part.buried>
-0.9437

> <Gold.PLP.part.nonpolar>
-28.6406

> <Gold.PLP.part.repulsive>
0.3423

> <Gold.PLP.ligand.clash>
0.0000

> <Gold.PLP.ligand.torsion>
0.6808

> <Gold.PLP.Chemscore.Hbond>
1.9440

> <Gold.PLP.Chemscore.CHOScore>
0.0000

> <Gold.PLP.Chemscore.Metal>
0.0000

> <Gold.Chemscore.Hbonds>
donor molecule, donor type, donor heavy atom, donor atom, acceptor molecule, acceptor atom, score
      L1  H     7    34       P1  7948  0.98
      L1  H    10    35       P1  7948  0.85

> <Gold.PLP.Chemscore.Internal.Correction>
0.4513

> <Gold.Rescore>
     Score         DG    S(hbond)    S(metal)    S(lipo)     H(rot)  DE(clash)    DE(int)     intcor
     11.26     -14.05       1.24        0.00      66.31       1.30       1.50       1.29       ----

> <Gold.Chemscore.Fitness>
11.2634

> <Gold.Chemscore.DG>
-14.0466

> <Gold.Chemscore.ZeroCoef>
-5.4800

> <Gold.Chemscore.Hbond>
1.2365

> <Gold.Chemscore.Metal>
0.0000

> <Gold.Chemscore.Lipo>
66.3063

> <Gold.Chemscore.Internal_Hbond>
0.0000

> <Gold.Chemscore.DEClash>
1.4962

> <Gold.Chemscore.DEInternal>
1.2870

> <Gold.Chemscore.Rot>
1.2973

> <Gold.Chemscore.Internal.Correction>
   9.000000E+99

> <Gold.Chemscore.Hbonds>
donor molecule, donor type, donor heavy atom, donor atom, acceptor molecule, acceptor atom, score
      L1  H     7    34       P1  7948  0.60
      L1  H    10    35       P1  7948  0.15

> <Gold.Chemscore.Hbond.Weighted>
-4.1298

> <Gold.Chemscore.Metal.Weighted>
-0.0000

> <Gold.Chemscore.Lipo.Weighted>
-7.7578

> <Gold.Chemscore.Internal_Hbond.Weighted>
0.0000

> <Gold.Chemscore.DEClash.Weighted>
1.4962

> <Gold.Chemscore.DEInternal.Weighted>
1.2870

> <Gold.Chemscore.Rot.Weighted>
3.3210

> <Gold.Chemscore.Internal.Correction.Weighted>
   9.000000E+99

> <Gold.Protein.RotatedTorsions>
[ 6907 6896 6895 6894 ] final   19.68 input  -60.11 | X-H torsion
[ 7974 7965 7964 7962 ] final   45.19 input  175.53 | X-H torsion
[ 8008 7997 7996 7995 ] final  -43.79 input   59.86 | X-H torsion
[ 10167 10162 10161 10158 ] final   -2.45 input  -65.29 | X-H torsion
[ 10718 10713 10712 10709 ] final   85.27 input   66.30 | X-H torsion
[ 10763 10752 10751 10750 ] final   -4.21 input  -60.55 | X-H torsion
[ 11005 11000 10999 10996 ] final -161.79 input  -57.11 | X-H torsion

> <Gold.Protein.ActiveResidues>
 VAL166  LYS551  ARG553  GLY616  TRP617  ASP618  TYR619  PRO620  LYS621  CYS622 
 ASP623  PHE694  ASN695  SER759  ASP760  ASP761  ALA762  ILE779  LEU786  VAL792 
 PHE793  MET794  SER795  GLU796  ALA797  LYS798  CYS799  TRP800  GLU811  SER814 

> <Gold.Protein.RotatedAtoms>
  151.8847  135.0440  160.0491 H   0  0  0  0  0  0  0  0  0  0  0  0  # atno 6907 bound_to 6896
  152.2484  133.5190  159.5319 H   0  0  0  0  0  0  0  0  0  0  0  0  # atno 6908 bound_to 6896
  150.7076  134.0909  159.3974 H   0  0  0  0  0  0  0  0  0  0  0  0  # atno 6909 bound_to 6896
  146.0502  139.4992  142.9723 H   0  0  0  0  0  0  0  0  0  0  0  0  # atno 7974 bound_to 7965
  154.3997  140.1439  156.3577 H   0  0  0  0  0  0  0  0  0  0  0  0  # atno 8008 bound_to 7997
  155.8210  140.3469  155.5493 H   0  0  0  0  0  0  0  0  0  0  0  0  # atno 8009 bound_to 7997
  155.8288  140.0909  157.1796 H   0  0  0  0  0  0  0  0  0  0  0  0  # atno 8010 bound_to 7997
  140.6851  143.6656  150.8229 H   0  0  0  0  0  0  0  0  0  0  0  0  # atno 10167 bound_to 10162
  157.6912  131.0168  150.2797 H   0  0  0  0  0  0  0  0  0  0  0  0  # atno 10718 bound_to 10713
  153.3818  135.6998  153.6560 H   0  0  0  0  0  0  0  0  0  0  0  0  # atno 10763 bound_to 10752
  153.5168  135.3620  155.2613 H   0  0  0  0  0  0  0  0  0  0  0  0  # atno 10764 bound_to 10752
  154.8693  135.4148  154.3117 H   0  0  0  0  0  0  0  0  0  0  0  0  # atno 10765 bound_to 10752
  140.6165  134.4795  157.5220 H   0  0  0  0  0  0  0  0  0  0  0  0  # atno 11005 bound_to 11000
  145.6737  141.0210  143.1644 LP  0  0  0  0  0  0  0  0  0  0  0  0  # atno 17320 bound_to 7965
  144.7119  139.8340  143.7412 LP  0  0  0  0  0  0  0  0  0  0  0  0  # atno 17321 bound_to 7965
  140.0361  143.5393  152.2738 LP  0  0  0  0  0  0  0  0  0  0  0  0  # atno 17342 bound_to 10162
  139.6204  144.7628  151.2754 LP  0  0  0  0  0  0  0  0  0  0  0  0  # atno 17343 bound_to 10162
  156.3346  130.3805  149.7462 LP  0  0  0  0  0  0  0  0  0  0  0  0  # atno 17370 bound_to 10713
  156.4990  130.8120  151.3125 LP  0  0  0  0  0  0  0  0  0  0  0  0  # atno 17371 bound_to 10713
  139.9171  134.8225  156.1332 LP  0  0  0  0  0  0  0  0  0  0  0  0  # atno 17394 bound_to 11000
  141.0772  133.6770  156.2261 LP  0  0  0  0  0  0  0  0  0  0  0  0  # atno 17395 bound_to 11000

$$$$
