AV-unprocessed.smi:1672|AV-procd|sdf|6707|dock7
  -GOLD-   22720 7453D 1   1.00000     0.00000
 Structure written by MMmdl.
 49 51  0  0  0  0  0  0  0  0  3 V2000
  148.7006  141.4333  155.3621 C   0  0  0  0  0  0  0  0  0  0  0  0
  147.1771  141.4873  155.1532 C   0  0  2  0  0  0  0  0  0  0  0  0
  146.4770  140.1693  155.5308 C   0  0  0  0  0  0  0  0  0  0  0  0
  146.7156  139.0623  154.4879 C   0  0  0  0  0  0  0  0  0  0  0  0
  146.3047  139.5036  153.1304 N   0  3  2  0  0  0  0  0  0  0  0  0
  146.3899  138.4084  152.1298 C   0  0  0  0  0  0  0  0  0  0  0  0
  145.6941  137.1183  152.6070 C   0  0  2  0  0  0  0  0  0  0  0  0
  146.6496  136.2998  153.2532 O   0  0  0  0  0  0  0  0  0  0  0  0
  145.0561  136.3433  151.4367 C   0  0  0  0  0  0  0  0  0  0  0  0
  144.5722  135.0096  151.8304 N   0  0  0  0  0  0  0  0  0  0  0  0
  143.6314  134.6574  152.7545 C   0  0  0  0  0  0  0  0  0  0  0  0
  142.8313  135.5779  153.6156 C   0  0  0  0  0  0  0  0  0  0  0  0
  142.0509  134.8825  154.5620 O   0  0  0  0  0  0  0  0  0  0  0  0
  143.5413  133.2981  152.7429 N   0  3  0  0  0  0  0  0  0  0  0  0
  144.4319  132.7729  151.8064 C   0  0  0  0  0  0  0  0  0  0  0  0
  144.6973  131.4564  151.4423 C   0  0  0  0  0  0  0  0  0  0  0  0
  145.6719  131.2605  150.4422 C   0  0  0  0  0  0  0  0  0  0  0  0
  146.3404  132.3492  149.8461 C   0  0  0  0  0  0  0  0  0  0  0  0
  146.0628  133.6797  150.2236 C   0  0  0  0  0  0  0  0  0  0  0  0
  145.0970  133.8662  151.2133 C   0  0  0  0  0  0  0  0  0  0  0  0
  147.0241  140.7372  152.7153 C   0  0  0  0  0  0  0  0  0  0  0  0
  146.7864  141.8813  153.7170 C   0  0  0  0  0  0  0  0  0  0  0  0
  149.1755  140.6751  154.7401 H   0  0  0  0  0  0  0  0  0  0  0  0
  148.9439  141.2061  156.4005 H   0  0  0  0  0  0  0  0  0  0  0  0
  149.1616  142.3917  155.1217 H   0  0  0  0  0  0  0  0  0  0  0  0
  146.8021  142.2636  155.8218 H   0  0  0  0  0  0  0  0  0  0  0  0
  146.8069  139.8344  156.5148 H   0  0  0  0  0  0  0  0  0  0  0  0
  145.4041  140.3472  155.6174 H   0  0  0  0  0  0  0  0  0  0  0  0
  147.7645  138.7633  154.4755 H   0  0  0  0  0  0  0  0  0  0  0  0
  146.1419  138.1802  154.7751 H   0  0  0  0  0  0  0  0  0  0  0  0
  145.9608  138.7514  151.1870 H   0  0  0  0  0  0  0  0  0  0  0  0
  147.4352  138.1771  151.9180 H   0  0  0  0  0  0  0  0  0  0  0  0
  144.9141  137.3550  153.3293 H   0  0  0  0  0  0  0  0  0  0  0  0
  147.5095  136.5258  152.9323 H   0  0  0  0  0  0  0  0  0  0  0  0
  144.1964  136.8943  151.0538 H   0  0  0  0  0  0  0  0  0  0  0  0
  145.7468  136.2466  150.5989 H   0  0  0  0  0  0  0  0  0  0  0  0
  143.5031  136.2567  154.1418 H   0  0  0  0  0  0  0  0  0  0  0  0
  142.1795  136.1913  152.9936 H   0  0  0  0  0  0  0  0  0  0  0  0
  142.3056  133.9724  154.5547 H   0  0  0  0  0  0  0  0  0  0  0  0
  144.1866  130.6208  151.8981 H   0  0  0  0  0  0  0  0  0  0  0  0
  145.9115  130.2554  150.1258 H   0  0  0  0  0  0  0  0  0  0  0  0
  147.0818  132.1597  149.0832 H   0  0  0  0  0  0  0  0  0  0  0  0
  146.5845  134.5027  149.7593 H   0  0  0  0  0  0  0  0  0  0  0  0
  148.0906  140.5273  152.6235 H   0  0  0  0  0  0  0  0  0  0  0  0
  146.6869  141.0594  151.7309 H   0  0  0  0  0  0  0  0  0  0  0  0
  145.7307  142.1556  153.6961 H   0  0  0  0  0  0  0  0  0  0  0  0
  147.3348  142.7714  153.4069 H   0  0  0  0  0  0  0  0  0  0  0  0
  145.3257  139.7438  153.2011 H   0  0  0  0  0  0  0  0  0  0  0  0
  142.9103  132.7700  153.3324 H   0  0  0  0  0  0  0  0  0  0  0  0
  1  2  1  0  0  0  0
  1 23  1  0  0  0  0
  1 24  1  0  0  0  0
  1 25  1  0  0  0  0
  2 22  1  0  0  0  0
  2  3  1  0  0  0  0
  2 26  1  0  0  0  0
  3  4  1  0  0  0  0
  3 27  1  0  0  0  0
  3 28  1  0  0  0  0
  4  5  1  0  0  0  0
  4 29  1  0  0  0  0
  4 30  1  0  0  0  0
  5  6  1  0  0  0  0
  5 21  1  0  0  0  0
  5 48  1  0  0  0  0
  6  7  1  0  0  0  0
  6 31  1  0  0  0  0
  6 32  1  0  0  0  0
  7  8  1  0  0  0  0
  7  9  1  0  0  0  0
  7 33  1  0  0  0  0
  8 34  1  0  0  0  0
  9 10  1  0  0  0  0
  9 35  1  0  0  0  0
  9 36  1  0  0  0  0
 10 20  1  0  0  0  0
 10 11  1  0  0  0  0
 11 12  1  0  0  0  0
 11 14  2  0  0  0  0
 12 13  1  0  0  0  0
 12 37  1  0  0  0  0
 12 38  1  0  0  0  0
 13 39  1  0  0  0  0
 14 15  1  0  0  0  0
 14 49  1  0  0  0  0
 15 20  2  0  0  0  0
 15 16  1  0  0  0  0
 16 17  2  0  0  0  0
 16 40  1  0  0  0  0
 17 18  1  0  0  0  0
 17 41  1  0  0  0  0
 18 19  2  0  0  0  0
 18 42  1  0  0  0  0
 19 20  1  0  0  0  0
 19 43  1  0  0  0  0
 21 22  1  0  0  0  0
 21 44  1  0  0  0  0
 21 45  1  0  0  0  0
 22 46  1  0  0  0  0
 22 47  1  0  0  0  0
M  CHG  1   5   1
M  CHG  1  14   1
M  END
> <s_m_source_file>
AV-unprocessed.smi

> <i_m_source_file_index>
1672

> <i_lp_mmshare_version>
43012

> <i_f3d_flags>
0

> <s_epik_input>
W0NIM11bQ0hdMVtDSDJdW0NIMl1OKFtDSDJdW0NIMl0xKVtDSDJdW0NASF0oW09IXSlbQ0gyXW4oYyhuMilbQ0gyXVtPSF0pYyhjMjMpW2NIXVtjSF1bY0hdW2NIXTM=

> <s_epik_cmdline>
J2VwaWtfcHl0aG9uJywgJy1waCcsICc3LjAnLCAnLXRuJywgJzgnLCAnLW1hJywgJzIwMCcsICctbWV0YWxfYmluZGluZycsICctaW1hZScsICc8aW5maWxlLm1hZT4nLCAnLW9tYWUnLCAnPG91dGZpbGUubWFlPic=

> <r_epik_Ionization_Penalty>
1.51642

> <r_epik_Ionization_Penalty_Charging>
1.51557

> <r_epik_Ionization_Penalty_Neutral>
0.000856474

> <r_epik_State_Penalty>
1.6048

> <r_epik_Charging_Adjusted_Penalty>
3.12037

> <i_epik_Tot_Q>
2

> <i_epik_Tot_abs_Q>
2

> <r_epik_Metal_State_Penalty>
5.65673

> <b_epik_Metal_Only>
0

> <s_lp_Force_Field>
OPLS_2005

> <r_lp_Energy>
31.2365

> <b_lp_Chiralities_Consistent>
1

> <s_lp_Variant>
AV-unprocessed.smi:1672-7

> <Gold.Version>
5.8.1

> <Gold.Id.Protein>
6NUR|6NUR_protein|mol2

> <Gold.PLP.Fitness>
50.6971

> <Gold.PLP.PLP>
-34.8339

> <Gold.PLP.part.hbond>
-4.7262

> <Gold.PLP.part.metal>
0.0000

> <Gold.PLP.part.buried>
0.0706

> <Gold.PLP.part.nonpolar>
-29.2778

> <Gold.PLP.part.repulsive>
0.0000

> <Gold.PLP.ligand.clash>
0.0000

> <Gold.PLP.ligand.torsion>
0.5465

> <Gold.PLP.Chemscore.Hbond>
5.6338

> <Gold.PLP.Chemscore.CHOScore>
0.0000

> <Gold.PLP.Chemscore.Metal>
0.0000

> <Gold.Chemscore.Hbonds>
donor molecule, donor type, donor heavy atom, donor atom, acceptor molecule, acceptor atom, score
      L1  H     5    48       P1 10175  2.00
      L1  H     8    34       P1  7948  1.00
      L1  H    13    39       P1 10957  0.49
      L1  H    14    49       P1 10957  1.98

> <Gold.PLP.Chemscore.Internal.Correction>
0.0549

> <Gold.Rescore>
     Score         DG    S(hbond)    S(metal)    S(lipo)     H(rot)  DE(clash)    DE(int)     intcor
     19.83     -21.17       3.31        0.00     104.35       2.96       0.76       0.58       ----

> <Gold.Chemscore.Fitness>
19.8292

> <Gold.Chemscore.DG>
-21.1693

> <Gold.Chemscore.ZeroCoef>
-5.4800

> <Gold.Chemscore.Hbond>
3.3071

> <Gold.Chemscore.Metal>
0.0000

> <Gold.Chemscore.Lipo>
104.3548

> <Gold.Chemscore.Internal_Hbond>
0.0000

> <Gold.Chemscore.DEClash>
0.7619

> <Gold.Chemscore.DEInternal>
0.5782

> <Gold.Chemscore.Rot>
2.9555

> <Gold.Chemscore.Internal.Correction>
   9.000000E+99

> <Gold.Chemscore.Hbonds>
donor molecule, donor type, donor heavy atom, donor atom, acceptor molecule, acceptor atom, score
      L1  H     5    48       P1 10175  0.95
      L1  H     8    34       P1  7948  0.95
      L1  H    13    39       P1 10957  0.48
      L1  H    14    49       P1 10957  0.52

> <Gold.Chemscore.Hbond.Weighted>
-11.0458

> <Gold.Chemscore.Metal.Weighted>
-0.0000

> <Gold.Chemscore.Lipo.Weighted>
-12.2095

> <Gold.Chemscore.Internal_Hbond.Weighted>
0.0000

> <Gold.Chemscore.DEClash.Weighted>
0.7619

> <Gold.Chemscore.DEInternal.Weighted>
0.5782

> <Gold.Chemscore.Rot.Weighted>
7.5660

> <Gold.Chemscore.Internal.Correction.Weighted>
   9.000000E+99

> <Gold.Protein.RotatedTorsions>
[ 6907 6896 6895 6894 ] final  -90.28 input  -60.11 | X-H torsion
[ 7974 7965 7964 7962 ] final   85.54 input  175.53 | X-H torsion
[ 8008 7997 7996 7995 ] final   50.68 input   59.86 | X-H torsion
[ 10167 10162 10161 10158 ] final  -86.12 input  -65.29 | X-H torsion
[ 10718 10713 10712 10709 ] final   32.50 input   66.30 | X-H torsion
[ 10763 10752 10751 10750 ] final -111.95 input  -60.55 | X-H torsion
[ 11005 11000 10999 10996 ] final  -85.96 input  -57.11 | X-H torsion

> <Gold.Protein.ActiveResidues>
 VAL166  LYS551  ARG553  GLY616  TRP617  ASP618  TYR619  PRO620  LYS621  CYS622 
 ASP623  PHE694  ASN695  SER759  ASP760  ASP761  ALA762  ILE779  LEU786  VAL792 
 PHE793  MET794  SER795  GLU796  ALA797  LYS798  CYS799  TRP800  GLU811  SER814 

> <Gold.Protein.RotatedAtoms>
  150.6880  134.2457  159.4490 H   0  0  0  0  0  0  0  0  0  0  0  0  # atno 6907 bound_to 6896
  152.0398  134.9715  160.0583 H   0  0  0  0  0  0  0  0  0  0  0  0  # atno 6908 bound_to 6896
  152.1222  133.4325  159.4718 H   0  0  0  0  0  0  0  0  0  0  0  0  # atno 6909 bound_to 6896
  145.5842  139.2329  143.2336 H   0  0  0  0  0  0  0  0  0  0  0  0  # atno 7974 bound_to 7965
  155.4227  140.3447  155.4273 H   0  0  0  0  0  0  0  0  0  0  0  0  # atno 8008 bound_to 7997
  156.1383  140.1534  156.8991 H   0  0  0  0  0  0  0  0  0  0  0  0  # atno 8009 bound_to 7997
  154.4950  140.0830  156.7657 H   0  0  0  0  0  0  0  0  0  0  0  0  # atno 8010 bound_to 7997
  140.3972  143.2678  151.9189 H   0  0  0  0  0  0  0  0  0  0  0  0  # atno 10167 bound_to 10162
  157.2861  130.7279  149.6584 H   0  0  0  0  0  0  0  0  0  0  0  0  # atno 10718 bound_to 10713
  154.8325  135.4509  154.1117 H   0  0  0  0  0  0  0  0  0  0  0  0  # atno 10763 bound_to 10752
  153.2378  135.6913  153.7823 H   0  0  0  0  0  0  0  0  0  0  0  0  # atno 10764 bound_to 10752
  153.7182  135.3346  155.3237 H   0  0  0  0  0  0  0  0  0  0  0  0  # atno 10765 bound_to 10752
  141.1635  133.7428  156.9092 H   0  0  0  0  0  0  0  0  0  0  0  0  # atno 11005 bound_to 11000
  146.1694  140.6668  142.9240 LP  0  0  0  0  0  0  0  0  0  0  0  0  # atno 17320 bound_to 7965
  144.7380  140.4863  143.6889 LP  0  0  0  0  0  0  0  0  0  0  0  0  # atno 17321 bound_to 7965
  139.4786  144.5669  151.8150 LP  0  0  0  0  0  0  0  0  0  0  0  0  # atno 17342 bound_to 10162
  140.4778  144.1494  150.5927 LP  0  0  0  0  0  0  0  0  0  0  0  0  # atno 17343 bound_to 10162
  155.9665  130.4323  150.4958 LP  0  0  0  0  0  0  0  0  0  0  0  0  # atno 17370 bound_to 10713
  157.2911  131.0626  151.2133 LP  0  0  0  0  0  0  0  0  0  0  0  0  # atno 17371 bound_to 10713
  140.1529  134.9218  157.2616 LP  0  0  0  0  0  0  0  0  0  0  0  0  # atno 17394 bound_to 11000
  140.2702  134.3469  155.7376 LP  0  0  0  0  0  0  0  0  0  0  0  0  # atno 17395 bound_to 11000

$$$$
