#       Name:                AV-unprocessed.smi:1741
#       Creating user name   scv26
#       Creation time:       Fri Mar 27 08:23:47 2020


#       File generated by GOLD software.
#

@<TRIPOS>MOLECULE
AV-unprocessed.smi:1741
    43    44     1
SMALL
NO_CHARGES


@<TRIPOS>ATOM
      1 ****        -6.2144  -1.9234  -0.0069 C.3            1 S1                 0.0000
      2 ****        -5.5240  -1.7475   1.3506 C.3            1 S1                 0.0000
      3 ****        -4.2866  -1.0021   1.2283 N.pl3          1 S1                 0.0000
      4 ****        -3.0001  -1.4935   1.1280 C.2            1 S1                 0.0000
      5 ****        -2.1923  -0.4012   1.0264 C.2            1 S1                 0.0000
      6 ****        -0.7818  -0.4473   0.8967 N.am           1 S1                 0.0000
      7 ****         0.0591   0.5942   0.7926 C.2            1 S1                 0.0000
      8 ****        -0.2743   1.7784   0.8306 O.2            1 S1                 0.0000
      9 ****         1.3251   0.1804   0.6401 N.am           1 S1                 0.0000
     10 ****         2.4926   1.0450   0.4786 C.3            1 S1                 0.0000
     11 ****         3.2373   1.1514   1.8181 C.3            1 S1                 0.0000
     12 ****         3.3946   0.5004  -0.6460 C.3            1 S1                 0.0000
     13 ****         2.6962   0.3418  -1.9993 C.3            1 S1                 0.0000
     14 ****         3.8582   0.4386  -2.9599 C.3            1 S1                 0.0000
     15 ****         4.7133   1.5140  -2.2986 C.3            1 S1                 0.0000
     16 ****         4.4781   1.3939  -0.8980 O.3            1 S1                 0.0000
     17 ****        -3.0579   0.7282   1.0702 C.2            1 S1                 0.0000
     18 ****        -4.3223   0.3527   1.1916 N.2            1 S1                 0.0000
     19 ****        -7.1392  -2.4906   0.0990 H              1 S1                 0.0000
     20 ****        -5.5733  -2.4586  -0.7082 H              1 S1                 0.0000
     21 ****        -6.4648  -0.9590  -0.4501 H              1 S1                 0.0000
     22 ****        -6.1826  -1.2267   2.0473 H              1 S1                 0.0000
     23 ****        -5.3029  -2.7204   1.7908 H              1 S1                 0.0000
     24 ****        -2.7799  -2.5509   1.1349 H              1 S1                 0.0000
     25 ****        -0.3718  -1.3691   0.8646 H              1 S1                 0.0000
     26 ****         1.4976  -0.8139   0.6252 H              1 S1                 0.0000
     27 ****         2.1722   2.0474   0.1885 H              1 S1                 0.0000
     28 ****         4.1025   1.8098   1.7360 H              1 S1                 0.0000
     29 ****         3.5921   0.1767   2.1544 H              1 S1                 0.0000
     30 ****         2.5902   1.5579   2.5960 H              1 S1                 0.0000
     31 ****         3.8218  -0.4611  -0.3553 H              1 S1                 0.0000
     32 ****         2.1457  -0.5950  -2.0884 H              1 S1                 0.0000
     33 ****         2.0007   1.1646  -2.1729 H              1 S1                 0.0000
     34 ****         4.3991  -0.5081  -2.9905 H              1 S1                 0.0000
     35 ****         3.5579   0.6961  -3.9758 H              1 S1                 0.0000
     36 ****         5.7720   1.4083  -2.5366 H              1 S1                 0.0000
     37 ****         4.3918   2.5058  -2.6188 H              1 S1                 0.0000
     38 ****        -2.8290   1.7822   1.0177 H              1 S1                 0.0000
     39 ****        -1.2369   2.0234   0.9468 LP             1 S1                 0.0000
     40 ****         0.4173   2.4956   0.7452 LP             1 S1                 0.0000
     41 ****         5.3032   1.0433  -0.4550 LP             1 S1                 0.0000
     42 ****         4.2557   2.2941  -0.5237 LP             1 S1                 0.0000
     43 ****        -5.1290   0.9413   1.2447 LP             1 S1                 0.0000
@<TRIPOS>BOND
    1    1    2 1     
    2    1   19 1     
    3    1   20 1     
    4    1   21 1     
    5    2    3 1     
    6    2   22 1     
    7    2   23 1     
    8    3   18 1     
    9    3    4 1     
   10    4    5 2     
   11    4   24 1     
   12    5    6 1     
   13    5   17 1     
   14    6    7 am    
   15    6   25 1     
   16    7    8 2     
   17    7    9 am    
   18    9   10 1     
   19    9   26 1     
   20   10   11 1     
   21   10   12 1     
   22   10   27 1     
   23   11   28 1     
   24   11   29 1     
   25   11   30 1     
   26   12   16 1     
   27   12   13 1     
   28   12   31 1     
   29   13   14 1     
   30   13   32 1     
   31   13   33 1     
   32   14   15 1     
   33   14   34 1     
   34   14   35 1     
   35   15   16 1     
   36   15   36 1     
   37   15   37 1     
   38   17   18 2     
   39   17   38 1     
   40    8   39 1     
   41    8   40 1     
   42   16   41 1     
   43   16   42 1     
   44   18   43 1     
@<TRIPOS>SUBSTRUCTURE
      1 S1             1
@<TRIPOS>SET
LONE_PAIRS      STATIC     ATOMS    <user>   **** ""
5 39 40 41 42 43
DONOR_HYDROGENS      STATIC     ATOMS    <user>   **** ""
2 25 26
ATOM$BLUE        STATIC     ATOMS    COLORGROUP SYSTEM
5 39 40 41 42 43
ATOM$RED        STATIC     ATOMS    COLORGROUP SYSTEM
2 25 26
