AV-unprocessed.smi:2066|AV-procd|sdf|8421|dock6
  -GOLD-   2272011113D 1   1.00000     0.00000
 Structure written by MMmdl.
 38 39  0  0  0  0  0  0  0  0  2 V2000
  150.9239  140.4987  157.7883 C   0  0  0  0  0  0  0  0  0  0  0  0
  150.6126  139.4729  156.6719 C   0  0  0  0  0  0  0  0  0  0  0  0
  151.8795  139.3560  155.7868 C   0  0  0  0  0  0  0  0  0  0  0  0
  150.4302  138.0893  157.3588 C   0  0  0  0  0  0  0  0  0  0  0  0
  149.4426  138.1301  158.4338 N   0  0  0  0  0  0  0  0  0  0  0  0
  149.0708  137.0854  159.1841 C   0  0  0  0  0  0  0  0  0  0  0  0
  149.5658  135.9748  158.9778 O   0  0  0  0  0  0  0  0  0  0  0  0
  148.1522  137.3919  160.1281 N   0  5  0  0  0  0  0  0  0  0  0  0
  147.7107  136.4427  160.9689 C   0  0  0  0  0  0  0  0  0  0  0  0
  147.6820  135.1431  160.6521 N   0  0  0  0  0  0  0  0  0  0  0  0
  147.1805  134.3339  161.6729 C   0  0  0  0  0  0  0  0  0  0  0  0
  146.8082  135.0348  162.7893 C   0  0  0  0  0  0  0  0  0  0  0  0
  147.0806  136.7425  162.5912 S   0  0  0  0  0  0  0  0  0  0  0  0
  149.4229  139.8438  155.8552 N   0  0  0  0  0  0  0  0  0  0  0  0
  149.0818  138.8962  154.7885 C   0  0  0  0  0  0  0  0  0  0  0  0
  147.7751  139.2784  154.0722 C   0  0  0  0  0  0  0  0  0  0  0  0
  147.8796  140.5992  153.5543 O   0  0  0  0  0  0  0  0  0  0  0  0
  148.1498  141.5585  154.5694 C   0  0  0  0  0  0  0  0  0  0  0  0
  149.4601  141.1970  155.2883 C   0  0  0  0  0  0  0  0  0  0  0  0
  151.7982  140.1944  158.3649 H   0  0  0  0  0  0  0  0  0  0  0  0
  150.1013  140.5979  158.4960 H   0  0  0  0  0  0  0  0  0  0  0  0
  151.1406  141.4893  157.3895 H   0  0  0  0  0  0  0  0  0  0  0  0
  152.7149  138.9235  156.3386 H   0  0  0  0  0  0  0  0  0  0  0  0
  152.2242  140.3251  155.4265 H   0  0  0  0  0  0  0  0  0  0  0  0
  151.7045  138.7233  154.9157 H   0  0  0  0  0  0  0  0  0  0  0  0
  150.1093  137.3433  156.6297 H   0  0  0  0  0  0  0  0  0  0  0  0
  151.3791  137.7185  157.7483 H   0  0  0  0  0  0  0  0  0  0  0  0
  149.0209  139.0254  158.6334 H   0  0  0  0  0  0  0  0  0  0  0  0
  147.1225  133.2669  161.5176 H   0  0  0  0  0  0  0  0  0  0  0  0
  146.3927  134.6545  163.7102 H   0  0  0  0  0  0  0  0  0  0  0  0
  149.8853  138.8511  154.0533 H   0  0  0  0  0  0  0  0  0  0  0  0
  148.9584  137.8906  155.1863 H   0  0  0  0  0  0  0  0  0  0  0  0
  147.5780  138.5891  153.2512 H   0  0  0  0  0  0  0  0  0  0  0  0
  146.9269  139.2134  154.7556 H   0  0  0  0  0  0  0  0  0  0  0  0
  148.2271  142.5460  154.1146 H   0  0  0  0  0  0  0  0  0  0  0  0
  147.3198  141.5958  155.2768 H   0  0  0  0  0  0  0  0  0  0  0  0
  149.6241  141.9409  156.0660 H   0  0  0  0  0  0  0  0  0  0  0  0
  150.2858  141.2880  154.5826 H   0  0  0  0  0  0  0  0  0  0  0  0
  1  2  1  0  0  0  0
  1 20  1  0  0  0  0
  1 21  1  0  0  0  0
  1 22  1  0  0  0  0
  2  3  1  0  0  0  0
  2  4  1  0  0  0  0
  2 14  1  0  0  0  0
  3 23  1  0  0  0  0
  3 24  1  0  0  0  0
  3 25  1  0  0  0  0
  4  5  1  0  0  0  0
  4 26  1  0  0  0  0
  4 27  1  0  0  0  0
  5  6  1  0  0  0  0
  5 28  1  0  0  0  0
  6  7  2  0  0  0  0
  6  8  1  0  0  0  0
  8  9  1  0  0  0  0
  9 13  1  0  0  0  0
  9 10  2  0  0  0  0
 10 11  1  0  0  0  0
 11 12  2  0  0  0  0
 11 29  1  0  0  0  0
 12 13  1  0  0  0  0
 12 30  1  0  0  0  0
 14 19  1  0  0  0  0
 14 15  1  0  0  0  0
 15 16  1  0  0  0  0
 15 31  1  0  0  0  0
 15 32  1  0  0  0  0
 16 17  1  0  0  0  0
 16 33  1  0  0  0  0
 16 34  1  0  0  0  0
 17 18  1  0  0  0  0
 18 19  1  0  0  0  0
 18 35  1  0  0  0  0
 18 36  1  0  0  0  0
 19 37  1  0  0  0  0
 19 38  1  0  0  0  0
M  CHG  1   8  -1
M  END
> <s_m_source_file>
AV-unprocessed.smi

> <i_m_source_file_index>
2066

> <i_lp_mmshare_version>
43012

> <i_f3d_flags>
0

> <s_epik_input>
W0NIMl0xW0NIMl1PW0NIMl1bQ0gyXU4xQyhbQ0gzXSkoW0NIM10pW0NIMl1bTkhdQyg9TylbTkhdYzJuW2NIXVtjSF1zMg==

> <s_epik_cmdline>
J2VwaWtfcHl0aG9uJywgJy1waCcsICc3LjAnLCAnLXRuJywgJzgnLCAnLW1hJywgJzIwMCcsICctbWV0YWxfYmluZGluZycsICctaW1hZScsICc8aW5maWxlLm1hZT4nLCAnLW9tYWUnLCAnPG91dGZpbGUubWFlPic=

> <r_lp_tautomer_probability>
0.999

> <r_epik_Ionization_Penalty>
7.22375

> <r_epik_Ionization_Penalty_Charging>
5.82415

> <r_epik_Ionization_Penalty_Neutral>
1.39959

> <r_epik_State_Penalty>
6.03347

> <r_epik_Charging_Adjusted_Penalty>
11.8576

> <i_epik_Tot_Q>
-1

> <i_epik_Tot_abs_Q>
1

> <r_epik_Metal_State_Penalty>
2.0104

> <b_epik_Metal_Only>
1

> <s_lp_Force_Field>
OPLS_2005

> <r_lp_Energy>
36.7798

> <b_lp_Chiralities_Consistent>
1

> <s_lp_Variant>
AV-unprocessed.smi:2066-3

> <Gold.Version>
5.8.1

> <Gold.Id.Protein>
6NUR|6NUR_protein|mol2

> <Gold.PLP.Fitness>
38.9734

> <Gold.PLP.PLP>
-31.9819

> <Gold.PLP.part.hbond>
-3.0000

> <Gold.PLP.part.metal>
0.0000

> <Gold.PLP.part.buried>
-5.6989

> <Gold.PLP.part.nonpolar>
-26.0157

> <Gold.PLP.part.repulsive>
0.9593

> <Gold.PLP.ligand.clash>
0.0000

> <Gold.PLP.ligand.torsion>
0.2688

> <Gold.PLP.Chemscore.Hbond>
2.4882

> <Gold.PLP.Chemscore.CHOScore>
0.0000

> <Gold.PLP.Chemscore.Metal>
0.0000

> <Gold.Chemscore.Hbonds>
donor molecule, donor type, donor heavy atom, donor atom, acceptor molecule, acceptor atom, score
      P1  H  6896  6908       L1     7  1.00
      P1  H  6931  6943       L1     8  0.20
      P1  H  6934  6947       L1     8  1.20

> <Gold.PLP.Chemscore.Internal.Correction>
0.0644

> <Gold.Rescore>
     Score         DG    S(hbond)    S(metal)    S(lipo)     H(rot)  DE(clash)    DE(int)     intcor
     11.92     -13.77       1.32        0.00      67.09       1.55       0.00       1.84       ----

> <Gold.Chemscore.Fitness>
11.9226

> <Gold.Chemscore.DG>
-13.7669

> <Gold.Chemscore.ZeroCoef>
-5.4800

> <Gold.Chemscore.Hbond>
1.3185

> <Gold.Chemscore.Metal>
0.0000

> <Gold.Chemscore.Lipo>
67.0913

> <Gold.Chemscore.Internal_Hbond>
0.0000

> <Gold.Chemscore.DEClash>
0.0021

> <Gold.Chemscore.DEInternal>
1.8421

> <Gold.Chemscore.Rot>
1.5495

> <Gold.Chemscore.Internal.Correction>
   9.000000E+99

> <Gold.Chemscore.Hbonds>
donor molecule, donor type, donor heavy atom, donor atom, acceptor molecule, acceptor atom, score
      P1  H  6896  6908       L1     7  0.98
      P1  H  6934  6947       L1     8  0.14

> <Gold.Chemscore.Hbond.Weighted>
-4.4038

> <Gold.Chemscore.Metal.Weighted>
-0.0000

> <Gold.Chemscore.Lipo.Weighted>
-7.8497

> <Gold.Chemscore.Internal_Hbond.Weighted>
0.0000

> <Gold.Chemscore.DEClash.Weighted>
0.0021

> <Gold.Chemscore.DEInternal.Weighted>
1.8421

> <Gold.Chemscore.Rot.Weighted>
3.9666

> <Gold.Chemscore.Internal.Correction.Weighted>
   9.000000E+99

> <Gold.Protein.RotatedTorsions>
[ 6907 6896 6895 6894 ] final  166.44 input  -60.11 | X-H torsion
[ 7974 7965 7964 7962 ] final -158.63 input  175.53 | X-H torsion
[ 8008 7997 7996 7995 ] final  -32.19 input   59.86 | X-H torsion
[ 10167 10162 10161 10158 ] final -112.16 input  -65.29 | X-H torsion
[ 10718 10713 10712 10709 ] final -126.23 input   66.30 | X-H torsion
[ 10763 10752 10751 10750 ] final -108.26 input  -60.55 | X-H torsion
[ 11005 11000 10999 10996 ] final  -13.29 input  -57.11 | X-H torsion

> <Gold.Protein.ActiveResidues>
 VAL166  LYS551  ARG553  GLY616  TRP617  ASP618  TYR619  PRO620  LYS621  CYS622 
 ASP623  PHE694  ASN695  SER759  ASP760  ASP761  ALA762  ILE779  LEU786  VAL792 
 PHE793  MET794  SER795  GLU796  ALA797  LYS798  CYS799  TRP800  GLU811  SER814 

> <Gold.Protein.RotatedAtoms>
  151.8788  133.3491  159.3759 H   0  0  0  0  0  0  0  0  0  0  0  0  # atno 6907 bound_to 6896
  150.7133  134.5039  159.5584 H   0  0  0  0  0  0  0  0  0  0  0  0  # atno 6908 bound_to 6896
  152.2586  134.8058  160.0485 H   0  0  0  0  0  0  0  0  0  0  0  0  # atno 6909 bound_to 6896
  144.7497  140.3800  143.6057 H   0  0  0  0  0  0  0  0  0  0  0  0  # atno 7974 bound_to 7965
  154.4188  140.1744  156.1688 H   0  0  0  0  0  0  0  0  0  0  0  0  # atno 8008 bound_to 7997
  155.9777  140.3380  155.6610 H   0  0  0  0  0  0  0  0  0  0  0  0  # atno 8009 bound_to 7997
  155.6541  140.0693  157.2567 H   0  0  0  0  0  0  0  0  0  0  0  0  # atno 8010 bound_to 7997
  140.1258  143.4404  152.1661 H   0  0  0  0  0  0  0  0  0  0  0  0  # atno 10167 bound_to 10162
  156.1746  130.6691  151.0226 H   0  0  0  0  0  0  0  0  0  0  0  0  # atno 10718 bound_to 10713
  154.8125  135.4644  154.0554 H   0  0  0  0  0  0  0  0  0  0  0  0  # atno 10763 bound_to 10752
  153.1973  135.6864  153.8282 H   0  0  0  0  0  0  0  0  0  0  0  0  # atno 10764 bound_to 10752
  153.7779  135.3261  155.3338 H   0  0  0  0  0  0  0  0  0  0  0  0  # atno 10765 bound_to 10752
  140.7746  133.8411  155.9237 H   0  0  0  0  0  0  0  0  0  0  0  0  # atno 11005 bound_to 11000
  145.6988  139.1656  143.2605 LP  0  0  0  0  0  0  0  0  0  0  0  0  # atno 17320 bound_to 7965
  146.1430  140.7031  142.9358 LP  0  0  0  0  0  0  0  0  0  0  0  0  # atno 17321 bound_to 7965
  139.5545  144.7363  151.4335 LP  0  0  0  0  0  0  0  0  0  0  0  0  # atno 17342 bound_to 10162
  140.6846  143.8004  150.7168 LP  0  0  0  0  0  0  0  0  0  0  0  0  # atno 17343 bound_to 10162
  157.6827  131.0833  150.7327 LP  0  0  0  0  0  0  0  0  0  0  0  0  # atno 17370 bound_to 10713
  156.7385  130.4731  149.5483 LP  0  0  0  0  0  0  0  0  0  0  0  0  # atno 17371 bound_to 10713
  140.9541  134.1740  157.4705 LP  0  0  0  0  0  0  0  0  0  0  0  0  # atno 17394 bound_to 11000
  139.8751  134.9920  156.5577 LP  0  0  0  0  0  0  0  0  0  0  0  0  # atno 17395 bound_to 11000

$$$$
