AV-unprocessed.smi:949|AV-procd|sdf|4246|dock5
  -GOLD-   22720 2153D 1   1.00000     0.00000
 Structure written by MMmdl.
 32 33  0  0  0  0  0  0  0  0  1 V2000
  151.6758  140.9006  156.0887 C   0  0  0  0  0  0  0  0  0  0  0  0
  150.4995  141.7135  156.6609 C   0  0  2  0  0  0  0  0  0  0  0  0
  149.5968  142.1177  155.5892 N   0  0  0  0  0  0  0  0  0  0  0  0
  148.8350  141.2009  154.8430 C   0  0  0  0  0  0  0  0  0  0  0  0
  149.2387  139.8609  154.6320 C   0  0  0  0  0  0  0  0  0  0  0  0
  148.4107  139.0111  153.8727 C   0  0  0  0  0  0  0  0  0  0  0  0
  147.2410  139.4041  153.3289 N   0  0  0  0  0  0  0  0  0  0  0  0
  146.8547  140.6807  153.5293 C   0  0  0  0  0  0  0  0  0  0  0  0
  147.6064  141.6158  154.2718 C   0  0  0  0  0  0  0  0  0  0  0  0
  147.1249  142.9184  154.4251 N   0  0  0  0  0  0  0  0  0  0  0  0
  150.9896  142.9624  157.4192 C   0  0  2  0  0  0  0  0  0  0  0  0
  152.2129  142.7358  158.3096 C   0  0  0  0  0  0  0  0  0  0  0  0
  152.0958  143.8224  159.3669 C   0  0  0  0  0  0  0  0  0  0  0  0
  150.6453  144.2977  159.2519 C   0  0  0  0  0  0  0  0  0  0  0  0
  150.0207  143.3735  158.3724 O   0  0  0  0  0  0  0  0  0  0  0  0
  152.3313  140.5378  156.8803 H   0  0  0  0  0  0  0  0  0  0  0  0
  152.2785  141.5040  155.4091 H   0  0  0  0  0  0  0  0  0  0  0  0
  151.3320  140.0274  155.5345 H   0  0  0  0  0  0  0  0  0  0  0  0
  149.9511  141.0942  157.3708 H   0  0  0  0  0  0  0  0  0  0  0  0
  149.4299  143.1049  155.4596 H   0  0  0  0  0  0  0  0  0  0  0  0
  150.1610  139.4694  155.0321 H   0  0  0  0  0  0  0  0  0  0  0  0
  148.6976  137.9849  153.6975 H   0  0  0  0  0  0  0  0  0  0  0  0
  145.9135  140.9645  153.0809 H   0  0  0  0  0  0  0  0  0  0  0  0
  147.6385  143.6115  154.9506 H   0  0  0  0  0  0  0  0  0  0  0  0
  146.2812  143.2263  153.9636 H   0  0  0  0  0  0  0  0  0  0  0  0
  151.1810  143.7850  156.7269 H   0  0  0  0  0  0  0  0  0  0  0  0
  152.1543  141.7566  158.7867 H   0  0  0  0  0  0  0  0  0  0  0  0
  153.1520  142.7853  157.7576 H   0  0  0  0  0  0  0  0  0  0  0  0
  152.3164  143.4278  160.3593 H   0  0  0  0  0  0  0  0  0  0  0  0
  152.7846  144.6449  159.1711 H   0  0  0  0  0  0  0  0  0  0  0  0
  150.1356  144.3262  160.2152 H   0  0  0  0  0  0  0  0  0  0  0  0
  150.6022  145.2960  158.8142 H   0  0  0  0  0  0  0  0  0  0  0  0
  1  2  1  0  0  0  0
  1 16  1  0  0  0  0
  1 17  1  0  0  0  0
  1 18  1  0  0  0  0
  2  3  1  0  0  0  0
  2 11  1  0  0  0  0
  2 19  1  0  0  0  0
  3  4  1  0  0  0  0
  3 20  1  0  0  0  0
  4  9  1  0  0  0  0
  4  5  2  0  0  0  0
  5  6  1  0  0  0  0
  5 21  1  0  0  0  0
  6  7  2  0  0  0  0
  6 22  1  0  0  0  0
  7  8  1  0  0  0  0
  8  9  2  0  0  0  0
  8 23  1  0  0  0  0
  9 10  1  0  0  0  0
 10 24  1  0  0  0  0
 10 25  1  0  0  0  0
 11 15  1  0  0  0  0
 11 12  1  0  0  0  0
 11 26  1  0  0  0  0
 12 13  1  0  0  0  0
 12 27  1  0  0  0  0
 12 28  1  0  0  0  0
 13 14  1  0  0  0  0
 13 29  1  0  0  0  0
 13 30  1  0  0  0  0
 14 15  1  0  0  0  0
 14 31  1  0  0  0  0
 14 32  1  0  0  0  0
M  END
> <s_m_source_file>
AV-unprocessed.smi

> <i_m_source_file_index>
949

> <i_lp_mmshare_version>
43012

> <i_f3d_flags>
0

> <s_epik_input>
TzFbQ0gyXVtDSDJdW0NIMl1bQ0BIXTFbQ0BIXShbQ0gzXSlbTkhdYzJbY0hdW2NIXW5bY0hdYzJbTkgyXQ==

> <s_epik_cmdline>
J2VwaWtfcHl0aG9uJywgJy1waCcsICc3LjAnLCAnLXRuJywgJzgnLCAnLW1hJywgJzIwMCcsICctbWV0YWxfYmluZGluZycsICctaW1hZScsICc8aW5maWxlLm1hZT4nLCAnLW9tYWUnLCAnPG91dGZpbGUubWFlPic=

> <r_epik_Ionization_Penalty>
3.88091

> <r_epik_Ionization_Penalty_Charging>
0

> <r_epik_Ionization_Penalty_Neutral>
3.88091

> <r_epik_State_Penalty>
3.88049

> <r_epik_Charging_Adjusted_Penalty>
3.88049

> <i_epik_Tot_Q>
0

> <i_epik_Tot_abs_Q>
0

> <r_epik_Metal_State_Penalty>
0.313783

> <b_epik_Metal_Only>
1

> <s_lp_Force_Field>
OPLS_2005

> <r_lp_Energy>
24.4145

> <b_lp_Chiralities_Consistent>
1

> <s_lp_Variant>
AV-unprocessed.smi:949-5

> <Gold.Version>
5.8.1

> <Gold.Id.Protein>
6NUR|6NUR_protein|mol2

> <Gold.PLP.Fitness>
40.9317

> <Gold.PLP.PLP>
-30.1009

> <Gold.PLP.part.hbond>
-2.0000

> <Gold.PLP.part.metal>
0.0000

> <Gold.PLP.part.buried>
-4.3052

> <Gold.PLP.part.nonpolar>
-25.4000

> <Gold.PLP.part.repulsive>
1.5865

> <Gold.PLP.ligand.clash>
0.0000

> <Gold.PLP.ligand.torsion>
0.5998

> <Gold.PLP.Chemscore.Hbond>
2.0000

> <Gold.PLP.Chemscore.CHOScore>
1.9998

> <Gold.PLP.Chemscore.Metal>
0.0000

> <Gold.Chemscore.Hbonds>
donor molecule, donor type, donor heavy atom, donor atom, acceptor molecule, acceptor atom, score
      L1  H     3    20       P1  8028  1.00
      L1  H    10    24       P1  8028  0.90
      L1  C     6    22       P1  7948  0.99
      L1  C     8    23       P1 10175  1.00

> <Gold.PLP.Chemscore.Internal.Correction>
0.0309

> <Gold.Rescore>
     Score         DG    S(hbond)    S(metal)    S(lipo)     H(rot)  DE(clash)    DE(int)     intcor
     17.27     -18.41       1.74        0.00      87.39       1.22       0.27       0.88       ----

> <Gold.Chemscore.Fitness>
17.2659

> <Gold.Chemscore.DG>
-18.4118

> <Gold.Chemscore.ZeroCoef>
-5.4800

> <Gold.Chemscore.Hbond>
1.7433

> <Gold.Chemscore.Metal>
0.0000

> <Gold.Chemscore.Lipo>
87.3872

> <Gold.Chemscore.Internal_Hbond>
0.0000

> <Gold.Chemscore.DEClash>
0.2704

> <Gold.Chemscore.DEInternal>
0.8755

> <Gold.Chemscore.Rot>
1.2169

> <Gold.Chemscore.Internal.Correction>
   9.000000E+99

> <Gold.Chemscore.Hbonds>
donor molecule, donor type, donor heavy atom, donor atom, acceptor molecule, acceptor atom, score
      L1  H     3    20       P1  8028  1.00
      L1  H    10    24       P1  8028  0.18

> <Gold.Chemscore.Hbond.Weighted>
-5.8226

> <Gold.Chemscore.Metal.Weighted>
-0.0000

> <Gold.Chemscore.Lipo.Weighted>
-10.2243

> <Gold.Chemscore.Internal_Hbond.Weighted>
0.0000

> <Gold.Chemscore.DEClash.Weighted>
0.2704

> <Gold.Chemscore.DEInternal.Weighted>
0.8755

> <Gold.Chemscore.Rot.Weighted>
3.1152

> <Gold.Chemscore.Internal.Correction.Weighted>
   9.000000E+99

> <Gold.Protein.RotatedTorsions>
[ 6907 6896 6895 6894 ] final  -14.07 input  -60.11 | X-H torsion
[ 7974 7965 7964 7962 ] final -156.22 input  175.53 | X-H torsion
[ 8008 7997 7996 7995 ] final  137.47 input   59.86 | X-H torsion
[ 10167 10162 10161 10158 ] final -145.12 input  -65.29 | X-H torsion
[ 10718 10713 10712 10709 ] final    6.78 input   66.30 | X-H torsion
[ 10763 10752 10751 10750 ] final  -11.75 input  -60.55 | X-H torsion
[ 11005 11000 10999 10996 ] final  165.54 input  -57.11 | X-H torsion

> <Gold.Protein.ActiveResidues>
 VAL166  LYS551  ARG553  GLY616  TRP617  ASP618  TYR619  PRO620  LYS621  CYS622 
 ASP623  PHE694  ASN695  SER759  ASP760  ASP761  ALA762  ILE779  LEU786  VAL792 
 PHE793  MET794  SER795  GLU796  ALA797  LYS798  CYS799  TRP800  GLU811  SER814 

> <Gold.Protein.RotatedAtoms>
  151.3450  135.0872  159.9383 H   0  0  0  0  0  0  0  0  0  0  0  0  # atno 6907 bound_to 6896
  152.5202  133.9409  159.7636 H   0  0  0  0  0  0  0  0  0  0  0  0  # atno 6908 bound_to 6896
  150.9773  133.6228  159.2758 H   0  0  0  0  0  0  0  0  0  0  0  0  # atno 6909 bound_to 6896
  144.7603  140.4139  143.5981 H   0  0  0  0  0  0  0  0  0  0  0  0  # atno 7974 bound_to 7965
  156.3002  140.2418  156.3915 H   0  0  0  0  0  0  0  0  0  0  0  0  # atno 8008 bound_to 7997
  154.8610  140.0420  157.1685 H   0  0  0  0  0  0  0  0  0  0  0  0  # atno 8009 bound_to 7997
  154.8896  140.2961  155.5382 H   0  0  0  0  0  0  0  0  0  0  0  0  # atno 8010 bound_to 7997
  139.7835  143.8067  152.2642 H   0  0  0  0  0  0  0  0  0  0  0  0  # atno 10167 bound_to 10162
  156.9272  130.5812  149.5649 H   0  0  0  0  0  0  0  0  0  0  0  0  # atno 10718 bound_to 10713
  153.4883  135.7017  153.5898 H   0  0  0  0  0  0  0  0  0  0  0  0  # atno 10763 bound_to 10752
  153.4082  135.3855  155.2032 H   0  0  0  0  0  0  0  0  0  0  0  0  # atno 10764 bound_to 10752
  154.8718  135.3898  154.4341 H   0  0  0  0  0  0  0  0  0  0  0  0  # atno 10765 bound_to 10752
  140.2572  134.7931  157.3556 H   0  0  0  0  0  0  0  0  0  0  0  0  # atno 11005 bound_to 11000
  145.6642  139.1587  143.2791 LP  0  0  0  0  0  0  0  0  0  0  0  0  # atno 17320 bound_to 7965
  146.1658  140.6719  142.9256 LP  0  0  0  0  0  0  0  0  0  0  0  0  # atno 17321 bound_to 7965
  139.8137  144.7325  150.9664 LP  0  0  0  0  0  0  0  0  0  0  0  0  # atno 17342 bound_to 10162
  140.7819  143.4226  151.0818 LP  0  0  0  0  0  0  0  0  0  0  0  0  # atno 17343 bound_to 10162
  156.0464  130.5539  150.8889 LP  0  0  0  0  0  0  0  0  0  0  0  0  # atno 17370 bound_to 10713
  157.5870  131.0945  150.9180 LP  0  0  0  0  0  0  0  0  0  0  0  0  # atno 17371 bound_to 10713
  140.1500  134.4862  155.7968 LP  0  0  0  0  0  0  0  0  0  0  0  0  # atno 17394 bound_to 11000
  141.2195  133.6859  156.7362 LP  0  0  0  0  0  0  0  0  0  0  0  0  # atno 17395 bound_to 11000

$$$$
