AV-unprocessed.smi:103|AV-procd|sdf|983|dock5
  -GOLD-   2262017553D 1   1.00000     0.00000
 Structure written by MMmdl.
 53 55  0  0  0  0  0  0  0  0  1 V2000
  153.9189  137.3548  161.8424 C   0  0  0  0  0  0  0  0  0  0  0  0
  153.6261  137.3502  160.3479 C   0  0  0  0  0  0  0  0  0  0  0  0
  153.1427  136.3655  159.7893 O   0  0  0  0  0  0  0  0  0  0  0  0
  153.9543  138.5099  159.7612 O   0  0  0  0  0  0  0  0  0  0  0  0
  153.4487  138.8180  158.4726 C   0  0  0  0  0  0  0  0  0  0  0  0
  151.9908  139.2756  158.5952 C   0  0  2  0  0  0  0  0  0  0  0  0
  151.1767  138.1802  158.9830 O   0  0  0  0  0  0  0  0  0  0  0  0
  149.8659  138.4020  158.5686 C   0  0  2  0  0  0  0  0  0  0  0  0
  149.3255  137.0980  158.0573 N   0  0  0  0  0  0  0  0  0  0  0  0
  148.3397  136.2821  158.5766 C   0  0  0  0  0  0  0  0  0  0  0  0
  147.3759  136.5828  160.0545 S   0  0  0  0  0  0  0  0  0  0  0  0
  146.4651  134.9969  160.2507 C   0  0  0  0  0  0  0  0  0  0  0  0
  148.3285  136.7296  161.1663 O   0  0  0  0  0  0  0  0  0  0  0  0
  146.4234  137.6586  159.7405 O   0  0  0  0  0  0  0  0  0  0  0  0
  148.0313  135.2204  157.8820 N   0  0  0  0  0  0  0  0  0  0  0  0
  148.8948  135.2903  156.7985 C   0  0  0  0  0  0  0  0  0  0  0  0
  149.1150  134.4749  155.6600 C   0  0  0  0  0  0  0  0  0  0  0  0
  148.4328  133.3450  155.4262 N   0  0  0  0  0  0  0  0  0  0  0  0
  150.0559  134.8551  154.7644 N   0  0  0  0  0  0  0  0  0  0  0  0
  150.7478  135.9799  154.9729 C   0  0  0  0  0  0  0  0  0  0  0  0
  150.6542  136.8419  155.9886 N   0  0  0  0  0  0  0  0  0  0  0  0
  149.7082  136.4554  156.8950 C   0  0  0  0  0  0  0  0  0  0  0  0
  149.8869  139.5017  157.4846 C   0  0  2  0  0  0  0  0  0  0  0  0
  149.2635  139.0846  156.2732 O   0  0  0  0  0  0  0  0  0  0  0  0
  149.3732  139.8251  155.1604 C   0  0  0  0  0  0  0  0  0  0  0  0
  148.1575  139.6870  154.2544 C   0  0  0  0  0  0  0  0  0  0  0  0
  150.3223  140.5493  154.8608 O   0  0  0  0  0  0  0  0  0  0  0  0
  151.3733  139.7522  157.2800 C   0  0  1  0  0  0  0  0  0  0  0  0
  151.5931  141.1439  157.0836 O   0  0  0  0  0  0  0  0  0  0  0  0
  151.2901  142.0278  158.0501 C   0  0  0  0  0  0  0  0  0  0  0  0
  151.4730  143.4688  157.5940 C   0  0  0  0  0  0  0  0  0  0  0  0
  150.8973  141.7594  159.1851 O   0  0  0  0  0  0  0  0  0  0  0  0
  153.1633  137.9338  162.3733 H   0  0  0  0  0  0  0  0  0  0  0  0
  154.8960  137.7976  162.0374 H   0  0  0  0  0  0  0  0  0  0  0  0
  153.9166  136.3381  162.2358 H   0  0  0  0  0  0  0  0  0  0  0  0
  154.0453  139.5960  157.9934 H   0  0  0  0  0  0  0  0  0  0  0  0
  153.5114  137.9261  157.8479 H   0  0  0  0  0  0  0  0  0  0  0  0
  151.8908  140.0439  159.3642 H   0  0  0  0  0  0  0  0  0  0  0  0
  149.2492  138.6717  159.4213 H   0  0  0  0  0  0  0  0  0  0  0  0
  145.8689  135.0328  161.1621 H   0  0  0  0  0  0  0  0  0  0  0  0
  147.1773  134.1744  160.3148 H   0  0  0  0  0  0  0  0  0  0  0  0
  145.8074  134.8408  159.3973 H   0  0  0  0  0  0  0  0  0  0  0  0
  147.7239  133.0410  156.0782 H   0  0  0  0  0  0  0  0  0  0  0  0
  148.6336  132.7960  154.6031 H   0  0  0  0  0  0  0  0  0  0  0  0
  151.4812  136.2244  154.2184 H   0  0  0  0  0  0  0  0  0  0  0  0
  149.3988  140.3795  157.9120 H   0  0  0  0  0  0  0  0  0  0  0  0
  147.2548  139.9920  154.7839 H   0  0  0  0  0  0  0  0  0  0  0  0
  148.0397  138.6513  153.9358 H   0  0  0  0  0  0  0  0  0  0  0  0
  148.2669  140.3116  153.3675 H   0  0  0  0  0  0  0  0  0  0  0  0
  151.7346  139.1349  156.4558 H   0  0  0  0  0  0  0  0  0  0  0  0
  152.3937  143.5733  157.0197 H   0  0  0  0  0  0  0  0  0  0  0  0
  151.5251  144.1378  158.4529 H   0  0  0  0  0  0  0  0  0  0  0  0
  150.6353  143.7747  156.9671 H   0  0  0  0  0  0  0  0  0  0  0  0
  1  2  1  0  0  0  0
  1 33  1  0  0  0  0
  1 34  1  0  0  0  0
  1 35  1  0  0  0  0
  2  3  2  0  0  0  0
  2  4  1  0  0  0  0
  4  5  1  0  0  0  0
  5  6  1  0  0  0  0
  5 36  1  0  0  0  0
  5 37  1  0  0  0  0
  6 28  1  0  0  0  0
  6  7  1  0  0  0  0
  6 38  1  0  0  0  0
  7  8  1  0  0  0  0
  8  9  1  0  0  0  0
  8 23  1  0  0  0  0
  8 39  1  0  0  0  0
  9 22  1  0  0  0  0
  9 10  1  0  0  0  0
 10 11  1  0  0  0  0
 10 15  2  0  0  0  0
 11 12  1  0  0  0  0
 11 13  2  0  0  0  0
 11 14  2  0  0  0  0
 12 40  1  0  0  0  0
 12 41  1  0  0  0  0
 12 42  1  0  0  0  0
 15 16  1  0  0  0  0
 16 22  2  0  0  0  0
 16 17  1  0  0  0  0
 17 18  1  0  0  0  0
 17 19  2  0  0  0  0
 18 43  1  0  0  0  0
 18 44  1  0  0  0  0
 19 20  1  0  0  0  0
 20 21  2  0  0  0  0
 20 45  1  0  0  0  0
 21 22  1  0  0  0  0
 23 24  1  0  0  0  0
 23 28  1  0  0  0  0
 23 46  1  0  0  0  0
 24 25  1  0  0  0  0
 25 26  1  0  0  0  0
 25 27  2  0  0  0  0
 26 47  1  0  0  0  0
 26 48  1  0  0  0  0
 26 49  1  0  0  0  0
 28 29  1  0  0  0  0
 28 50  1  0  0  0  0
 29 30  1  0  0  0  0
 30 31  1  0  0  0  0
 30 32  2  0  0  0  0
 31 51  1  0  0  0  0
 31 52  1  0  0  0  0
 31 53  1  0  0  0  0
M  END
> <s_m_source_file>
AV-unprocessed.smi

> <i_m_source_file_index>
103

> <i_lp_mmshare_version>
43012

> <i_f3d_flags>
0

> <s_epik_input>
W0NIM11DKD1PKU9bQ0gyXVtDQEBIXTFPW0NASF0oW0NAQEhdKE9DKD1PKVtDSDNdKVtDQEhdMU9DKD1PKVtDSDNdKW4oYyhuMilTKD1PKSg9TylbQ0gzXSljKGMyMyluW2NIXW5jM1tOSDJd

> <s_epik_cmdline>
J2VwaWtfcHl0aG9uJywgJy1waCcsICc3LjAnLCAnLXRuJywgJzgnLCAnLW1hJywgJzIwMCcsICctbWV0YWxfYmluZGluZycsICctaW1hZScsICc8aW5maWxlLm1hZT4nLCAnLW9tYWUnLCAnPG91dGZpbGUubWFlPic=

> <r_lp_tautomer_probability>
1

> <r_epik_Ionization_Penalty>
1.51338e-05

> <r_epik_Ionization_Penalty_Charging>
0

> <r_epik_Ionization_Penalty_Neutral>
1.51338e-05

> <r_epik_State_Penalty>
-0

> <r_epik_Charging_Adjusted_Penalty>
0

> <i_epik_Tot_Q>
0

> <i_epik_Tot_abs_Q>
0

> <r_epik_Metal_State_Penalty>
-0

> <b_epik_Metal_Only>
0

> <s_epik_Chemistry_Notes>
This compound has an ester and may undergo hydrolysis at high or low pH. This compound contains an acetal/aminal-like group ( X-CH(R)-Y where X, Y are N, S, or O) that may be acid/base labile, releasing an aldehyde.

> <s_lp_Force_Field>
OPLS_2005

> <r_lp_Energy>
14.5233

> <b_lp_Chiralities_Consistent>
1

> <s_lp_Variant>
AV-unprocessed.smi:103-7

> <Gold.Version>
5.8.1

> <Gold.Id.Protein>
6NUR|6NUR_protein|mol2

> <Gold.PLP.Fitness>
42.9907

> <Gold.PLP.PLP>
-32.0263

> <Gold.PLP.part.hbond>
-4.6085

> <Gold.PLP.part.metal>
0.0000

> <Gold.PLP.part.buried>
-6.4235

> <Gold.PLP.part.nonpolar>
-20.2723

> <Gold.PLP.part.repulsive>
0.3063

> <Gold.PLP.ligand.clash>
0.4349

> <Gold.PLP.ligand.torsion>
2.1823

> <Gold.PLP.Chemscore.Hbond>
3.9600

> <Gold.PLP.Chemscore.CHOScore>
0.5191

> <Gold.PLP.Chemscore.Metal>
0.0000

> <Gold.Chemscore.Hbonds>
donor molecule, donor type, donor heavy atom, donor atom, acceptor molecule, acceptor atom, score
      P1  H  6896  6909       L1     3  1.00
      P1  H  6931  6943       L1    13  1.00
      P1  H  6934  6947       L1    14  0.95
      P1  H  7989  7998       L1    27  0.96
      L1  C    20    45       P1  7949  0.42

> <Gold.PLP.Chemscore.Internal.Correction>
2.3266

> <Gold.Rescore>
     Score         DG    S(hbond)    S(metal)    S(lipo)     H(rot)  DE(clash)    DE(int)     intcor
      1.98     -12.34       3.68        0.00      46.43       4.25       0.03      10.34       ----

> <Gold.Chemscore.Fitness>
1.9764

> <Gold.Chemscore.DG>
-12.3430

> <Gold.Chemscore.ZeroCoef>
-5.4800

> <Gold.Chemscore.Hbond>
3.6825

> <Gold.Chemscore.Metal>
0.0000

> <Gold.Chemscore.Lipo>
46.4287

> <Gold.Chemscore.Internal_Hbond>
0.0000

> <Gold.Chemscore.DEClash>
0.0301

> <Gold.Chemscore.DEInternal>
10.3365

> <Gold.Chemscore.Rot>
4.2456

> <Gold.Chemscore.Internal.Correction>
   9.000000E+99

> <Gold.Chemscore.Hbonds>
donor molecule, donor type, donor heavy atom, donor atom, acceptor molecule, acceptor atom, score
      P1  H  6896  6909       L1     3  1.00
      P1  H  6931  6943       L1    13  1.00
      P1  H  6934  6947       L1    14  0.20
      P1  H  7989  7998       L1    27  0.92

> <Gold.Chemscore.Hbond.Weighted>
-12.2995

> <Gold.Chemscore.Metal.Weighted>
-0.0000

> <Gold.Chemscore.Lipo.Weighted>
-5.4322

> <Gold.Chemscore.Internal_Hbond.Weighted>
0.0000

> <Gold.Chemscore.DEClash.Weighted>
0.0301

> <Gold.Chemscore.DEInternal.Weighted>
10.3365

> <Gold.Chemscore.Rot.Weighted>
10.8687

> <Gold.Chemscore.Internal.Correction.Weighted>
   9.000000E+99

> <Gold.Protein.RotatedTorsions>
[ 6907 6896 6895 6894 ] final  149.64 input  -60.11 | X-H torsion
[ 7974 7965 7964 7962 ] final  -45.98 input  175.53 | X-H torsion
[ 8008 7997 7996 7995 ] final   -8.69 input   59.86 | X-H torsion
[ 10167 10162 10161 10158 ] final   93.14 input  -65.29 | X-H torsion
[ 10718 10713 10712 10709 ] final -154.83 input   66.30 | X-H torsion
[ 10763 10752 10751 10750 ] final -122.14 input  -60.55 | X-H torsion
[ 11005 11000 10999 10996 ] final   82.92 input  -57.11 | X-H torsion

> <Gold.Protein.ActiveResidues>
 VAL166  LYS551  ARG553  GLY616  TRP617  ASP618  TYR619  PRO620  LYS621  CYS622 
 ASP623  PHE694  ASN695  SER759  ASP760  ASP761  ALA762  ILE779  LEU786  VAL792 
 PHE793  MET794  SER795  GLU796  ALA797  LYS798  CYS799  TRP800  GLU811  SER814 

> <Gold.Protein.RotatedAtoms>
  152.1253  133.4376  159.4694 H   0  0  0  0  0  0  0  0  0  0  0  0  # atno 6907 bound_to 6896
  150.6874  134.2486  159.4510 H   0  0  0  0  0  0  0  0  0  0  0  0  # atno 6908 bound_to 6896
  152.0366  134.9736  160.0624 H   0  0  0  0  0  0  0  0  0  0  0  0  # atno 6909 bound_to 6896
  145.9766  140.7328  142.9384 H   0  0  0  0  0  0  0  0  0  0  0  0  # atno 7974 bound_to 7965
  154.5718  140.2374  155.8181 H   0  0  0  0  0  0  0  0  0  0  0  0  # atno 8008 bound_to 7997
  156.2112  140.3025  155.9695 H   0  0  0  0  0  0  0  0  0  0  0  0  # atno 8009 bound_to 7997
  155.2700  140.0418  157.2996 H   0  0  0  0  0  0  0  0  0  0  0  0  # atno 8010 bound_to 7997
  139.8209  144.6732  150.9520 H   0  0  0  0  0  0  0  0  0  0  0  0  # atno 10167 bound_to 10162
  156.5046  130.8407  151.2622 H   0  0  0  0  0  0  0  0  0  0  0  0  # atno 10718 bound_to 10713
  154.8683  135.4143  154.2733 H   0  0  0  0  0  0  0  0  0  0  0  0  # atno 10763 bound_to 10752
  153.3639  135.7004  153.6696 H   0  0  0  0  0  0  0  0  0  0  0  0  # atno 10764 bound_to 10752
  153.5585  135.3614  155.2761 H   0  0  0  0  0  0  0  0  0  0  0  0  # atno 10765 bound_to 10752
  139.9048  134.8106  156.2239 H   0  0  0  0  0  0  0  0  0  0  0  0  # atno 11005 bound_to 11000
  144.6850  140.2838  143.7288 LP  0  0  0  0  0  0  0  0  0  0  0  0  # atno 17320 bound_to 7965
  145.7830  139.1898  143.2147 LP  0  0  0  0  0  0  0  0  0  0  0  0  # atno 17321 bound_to 7965
  140.7813  143.4093  151.1019 LP  0  0  0  0  0  0  0  0  0  0  0  0  # atno 17342 bound_to 10162
  139.7753  143.8434  152.3128 LP  0  0  0  0  0  0  0  0  0  0  0  0  # atno 17343 bound_to 10162
  157.7458  130.9970  150.2801 LP  0  0  0  0  0  0  0  0  0  0  0  0  # atno 17370 bound_to 10713
  156.3300  130.3799  149.7500 LP  0  0  0  0  0  0  0  0  0  0  0  0  # atno 17371 bound_to 10713
  141.0388  133.6949  156.1561 LP  0  0  0  0  0  0  0  0  0  0  0  0  # atno 17394 bound_to 11000
  140.6986  134.4588  157.5587 LP  0  0  0  0  0  0  0  0  0  0  0  0  # atno 17395 bound_to 11000

$$$$
