AV-unprocessed.smi:3046|AV-procd|sdf|11617|dock8
  -GOLD-   2272017 03D 1   1.00000     0.00000
 Structure written by MMmdl.
 37 37  0  0  0  0  0  0  0  0  1 V2000
  151.7748  144.3876  158.8882 C   0  0  0  0  0  0  0  0  0  0  0  0
  152.3401  143.6351  159.8440 C   0  0  0  0  0  0  0  0  0  0  0  0
  153.0464  142.3203  159.5926 C   0  0  0  0  0  0  0  0  0  0  0  0
  152.1185  141.3417  159.0480 N   0  0  0  0  0  0  0  0  0  0  0  0
  152.4677  140.1323  158.5866 C   0  0  0  0  0  0  0  0  0  0  0  0
  153.6304  139.7260  158.5779 O   0  0  0  0  0  0  0  0  0  0  0  0
  151.3271  139.2695  158.0328 C   0  0  2  0  0  0  0  0  0  0  0  0
  151.1673  137.9571  158.8261 C   0  0  0  0  0  0  0  0  0  0  0  0
  151.5594  138.9983  156.6056 N   0  0  0  0  0  0  0  0  0  0  0  0
  150.3297  138.8361  155.8329 C   0  0  2  0  0  0  0  0  0  0  0  0
  150.2908  137.3905  155.3191 C   0  0  0  0  0  0  0  0  0  0  0  0
  150.3062  139.8472  154.6657 C   0  0  0  0  0  0  0  0  0  0  0  0
  148.9634  140.2490  154.2835 N   0  0  0  0  0  0  0  0  0  0  0  0
  148.3890  141.5000  154.3662 C   0  0  0  0  0  0  0  0  0  0  0  0
  147.1090  141.3909  153.9036 C   0  0  0  0  0  0  0  0  0  0  0  0
  146.9954  140.0186  153.5450 C   0  0  0  0  0  0  0  0  0  0  0  0
  148.1082  139.3386  153.7695 N   0  0  0  0  0  0  0  0  0  0  0  0
  151.7965  144.0865  157.8510 H   0  0  0  0  0  0  0  0  0  0  0  0
  151.2815  145.3168  159.1326 H   0  0  0  0  0  0  0  0  0  0  0  0
  152.2946  143.9669  160.8715 H   0  0  0  0  0  0  0  0  0  0  0  0
  153.8582  142.4881  158.8834 H   0  0  0  0  0  0  0  0  0  0  0  0
  153.4878  141.9441  160.5172 H   0  0  0  0  0  0  0  0  0  0  0  0
  151.1428  141.6000  159.0143 H   0  0  0  0  0  0  0  0  0  0  0  0
  150.4126  139.8534  158.1477 H   0  0  0  0  0  0  0  0  0  0  0  0
  151.0471  138.1533  159.8923 H   0  0  0  0  0  0  0  0  0  0  0  0
  152.0322  137.3041  158.7033 H   0  0  0  0  0  0  0  0  0  0  0  0
  150.2885  137.3992  158.5029 H   0  0  0  0  0  0  0  0  0  0  0  0
  152.1527  138.1904  156.4797 H   0  0  0  0  0  0  0  0  0  0  0  0
  149.4475  138.9857  156.4572 H   0  0  0  0  0  0  0  0  0  0  0  0
  149.3879  137.2081  154.7359 H   0  0  0  0  0  0  0  0  0  0  0  0
  150.2949  136.6788  156.1456 H   0  0  0  0  0  0  0  0  0  0  0  0
  151.1471  137.1678  154.6812 H   0  0  0  0  0  0  0  0  0  0  0  0
  150.8765  140.7410  154.9232 H   0  0  0  0  0  0  0  0  0  0  0  0
  150.7899  139.4156  153.7881 H   0  0  0  0  0  0  0  0  0  0  0  0
  148.9292  142.3515  154.7537 H   0  0  0  0  0  0  0  0  0  0  0  0
  146.3669  142.1724  153.8328 H   0  0  0  0  0  0  0  0  0  0  0  0
  146.1433  139.4993  153.1317 H   0  0  0  0  0  0  0  0  0  0  0  0
  1  2  2  0  0  0  0
  1 18  1  0  0  0  0
  1 19  1  0  0  0  0
  2  3  1  0  0  0  0
  2 20  1  0  0  0  0
  3  4  1  0  0  0  0
  3 21  1  0  0  0  0
  3 22  1  0  0  0  0
  4  5  1  0  0  0  0
  4 23  1  0  0  0  0
  5  6  2  0  0  0  0
  5  7  1  0  0  0  0
  7  8  1  0  0  0  0
  7  9  1  0  0  0  0
  7 24  1  0  0  0  0
  8 25  1  0  0  0  0
  8 26  1  0  0  0  0
  8 27  1  0  0  0  0
  9 10  1  0  0  0  0
  9 28  1  0  0  0  0
 10 11  1  0  0  0  0
 10 12  1  0  0  0  0
 10 29  1  0  0  0  0
 11 30  1  0  0  0  0
 11 31  1  0  0  0  0
 11 32  1  0  0  0  0
 12 13  1  0  0  0  0
 12 33  1  0  0  0  0
 12 34  1  0  0  0  0
 13 17  1  0  0  0  0
 13 14  1  0  0  0  0
 14 15  2  0  0  0  0
 14 35  1  0  0  0  0
 15 16  1  0  0  0  0
 15 36  1  0  0  0  0
 16 17  2  0  0  0  0
 16 37  1  0  0  0  0
M  END
> <s_m_source_file>
AV-unprocessed.smi

> <i_m_source_file_index>
3046

> <i_lp_mmshare_version>
43012

> <i_f3d_flags>
0

> <s_epik_input>
W0NIMl09W0NIXVtDSDJdW05IXUMoPU8pW0NASF0oW0NIM10pW05IXVtDQEhdKFtDSDNdKVtDSDJdbjFbY0hdW2NIXVtjSF1uMQ==

> <s_epik_cmdline>
J2VwaWtfcHl0aG9uJywgJy1waCcsICc3LjAnLCAnLXRuJywgJzgnLCAnLW1hJywgJzIwMCcsICctbWV0YWxfYmluZGluZycsICctaW1hZScsICc8aW5maWxlLm1hZT4nLCAnLW9tYWUnLCAnPG91dGZpbGUubWFlPic=

> <r_lp_tautomer_probability>
1

> <r_epik_Ionization_Penalty>
0.950627

> <r_epik_Ionization_Penalty_Charging>
0

> <r_epik_Ionization_Penalty_Neutral>
0.950627

> <r_epik_State_Penalty>
0.994814

> <r_epik_Charging_Adjusted_Penalty>
0.994814

> <i_epik_Tot_Q>
0

> <i_epik_Tot_abs_Q>
0

> <r_epik_Metal_State_Penalty>
0.994788

> <b_epik_Metal_Only>
0

> <s_lp_Force_Field>
OPLS_2005

> <r_lp_Energy>
5.49444

> <b_lp_Chiralities_Consistent>
1

> <s_lp_Variant>
AV-unprocessed.smi:3046-5

> <Gold.Version>
5.8.1

> <Gold.Id.Protein>
6NUR|6NUR_protein|mol2

> <Gold.PLP.Fitness>
39.4388

> <Gold.PLP.PLP>
-33.3213

> <Gold.PLP.part.hbond>
-1.0000

> <Gold.PLP.part.metal>
0.0000

> <Gold.PLP.part.buried>
-2.9020

> <Gold.PLP.part.nonpolar>
-29.8044

> <Gold.PLP.part.repulsive>
0.2804

> <Gold.PLP.ligand.clash>
0.0000

> <Gold.PLP.ligand.torsion>
1.5190

> <Gold.PLP.Chemscore.Hbond>
1.0000

> <Gold.PLP.Chemscore.CHOScore>
2.0000

> <Gold.PLP.Chemscore.Metal>
0.0000

> <Gold.Chemscore.Hbonds>
donor molecule, donor type, donor heavy atom, donor atom, acceptor molecule, acceptor atom, score
      P1  H  7997  8009       L1     6  1.00
      L1  C    14    35       P1  8028  1.00
      L1  C    16    37       P1 10175  0.50

> <Gold.PLP.Chemscore.Internal.Correction>
0.1555

> <Gold.Rescore>
     Score         DG    S(hbond)    S(metal)    S(lipo)     H(rot)  DE(clash)    DE(int)     intcor
     11.45     -12.90       0.99        0.00      82.80       2.17       0.07       1.38       ----

> <Gold.Chemscore.Fitness>
11.4480

> <Gold.Chemscore.DG>
-12.8983

> <Gold.Chemscore.ZeroCoef>
-5.4800

> <Gold.Chemscore.Hbond>
0.9869

> <Gold.Chemscore.Metal>
0.0000

> <Gold.Chemscore.Lipo>
82.7972

> <Gold.Chemscore.Internal_Hbond>
0.0000

> <Gold.Chemscore.DEClash>
0.0677

> <Gold.Chemscore.DEInternal>
1.3825

> <Gold.Chemscore.Rot>
2.1739

> <Gold.Chemscore.Internal.Correction>
   9.000000E+99

> <Gold.Chemscore.Hbonds>
donor molecule, donor type, donor heavy atom, donor atom, acceptor molecule, acceptor atom, score
      P1  H  7997  8009       L1     6  0.95

> <Gold.Chemscore.Hbond.Weighted>
-3.2961

> <Gold.Chemscore.Metal.Weighted>
-0.0000

> <Gold.Chemscore.Lipo.Weighted>
-9.6873

> <Gold.Chemscore.Internal_Hbond.Weighted>
0.0000

> <Gold.Chemscore.DEClash.Weighted>
0.0677

> <Gold.Chemscore.DEInternal.Weighted>
1.3825

> <Gold.Chemscore.Rot.Weighted>
5.5652

> <Gold.Chemscore.Internal.Correction.Weighted>
   9.000000E+99

> <Gold.Protein.RotatedTorsions>
[ 6907 6896 6895 6894 ] final   13.22 input  -60.11 | X-H torsion
[ 7974 7965 7964 7962 ] final  -99.35 input  175.53 | X-H torsion
[ 8008 7997 7996 7995 ] final  151.98 input   59.86 | X-H torsion
[ 10167 10162 10161 10158 ] final  106.43 input  -65.29 | X-H torsion
[ 10718 10713 10712 10709 ] final -131.76 input   66.30 | X-H torsion
[ 10763 10752 10751 10750 ] final -150.24 input  -60.55 | X-H torsion
[ 11005 11000 10999 10996 ] final  -97.33 input  -57.11 | X-H torsion

> <Gold.Protein.ActiveResidues>
 VAL166  LYS551  ARG553  GLY616  TRP617  ASP618  TYR619  PRO620  LYS621  CYS622 
 ASP623  PHE694  ASN695  SER759  ASP760  ASP761  ALA762  ILE779  LEU786  VAL792 
 PHE793  MET794  SER795  GLU796  ALA797  LYS798  CYS799  TRP800  GLU811  SER814 

> <Gold.Protein.RotatedAtoms>
  151.7829  135.0757  160.0376 H   0  0  0  0  0  0  0  0  0  0  0  0  # atno 6907 bound_to 6896
  152.3210  133.5850  159.5753 H   0  0  0  0  0  0  0  0  0  0  0  0  # atno 6908 bound_to 6896
  150.7370  133.9926  159.3654 H   0  0  0  0  0  0  0  0  0  0  0  0  # atno 6909 bound_to 6896
  145.3087  140.9395  143.2782 H   0  0  0  0  0  0  0  0  0  0  0  0  # atno 7974 bound_to 7965
  156.2649  140.2033  156.6262 H   0  0  0  0  0  0  0  0  0  0  0  0  # atno 8008 bound_to 7997
  154.6719  140.0549  157.0198 H   0  0  0  0  0  0  0  0  0  0  0  0  # atno 8009 bound_to 7997
  155.1125  140.3217  155.4521 H   0  0  0  0  0  0  0  0  0  0  0  0  # atno 8010 bound_to 7997
  139.7010  144.7094  151.1186 H   0  0  0  0  0  0  0  0  0  0  0  0  # atno 10167 bound_to 10162
  156.2277  130.7018  151.0824 H   0  0  0  0  0  0  0  0  0  0  0  0  # atno 10718 bound_to 10713
  154.8130  135.3289  154.7252 H   0  0  0  0  0  0  0  0  0  0  0  0  # atno 10763 bound_to 10752
  153.7898  135.6912  153.4878 H   0  0  0  0  0  0  0  0  0  0  0  0  # atno 10764 bound_to 10752
  153.1924  135.4546  155.0113 H   0  0  0  0  0  0  0  0  0  0  0  0  # atno 10765 bound_to 10752
  141.1382  133.8163  157.0691 H   0  0  0  0  0  0  0  0  0  0  0  0  # atno 11005 bound_to 11000
  144.9033  139.4621  143.6622 LP  0  0  0  0  0  0  0  0  0  0  0  0  # atno 17320 bound_to 7965
  146.3126  139.7800  142.9008 LP  0  0  0  0  0  0  0  0  0  0  0  0  # atno 17321 bound_to 7965
  140.7709  143.5424  150.9297 LP  0  0  0  0  0  0  0  0  0  0  0  0  # atno 17342 bound_to 10162
  139.9106  143.6725  152.3116 LP  0  0  0  0  0  0  0  0  0  0  0  0  # atno 17343 bound_to 10162
  157.7118  131.0730  150.6473 LP  0  0  0  0  0  0  0  0  0  0  0  0  # atno 17370 bound_to 10713
  156.6539  130.4493  149.5710 LP  0  0  0  0  0  0  0  0  0  0  0  0  # atno 17371 bound_to 10713
  140.0522  134.9799  157.1157 LP  0  0  0  0  0  0  0  0  0  0  0  0  # atno 17394 bound_to 11000
  140.3972  134.2121  155.7164 LP  0  0  0  0  0  0  0  0  0  0  0  0  # atno 17395 bound_to 11000

$$$$
