AV-unprocessed.smi:37|AV-procd|sdf|318|dock7
  -GOLD-   2262016143D 1   1.00000     0.00000
 Structure written by MMmdl.
 44 45  0  0  0  0  0  0  0  0  1 V2000
  146.8950  134.9069  162.1700 C   0  0  0  0  0  0  0  0  0  0  0  0
  146.7244  136.4017  162.4791 C   0  0  0  0  0  0  0  0  0  0  0  0
  147.5273  137.3152  161.5507 C   0  0  0  0  0  0  0  0  0  0  0  0
  148.2441  136.8767  160.6491 O   0  0  0  0  0  0  0  0  0  0  0  0
  147.3492  138.6108  161.8481 O   0  0  0  0  0  0  0  0  0  0  0  0
  148.1614  139.5969  161.2288 C   0  0  0  0  0  0  0  0  0  0  0  0
  147.5344  140.0421  159.9011 C   0  0  1  0  0  0  0  0  0  0  0  0
  146.1138  140.1285  160.0069 O   0  0  0  0  0  0  0  0  0  0  0  0
  145.6848  141.3631  159.5175 C   0  0  2  0  0  0  0  0  0  0  0  0
  144.3663  141.2081  158.7968 N   0  0  0  0  0  0  0  0  0  0  0  0
  143.7345  139.9773  158.6635 C   0  0  0  0  0  0  0  0  0  0  0  0
  142.5557  139.8233  158.0154 C   0  0  0  0  0  0  0  0  0  0  0  0
  142.0056  138.6009  157.9212 F   0  0  0  0  0  0  0  0  0  0  0  0
  141.8806  140.9698  157.4138 C   0  0  0  0  0  0  0  0  0  0  0  0
  140.8100  140.9307  156.8108 O   0  0  0  0  0  0  0  0  0  0  0  0
  142.5564  142.1841  157.5673 N   0  0  0  0  0  0  0  0  0  0  0  0
  143.7724  142.3561  158.2306 C   0  0  0  0  0  0  0  0  0  0  0  0
  144.2851  143.4722  158.3022 O   0  0  0  0  0  0  0  0  0  0  0  0
  146.8013  141.8859  158.6074 C   0  0  2  0  0  0  0  0  0  0  0  0
  146.7473  141.0352  156.7968 Br  0  0  0  0  0  0  0  0  0  0  0  0
  148.0158  141.4038  159.3831 C   0  0  2  0  0  0  0  0  0  0  0  0
  149.1856  141.2880  158.5832 O   0  0  0  0  0  0  0  0  0  0  0  0
  149.8121  142.3919  158.1405 C   0  0  0  0  0  0  0  0  0  0  0  0
  149.8228  143.4861  158.7072 O   0  0  0  0  0  0  0  0  0  0  0  0
  150.5329  142.1467  156.8134 C   0  0  0  0  0  0  0  0  0  0  0  0
  149.5882  141.7780  155.6600 C   0  0  0  0  0  0  0  0  0  0  0  0
  142.1294  143.0046  157.1627 H   0  0  0  0  0  0  0  0  0  0  0  0
  146.3093  134.3030  162.8631 H   0  0  0  0  0  0  0  0  0  0  0  0
  147.9369  134.5979  162.2638 H   0  0  0  0  0  0  0  0  0  0  0  0
  146.5602  134.6674  161.1601 H   0  0  0  0  0  0  0  0  0  0  0  0
  145.6714  136.6740  162.4056 H   0  0  0  0  0  0  0  0  0  0  0  0
  147.0301  136.6003  163.5066 H   0  0  0  0  0  0  0  0  0  0  0  0
  148.2588  140.4634  161.8848 H   0  0  0  0  0  0  0  0  0  0  0  0
  149.1631  139.1984  161.0634 H   0  0  0  0  0  0  0  0  0  0  0  0
  147.7331  139.2803  159.1458 H   0  0  0  0  0  0  0  0  0  0  0  0
  145.4927  142.0125  160.3747 H   0  0  0  0  0  0  0  0  0  0  0  0
  144.1911  139.0901  159.0772 H   0  0  0  0  0  0  0  0  0  0  0  0
  146.7531  142.9688  158.4897 H   0  0  0  0  0  0  0  0  0  0  0  0
  148.1860  142.0727  160.2281 H   0  0  0  0  0  0  0  0  0  0  0  0
  151.0935  143.0453  156.5548 H   0  0  0  0  0  0  0  0  0  0  0  0
  151.2628  141.3501  156.9582 H   0  0  0  0  0  0  0  0  0  0  0  0
  150.1516  141.6086  154.7423 H   0  0  0  0  0  0  0  0  0  0  0  0
  148.8700  142.5745  155.4631 H   0  0  0  0  0  0  0  0  0  0  0  0
  149.0319  140.8655  155.8773 H   0  0  0  0  0  0  0  0  0  0  0  0
  1  2  1  0  0  0  0
  1 28  1  0  0  0  0
  1 29  1  0  0  0  0
  1 30  1  0  0  0  0
  2  3  1  0  0  0  0
  2 31  1  0  0  0  0
  2 32  1  0  0  0  0
  3  4  2  0  0  0  0
  3  5  1  0  0  0  0
  5  6  1  0  0  0  0
  6  7  1  0  0  0  0
  6 33  1  0  0  0  0
  6 34  1  0  0  0  0
  7 21  1  0  0  0  0
  7  8  1  0  0  0  0
  7 35  1  0  0  0  0
  8  9  1  0  0  0  0
  9 10  1  0  0  0  0
  9 19  1  0  0  0  0
  9 36  1  0  0  0  0
 10 17  1  0  0  0  0
 10 11  1  0  0  0  0
 11 12  2  0  0  0  0
 11 37  1  0  0  0  0
 12 13  1  0  0  0  0
 12 14  1  0  0  0  0
 14 15  2  0  0  0  0
 14 16  1  0  0  0  0
 16 27  1  0  0  0  0
 16 17  1  0  0  0  0
 17 18  2  0  0  0  0
 19 20  1  0  0  0  0
 19 21  1  0  0  0  0
 19 38  1  0  0  0  0
 21 22  1  0  0  0  0
 21 39  1  0  0  0  0
 22 23  1  0  0  0  0
 23 24  2  0  0  0  0
 23 25  1  0  0  0  0
 25 26  1  0  0  0  0
 25 40  1  0  0  0  0
 25 41  1  0  0  0  0
 26 42  1  0  0  0  0
 26 43  1  0  0  0  0
 26 44  1  0  0  0  0
M  END
> <s_m_source_file>
AV-unprocessed.smi

> <i_m_source_file_index>
37

> <i_lp_mmshare_version>
43012

> <i_f3d_flags>
0

> <s_epik_input>
W0NIM11bQ0gyXUMoPU8pT1tDSDJdW0NAQEhdMU9bQ0BASF0objJbY0hdYyhGKWMoPU8pW25IXWMyPU8pW0NAQEhdKEJyKVtDQEhdMU9DKD1PKVtDSDJdW0NIM10=

> <s_epik_cmdline>
J2VwaWtfcHl0aG9uJywgJy1waCcsICc3LjAnLCAnLXRuJywgJzgnLCAnLW1hJywgJzIwMCcsICctbWV0YWxfYmluZGluZycsICctaW1hZScsICc8aW5maWxlLm1hZT4nLCAnLW9tYWUnLCAnPG91dGZpbGUubWFlPic=

> <r_lp_tautomer_probability>
0.999537

> <r_epik_Ionization_Penalty>
0.104106

> <r_epik_Ionization_Penalty_Charging>
0.104106

> <r_epik_Ionization_Penalty_Neutral>
3.94675e-16

> <r_epik_State_Penalty>
0.0940182

> <r_epik_Charging_Adjusted_Penalty>
0.198124

> <i_epik_Tot_Q>
0

> <i_epik_Tot_abs_Q>
0

> <r_epik_Metal_State_Penalty>
3.05314

> <b_epik_Metal_Only>
0

> <s_epik_Chemistry_Notes>
This compound has an ester and may undergo hydrolysis at high or low pH. This compound contains an acetal/aminal-like group ( X-CH(R)-Y where X, Y are N, S, or O) that may be acid/base labile, releasing an aldehyde.

> <s_lp_Force_Field>
OPLS_2005

> <r_lp_Energy>
25.1984

> <b_lp_Chiralities_Consistent>
1

> <s_lp_Variant>
AV-unprocessed.smi:37-16

> <Gold.Version>
5.8.1

> <Gold.Id.Protein>
6NUR|6NUR_protein|mol2

> <Gold.PLP.Fitness>
49.8700

> <Gold.PLP.PLP>
-40.4164

> <Gold.PLP.part.hbond>
-5.6343

> <Gold.PLP.part.metal>
0.0000

> <Gold.PLP.part.buried>
-6.2242

> <Gold.PLP.part.nonpolar>
-28.7722

> <Gold.PLP.part.repulsive>
0.0286

> <Gold.PLP.ligand.clash>
0.0000

> <Gold.PLP.ligand.torsion>
0.8748

> <Gold.PLP.Chemscore.Hbond>
3.6960

> <Gold.PLP.Chemscore.CHOScore>
0.0000

> <Gold.PLP.Chemscore.Metal>
0.0000

> <Gold.PLP.Chemscore.Internal.Correction>
0.1152

> <Gold.Rescore>
     Score         DG    S(hbond)    S(metal)    S(lipo)     H(rot)  DE(clash)    DE(int)     intcor
     14.82     -15.84       3.30        0.00      67.28       3.33       0.00       1.02       ----

> <Gold.Chemscore.Fitness>
14.8179

> <Gold.Chemscore.DG>
-15.8394

> <Gold.Chemscore.ZeroCoef>
-5.4800

> <Gold.Chemscore.Hbond>
3.2973

> <Gold.Chemscore.Metal>
0.0000

> <Gold.Chemscore.Lipo>
67.2809

> <Gold.Chemscore.Internal_Hbond>
0.0000

> <Gold.Chemscore.DEClash>
0.0038

> <Gold.Chemscore.DEInternal>
1.0177

> <Gold.Chemscore.Rot>
3.3303

> <Gold.Chemscore.Internal.Correction>
   9.000000E+99

> <Gold.Chemscore.Hbond.Weighted>
-11.0131

> <Gold.Chemscore.Metal.Weighted>
-0.0000

> <Gold.Chemscore.Lipo.Weighted>
-7.8719

> <Gold.Chemscore.Internal_Hbond.Weighted>
0.0000

> <Gold.Chemscore.DEClash.Weighted>
0.0038

> <Gold.Chemscore.DEInternal.Weighted>
1.0177

> <Gold.Chemscore.Rot.Weighted>
8.5256

> <Gold.Chemscore.Internal.Correction.Weighted>
   9.000000E+99

> <Gold.Protein.RotatedTorsions>
[ 6907 6896 6895 6894 ] final -142.47 input  -60.11 | X-H torsion
[ 7974 7965 7964 7962 ] final -103.81 input  175.53 | X-H torsion
[ 8008 7997 7996 7995 ] final  179.19 input   59.86 | X-H torsion
[ 10167 10162 10161 10158 ] final -126.13 input  -65.29 | X-H torsion
[ 10718 10713 10712 10709 ] final  -29.14 input   66.30 | X-H torsion
[ 10763 10752 10751 10750 ] final  123.88 input  -60.55 | X-H torsion
[ 11005 11000 10999 10996 ] final   96.16 input  -57.11 | X-H torsion

> <Gold.Protein.ActiveResidues>
 VAL166  LYS551  ARG553  GLY616  TRP617  ASP618  TYR619  PRO620  LYS621  CYS622 
 ASP623  PHE694  ASN695  SER759  ASP760  ASP761  ALA762  ILE779  LEU786  VAL792 
 PHE793  MET794  SER795  GLU796  ALA797  LYS798  CYS799  TRP800  GLU811  SER814 

> <Gold.Protein.RotatedAtoms>
  151.0875  133.5341  159.2616 H   0  0  0  0  0  0  0  0  0  0  0  0  # atno 6907 bound_to 6896
  151.2221  135.0522  159.8964 H   0  0  0  0  0  0  0  0  0  0  0  0  # atno 6908 bound_to 6896
  152.5430  134.0676  159.8233 H   0  0  0  0  0  0  0  0  0  0  0  0  # atno 6909 bound_to 6896
  145.2511  140.9238  143.3095 H   0  0  0  0  0  0  0  0  0  0  0  0  # atno 7974 bound_to 7965
  156.0462  140.1315  157.0101 H   0  0  0  0  0  0  0  0  0  0  0  0  # atno 8008 bound_to 7997
  154.4413  140.1020  156.6380 H   0  0  0  0  0  0  0  0  0  0  0  0  # atno 8009 bound_to 7997
  155.5592  140.3464  155.4489 H   0  0  0  0  0  0  0  0  0  0  0  0  # atno 8010 bound_to 7997
  139.9748  143.5807  152.2400 H   0  0  0  0  0  0  0  0  0  0  0  0  # atno 10167 bound_to 10162
  156.4162  130.4417  149.7216 H   0  0  0  0  0  0  0  0  0  0  0  0  # atno 10718 bound_to 10713
  153.6526  135.3360  155.3104 H   0  0  0  0  0  0  0  0  0  0  0  0  # atno 10763 bound_to 10752
  154.8534  135.4344  154.1889 H   0  0  0  0  0  0  0  0  0  0  0  0  # atno 10764 bound_to 10752
  153.2835  135.7011  153.7437 H   0  0  0  0  0  0  0  0  0  0  0  0  # atno 10765 bound_to 10752
  139.8783  134.8936  156.4117 H   0  0  0  0  0  0  0  0  0  0  0  0  # atno 11005 bound_to 11000
  144.9502  139.4091  143.6406 LP  0  0  0  0  0  0  0  0  0  0  0  0  # atno 17320 bound_to 7965
  146.3302  139.8506  142.8874 LP  0  0  0  0  0  0  0  0  0  0  0  0  # atno 17321 bound_to 7965
  139.6454  144.7658  151.2254 LP  0  0  0  0  0  0  0  0  0  0  0  0  # atno 17342 bound_to 10162
  140.7510  143.6248  150.8479 LP  0  0  0  0  0  0  0  0  0  0  0  0  # atno 17343 bound_to 10162
  156.4175  130.7752  151.2768 LP  0  0  0  0  0  0  0  0  0  0  0  0  # atno 17370 bound_to 10713
  157.7508  131.0193  150.3660 LP  0  0  0  0  0  0  0  0  0  0  0  0  # atno 17371 bound_to 10713
  140.9196  133.7654  155.9890 LP  0  0  0  0  0  0  0  0  0  0  0  0  # atno 17394 bound_to 11000
  140.8455  134.3016  157.5296 LP  0  0  0  0  0  0  0  0  0  0  0  0  # atno 17395 bound_to 11000

$$$$
