AV-unprocessed.smi:834|AV-procd|sdf|3884|dock10
  -GOLD-   22720 1343D 1   1.00000     0.00000
 Structure written by MMmdl.
 39 40  0  0  0  0  0  0  0  0  1 V2000
  143.6534  135.1041  151.7708 C   0  0  0  0  0  0  0  0  0  0  0  0
  144.7754  136.0770  151.6417 C   0  0  0  0  0  0  0  0  0  0  0  0
  145.5892  136.1097  150.5794 N   0  0  0  0  0  0  0  0  0  0  0  0
  146.5573  137.0983  150.6883 N   0  0  0  0  0  0  0  0  0  0  0  0
  146.4450  137.7835  151.8345 C   0  0  0  0  0  0  0  0  0  0  0  0
  147.3087  138.8474  152.2063 N   0  0  0  0  0  0  0  0  0  0  0  0
  147.2470  139.6283  153.2993 C   0  0  0  0  0  0  0  0  0  0  0  0
  146.4126  139.5302  154.1993 O   0  0  0  0  0  0  0  0  0  0  0  0
  148.2247  140.5458  153.2949 N   0  0  0  0  0  0  0  0  0  0  0  0
  148.4357  141.5494  154.3321 C   0  0  0  0  0  0  0  0  0  0  0  0
  148.7960  140.9006  155.6830 C   0  0  0  0  0  0  0  0  0  0  0  0
  150.2480  141.1541  156.1001 C   0  0  0  0  0  0  0  0  0  0  0  0
  151.1619  140.4667  155.6434 O   0  0  0  0  0  0  0  0  0  0  0  0
  150.4472  142.1546  156.9721 N   0  0  0  0  0  0  0  0  0  0  0  0
  151.7443  142.5554  157.5114 C   0  0  0  0  0  0  0  0  0  0  0  0
  152.1376  141.6682  158.7082 C   0  0  0  0  0  0  0  0  0  0  0  0
  152.5917  142.6227  159.8137 C   0  0  0  0  0  0  0  0  0  0  0  0
  151.7891  143.8957  159.5661 C   0  0  0  0  0  0  0  0  0  0  0  0
  151.7175  144.0031  158.0423 C   0  0  0  0  0  0  0  0  0  0  0  0
  145.1336  137.2712  152.8831 S   0  0  0  0  0  0  0  0  0  0  0  0
  143.4638  134.6064  150.8193 H   0  0  0  0  0  0  0  0  0  0  0  0
  142.7448  135.6206  152.0807 H   0  0  0  0  0  0  0  0  0  0  0  0
  143.9001  134.3495  152.5175 H   0  0  0  0  0  0  0  0  0  0  0  0
  148.0574  139.0425  151.5582 H   0  0  0  0  0  0  0  0  0  0  0  0
  148.8673  140.5552  152.5162 H   0  0  0  0  0  0  0  0  0  0  0  0
  149.2446  142.2021  154.0013 H   0  0  0  0  0  0  0  0  0  0  0  0
  147.5485  142.1786  154.4275 H   0  0  0  0  0  0  0  0  0  0  0  0
  148.1405  141.2771  156.4692 H   0  0  0  0  0  0  0  0  0  0  0  0
  148.6290  139.8237  155.6246 H   0  0  0  0  0  0  0  0  0  0  0  0
  149.6415  142.6724  157.2918 H   0  0  0  0  0  0  0  0  0  0  0  0
  152.5047  142.4687  156.7328 H   0  0  0  0  0  0  0  0  0  0  0  0
  151.2774  141.0988  159.0650 H   0  0  0  0  0  0  0  0  0  0  0  0
  152.9140  140.9476  158.4490 H   0  0  0  0  0  0  0  0  0  0  0  0
  152.4343  142.2139  160.8123 H   0  0  0  0  0  0  0  0  0  0  0  0
  153.6563  142.8329  159.7035 H   0  0  0  0  0  0  0  0  0  0  0  0
  150.7840  143.7821  159.9750 H   0  0  0  0  0  0  0  0  0  0  0  0
  152.2403  144.7742  160.0287 H   0  0  0  0  0  0  0  0  0  0  0  0
  152.5985  144.5329  157.6772 H   0  0  0  0  0  0  0  0  0  0  0  0
  150.8461  144.5722  157.7149 H   0  0  0  0  0  0  0  0  0  0  0  0
  1  2  1  0  0  0  0
  1 21  1  0  0  0  0
  1 22  1  0  0  0  0
  1 23  1  0  0  0  0
  2 20  1  0  0  0  0
  2  3  2  0  0  0  0
  3  4  1  0  0  0  0
  4  5  2  0  0  0  0
  5  6  1  0  0  0  0
  5 20  1  0  0  0  0
  6  7  1  0  0  0  0
  6 24  1  0  0  0  0
  7  8  2  0  0  0  0
  7  9  1  0  0  0  0
  9 10  1  0  0  0  0
  9 25  1  0  0  0  0
 10 11  1  0  0  0  0
 10 26  1  0  0  0  0
 10 27  1  0  0  0  0
 11 12  1  0  0  0  0
 11 28  1  0  0  0  0
 11 29  1  0  0  0  0
 12 13  2  0  0  0  0
 12 14  1  0  0  0  0
 14 15  1  0  0  0  0
 14 30  1  0  0  0  0
 15 19  1  0  0  0  0
 15 16  1  0  0  0  0
 15 31  1  0  0  0  0
 16 17  1  0  0  0  0
 16 32  1  0  0  0  0
 16 33  1  0  0  0  0
 17 18  1  0  0  0  0
 17 34  1  0  0  0  0
 17 35  1  0  0  0  0
 18 19  1  0  0  0  0
 18 36  1  0  0  0  0
 18 37  1  0  0  0  0
 19 38  1  0  0  0  0
 19 39  1  0  0  0  0
M  END
> <s_m_source_file>
AV-unprocessed.smi

> <i_m_source_file_index>
834

> <i_lp_mmshare_version>
43012

> <i_f3d_flags>
0

> <s_epik_input>
W0NIM11jMW5uYyhzMSlbTkhdQyg9TylbTkhdW0NIMl1bQ0gyXUMoPU8pW05IXVtDSF0yW0NIMl1bQ0gyXVtDSDJdW0NIMl0y

> <s_epik_cmdline>
J2VwaWtfcHl0aG9uJywgJy1waCcsICc3LjAnLCAnLXRuJywgJzgnLCAnLW1hJywgJzIwMCcsICctbWV0YWxfYmluZGluZycsICctaW1hZScsICc8aW5maWxlLm1hZT4nLCAnLW9tYWUnLCAnPG91dGZpbGUubWFlPic=

> <r_lp_tautomer_probability>
1

> <r_epik_Ionization_Penalty>
0.00240541

> <r_epik_Ionization_Penalty_Charging>
0

> <r_epik_Ionization_Penalty_Neutral>
0.00240541

> <r_epik_State_Penalty>
-0

> <r_epik_Charging_Adjusted_Penalty>
0

> <i_epik_Tot_Q>
0

> <i_epik_Tot_abs_Q>
0

> <r_epik_Metal_State_Penalty>
0.349697

> <b_epik_Metal_Only>
0

> <s_lp_Force_Field>
OPLS_2005

> <r_lp_Energy>
16.3225

> <b_lp_Chiralities_Consistent>
1

> <s_lp_Variant>
AV-unprocessed.smi:834-1

> <Gold.Version>
5.8.1

> <Gold.Id.Protein>
6NUR|6NUR_protein|mol2

> <Gold.PLP.Fitness>
46.7083

> <Gold.PLP.PLP>
-37.2103

> <Gold.PLP.part.hbond>
-5.4138

> <Gold.PLP.part.metal>
0.0000

> <Gold.PLP.part.buried>
-4.3829

> <Gold.PLP.part.nonpolar>
-30.7495

> <Gold.PLP.part.repulsive>
3.1331

> <Gold.PLP.ligand.clash>
0.0000

> <Gold.PLP.ligand.torsion>
0.9886

> <Gold.PLP.Chemscore.Hbond>
3.8175

> <Gold.PLP.Chemscore.CHOScore>
0.0000

> <Gold.PLP.Chemscore.Metal>
0.0000

> <Gold.Chemscore.Hbonds>
donor molecule, donor type, donor heavy atom, donor atom, acceptor molecule, acceptor atom, score
      L1  H     6    24       P1  7957  0.99
      L1  H     9    25       P1  7957  1.00
      P1  H  7954  7966       L1     4  0.98
      P1  H  7989  7998       L1    13  0.47

> <Gold.PLP.Chemscore.Internal.Correction>
0.0227

> <Gold.Rescore>
     Score         DG    S(hbond)    S(metal)    S(lipo)     H(rot)  DE(clash)    DE(int)     intcor
     14.89     -19.75       3.00        0.00      79.76       1.99       2.97       1.89       ----

> <Gold.Chemscore.Fitness>
14.8896

> <Gold.Chemscore.DG>
-19.7498

> <Gold.Chemscore.ZeroCoef>
-5.4800

> <Gold.Chemscore.Hbond>
3.0003

> <Gold.Chemscore.Metal>
0.0000

> <Gold.Chemscore.Lipo>
79.7571

> <Gold.Chemscore.Internal_Hbond>
0.0000

> <Gold.Chemscore.DEClash>
2.9731

> <Gold.Chemscore.DEInternal>
1.8871

> <Gold.Chemscore.Rot>
1.9855

> <Gold.Chemscore.Internal.Correction>
   9.000000E+99

> <Gold.Chemscore.Hbonds>
donor molecule, donor type, donor heavy atom, donor atom, acceptor molecule, acceptor atom, score
      L1  H     6    24       P1  7957  0.81
      L1  H     9    25       P1  7957  0.99
      P1  H  7954  7966       L1     4  0.37
      P1  H  7989  7998       L1    13  0.40

> <Gold.Chemscore.Hbond.Weighted>
-10.0210

> <Gold.Chemscore.Metal.Weighted>
-0.0000

> <Gold.Chemscore.Lipo.Weighted>
-9.3316

> <Gold.Chemscore.Internal_Hbond.Weighted>
0.0000

> <Gold.Chemscore.DEClash.Weighted>
2.9731

> <Gold.Chemscore.DEInternal.Weighted>
1.8871

> <Gold.Chemscore.Rot.Weighted>
5.0828

> <Gold.Chemscore.Internal.Correction.Weighted>
   9.000000E+99

> <Gold.Protein.RotatedTorsions>
[ 6907 6896 6895 6894 ] final   57.85 input  -60.11 | X-H torsion
[ 7974 7965 7964 7962 ] final  -37.16 input  175.53 | X-H torsion
[ 8008 7997 7996 7995 ] final   83.08 input   59.86 | X-H torsion
[ 10167 10162 10161 10158 ] final  -63.67 input  -65.29 | X-H torsion
[ 10718 10713 10712 10709 ] final   61.73 input   66.30 | X-H torsion
[ 10763 10752 10751 10750 ] final   74.26 input  -60.55 | X-H torsion
[ 11005 11000 10999 10996 ] final  115.01 input  -57.11 | X-H torsion

> <Gold.Protein.ActiveResidues>
 VAL166  LYS551  ARG553  GLY616  TRP617  ASP618  TYR619  PRO620  LYS621  CYS622 
 ASP623  PHE694  ASN695  SER759  ASP760  ASP761  ALA762  ILE779  LEU786  VAL792 
 PHE793  MET794  SER795  GLU796  ALA797  LYS798  CYS799  TRP800  GLU811  SER814 

> <Gold.Protein.RotatedAtoms>
  152.3770  134.6649  160.0156 H   0  0  0  0  0  0  0  0  0  0  0  0  # atno 6907 bound_to 6896
  151.6924  133.3305  159.3254 H   0  0  0  0  0  0  0  0  0  0  0  0  # atno 6908 bound_to 6896
  150.7717  134.6622  159.6391 H   0  0  0  0  0  0  0  0  0  0  0  0  # atno 6909 bound_to 6896
  146.0599  140.6363  142.9002 H   0  0  0  0  0  0  0  0  0  0  0  0  # atno 7974 bound_to 7965
  155.9192  140.3422  155.6159 H   0  0  0  0  0  0  0  0  0  0  0  0  # atno 8008 bound_to 7997
  155.7294  140.0793  157.2314 H   0  0  0  0  0  0  0  0  0  0  0  0  # atno 8009 bound_to 7997
  154.4067  140.1591  156.2479 H   0  0  0  0  0  0  0  0  0  0  0  0  # atno 8010 bound_to 7997
  140.5854  143.2333  151.6253 H   0  0  0  0  0  0  0  0  0  0  0  0  # atno 10167 bound_to 10162
  157.5849  130.9011  149.9498 H   0  0  0  0  0  0  0  0  0  0  0  0  # atno 10718 bound_to 10713
  153.0575  135.5032  154.8017 H   0  0  0  0  0  0  0  0  0  0  0  0  # atno 10763 bound_to 10752
  154.6831  135.2971  154.9588 H   0  0  0  0  0  0  0  0  0  0  0  0  # atno 10764 bound_to 10752
  154.0367  135.6722  153.4838 H   0  0  0  0  0  0  0  0  0  0  0  0  # atno 10765 bound_to 10752
  139.8997  134.9577  156.6980 H   0  0  0  0  0  0  0  0  0  0  0  0  # atno 11005 bound_to 11000
  144.7169  140.4240  143.7037 LP  0  0  0  0  0  0  0  0  0  0  0  0  # atno 17320 bound_to 7965
  145.6578  139.1576  143.2825 LP  0  0  0  0  0  0  0  0  0  0  0  0  # atno 17321 bound_to 7965
  139.5195  144.3253  152.0875 LP  0  0  0  0  0  0  0  0  0  0  0  0  # atno 17342 bound_to 10162
  140.2409  144.4270  150.6260 LP  0  0  0  0  0  0  0  0  0  0  0  0  # atno 17343 bound_to 10162
  156.0898  130.3664  150.0417 LP  0  0  0  0  0  0  0  0  0  0  0  0  # atno 17370 bound_to 10713
  156.8550  130.9472  151.3622 LP  0  0  0  0  0  0  0  0  0  0  0  0  # atno 17371 bound_to 10713
  140.7173  133.9171  155.8123 LP  0  0  0  0  0  0  0  0  0  0  0  0  # atno 17394 bound_to 11000
  141.0255  134.0830  157.4074 LP  0  0  0  0  0  0  0  0  0  0  0  0  # atno 17395 bound_to 11000

$$$$
