AV-unprocessed.smi:1772|AV-procd|sdf|7161|dock1
  -GOLD-   22720 8393D 1   1.00000     0.00000
 Structure written by MMmdl.
 34 35  0  0  0  0  0  0  0  0  2 V2000
  146.5212  131.7880  153.8650 O   0  0  0  0  0  0  0  0  0  0  0  0
  147.2369  131.4866  152.9102 C   0  0  0  0  0  0  0  0  0  0  0  0
  148.4639  130.9634  153.0427 N   0  0  0  0  0  0  0  0  0  0  0  0
  149.1182  130.6744  154.3149 C   0  0  0  0  0  0  0  0  0  0  0  0
  150.0980  131.7873  154.7373 C   0  0  2  0  0  0  0  0  0  0  0  0
  151.0036  131.3913  155.9230 C   0  0  0  0  0  0  0  0  0  0  0  0
  151.7055  132.6479  156.4452 C   0  0  0  0  0  0  0  0  0  0  0  0
  150.5029  134.0104  156.2250 S   0  0  0  0  0  0  0  0  0  0  0  0
  149.8134  134.2646  157.4991 O   0  0  0  0  0  0  0  0  0  0  0  0
  151.1471  135.1030  155.4810 O   0  0  0  0  0  0  0  0  0  0  0  0
  149.3730  133.0899  155.1120 C   0  0  0  0  0  0  0  0  0  0  0  0
  146.9151  131.6535  151.6155 N   0  0  0  0  0  0  0  0  0  0  0  0
  145.7019  132.1453  151.0619 C   0  0  0  0  0  0  0  0  0  0  0  0
  144.7470  132.6851  151.9522 C   0  0  0  0  0  0  0  0  0  0  0  0
  143.5371  133.2018  151.4455 C   0  0  0  0  0  0  0  0  0  0  0  0
  143.3046  133.1870  150.1155 N   0  3  0  0  0  0  0  0  0  0  0  0
  144.1925  132.6955  149.2245 C   0  0  0  0  0  0  0  0  0  0  0  0
  145.4193  132.1643  149.6722 C   0  0  0  0  0  0  0  0  0  0  0  0
  148.9859  130.7484  152.2055 H   0  0  0  0  0  0  0  0  0  0  0  0
  148.3670  130.5179  155.0909 H   0  0  0  0  0  0  0  0  0  0  0  0
  149.6506  129.7283  154.2106 H   0  0  0  0  0  0  0  0  0  0  0  0
  150.7514  132.0171  153.8941 H   0  0  0  0  0  0  0  0  0  0  0  0
  150.3875  130.9748  156.7211 H   0  0  0  0  0  0  0  0  0  0  0  0
  151.7269  130.6241  155.6455 H   0  0  0  0  0  0  0  0  0  0  0  0
  152.0029  132.5702  157.4912 H   0  0  0  0  0  0  0  0  0  0  0  0
  152.5872  132.8759  155.8459 H   0  0  0  0  0  0  0  0  0  0  0  0
  149.1238  133.6997  154.2433 H   0  0  0  0  0  0  0  0  0  0  0  0
  148.4559  132.8870  155.6659 H   0  0  0  0  0  0  0  0  0  0  0  0
  147.6437  131.4469  150.9480 H   0  0  0  0  0  0  0  0  0  0  0  0
  144.9338  132.7005  153.0164 H   0  0  0  0  0  0  0  0  0  0  0  0
  142.7555  133.6260  152.0591 H   0  0  0  0  0  0  0  0  0  0  0  0
  143.9002  132.7474  148.1858 H   0  0  0  0  0  0  0  0  0  0  0  0
  146.1228  131.7959  148.9412 H   0  0  0  0  0  0  0  0  0  0  0  0
  142.4237  133.5677  149.7684 H   0  0  0  0  0  0  0  0  0  0  0  0
  1  2  2  0  0  0  0
  2  3  1  0  0  0  0
  2 12  1  0  0  0  0
  3  4  1  0  0  0  0
  3 19  1  0  0  0  0
  4  5  1  0  0  0  0
  4 20  1  0  0  0  0
  4 21  1  0  0  0  0
  5 11  1  0  0  0  0
  5  6  1  0  0  0  0
  5 22  1  0  0  0  0
  6  7  1  0  0  0  0
  6 23  1  0  0  0  0
  6 24  1  0  0  0  0
  7  8  1  0  0  0  0
  7 25  1  0  0  0  0
  7 26  1  0  0  0  0
  8  9  2  0  0  0  0
  8 10  2  0  0  0  0
  8 11  1  0  0  0  0
 11 27  1  0  0  0  0
 11 28  1  0  0  0  0
 12 13  1  0  0  0  0
 12 29  1  0  0  0  0
 13 18  1  0  0  0  0
 13 14  2  0  0  0  0
 14 15  1  0  0  0  0
 14 30  1  0  0  0  0
 15 16  2  0  0  0  0
 15 31  1  0  0  0  0
 16 17  1  0  0  0  0
 16 34  1  0  0  0  0
 17 18  2  0  0  0  0
 17 32  1  0  0  0  0
 18 33  1  0  0  0  0
M  CHG  1  16   1
M  END
> <s_m_source_file>
AV-unprocessed.smi

> <i_m_source_file_index>
1772

> <i_lp_mmshare_version>
43012

> <i_f3d_flags>
0

> <s_epik_input>
W2NIXTFbY0hdbltjSF1bY0hdYzFbTkhdQyg9TylbTkhdW0NIMl1bQ0BASF0oW0NIMl0yKVtDSDJdW0NIMl1TMig9Tyk9Tw==

> <s_epik_cmdline>
J2VwaWtfcHl0aG9uJywgJy1waCcsICc3LjAnLCAnLXRuJywgJzgnLCAnLW1hJywgJzIwMCcsICctbWV0YWxfYmluZGluZycsICctaW1hZScsICc8aW5maWxlLm1hZT4nLCAnLW9tYWUnLCAnPG91dGZpbGUubWFlPic=

> <r_epik_Ionization_Penalty>
1.04917

> <r_epik_Ionization_Penalty_Charging>
1.04915

> <r_epik_Ionization_Penalty_Neutral>
1.90771e-05

> <r_epik_State_Penalty>
1.10185

> <r_epik_Charging_Adjusted_Penalty>
2.151

> <i_epik_Tot_Q>
1

> <i_epik_Tot_abs_Q>
1

> <r_epik_Metal_State_Penalty>
1.19638

> <b_epik_Metal_Only>
0

> <s_lp_Force_Field>
OPLS_2005

> <r_lp_Energy>
16.4165

> <b_lp_Chiralities_Consistent>
1

> <s_lp_Variant>
AV-unprocessed.smi:1772-3

> <Gold.Version>
5.8.1

> <Gold.Id.Protein>
6NUR|6NUR_protein|mol2

> <Gold.PLP.Fitness>
49.7266

> <Gold.PLP.PLP>
-32.7735

> <Gold.PLP.part.hbond>
-5.0000

> <Gold.PLP.part.metal>
0.0000

> <Gold.PLP.part.buried>
-4.4692

> <Gold.PLP.part.nonpolar>
-23.2115

> <Gold.PLP.part.repulsive>
0.2882

> <Gold.PLP.ligand.clash>
0.0000

> <Gold.PLP.ligand.torsion>
0.2165

> <Gold.PLP.Chemscore.Hbond>
5.7937

> <Gold.PLP.Chemscore.CHOScore>
0.0000

> <Gold.PLP.Chemscore.Metal>
0.0000

> <Gold.Chemscore.Hbonds>
donor molecule, donor type, donor heavy atom, donor atom, acceptor molecule, acceptor atom, score
      L1  H     3    19       P1 10747  0.93
      L1  H    12    29       P1 10747  1.00
      L1  H    16    34       P1 10186  2.00
      P1  H  6896  6908       L1     9  0.84
      P1  H 10752 10763       L1    10  0.96

> <Gold.PLP.Chemscore.Internal.Correction>
0.0049

> <Gold.Rescore>
     Score         DG    S(hbond)    S(metal)    S(lipo)     H(rot)  DE(clash)    DE(int)     intcor
     22.48     -24.22       4.16        0.00      70.19       1.32       0.03       1.71       ----

> <Gold.Chemscore.Fitness>
22.4847

> <Gold.Chemscore.DG>
-24.2209

> <Gold.Chemscore.ZeroCoef>
-5.4800

> <Gold.Chemscore.Hbond>
4.1604

> <Gold.Chemscore.Metal>
0.0000

> <Gold.Chemscore.Lipo>
70.1922

> <Gold.Chemscore.Internal_Hbond>
0.0000

> <Gold.Chemscore.DEClash>
0.0270

> <Gold.Chemscore.DEInternal>
1.7093

> <Gold.Chemscore.Rot>
1.3153

> <Gold.Chemscore.Internal.Correction>
   9.000000E+99

> <Gold.Chemscore.Hbonds>
donor molecule, donor type, donor heavy atom, donor atom, acceptor molecule, acceptor atom, score
      L1  H     3    19       P1 10747  0.31
      L1  H    12    29       P1 10747  0.98
      L1  H    16    34       P1 10186  1.00
      P1  H  6896  6908       L1     9  0.76
      P1  H 10752 10763       L1    10  0.89

> <Gold.Chemscore.Hbond.Weighted>
-13.8957

> <Gold.Chemscore.Metal.Weighted>
-0.0000

> <Gold.Chemscore.Lipo.Weighted>
-8.2125

> <Gold.Chemscore.Internal_Hbond.Weighted>
0.0000

> <Gold.Chemscore.DEClash.Weighted>
0.0270

> <Gold.Chemscore.DEInternal.Weighted>
1.7093

> <Gold.Chemscore.Rot.Weighted>
3.3673

> <Gold.Chemscore.Internal.Correction.Weighted>
   9.000000E+99

> <Gold.Protein.RotatedTorsions>
[ 6907 6896 6895 6894 ] final  120.11 input  -60.11 | X-H torsion
[ 7974 7965 7964 7962 ] final   61.26 input  175.53 | X-H torsion
[ 8008 7997 7996 7995 ] final   93.01 input   59.86 | X-H torsion
[ 10167 10162 10161 10158 ] final -151.61 input  -65.29 | X-H torsion
[ 10718 10713 10712 10709 ] final  -81.94 input   66.30 | X-H torsion
[ 10763 10752 10751 10750 ] final   76.09 input  -60.55 | X-H torsion
[ 11005 11000 10999 10996 ] final  -81.86 input  -57.11 | X-H torsion

> <Gold.Protein.ActiveResidues>
 VAL166  LYS551  ARG553  GLY616  TRP617  ASP618  TYR619  PRO620  LYS621  CYS622 
 ASP623  PHE694  ASN695  SER759  ASP760  ASP761  ALA762  ILE779  LEU786  VAL792 
 PHE793  MET794  SER795  GLU796  ALA797  LYS798  CYS799  TRP800  GLU811  SER814 

> <Gold.Protein.RotatedAtoms>
  152.4422  133.7470  159.6672 H   0  0  0  0  0  0  0  0  0  0  0  0  # atno 6907 bound_to 6896
  150.8315  133.8072  159.3102 H   0  0  0  0  0  0  0  0  0  0  0  0  # atno 6908 bound_to 6896
  151.5725  135.1064  160.0050 H   0  0  0  0  0  0  0  0  0  0  0  0  # atno 6909 bound_to 6896
  145.8867  139.3482  143.0673 H   0  0  0  0  0  0  0  0  0  0  0  0  # atno 7974 bound_to 7965
  156.0419  140.3318  155.7253 H   0  0  0  0  0  0  0  0  0  0  0  0  # atno 8008 bound_to 7997
  155.5732  140.0630  157.2819 H   0  0  0  0  0  0  0  0  0  0  0  0  # atno 8009 bound_to 7997
  154.4397  140.1857  156.0888 H   0  0  0  0  0  0  0  0  0  0  0  0  # atno 8010 bound_to 7997
  139.7252  143.8894  152.2517 H   0  0  0  0  0  0  0  0  0  0  0  0  # atno 10167 bound_to 10162
  156.0041  130.4619  150.4029 H   0  0  0  0  0  0  0  0  0  0  0  0  # atno 10718 bound_to 10713
  153.0701  135.4964  154.8285 H   0  0  0  0  0  0  0  0  0  0  0  0  # atno 10763 bound_to 10752
  154.7010  135.3001  154.9344 H   0  0  0  0  0  0  0  0  0  0  0  0  # atno 10764 bound_to 10752
  154.0068  135.6759  153.4815 H   0  0  0  0  0  0  0  0  0  0  0  0  # atno 10765 bound_to 10752
  141.1665  133.7217  156.8486 H   0  0  0  0  0  0  0  0  0  0  0  0  # atno 11005 bound_to 11000
  145.8958  140.9275  143.0529 LP  0  0  0  0  0  0  0  0  0  0  0  0  # atno 17320 bound_to 7965
  144.6729  140.0966  143.7462 LP  0  0  0  0  0  0  0  0  0  0  0  0  # atno 17321 bound_to 7965
  139.8801  144.7022  150.8887 LP  0  0  0  0  0  0  0  0  0  0  0  0  # atno 17342 bound_to 10162
  140.7761  143.3668  151.1724 LP  0  0  0  0  0  0  0  0  0  0  0  0  # atno 17343 bound_to 10162
  157.2097  131.0457  151.2606 LP  0  0  0  0  0  0  0  0  0  0  0  0  # atno 17370 bound_to 10713
  157.3900  130.7277  149.6690 LP  0  0  0  0  0  0  0  0  0  0  0  0  # atno 17371 bound_to 10713
  140.1932  134.8951  157.3084 LP  0  0  0  0  0  0  0  0  0  0  0  0  # atno 17394 bound_to 11000
  140.2268  134.3957  155.7540 LP  0  0  0  0  0  0  0  0  0  0  0  0  # atno 17395 bound_to 11000

$$$$
