AV-unprocessed.smi:1722|AV-procd|sdf|6943|dock8
  -GOLD-   22720 8153D 1   1.00000     0.00000
 Structure written by MMmdl.
 39 40  0  0  0  0  0  0  0  0  1 V2000
  149.3985  139.5480  158.2963 O   0  0  0  0  0  0  0  0  0  0  0  0
  150.3234  140.2181  157.8388 C   0  0  0  0  0  0  0  0  0  0  0  0
  151.6173  140.3467  158.6406 C   0  0  0  0  0  0  0  0  0  0  0  0
  152.2252  141.5949  158.3356 O   0  0  0  0  0  0  0  0  0  0  0  0
  151.6158  142.7175  158.9590 C   0  0  0  0  0  0  0  0  0  0  0  0
  151.7735  143.9116  158.0011 C   0  0  0  0  0  0  0  0  0  0  0  0
  151.2104  145.2041  158.6139 C   0  0  0  0  0  0  0  0  0  0  0  0
  151.8668  145.5062  159.9701 C   0  0  0  0  0  0  0  0  0  0  0  0
  151.7193  144.3188  160.9344 C   0  0  0  0  0  0  0  0  0  0  0  0
  152.2773  143.0248  160.3194 C   0  0  0  0  0  0  0  0  0  0  0  0
  150.2928  140.8977  156.6750 N   0  0  0  0  0  0  0  0  0  0  0  0
  149.2776  140.9669  155.7062 C   0  0  0  0  0  0  0  0  0  0  0  0
  148.1027  141.6323  155.8578 C   0  0  0  0  0  0  0  0  0  0  0  0
  147.0885  141.6545  154.8169 C   0  0  0  0  0  0  0  0  0  0  0  0
  145.7543  142.3553  155.0215 C   0  0  0  0  0  0  0  0  0  0  0  0
  144.7730  141.4552  155.0657 F   0  0  0  0  0  0  0  0  0  0  0  0
  145.7378  143.0446  156.1634 F   0  0  0  0  0  0  0  0  0  0  0  0
  145.4993  143.1982  154.0206 F   0  0  0  0  0  0  0  0  0  0  0  0
  147.3594  140.9545  153.6999 C   0  0  0  0  0  0  0  0  0  0  0  0
  148.5648  140.2680  153.5358 N   0  0  0  0  0  0  0  0  0  0  0  0
  149.5456  140.2215  154.4650 C   0  0  0  0  0  0  0  0  0  0  0  0
  150.5774  139.5874  154.2470 O   0  0  0  0  0  0  0  0  0  0  0  0
  148.6968  139.7742  152.6649 H   0  0  0  0  0  0  0  0  0  0  0  0
  151.3816  140.2841  159.7039 H   0  0  0  0  0  0  0  0  0  0  0  0
  152.2807  139.5171  158.3956 H   0  0  0  0  0  0  0  0  0  0  0  0
  150.5497  142.5297  159.0997 H   0  0  0  0  0  0  0  0  0  0  0  0
  152.8283  144.0535  157.7615 H   0  0  0  0  0  0  0  0  0  0  0  0
  151.2691  143.7000  157.0577 H   0  0  0  0  0  0  0  0  0  0  0  0
  151.3682  146.0391  157.9307 H   0  0  0  0  0  0  0  0  0  0  0  0
  150.1315  145.1085  158.7420 H   0  0  0  0  0  0  0  0  0  0  0  0
  152.9246  145.7279  159.8231 H   0  0  0  0  0  0  0  0  0  0  0  0
  151.4215  146.3998  160.4086 H   0  0  0  0  0  0  0  0  0  0  0  0
  152.2325  144.5358  161.8715 H   0  0  0  0  0  0  0  0  0  0  0  0
  150.6665  144.1794  161.1831 H   0  0  0  0  0  0  0  0  0  0  0  0
  152.1223  142.2035  161.0185 H   0  0  0  0  0  0  0  0  0  0  0  0
  153.3559  143.1200  160.1886 H   0  0  0  0  0  0  0  0  0  0  0  0
  151.1052  141.4629  156.4723 H   0  0  0  0  0  0  0  0  0  0  0  0
  147.8765  142.1593  156.7701 H   0  0  0  0  0  0  0  0  0  0  0  0
  146.6854  140.8618  152.8611 H   0  0  0  0  0  0  0  0  0  0  0  0
  1  2  2  0  0  0  0
  2  3  1  0  0  0  0
  2 11  1  0  0  0  0
  3  4  1  0  0  0  0
  3 24  1  0  0  0  0
  3 25  1  0  0  0  0
  4  5  1  0  0  0  0
  5 10  1  0  0  0  0
  5  6  1  0  0  0  0
  5 26  1  0  0  0  0
  6  7  1  0  0  0  0
  6 27  1  0  0  0  0
  6 28  1  0  0  0  0
  7  8  1  0  0  0  0
  7 29  1  0  0  0  0
  7 30  1  0  0  0  0
  8  9  1  0  0  0  0
  8 31  1  0  0  0  0
  8 32  1  0  0  0  0
  9 10  1  0  0  0  0
  9 33  1  0  0  0  0
  9 34  1  0  0  0  0
 10 35  1  0  0  0  0
 10 36  1  0  0  0  0
 11 12  1  0  0  0  0
 11 37  1  0  0  0  0
 12 21  1  0  0  0  0
 12 13  2  0  0  0  0
 13 14  1  0  0  0  0
 13 38  1  0  0  0  0
 14 15  1  0  0  0  0
 14 19  2  0  0  0  0
 15 16  1  0  0  0  0
 15 17  1  0  0  0  0
 15 18  1  0  0  0  0
 19 20  1  0  0  0  0
 19 39  1  0  0  0  0
 20 23  1  0  0  0  0
 20 21  1  0  0  0  0
 21 22  2  0  0  0  0
M  END
> <s_m_source_file>
AV-unprocessed.smi

> <i_m_source_file_index>
1722

> <i_lp_mmshare_version>
43012

> <i_f3d_flags>
0

> <s_epik_input>
Tz1jMVtuSF1bY0hdYyhDKEYpKEYpRilbY0hdYzFbTkhdQyg9TylbQ0gyXU9bQ0hdMltDSDJdW0NIMl1bQ0gyXVtDSDJdW0NIMl0y

> <s_epik_cmdline>
J2VwaWtfcHl0aG9uJywgJy1waCcsICc3LjAnLCAnLXRuJywgJzgnLCAnLW1hJywgJzIwMCcsICctbWV0YWxfYmluZGluZycsICctaW1hZScsICc8aW5maWxlLm1hZT4nLCAnLW9tYWUnLCAnPG91dGZpbGUubWFlPic=

> <r_lp_tautomer_probability>
0.999

> <r_epik_Ionization_Penalty>
0.008897

> <r_epik_Ionization_Penalty_Charging>
0.00889691

> <r_epik_Ionization_Penalty_Neutral>
9.17026e-08

> <r_epik_State_Penalty>
0.00672877

> <r_epik_Charging_Adjusted_Penalty>
0.0156257

> <i_epik_Tot_Q>
0

> <i_epik_Tot_abs_Q>
0

> <r_epik_Metal_State_Penalty>
0.320955

> <b_epik_Metal_Only>
0

> <s_lp_Force_Field>
OPLS_2005

> <r_lp_Energy>
24.9811

> <b_lp_Chiralities_Consistent>
1

> <s_lp_Variant>
AV-unprocessed.smi:1722-1

> <Gold.Version>
5.8.1

> <Gold.Id.Protein>
6NUR|6NUR_protein|mol2

> <Gold.PLP.Fitness>
48.0011

> <Gold.PLP.PLP>
-45.2446

> <Gold.PLP.part.hbond>
-2.0000

> <Gold.PLP.part.metal>
0.0000

> <Gold.PLP.part.buried>
-4.9559

> <Gold.PLP.part.nonpolar>
-38.1277

> <Gold.PLP.part.repulsive>
0.3399

> <Gold.PLP.ligand.clash>
0.0000

> <Gold.PLP.ligand.torsion>
1.6393

> <Gold.PLP.Chemscore.Hbond>
2.0000

> <Gold.PLP.Chemscore.CHOScore>
0.0000

> <Gold.PLP.Chemscore.Metal>
0.0000

> <Gold.Chemscore.Hbonds>
donor molecule, donor type, donor heavy atom, donor atom, acceptor molecule, acceptor atom, score
      L1  H    20    23       P1  7957  0.74
      P1  H  7989  7998       L1    22  1.00

> <Gold.PLP.Chemscore.Internal.Correction>
0.0350

> <Gold.Rescore>
     Score         DG    S(hbond)    S(metal)    S(lipo)     H(rot)  DE(clash)    DE(int)     intcor
     17.39     -18.91       1.83        0.00      97.33       1.59       0.01       1.51       ----

> <Gold.Chemscore.Fitness>
17.3865

> <Gold.Chemscore.DG>
-18.9144

> <Gold.Chemscore.ZeroCoef>
-5.4800

> <Gold.Chemscore.Hbond>
1.8348

> <Gold.Chemscore.Metal>
0.0000

> <Gold.Chemscore.Lipo>
97.3337

> <Gold.Chemscore.Internal_Hbond>
0.0000

> <Gold.Chemscore.DEClash>
0.0137

> <Gold.Chemscore.DEInternal>
1.5142

> <Gold.Chemscore.Rot>
1.5945

> <Gold.Chemscore.Internal.Correction>
   9.000000E+99

> <Gold.Chemscore.Hbonds>
donor molecule, donor type, donor heavy atom, donor atom, acceptor molecule, acceptor atom, score
      L1  H    20    23       P1  7957  0.74
      P1  H  7989  7998       L1    22  0.30

> <Gold.Chemscore.Hbond.Weighted>
-6.1284

> <Gold.Chemscore.Metal.Weighted>
-0.0000

> <Gold.Chemscore.Lipo.Weighted>
-11.3880

> <Gold.Chemscore.Internal_Hbond.Weighted>
0.0000

> <Gold.Chemscore.DEClash.Weighted>
0.0137

> <Gold.Chemscore.DEInternal.Weighted>
1.5142

> <Gold.Chemscore.Rot.Weighted>
4.0820

> <Gold.Chemscore.Internal.Correction.Weighted>
   9.000000E+99

> <Gold.Protein.RotatedTorsions>
[ 6907 6896 6895 6894 ] final  134.09 input  -60.11 | X-H torsion
[ 7974 7965 7964 7962 ] final   66.34 input  175.53 | X-H torsion
[ 8008 7997 7996 7995 ] final   56.71 input   59.86 | X-H torsion
[ 10167 10162 10161 10158 ] final -171.41 input  -65.29 | X-H torsion
[ 10718 10713 10712 10709 ] final  173.54 input   66.30 | X-H torsion
[ 10763 10752 10751 10750 ] final -173.58 input  -60.55 | X-H torsion
[ 11005 11000 10999 10996 ] final -116.32 input  -57.11 | X-H torsion

> <Gold.Protein.ActiveResidues>
 VAL166  LYS551  ARG553  GLY616  TRP617  ASP618  TYR619  PRO620  LYS621  CYS622 
 ASP623  PHE694  ASN695  SER759  ASP760  ASP761  ALA762  ILE779  LEU786  VAL792 
 PHE793  MET794  SER795  GLU796  ALA797  LYS798  CYS799  TRP800  GLU811  SER814 

> <Gold.Protein.RotatedAtoms>
  152.3150  133.5792  159.5705 H   0  0  0  0  0  0  0  0  0  0  0  0  # atno 6907 bound_to 6896
  150.7342  134.0096  159.3674 H   0  0  0  0  0  0  0  0  0  0  0  0  # atno 6908 bound_to 6896
  151.7986  135.0716  160.0448 H   0  0  0  0  0  0  0  0  0  0  0  0  # atno 6909 bound_to 6896
  145.8277  139.3121  143.1006 H   0  0  0  0  0  0  0  0  0  0  0  0  # atno 7974 bound_to 7965
  155.5219  140.3480  155.4408 H   0  0  0  0  0  0  0  0  0  0  0  0  # atno 8008 bound_to 7997
  156.0779  140.1379  156.9776 H   0  0  0  0  0  0  0  0  0  0  0  0  # atno 8009 bound_to 7997
  154.4563  140.0952  156.6743 H   0  0  0  0  0  0  0  0  0  0  0  0  # atno 8010 bound_to 7997
  139.5804  144.1436  152.1507 H   0  0  0  0  0  0  0  0  0  0  0  0  # atno 10167 bound_to 10162
  156.9628  131.0066  151.2923 H   0  0  0  0  0  0  0  0  0  0  0  0  # atno 10718 bound_to 10713
  154.6062  135.2859  155.0482 H   0  0  0  0  0  0  0  0  0  0  0  0  # atno 10763 bound_to 10752
  154.1728  135.6469  153.5017 H   0  0  0  0  0  0  0  0  0  0  0  0  # atno 10764 bound_to 10752
  153.0176  135.5405  154.6799 H   0  0  0  0  0  0  0  0  0  0  0  0  # atno 10765 bound_to 10752
  141.0429  133.9807  157.2964 H   0  0  0  0  0  0  0  0  0  0  0  0  # atno 11005 bound_to 11000
  145.9605  140.8839  143.0213 LP  0  0  0  0  0  0  0  0  0  0  0  0  # atno 17320 bound_to 7965
  144.6742  140.1806  143.7406 LP  0  0  0  0  0  0  0  0  0  0  0  0  # atno 17321 bound_to 7965
  140.0988  144.5557  150.7003 LP  0  0  0  0  0  0  0  0  0  0  0  0  # atno 17342 bound_to 10162
  140.7083  143.2485  151.4660 LP  0  0  0  0  0  0  0  0  0  0  0  0  # atno 17343 bound_to 10162
  157.5646  130.8269  149.8310 LP  0  0  0  0  0  0  0  0  0  0  0  0  # atno 17370 bound_to 10713
  156.0315  130.3763  150.1675 LP  0  0  0  0  0  0  0  0  0  0  0  0  # atno 17371 bound_to 10713
  139.9290  135.0200  156.8334 LP  0  0  0  0  0  0  0  0  0  0  0  0  # atno 17394 bound_to 11000
  140.6200  134.0003  155.7614 LP  0  0  0  0  0  0  0  0  0  0  0  0  # atno 17395 bound_to 11000

$$$$
