AV-unprocessed.smi:1984|AV-procd|sdf|8041|dock8
  -GOLD-   2272010233D 1   1.00000     0.00000
 Structure written by MMmdl.
 38 39  0  0  0  0  0  0  0  0  1 V2000
  153.5363  141.6868  161.6807 C   0  0  0  0  0  0  0  0  0  0  0  0
  152.9470  142.1649  160.3867 C   0  0  0  0  0  0  0  0  0  0  0  0
  153.0012  143.4696  159.8213 C   0  0  0  0  0  0  0  0  0  0  0  0
  152.3092  143.3586  158.6482 C   0  0  0  0  0  0  0  0  0  0  0  0
  152.0136  144.3848  157.6040 C   0  0  0  0  0  0  0  0  0  0  0  0
  151.8808  142.0455  158.5578 N   0  0  0  0  0  0  0  0  0  0  0  0
  151.1034  141.4025  157.5086 C   0  0  0  0  0  0  0  0  0  0  0  0
  151.9085  140.3123  156.7957 C   0  0  0  0  0  0  0  0  0  0  0  0
  152.8954  139.8135  157.3367 O   0  0  0  0  0  0  0  0  0  0  0  0
  151.4748  139.9479  155.5804 N   0  0  0  0  0  0  0  0  0  0  0  0
  152.1012  138.9220  154.7565 C   0  0  0  0  0  0  0  0  0  0  0  0
  151.4283  137.5528  154.9567 C   0  0  1  0  0  0  0  0  0  0  0  0
  151.6574  136.9551  156.3613 C   0  0  0  0  0  0  0  0  0  0  0  0
  150.7165  135.7602  156.5460 C   0  0  0  0  0  0  0  0  0  0  0  0
  149.1951  136.1806  155.6175 S   0  0  0  0  0  0  0  0  0  0  0  0
  148.8980  135.0961  154.6697 O   0  0  0  0  0  0  0  0  0  0  0  0
  148.1708  136.6728  156.5508 O   0  0  0  0  0  0  0  0  0  0  0  0
  149.9116  137.6063  154.7141 C   0  0  0  0  0  0  0  0  0  0  0  0
  152.2778  141.3166  159.6239 N   0  0  0  0  0  0  0  0  0  0  0  0
  154.0356  142.4983  162.2103 H   0  0  0  0  0  0  0  0  0  0  0  0
  154.2715  140.8999  161.5106 H   0  0  0  0  0  0  0  0  0  0  0  0
  152.7648  141.2869  162.3392 H   0  0  0  0  0  0  0  0  0  0  0  0
  153.4764  144.3544  160.2181 H   0  0  0  0  0  0  0  0  0  0  0  0
  152.5024  145.3306  157.8383 H   0  0  0  0  0  0  0  0  0  0  0  0
  150.9418  144.5709  157.5341 H   0  0  0  0  0  0  0  0  0  0  0  0
  152.3675  144.0596  156.6258 H   0  0  0  0  0  0  0  0  0  0  0  0
  150.1950  140.9900  157.9495 H   0  0  0  0  0  0  0  0  0  0  0  0
  150.7891  142.1500  156.7783 H   0  0  0  0  0  0  0  0  0  0  0  0
  150.6559  140.4051  155.2063 H   0  0  0  0  0  0  0  0  0  0  0  0
  152.0506  139.2132  153.7058 H   0  0  0  0  0  0  0  0  0  0  0  0
  153.1583  138.8585  155.0194 H   0  0  0  0  0  0  0  0  0  0  0  0
  151.8469  136.8523  154.2324 H   0  0  0  0  0  0  0  0  0  0  0  0
  152.6966  136.6644  156.5179 H   0  0  0  0  0  0  0  0  0  0  0  0
  151.4214  137.7087  157.1137 H   0  0  0  0  0  0  0  0  0  0  0  0
  151.1435  134.8594  156.1046 H   0  0  0  0  0  0  0  0  0  0  0  0
  150.4790  135.5595  157.5908 H   0  0  0  0  0  0  0  0  0  0  0  0
  149.4778  138.5149  155.1330 H   0  0  0  0  0  0  0  0  0  0  0  0
  149.6484  137.5534  153.6576 H   0  0  0  0  0  0  0  0  0  0  0  0
  1  2  1  0  0  0  0
  1 20  1  0  0  0  0
  1 21  1  0  0  0  0
  1 22  1  0  0  0  0
  2 19  2  0  0  0  0
  2  3  1  0  0  0  0
  3  4  2  0  0  0  0
  3 23  1  0  0  0  0
  4  5  1  0  0  0  0
  4  6  1  0  0  0  0
  5 24  1  0  0  0  0
  5 25  1  0  0  0  0
  5 26  1  0  0  0  0
  6  7  1  0  0  0  0
  6 19  1  0  0  0  0
  7  8  1  0  0  0  0
  7 27  1  0  0  0  0
  7 28  1  0  0  0  0
  8  9  2  0  0  0  0
  8 10  1  0  0  0  0
 10 11  1  0  0  0  0
 10 29  1  0  0  0  0
 11 12  1  0  0  0  0
 11 30  1  0  0  0  0
 11 31  1  0  0  0  0
 12 18  1  0  0  0  0
 12 13  1  0  0  0  0
 12 32  1  0  0  0  0
 13 14  1  0  0  0  0
 13 33  1  0  0  0  0
 13 34  1  0  0  0  0
 14 15  1  0  0  0  0
 14 35  1  0  0  0  0
 14 36  1  0  0  0  0
 15 16  2  0  0  0  0
 15 17  2  0  0  0  0
 15 18  1  0  0  0  0
 18 37  1  0  0  0  0
 18 38  1  0  0  0  0
M  END
> <s_m_source_file>
AV-unprocessed.smi

> <i_m_source_file_index>
1984

> <i_lp_mmshare_version>
43012

> <i_f3d_flags>
0

> <s_epik_input>
W0NIM11jMVtjSF1jKFtDSDNdKW4objEpW0NIMl1DKD1PKVtOSF1bQ0gyXVtDQEBIXShbQ0gyXTIpW0NIMl1bQ0gyXVMyKD1PKT1P

> <s_epik_cmdline>
J2VwaWtfcHl0aG9uJywgJy1waCcsICc3LjAnLCAnLXRuJywgJzgnLCAnLW1hJywgJzIwMCcsICctbWV0YWxfYmluZGluZycsICctaW1hZScsICc8aW5maWxlLm1hZT4nLCAnLW9tYWUnLCAnPG91dGZpbGUubWFlPic=

> <r_lp_tautomer_probability>
1

> <r_epik_Ionization_Penalty>
0.000335865

> <r_epik_Ionization_Penalty_Charging>
0

> <r_epik_Ionization_Penalty_Neutral>
0.000335865

> <r_epik_State_Penalty>
-0

> <r_epik_Charging_Adjusted_Penalty>
0

> <i_epik_Tot_Q>
0

> <i_epik_Tot_abs_Q>
0

> <r_epik_Metal_State_Penalty>
-0

> <b_epik_Metal_Only>
0

> <s_lp_Force_Field>
OPLS_2005

> <r_lp_Energy>
4.96267

> <b_lp_Chiralities_Consistent>
1

> <s_lp_Variant>
AV-unprocessed.smi:1984-2

> <Gold.Version>
5.8.1

> <Gold.Id.Protein>
6NUR|6NUR_protein|mol2

> <Gold.PLP.Fitness>
39.2801

> <Gold.PLP.PLP>
-37.2833

> <Gold.PLP.part.hbond>
-1.0000

> <Gold.PLP.part.metal>
0.0000

> <Gold.PLP.part.buried>
-3.9925

> <Gold.PLP.part.nonpolar>
-32.2268

> <Gold.PLP.part.repulsive>
0.8025

> <Gold.PLP.ligand.clash>
0.0000

> <Gold.PLP.ligand.torsion>
0.5049

> <Gold.PLP.Chemscore.Hbond>
1.0000

> <Gold.PLP.Chemscore.CHOScore>
0.0000

> <Gold.PLP.Chemscore.Metal>
0.0000

> <Gold.Chemscore.Hbonds>
donor molecule, donor type, donor heavy atom, donor atom, acceptor molecule, acceptor atom, score
      P1  H  7997  8008       L1     9  1.00

> <Gold.PLP.Chemscore.Internal.Correction>
0.0065

> <Gold.Rescore>
     Score         DG    S(hbond)    S(metal)    S(lipo)     H(rot)  DE(clash)    DE(int)     intcor
     13.62     -15.63       1.00        0.00      95.04       1.68       0.18       1.83       ----

> <Gold.Chemscore.Fitness>
13.6192

> <Gold.Chemscore.DG>
-15.6318

> <Gold.Chemscore.ZeroCoef>
-5.4800

> <Gold.Chemscore.Hbond>
0.9974

> <Gold.Chemscore.Metal>
0.0000

> <Gold.Chemscore.Lipo>
95.0441

> <Gold.Chemscore.Internal_Hbond>
0.0000

> <Gold.Chemscore.DEClash>
0.1826

> <Gold.Chemscore.DEInternal>
1.8301

> <Gold.Chemscore.Rot>
1.6795

> <Gold.Chemscore.Internal.Correction>
   9.000000E+99

> <Gold.Chemscore.Hbonds>
donor molecule, donor type, donor heavy atom, donor atom, acceptor molecule, acceptor atom, score
      P1  H  7997  8008       L1     9  0.89

> <Gold.Chemscore.Hbond.Weighted>
-3.3312

> <Gold.Chemscore.Metal.Weighted>
-0.0000

> <Gold.Chemscore.Lipo.Weighted>
-11.1202

> <Gold.Chemscore.Internal_Hbond.Weighted>
0.0000

> <Gold.Chemscore.DEClash.Weighted>
0.1826

> <Gold.Chemscore.DEInternal.Weighted>
1.8301

> <Gold.Chemscore.Rot.Weighted>
4.2995

> <Gold.Chemscore.Internal.Correction.Weighted>
   9.000000E+99

> <Gold.Protein.RotatedTorsions>
[ 6907 6896 6895 6894 ] final   13.82 input  -60.11 | X-H torsion
[ 7974 7965 7964 7962 ] final -146.66 input  175.53 | X-H torsion
[ 8008 7997 7996 7995 ] final  -54.26 input   59.86 | X-H torsion
[ 10167 10162 10161 10158 ] final  -17.38 input  -65.29 | X-H torsion
[ 10718 10713 10712 10709 ] final -107.42 input   66.30 | X-H torsion
[ 10763 10752 10751 10750 ] final    5.14 input  -60.55 | X-H torsion
[ 11005 11000 10999 10996 ] final   65.09 input  -57.11 | X-H torsion

> <Gold.Protein.ActiveResidues>
 VAL166  LYS551  ARG553  GLY616  TRP617  ASP618  TYR619  PRO620  LYS621  CYS622 
 ASP623  PHE694  ASN695  SER759  ASP760  ASP761  ALA762  ILE779  LEU786  VAL792 
 PHE793  MET794  SER795  GLU796  ALA797  LYS798  CYS799  TRP800  GLU811  SER814 

> <Gold.Protein.RotatedAtoms>
  151.7924  135.0732  160.0388 H   0  0  0  0  0  0  0  0  0  0  0  0  # atno 6907 bound_to 6896
  152.3147  133.5785  159.5712 H   0  0  0  0  0  0  0  0  0  0  0  0  # atno 6908 bound_to 6896
  150.7338  134.0017  159.3682 H   0  0  0  0  0  0  0  0  0  0  0  0  # atno 6909 bound_to 6896
  144.8145  140.5428  143.5620 H   0  0  0  0  0  0  0  0  0  0  0  0  # atno 7974 bound_to 7965
  154.4157  140.1180  156.5286 H   0  0  0  0  0  0  0  0  0  0  0  0  # atno 8008 bound_to 7997
  155.6628  140.3496  155.4770 H   0  0  0  0  0  0  0  0  0  0  0  0  # atno 8009 bound_to 7997
  155.9698  140.1139  157.0812 H   0  0  0  0  0  0  0  0  0  0  0  0  # atno 8010 bound_to 7997
  140.7246  143.5021  150.9856 H   0  0  0  0  0  0  0  0  0  0  0  0  # atno 10167 bound_to 10162
  156.0436  130.5662  150.7819 H   0  0  0  0  0  0  0  0  0  0  0  0  # atno 10718 bound_to 10713
  153.2629  135.6925  153.7560 H   0  0  0  0  0  0  0  0  0  0  0  0  # atno 10763 bound_to 10752
  153.6612  135.3360  155.3128 H   0  0  0  0  0  0  0  0  0  0  0  0  # atno 10764 bound_to 10752
  154.8437  135.4477  154.1625 H   0  0  0  0  0  0  0  0  0  0  0  0  # atno 10765 bound_to 10752
  139.9917  134.6581  156.0080 H   0  0  0  0  0  0  0  0  0  0  0  0  # atno 11005 bound_to 11000
  145.5247  139.1476  143.3533 LP  0  0  0  0  0  0  0  0  0  0  0  0  # atno 17320 bound_to 7965
  146.2447  140.5388  142.8919 LP  0  0  0  0  0  0  0  0  0  0  0  0  # atno 17321 bound_to 7965
  139.8731  143.7167  152.3164 LP  0  0  0  0  0  0  0  0  0  0  0  0  # atno 17342 bound_to 10162
  139.7423  144.7556  151.0633 LP  0  0  0  0  0  0  0  0  0  0  0  0  # atno 17343 bound_to 10162
  157.5284  131.0935  150.9987 LP  0  0  0  0  0  0  0  0  0  0  0  0  # atno 17370 bound_to 10713
  157.0300  130.5707  149.5342 LP  0  0  0  0  0  0  0  0  0  0  0  0  # atno 17371 bound_to 10713
  141.1571  133.6542  156.4196 LP  0  0  0  0  0  0  0  0  0  0  0  0  # atno 17394 bound_to 11000
  140.4896  134.6587  157.5205 LP  0  0  0  0  0  0  0  0  0  0  0  0  # atno 17395 bound_to 11000

$$$$
