AV-unprocessed.smi:1757|AV-procd|sdf|7077|dock8
  -GOLD-   22720 8293D 1   1.00000     0.00000
 Structure written by MMmdl.
 39 40  0  0  0  0  0  0  0  0  3 V2000
  145.5907  137.0413  152.3366 C   0  0  0  0  0  0  0  0  0  0  0  0
  146.7600  137.5446  153.0884 N   0  3  2  0  0  0  0  0  0  0  0  0
  146.7085  137.1771  154.5255 C   0  0  0  0  0  0  0  0  0  0  0  0
  147.9959  137.6022  155.2515 C   0  0  0  0  0  0  0  0  0  0  0  0
  148.2602  139.1073  155.0791 C   0  0  1  0  0  0  0  0  0  0  0  0
  149.5434  139.4606  155.6810 N   0  0  0  0  0  0  0  0  0  0  0  0
  149.7276  140.3217  156.6926 C   0  0  0  0  0  0  0  0  0  0  0  0
  148.8079  140.9274  157.2423 O   0  0  0  0  0  0  0  0  0  0  0  0
  151.0347  140.4321  156.9907 N   0  0  0  0  0  0  0  0  0  0  0  0
  151.6576  141.1938  157.9938 C   0  0  0  0  0  0  0  0  0  0  0  0
  151.3343  142.4796  158.3049 C   0  0  0  0  0  0  0  0  0  0  0  0
  152.0065  143.2152  159.3690 C   0  0  0  0  0  0  0  0  0  0  0  0
  151.6989  144.6540  159.7413 C   0  0  0  0  0  0  0  0  0  0  0  0
  150.3812  144.8383  159.8152 F   0  0  0  0  0  0  0  0  0  0  0  0
  152.2230  144.9443  160.9316 F   0  0  0  0  0  0  0  0  0  0  0  0
  152.1934  145.5070  158.8441 F   0  0  0  0  0  0  0  0  0  0  0  0
  152.9701  142.4578  160.0045 C   0  0  0  0  0  0  0  0  0  0  0  0
  153.3411  141.1803  159.7683 N   0  5  0  0  0  0  0  0  0  0  0  0
  152.7104  140.5029  158.7676 C   0  0  0  0  0  0  0  0  0  0  0  0
  152.9982  139.3360  158.4980 O   0  0  0  0  0  0  0  0  0  0  0  0
  148.2651  139.4678  153.5840 C   0  0  0  0  0  0  0  0  0  0  0  0
  146.9724  139.0005  152.8942 C   0  0  0  0  0  0  0  0  0  0  0  0
  144.6677  137.4978  152.6970 H   0  0  0  0  0  0  0  0  0  0  0  0
  145.5017  135.9595  152.4418 H   0  0  0  0  0  0  0  0  0  0  0  0
  145.6908  137.2645  151.2738 H   0  0  0  0  0  0  0  0  0  0  0  0
  145.8412  137.6472  154.9921 H   0  0  0  0  0  0  0  0  0  0  0  0
  146.5759  136.0989  154.6228 H   0  0  0  0  0  0  0  0  0  0  0  0
  147.9206  137.3552  156.3113 H   0  0  0  0  0  0  0  0  0  0  0  0
  148.8375  137.0293  154.8594 H   0  0  0  0  0  0  0  0  0  0  0  0
  147.4469  139.6532  155.5606 H   0  0  0  0  0  0  0  0  0  0  0  0
  150.3629  139.0162  155.2934 H   0  0  0  0  0  0  0  0  0  0  0  0
  151.6771  139.9301  156.3953 H   0  0  0  0  0  0  0  0  0  0  0  0
  150.5457  142.9912  157.7785 H   0  0  0  0  0  0  0  0  0  0  0  0
  153.5265  142.9565  160.8270 H   0  0  0  0  0  0  0  0  0  0  0  0
  148.3809  140.5453  153.4595 H   0  0  0  0  0  0  0  0  0  0  0  0
  149.1232  139.0062  153.0930 H   0  0  0  0  0  0  0  0  0  0  0  0
  147.0294  139.2224  151.8277 H   0  0  0  0  0  0  0  0  0  0  0  0
  146.1161  139.5510  153.2874 H   0  0  0  0  0  0  0  0  0  0  0  0
  147.5697  137.0810  152.7015 H   0  0  0  0  0  0  0  0  0  0  0  0
  1  2  1  0  0  0  0
  1 23  1  0  0  0  0
  1 24  1  0  0  0  0
  1 25  1  0  0  0  0
  2 22  1  0  0  0  0
  2  3  1  0  0  0  0
  2 39  1  0  0  0  0
  3  4  1  0  0  0  0
  3 26  1  0  0  0  0
  3 27  1  0  0  0  0
  4  5  1  0  0  0  0
  4 28  1  0  0  0  0
  4 29  1  0  0  0  0
  5  6  1  0  0  0  0
  5 21  1  0  0  0  0
  5 30  1  0  0  0  0
  6  7  1  0  0  0  0
  6 31  1  0  0  0  0
  7  8  2  0  0  0  0
  7  9  1  0  0  0  0
  9 10  1  0  0  0  0
  9 32  1  0  0  0  0
 10 19  1  0  0  0  0
 10 11  2  0  0  0  0
 11 12  1  0  0  0  0
 11 33  1  0  0  0  0
 12 13  1  0  0  0  0
 12 17  2  0  0  0  0
 13 14  1  0  0  0  0
 13 15  1  0  0  0  0
 13 16  1  0  0  0  0
 17 18  1  0  0  0  0
 17 34  1  0  0  0  0
 18 19  1  0  0  0  0
 19 20  2  0  0  0  0
 21 22  1  0  0  0  0
 21 35  1  0  0  0  0
 21 36  1  0  0  0  0
 22 37  1  0  0  0  0
 22 38  1  0  0  0  0
M  CHG  1   2   1
M  CHG  1  18  -1
M  END
> <s_m_source_file>
AV-unprocessed.smi

> <i_m_source_file_index>
1757

> <i_lp_mmshare_version>
43012

> <i_f3d_flags>
0

> <s_epik_input>
W0NIM11OMVtDSDJdW0NIMl1bQ0hdKFtDSDJdW0NIMl0xKVtOSF1DKD1PKVtOSF1jMltjSF1jKEMoRikoRilGKVtjSF1bbkhdYzI9Tw==

> <s_epik_cmdline>
J2VwaWtfcHl0aG9uJywgJy1waCcsICc3LjAnLCAnLXRuJywgJzgnLCAnLW1hJywgJzIwMCcsICctbWV0YWxfYmluZGluZycsICctaW1hZScsICc8aW5maWxlLm1hZT4nLCAnLW9tYWUnLCAnPG91dGZpbGUubWFlPic=

> <r_lp_tautomer_probability>
1

> <r_epik_Ionization_Penalty>
3.04759

> <r_epik_Ionization_Penalty_Charging>
0.155898

> <r_epik_Ionization_Penalty_Neutral>
2.89169

> <r_epik_State_Penalty>
2.88714

> <r_epik_Charging_Adjusted_Penalty>
3.04304

> <i_epik_Tot_Q>
0

> <i_epik_Tot_abs_Q>
2

> <r_epik_Metal_State_Penalty>
0.445786

> <b_epik_Metal_Only>
1

> <s_lp_Force_Field>
OPLS_2005

> <r_lp_Energy>
29.3736

> <b_lp_Chiralities_Consistent>
1

> <s_lp_Variant>
AV-unprocessed.smi:1757-3

> <Gold.Version>
5.8.1

> <Gold.Id.Protein>
6NUR|6NUR_protein|mol2

> <Gold.PLP.Fitness>
42.2996

> <Gold.PLP.PLP>
-35.1342

> <Gold.PLP.part.hbond>
-2.0000

> <Gold.PLP.part.metal>
0.0000

> <Gold.PLP.part.buried>
-2.3111

> <Gold.PLP.part.nonpolar>
-31.3865

> <Gold.PLP.part.repulsive>
0.1868

> <Gold.PLP.ligand.clash>
0.0000

> <Gold.PLP.ligand.torsion>
0.9190

> <Gold.PLP.Chemscore.Hbond>
3.0000

> <Gold.PLP.Chemscore.CHOScore>
0.0000

> <Gold.PLP.Chemscore.Metal>
0.0000

> <Gold.Chemscore.Hbonds>
donor molecule, donor type, donor heavy atom, donor atom, acceptor molecule, acceptor atom, score
      L1  H     2    39       P1  7948  2.00
      P1  H  7997  8010       L1    20  0.14

> <Gold.PLP.Chemscore.Internal.Correction>
0.0034

> <Gold.Rescore>
     Score         DG    S(hbond)    S(metal)    S(lipo)     H(rot)  DE(clash)    DE(int)     intcor
     16.14     -17.54       1.90        0.00      70.71       1.00       0.81       0.59       ----

> <Gold.Chemscore.Fitness>
16.1370

> <Gold.Chemscore.DG>
-17.5377

> <Gold.Chemscore.ZeroCoef>
-5.4800

> <Gold.Chemscore.Hbond>
1.8995

> <Gold.Chemscore.Metal>
0.0000

> <Gold.Chemscore.Lipo>
70.7111

> <Gold.Chemscore.Internal_Hbond>
0.0000

> <Gold.Chemscore.DEClash>
0.8057

> <Gold.Chemscore.DEInternal>
0.5949

> <Gold.Chemscore.Rot>
1.0000

> <Gold.Chemscore.Internal.Correction>
   9.000000E+99

> <Gold.Chemscore.Hbonds>
donor molecule, donor type, donor heavy atom, donor atom, acceptor molecule, acceptor atom, score
      L1  H     2    39       P1  7948  1.00
      P1  H  7997  8010       L1    20  0.01

> <Gold.Chemscore.Hbond.Weighted>
-6.3445

> <Gold.Chemscore.Metal.Weighted>
-0.0000

> <Gold.Chemscore.Lipo.Weighted>
-8.2732

> <Gold.Chemscore.Internal_Hbond.Weighted>
0.0000

> <Gold.Chemscore.DEClash.Weighted>
0.8057

> <Gold.Chemscore.DEInternal.Weighted>
0.5949

> <Gold.Chemscore.Rot.Weighted>
2.5600

> <Gold.Chemscore.Internal.Correction.Weighted>
   9.000000E+99

> <Gold.Protein.RotatedTorsions>
[ 6907 6896 6895 6894 ] final   72.21 input  -60.11 | X-H torsion
[ 7974 7965 7964 7962 ] final  139.16 input  175.53 | X-H torsion
[ 8008 7997 7996 7995 ] final   17.62 input   59.86 | X-H torsion
[ 10167 10162 10161 10158 ] final -163.63 input  -65.29 | X-H torsion
[ 10718 10713 10712 10709 ] final   65.84 input   66.30 | X-H torsion
[ 10763 10752 10751 10750 ] final   81.24 input  -60.55 | X-H torsion
[ 11005 11000 10999 10996 ] final  -76.65 input  -57.11 | X-H torsion

> <Gold.Protein.ActiveResidues>
 VAL166  LYS551  ARG553  GLY616  TRP617  ASP618  TYR619  PRO620  LYS621  CYS622 
 ASP623  PHE694  ASN695  SER759  ASP760  ASP761  ALA762  ILE779  LEU786  VAL792 
 PHE793  MET794  SER795  GLU796  ALA797  LYS798  CYS799  TRP800  GLU811  SER814 

> <Gold.Protein.RotatedAtoms>
  152.4855  134.4605  159.9603 H   0  0  0  0  0  0  0  0  0  0  0  0  # atno 6907 bound_to 6896
  151.4603  133.3588  159.2816 H   0  0  0  0  0  0  0  0  0  0  0  0  # atno 6908 bound_to 6896
  150.8961  134.8394  159.7388 H   0  0  0  0  0  0  0  0  0  0  0  0  # atno 6909 bound_to 6896
  144.9305  139.5053  143.5620 H   0  0  0  0  0  0  0  0  0  0  0  0  # atno 7974 bound_to 7965
  154.8940  140.2991  155.5354 H   0  0  0  0  0  0  0  0  0  0  0  0  # atno 8008 bound_to 7997
  156.3020  140.2419  156.3894 H   0  0  0  0  0  0  0  0  0  0  0  0  # atno 8009 bound_to 7997
  154.8589  140.0406  157.1641 H   0  0  0  0  0  0  0  0  0  0  0  0  # atno 8010 bound_to 7997
  139.6307  144.0446  152.2013 H   0  0  0  0  0  0  0  0  0  0  0  0  # atno 10167 bound_to 10162
  157.6131  130.9236  150.0030 H   0  0  0  0  0  0  0  0  0  0  0  0  # atno 10718 bound_to 10713
  153.1100  135.4773  154.9018 H   0  0  0  0  0  0  0  0  0  0  0  0  # atno 10763 bound_to 10752
  154.7470  135.3096  154.8628 H   0  0  0  0  0  0  0  0  0  0  0  0  # atno 10764 bound_to 10752
  153.9220  135.6854  153.4801 H   0  0  0  0  0  0  0  0  0  0  0  0  # atno 10765 bound_to 10752
  141.1655  133.6992  156.7701 H   0  0  0  0  0  0  0  0  0  0  0  0  # atno 11005 bound_to 11000
  146.3245  139.8251  142.8919 LP  0  0  0  0  0  0  0  0  0  0  0  0  # atno 17320 bound_to 7965
  145.3150  141.0229  143.3533 LP  0  0  0  0  0  0  0  0  0  0  0  0  # atno 17321 bound_to 7965
  140.0110  144.6223  150.7647 LP  0  0  0  0  0  0  0  0  0  0  0  0  # atno 17342 bound_to 10162
  140.7437  143.2850  151.3489 LP  0  0  0  0  0  0  0  0  0  0  0  0  # atno 17343 bound_to 10162
  156.1242  130.3645  149.9836 LP  0  0  0  0  0  0  0  0  0  0  0  0  # atno 17370 bound_to 10713
  156.7910  130.9256  151.3646 LP  0  0  0  0  0  0  0  0  0  0  0  0  # atno 17371 bound_to 10713
  140.2470  134.8569  157.3630 LP  0  0  0  0  0  0  0  0  0  0  0  0  # atno 17394 bound_to 11000
  140.1739  134.4574  155.7814 LP  0  0  0  0  0  0  0  0  0  0  0  0  # atno 17395 bound_to 11000

$$$$
