AV-unprocessed.smi:1837|AV-procd|sdf|7481|dock8
  -GOLD-   22720 9183D 1   1.00000     0.00000
 Structure written by MMmdl.
 45 48  0  0  0  0  0  0  0  0  3 V2000
  148.0966  141.5456  158.7040 O   0  0  0  0  0  0  0  0  0  0  0  0
  148.6360  141.5506  157.5970 C   0  0  0  0  0  0  0  0  0  0  0  0
  147.9751  140.8457  156.4039 C   0  0  0  0  0  0  0  0  0  0  0  0
  147.2061  141.7595  155.5423 N   0  0  0  0  0  0  0  0  0  0  0  0
  146.0571  142.3531  156.1016 C   0  0  0  0  0  0  0  0  0  0  0  0
  145.2764  143.2001  155.4024 C   0  0  0  0  0  0  0  0  0  0  0  0
  144.0966  143.7957  155.9901 N   0  3  0  0  0  0  0  0  0  0  0  0
  143.3673  144.4809  155.2802 O   0  0  0  0  0  0  0  0  0  0  0  0
  143.8597  143.6006  157.1785 O   0  5  0  0  0  0  0  0  0  0  0  0
  145.6563  143.4930  154.0339 C   0  0  0  0  0  0  0  0  0  0  0  0
  146.7514  142.9247  153.4916 C   0  0  0  0  0  0  0  0  0  0  0  0
  147.5967  141.9995  154.2530 C   0  0  0  0  0  0  0  0  0  0  0  0
  148.5951  141.4728  153.7616 O   0  0  0  0  0  0  0  0  0  0  0  0
  149.8015  142.1669  157.3347 N   0  0  0  0  0  0  0  0  0  0  0  0
  150.6624  142.9164  158.2558 C   0  0  0  0  0  0  0  0  0  0  0  0
  149.8383  143.8898  159.1425 C   0  0  0  0  0  0  0  0  0  0  0  0
  150.7871  144.7040  160.0490 C   0  0  1  0  0  0  0  0  0  0  0  0
  151.5929  143.7437  160.9510 C   0  0  0  0  0  0  0  0  0  0  0  0
  152.4306  142.7921  160.0691 C   0  0  2  0  0  0  0  0  0  0  0  0
  153.4010  143.6158  159.1972 C   0  0  0  0  0  0  0  0  0  0  0  0
  152.5888  144.5716  158.2988 C   0  0  2  0  0  0  0  0  0  0  0  0
  151.7566  145.5288  159.1771 C   0  0  0  0  0  0  0  0  0  0  0  0
  151.6453  143.7502  157.3949 C   0  0  0  0  0  0  0  0  0  0  0  0
  151.4912  141.9662  159.1635 C   0  0  0  0  0  0  0  0  0  0  0  0
  148.7563  140.3445  155.8309 H   0  0  0  0  0  0  0  0  0  0  0  0
  147.3305  140.0429  156.7676 H   0  0  0  0  0  0  0  0  0  0  0  0
  145.8557  142.0649  157.1233 H   0  0  0  0  0  0  0  0  0  0  0  0
  145.0647  144.1684  153.4335 H   0  0  0  0  0  0  0  0  0  0  0  0
  147.0149  143.1561  152.4698 H   0  0  0  0  0  0  0  0  0  0  0  0
  150.1377  142.1052  156.3845 H   0  0  0  0  0  0  0  0  0  0  0  0
  149.2481  144.5633  158.5197 H   0  0  0  0  0  0  0  0  0  0  0  0
  149.1267  143.3478  159.7655 H   0  0  0  0  0  0  0  0  0  0  0  0
  150.1997  145.3782  160.6730 H   0  0  0  0  0  0  0  0  0  0  0  0
  152.2435  144.3103  161.6184 H   0  0  0  0  0  0  0  0  0  0  0  0
  150.9194  143.1717  161.5902 H   0  0  0  0  0  0  0  0  0  0  0  0
  153.0025  142.1173  160.7068 H   0  0  0  0  0  0  0  0  0  0  0  0
  154.0891  144.1814  159.8268 H   0  0  0  0  0  0  0  0  0  0  0  0
  154.0158  142.9536  158.5862 H   0  0  0  0  0  0  0  0  0  0  0  0
  153.2716  145.1521  157.6777 H   0  0  0  0  0  0  0  0  0  0  0  0
  151.2007  146.2291  158.5527 H   0  0  0  0  0  0  0  0  0  0  0  0
  152.4130  146.1304  159.8071 H   0  0  0  0  0  0  0  0  0  0  0  0
  152.2326  143.0958  156.7486 H   0  0  0  0  0  0  0  0  0  0  0  0
  151.0953  144.4196  156.7316 H   0  0  0  0  0  0  0  0  0  0  0  0
  150.8416  141.3532  159.7883 H   0  0  0  0  0  0  0  0  0  0  0  0
  152.0740  141.2727  158.5555 H   0  0  0  0  0  0  0  0  0  0  0  0
  1  2  2  0  0  0  0
  2  3  1  0  0  0  0
  2 14  1  0  0  0  0
  3  4  1  0  0  0  0
  3 25  1  0  0  0  0
  3 26  1  0  0  0  0
  4 12  1  0  0  0  0
  4  5  1  0  0  0  0
  5  6  2  0  0  0  0
  5 27  1  0  0  0  0
  6  7  1  0  0  0  0
  6 10  1  0  0  0  0
  7  8  2  0  0  0  0
  7  9  1  0  0  0  0
 10 11  2  0  0  0  0
 10 28  1  0  0  0  0
 11 12  1  0  0  0  0
 11 29  1  0  0  0  0
 12 13  2  0  0  0  0
 14 15  1  0  0  0  0
 14 30  1  0  0  0  0
 15 23  1  0  0  0  0
 15 24  1  0  0  0  0
 15 16  1  0  0  0  0
 16 17  1  0  0  0  0
 16 31  1  0  0  0  0
 16 32  1  0  0  0  0
 17 22  1  0  0  0  0
 17 18  1  0  0  0  0
 17 33  1  0  0  0  0
 18 19  1  0  0  0  0
 18 34  1  0  0  0  0
 18 35  1  0  0  0  0
 19 20  1  0  0  0  0
 19 24  1  0  0  0  0
 19 36  1  0  0  0  0
 20 21  1  0  0  0  0
 20 37  1  0  0  0  0
 20 38  1  0  0  0  0
 21 22  1  0  0  0  0
 21 23  1  0  0  0  0
 21 39  1  0  0  0  0
 22 40  1  0  0  0  0
 22 41  1  0  0  0  0
 23 42  1  0  0  0  0
 23 43  1  0  0  0  0
 24 44  1  0  0  0  0
 24 45  1  0  0  0  0
M  CHG  1   7   1
M  CHG  1   9  -1
M  END
> <s_m_source_file>
AV-unprocessed.smi

> <i_m_source_file_index>
1837

> <i_lp_mmshare_version>
43012

> <i_f3d_flags>
0

> <s_epik_input>
Tz1jMVtjSF1bY0hdYyhbTitdKD1PKVtPLV0pW2NIXW4xW0NIMl1DKD1PKVtOSF1DMjNbQ0gyXVtDQEhdNFtDSDJdW0NAQEhdKFtDSDJdMylbQ0gyXVtDQEhdKFtDSDJdNClbQ0gyXTI=

> <s_epik_cmdline>
J2VwaWtfcHl0aG9uJywgJy1waCcsICc3LjAnLCAnLXRuJywgJzgnLCAnLW1hJywgJzIwMCcsICctbWV0YWxfYmluZGluZycsICctaW1hZScsICc8aW5maWxlLm1hZT4nLCAnLW9tYWUnLCAnPG91dGZpbGUubWFlPic=

> <r_lp_tautomer_probability>
1

> <r_epik_Ionization_Penalty>
2.34466e-08

> <r_epik_Ionization_Penalty_Charging>
8.88262e-11

> <r_epik_Ionization_Penalty_Neutral>
2.33578e-08

> <r_epik_State_Penalty>
-0

> <r_epik_Charging_Adjusted_Penalty>
8.88262e-11

> <i_epik_Tot_Q>
0

> <i_epik_Tot_abs_Q>
2

> <r_epik_Metal_State_Penalty>
-0

> <b_epik_Metal_Only>
0

> <s_lp_Force_Field>
OPLS_2005

> <r_lp_Energy>
41.9783

> <b_lp_Chiralities_Consistent>
1

> <s_lp_Variant>
AV-unprocessed.smi:1837-1

> <Gold.Version>
5.8.1

> <Gold.Id.Protein>
6NUR|6NUR_protein|mol2

> <Gold.PLP.Fitness>
48.0202

> <Gold.PLP.PLP>
-47.5462

> <Gold.PLP.part.hbond>
-3.0428

> <Gold.PLP.part.metal>
0.0000

> <Gold.PLP.part.buried>
-5.8389

> <Gold.PLP.part.nonpolar>
-39.5278

> <Gold.PLP.part.repulsive>
0.3255

> <Gold.PLP.ligand.clash>
0.0000

> <Gold.PLP.ligand.torsion>
0.6722

> <Gold.PLP.Chemscore.Hbond>
0.6003

> <Gold.PLP.Chemscore.CHOScore>
0.0000

> <Gold.PLP.Chemscore.Metal>
0.0000

> <Gold.Chemscore.Hbonds>
donor molecule, donor type, donor heavy atom, donor atom, acceptor molecule, acceptor atom, score
      P1  H  6934  6946       L1     1  0.01
      P1  H  8011  8017       L1    13  0.62

> <Gold.PLP.Chemscore.Internal.Correction>
0.0174

> <Gold.Rescore>
     Score         DG    S(hbond)    S(metal)    S(lipo)     H(rot)  DE(clash)    DE(int)     intcor
     15.91     -18.76       0.64        0.00     128.86       1.53       1.20       1.65       ----

> <Gold.Chemscore.Fitness>
15.9095

> <Gold.Chemscore.DG>
-18.7578

> <Gold.Chemscore.ZeroCoef>
-5.4800

> <Gold.Chemscore.Hbond>
0.6365

> <Gold.Chemscore.Metal>
0.0000

> <Gold.Chemscore.Lipo>
128.8620

> <Gold.Chemscore.Internal_Hbond>
0.0000

> <Gold.Chemscore.DEClash>
1.1987

> <Gold.Chemscore.DEInternal>
1.6497

> <Gold.Chemscore.Rot>
1.5332

> <Gold.Chemscore.Internal.Correction>
   9.000000E+99

> <Gold.Chemscore.Hbonds>
donor molecule, donor type, donor heavy atom, donor atom, acceptor molecule, acceptor atom, score
      P1  H  6934  6946       L1     1  0.01
      P1  H  8011  8017       L1    13  0.60

> <Gold.Chemscore.Hbond.Weighted>
-2.1259

> <Gold.Chemscore.Metal.Weighted>
-0.0000

> <Gold.Chemscore.Lipo.Weighted>
-15.0768

> <Gold.Chemscore.Internal_Hbond.Weighted>
0.0000

> <Gold.Chemscore.DEClash.Weighted>
1.1987

> <Gold.Chemscore.DEInternal.Weighted>
1.6497

> <Gold.Chemscore.Rot.Weighted>
3.9249

> <Gold.Chemscore.Internal.Correction.Weighted>
   9.000000E+99

> <Gold.Protein.RotatedTorsions>
[ 6907 6896 6895 6894 ] final -119.41 input  -60.11 | X-H torsion
[ 7974 7965 7964 7962 ] final    0.37 input  175.53 | X-H torsion
[ 8008 7997 7996 7995 ] final   23.30 input   59.86 | X-H torsion
[ 10167 10162 10161 10158 ] final   84.68 input  -65.29 | X-H torsion
[ 10718 10713 10712 10709 ] final   56.59 input   66.30 | X-H torsion
[ 10763 10752 10751 10750 ] final  -53.94 input  -60.55 | X-H torsion
[ 11005 11000 10999 10996 ] final -123.88 input  -57.11 | X-H torsion

> <Gold.Protein.ActiveResidues>
 VAL166  LYS551  ARG553  GLY616  TRP617  ASP618  TYR619  PRO620  LYS621  CYS622 
 ASP623  PHE694  ASN695  SER759  ASP760  ASP761  ALA762  ILE779  LEU786  VAL792 
 PHE793  MET794  SER795  GLU796  ALA797  LYS798  CYS799  TRP800  GLU811  SER814 

> <Gold.Protein.RotatedAtoms>
  150.8303  133.8103  159.3101 H   0  0  0  0  0  0  0  0  0  0  0  0  # atno 6907 bound_to 6896
  151.5835  135.1055  160.0032 H   0  0  0  0  0  0  0  0  0  0  0  0  # atno 6908 bound_to 6896
  152.4383  133.7359  159.6670 H   0  0  0  0  0  0  0  0  0  0  0  0  # atno 6909 bound_to 6896
  146.2434  140.1147  142.8342 H   0  0  0  0  0  0  0  0  0  0  0  0  # atno 7974 bound_to 7965
  154.9788  140.3099  155.4955 H   0  0  0  0  0  0  0  0  0  0  0  0  # atno 8008 bound_to 7997
  156.2956  140.2270  156.4825 H   0  0  0  0  0  0  0  0  0  0  0  0  # atno 8009 bound_to 7997
  154.7809  140.0446  157.1114 H   0  0  0  0  0  0  0  0  0  0  0  0  # atno 8010 bound_to 7997
  139.9055  144.6304  150.8592 H   0  0  0  0  0  0  0  0  0  0  0  0  # atno 10167 bound_to 10162
  157.5444  130.8720  149.8869 H   0  0  0  0  0  0  0  0  0  0  0  0  # atno 10718 bound_to 10713
  154.1669  135.6465  153.5000 H   0  0  0  0  0  0  0  0  0  0  0  0  # atno 10763 bound_to 10752
  153.0095  135.5374  154.6652 H   0  0  0  0  0  0  0  0  0  0  0  0  # atno 10764 bound_to 10752
  154.5981  135.2941  155.0536 H   0  0  0  0  0  0  0  0  0  0  0  0  # atno 10765 bound_to 10752
  140.9885  134.0573  157.3683 H   0  0  0  0  0  0  0  0  0  0  0  0  # atno 11005 bound_to 11000
  145.0457  140.8979  143.5026 LP  0  0  0  0  0  0  0  0  0  0  0  0  # atno 17320 bound_to 7965
  145.1236  139.2677  143.5576 LP  0  0  0  0  0  0  0  0  0  0  0  0  # atno 17321 bound_to 7965
  140.7697  143.3404  151.2219 LP  0  0  0  0  0  0  0  0  0  0  0  0  # atno 17342 bound_to 10162
  139.6988  143.9568  152.2895 LP  0  0  0  0  0  0  0  0  0  0  0  0  # atno 17343 bound_to 10162
  156.0523  130.3715  150.1172 LP  0  0  0  0  0  0  0  0  0  0  0  0  # atno 17370 bound_to 10713
  156.9349  130.9726  151.3526 LP  0  0  0  0  0  0  0  0  0  0  0  0  # atno 17371 bound_to 10713
  139.8981  135.0153  156.7133 LP  0  0  0  0  0  0  0  0  0  0  0  0  # atno 17394 bound_to 11000
  140.7077  133.9250  155.8064 LP  0  0  0  0  0  0  0  0  0  0  0  0  # atno 17395 bound_to 11000

$$$$
