AV-unprocessed.smi:21|AV-procd|sdf|122|dock7
  -GOLD-   2262015293D 1   1.00000     0.00000
 Structure written by MMmdl.
 62 65  0  0  0  0  0  0  0  0  2 V2000
  153.3953  143.1541  163.2004 C   0  0  0  0  0  0  0  0  0  0  0  0
  153.1156  142.1974  162.1914 O   0  0  0  0  0  0  0  0  0  0  0  0
  152.2120  142.6646  161.2009 C   0  0  2  0  0  0  0  0  0  0  0  0
  152.5996  142.1228  159.8289 C   0  0  0  0  0  0  0  0  0  0  0  0
  152.0524  143.1528  158.8226 C   0  0  1  0  0  0  0  0  0  0  0  0
  150.7662  142.6922  158.0999 C   0  0  0  0  0  0  0  0  0  0  0  0
  151.0186  141.9885  156.8414 N   0  0  0  0  0  0  0  0  0  0  0  0
  150.6263  142.6268  155.5866 C   0  0  0  0  0  0  0  0  0  0  0  0
  151.2699  140.6479  156.8473 C   0  0  0  0  0  0  0  0  0  0  0  0
  151.9300  140.1156  157.9112 N   0  0  0  0  0  0  0  0  0  0  0  0
  152.2360  138.8162  157.9479 C   0  0  0  0  0  0  0  0  0  0  0  0
  151.9830  137.8755  157.0383 N   0  0  0  0  0  0  0  0  0  0  0  0
  151.3077  138.3912  155.9731 C   0  0  0  0  0  0  0  0  0  0  0  0
  150.9065  139.7477  155.7988 C   0  0  0  0  0  0  0  0  0  0  0  0
  150.2254  139.8747  154.5917 N   0  0  0  0  0  0  0  0  0  0  0  0
  150.2356  138.6748  154.0806 C   0  0  0  0  0  0  0  0  0  0  0  0
  150.8801  137.7262  154.8386 N   0  0  0  0  0  0  0  0  0  0  0  0
  151.0631  136.3242  154.5117 C   0  0  0  0  0  0  0  0  0  0  0  0
  150.2994  135.3587  155.4574 C   0  0  2  0  0  0  0  0  0  0  0  0
  150.8794  135.3599  156.8957 C   0  0  0  0  0  0  0  0  0  0  0  0
  152.2493  135.0130  156.9234 O   0  0  0  0  0  0  0  0  0  0  0  0
  150.2817  133.9241  154.8663 C   0  0  2  0  0  0  0  0  0  0  0  0
  149.2525  133.6950  153.7709 C   0  0  0  0  0  0  0  0  0  0  0  0
  149.1428  132.1757  153.7401 C   0  0  0  0  0  0  0  0  0  0  0  0
  149.3290  131.7567  155.0856 O   0  0  0  0  0  0  0  0  0  0  0  0
  149.8770  132.8223  155.8558 C   0  0  0  0  0  0  0  0  0  0  0  0
  151.7769  144.3820  159.6072 N   0  3  2  0  0  0  0  0  0  0  0  0
  152.2503  145.6335  158.9776 C   0  0  0  0  0  0  0  0  0  0  0  0
  152.2792  144.1744  160.9800 C   0  0  0  0  0  0  0  0  0  0  0  0
  151.1887  142.3591  161.4284 H   0  0  0  0  0  0  0  0  0  0  0  0
  152.8342  143.3647  158.0916 H   0  0  0  0  0  0  0  0  0  0  0  0
  154.0681  142.7175  163.9386 H   0  0  0  0  0  0  0  0  0  0  0  0
  152.4852  143.4612  163.7168 H   0  0  0  0  0  0  0  0  0  0  0  0
  153.8815  144.0396  162.7901 H   0  0  0  0  0  0  0  0  0  0  0  0
  153.6870  142.0889  159.7455 H   0  0  0  0  0  0  0  0  0  0  0  0
  152.2352  141.1088  159.6703 H   0  0  0  0  0  0  0  0  0  0  0  0
  150.1988  142.0412  158.7659 H   0  0  0  0  0  0  0  0  0  0  0  0
  150.1056  143.5370  157.9126 H   0  0  0  0  0  0  0  0  0  0  0  0
  151.3585  142.4175  154.8058 H   0  0  0  0  0  0  0  0  0  0  0  0
  150.5643  143.7095  155.6967 H   0  0  0  0  0  0  0  0  0  0  0  0
  149.6533  142.2661  155.2517 H   0  0  0  0  0  0  0  0  0  0  0  0
  152.7645  138.4845  158.8295 H   0  0  0  0  0  0  0  0  0  0  0  0
  149.7838  138.4504  153.1254 H   0  0  0  0  0  0  0  0  0  0  0  0
  150.7379  136.1943  153.4797 H   0  0  0  0  0  0  0  0  0  0  0  0
  152.1305  136.1004  154.5281 H   0  0  0  0  0  0  0  0  0  0  0  0
  149.2618  135.6924  155.5154 H   0  0  0  0  0  0  0  0  0  0  0  0
  150.8109  136.3481  157.3480 H   0  0  0  0  0  0  0  0  0  0  0  0
  150.3173  134.6834  157.5405 H   0  0  0  0  0  0  0  0  0  0  0  0
  152.3246  134.1198  157.2234 H   0  0  0  0  0  0  0  0  0  0  0  0
  151.2682  133.6850  154.4652 H   0  0  0  0  0  0  0  0  0  0  0  0
  148.2933  134.1340  154.0500 H   0  0  0  0  0  0  0  0  0  0  0  0
  149.5484  134.1044  152.8046 H   0  0  0  0  0  0  0  0  0  0  0  0
  148.1877  131.8322  153.3420 H   0  0  0  0  0  0  0  0  0  0  0  0
  149.9391  131.7492  153.1289 H   0  0  0  0  0  0  0  0  0  0  0  0
  150.7179  132.4684  156.4526 H   0  0  0  0  0  0  0  0  0  0  0  0
  149.1054  133.1785  156.5397 H   0  0  0  0  0  0  0  0  0  0  0  0
  153.3338  145.6266  158.8511 H   0  0  0  0  0  0  0  0  0  0  0  0
  151.9817  146.4937  159.5914 H   0  0  0  0  0  0  0  0  0  0  0  0
  151.7922  145.7647  157.9972 H   0  0  0  0  0  0  0  0  0  0  0  0
  151.6950  144.7363  161.7093 H   0  0  0  0  0  0  0  0  0  0  0  0
  153.3162  144.5088  161.0459 H   0  0  0  0  0  0  0  0  0  0  0  0
  150.7715  144.4446  159.6819 H   0  0  0  0  0  0  0  0  0  0  0  0
  1  2  1  0  0  0  0
  1 32  1  0  0  0  0
  1 33  1  0  0  0  0
  1 34  1  0  0  0  0
  2  3  1  0  0  0  0
  3 30  1  0  0  0  0
  3 29  1  0  0  0  0
  3  4  1  0  0  0  0
  4  5  1  0  0  0  0
  4 35  1  0  0  0  0
  4 36  1  0  0  0  0
  5 31  1  0  0  0  0
  5  6  1  0  0  0  0
  5 27  1  0  0  0  0
  6  7  1  0  0  0  0
  6 37  1  0  0  0  0
  6 38  1  0  0  0  0
  7  8  1  0  0  0  0
  7  9  1  0  0  0  0
  8 39  1  0  0  0  0
  8 40  1  0  0  0  0
  8 41  1  0  0  0  0
  9 14  1  0  0  0  0
  9 10  2  0  0  0  0
 10 11  1  0  0  0  0
 11 12  2  0  0  0  0
 11 42  1  0  0  0  0
 12 13  1  0  0  0  0
 13 17  1  0  0  0  0
 13 14  2  0  0  0  0
 14 15  1  0  0  0  0
 15 16  2  0  0  0  0
 16 17  1  0  0  0  0
 16 43  1  0  0  0  0
 17 18  1  0  0  0  0
 18 19  1  0  0  0  0
 18 44  1  0  0  0  0
 18 45  1  0  0  0  0
 19 20  1  0  0  0  0
 19 22  1  0  0  0  0
 19 46  1  0  0  0  0
 20 21  1  0  0  0  0
 20 47  1  0  0  0  0
 20 48  1  0  0  0  0
 21 49  1  0  0  0  0
 22 26  1  0  0  0  0
 22 23  1  0  0  0  0
 22 50  1  0  0  0  0
 23 24  1  0  0  0  0
 23 51  1  0  0  0  0
 23 52  1  0  0  0  0
 24 25  1  0  0  0  0
 24 53  1  0  0  0  0
 24 54  1  0  0  0  0
 25 26  1  0  0  0  0
 26 55  1  0  0  0  0
 26 56  1  0  0  0  0
 27 28  1  0  0  0  0
 27 29  1  0  0  0  0
 27 62  1  0  0  0  0
 28 57  1  0  0  0  0
 28 58  1  0  0  0  0
 28 59  1  0  0  0  0
 29 60  1  0  0  0  0
 29 61  1  0  0  0  0
M  CHG  1  27   1
M  END
> <s_m_source_file>
AV-unprocessed.smi

> <i_m_source_file_index>
21

> <i_lp_mmshare_version>
43012

> <i_f3d_flags>
0

> <s_epik_input>
W0NIM11PW0NASF0xW0NIMl1bQ0BIXShOKFtDSDNdKVtDSDJdMSlbQ0gyXU4oW0NIM10pYyhuW2NIXW4yKWMoYzIzKW5bY0hdbjNbQ0gyXVtDQEhdKFtDSDJdW09IXSlbQ0BASF00W0NIMl1bQ0gyXU9bQ0gyXTQ=

> <s_epik_cmdline>
J2VwaWtfcHl0aG9uJywgJy1waCcsICc3LjAnLCAnLXRuJywgJzgnLCAnLW1hJywgJzIwMCcsICctbWV0YWxfYmluZGluZycsICctaW1hZScsICc8aW5maWxlLm1hZT4nLCAnLW9tYWUnLCAnPG91dGZpbGUubWFlPic=

> <r_lp_tautomer_probability>
1

> <r_epik_Ionization_Penalty>
0.0157465

> <r_epik_Ionization_Penalty_Charging>
0.015354

> <r_epik_Ionization_Penalty_Neutral>
0.000392529

> <r_epik_State_Penalty>
0.0120612

> <r_epik_Charging_Adjusted_Penalty>
0.0274152

> <i_epik_Tot_Q>
1

> <i_epik_Tot_abs_Q>
1

> <r_epik_Metal_State_Penalty>
0.0121253

> <b_epik_Metal_Only>
0

> <s_lp_Force_Field>
OPLS_2005

> <r_lp_Energy>
59.339

> <b_lp_Chiralities_Consistent>
1

> <s_lp_Variant>
AV-unprocessed.smi:21-2

> <Gold.Version>
5.8.1

> <Gold.Id.Protein>
6NUR|6NUR_protein|mol2

> <Gold.PLP.Fitness>
52.8999

> <Gold.PLP.PLP>
-47.5851

> <Gold.PLP.part.hbond>
-2.3319

> <Gold.PLP.part.metal>
0.0000

> <Gold.PLP.part.buried>
-0.2458

> <Gold.PLP.part.nonpolar>
-43.4290

> <Gold.PLP.part.repulsive>
0.2344

> <Gold.PLP.ligand.clash>
2.2850

> <Gold.PLP.ligand.torsion>
1.7724

> <Gold.PLP.Chemscore.Hbond>
1.8775

> <Gold.PLP.Chemscore.CHOScore>
1.6380

> <Gold.PLP.Chemscore.Metal>
0.0000

> <Gold.Chemscore.Hbonds>
donor molecule, donor type, donor heavy atom, donor atom, acceptor molecule, acceptor atom, score
      P1  H  7989  7998       L1    15  0.98
      P1  H 10752 10765       L1    21  0.96
      L1  C    16    43       P1  7948  0.72
      L1  C    16    43       P1  7957  0.93

> <Gold.PLP.Chemscore.Internal.Correction>
0.5979

> <Gold.Rescore>
     Score         DG    S(hbond)    S(metal)    S(lipo)     H(rot)  DE(clash)    DE(int)     intcor
      8.25     -15.50       0.81        0.00     129.73       3.08       1.66       5.58       ----

> <Gold.Chemscore.Fitness>
8.2540

> <Gold.Chemscore.DG>
-15.4989

> <Gold.Chemscore.ZeroCoef>
-5.4800

> <Gold.Chemscore.Hbond>
0.8128

> <Gold.Chemscore.Metal>
0.0000

> <Gold.Chemscore.Lipo>
129.7299

> <Gold.Chemscore.Internal_Hbond>
0.0000

> <Gold.Chemscore.DEClash>
1.6624

> <Gold.Chemscore.DEInternal>
5.5824

> <Gold.Chemscore.Rot>
3.0758

> <Gold.Chemscore.Internal.Correction>
   9.000000E+99

> <Gold.Chemscore.Hbonds>
donor molecule, donor type, donor heavy atom, donor atom, acceptor molecule, acceptor atom, score
      P1  H  7989  7998       L1    15  0.09
      P1  H 10752 10765       L1    21  0.73

> <Gold.Chemscore.Hbond.Weighted>
-2.7146

> <Gold.Chemscore.Metal.Weighted>
-0.0000

> <Gold.Chemscore.Lipo.Weighted>
-15.1784

> <Gold.Chemscore.Internal_Hbond.Weighted>
0.0000

> <Gold.Chemscore.DEClash.Weighted>
1.6624

> <Gold.Chemscore.DEInternal.Weighted>
5.5824

> <Gold.Chemscore.Rot.Weighted>
7.8741

> <Gold.Chemscore.Internal.Correction.Weighted>
   9.000000E+99

> <Gold.Protein.RotatedTorsions>
[ 6907 6896 6895 6894 ] final  135.42 input  -60.11 | X-H torsion
[ 7974 7965 7964 7962 ] final  -76.18 input  175.53 | X-H torsion
[ 8008 7997 7996 7995 ] final   53.74 input   59.86 | X-H torsion
[ 10167 10162 10161 10158 ] final   33.05 input  -65.29 | X-H torsion
[ 10718 10713 10712 10709 ] final   60.41 input   66.30 | X-H torsion
[ 10763 10752 10751 10750 ] final -136.83 input  -60.55 | X-H torsion
[ 11005 11000 10999 10996 ] final  138.08 input  -57.11 | X-H torsion

> <Gold.Protein.ActiveResidues>
 VAL166  LYS551  ARG553  GLY616  TRP617  ASP618  TYR619  PRO620  LYS621  CYS622 
 ASP623  PHE694  ASN695  SER759  ASP760  ASP761  ALA762  ILE779  LEU786  VAL792 
 PHE793  MET794  SER795  GLU796  ALA797  LYS798  CYS799  TRP800  GLU811  SER814 

> <Gold.Protein.RotatedAtoms>
  152.3006  133.5651  159.5615 H   0  0  0  0  0  0  0  0  0  0  0  0  # atno 6907 bound_to 6896
  150.7276  134.0297  159.3738 H   0  0  0  0  0  0  0  0  0  0  0  0  # atno 6908 bound_to 6896
  151.8197  135.0656  160.0474 H   0  0  0  0  0  0  0  0  0  0  0  0  # atno 6909 bound_to 6896
  145.6162  140.9374  143.1162 H   0  0  0  0  0  0  0  0  0  0  0  0  # atno 7974 bound_to 7965
  155.4733  140.3466  155.4329 H   0  0  0  0  0  0  0  0  0  0  0  0  # atno 8008 bound_to 7997
  156.1086  140.1455  156.9398 H   0  0  0  0  0  0  0  0  0  0  0  0  # atno 8009 bound_to 7997
  154.4741  140.0891  156.7197 H   0  0  0  0  0  0  0  0  0  0  0  0  # atno 8010 bound_to 7997
  140.4443  144.1142  150.6179 H   0  0  0  0  0  0  0  0  0  0  0  0  # atno 10167 bound_to 10162
  157.5751  130.8937  149.9332 H   0  0  0  0  0  0  0  0  0  0  0  0  # atno 10718 bound_to 10713
  154.8675  135.3661  154.5124 H   0  0  0  0  0  0  0  0  0  0  0  0  # atno 10763 bound_to 10752
  153.5758  135.7019  153.5489 H   0  0  0  0  0  0  0  0  0  0  0  0  # atno 10764 bound_to 10752
  153.3501  135.4074  155.1602 H   0  0  0  0  0  0  0  0  0  0  0  0  # atno 10765 bound_to 10752
  140.0158  134.9419  157.0374 H   0  0  0  0  0  0  0  0  0  0  0  0  # atno 11005 bound_to 11000
  144.7249  139.7907  143.7368 LP  0  0  0  0  0  0  0  0  0  0  0  0  # atno 17320 bound_to 7965
  146.1466  139.4537  143.0075 LP  0  0  0  0  0  0  0  0  0  0  0  0  # atno 17321 bound_to 7965
  140.4282  143.2580  151.9629 LP  0  0  0  0  0  0  0  0  0  0  0  0  # atno 17342 bound_to 10162
  139.4791  144.5768  151.7998 LP  0  0  0  0  0  0  0  0  0  0  0  0  # atno 17343 bound_to 10162
  156.0795  130.3675  150.0609 LP  0  0  0  0  0  0  0  0  0  0  0  0  # atno 17370 bound_to 10713
  156.8756  130.9539  151.3605 LP  0  0  0  0  0  0  0  0  0  0  0  0  # atno 17371 bound_to 10713
  140.4473  134.1619  155.7178 LP  0  0  0  0  0  0  0  0  0  0  0  0  # atno 17394 bound_to 11000
  141.1742  133.8548  157.1475 LP  0  0  0  0  0  0  0  0  0  0  0  0  # atno 17395 bound_to 11000

$$$$
