AV-unprocessed.smi:2556|AV-procd|sdf|10025|dock10
  -GOLD-   2272014 73D 1   1.00000     0.00000
 Structure written by MMmdl.
 34 36  0  0  0  0  0  0  0  0  2 V2000
  151.0517  137.9499  154.4395 C   0  0  0  0  0  0  0  0  0  0  0  0
  151.4060  137.7158  155.8422 N   0  0  0  0  0  0  0  0  0  0  0  0
  151.4953  136.4431  156.3435 C   0  0  0  0  0  0  0  0  0  0  0  0
  151.2678  135.4991  155.5855 O   0  0  0  0  0  0  0  0  0  0  0  0
  151.8325  136.2486  157.6661 N   0  5  0  0  0  0  0  0  0  0  0  0
  152.1036  137.2319  158.5820 C   0  0  0  0  0  0  0  0  0  0  0  0
  152.4102  137.0756  159.7622 O   0  0  0  0  0  0  0  0  0  0  0  0
  151.9892  138.5840  157.9945 C   0  0  0  0  0  0  0  0  0  0  0  0
  151.6604  138.8253  156.6946 C   0  0  0  0  0  0  0  0  0  0  0  0
  151.6329  140.1889  156.4214 N   0  0  0  0  0  0  0  0  0  0  0  0
  151.9564  140.7147  157.6021 C   0  0  0  0  0  0  0  0  0  0  0  0
  152.1861  139.8302  158.5931 N   0  0  0  0  0  0  0  0  0  0  0  0
  152.5569  140.1645  159.9609 C   0  0  0  0  0  0  0  0  0  0  0  0
  153.5985  141.2999  160.0372 C   0  0  2  0  0  0  0  0  0  0  0  0
  154.4462  141.1240  161.1559 O   0  0  0  0  0  0  0  0  0  0  0  0
  152.9268  142.6640  160.0404 C   0  0  0  0  0  0  0  0  0  0  0  0
  152.9672  143.4769  158.8872 C   0  0  0  0  0  0  0  0  0  0  0  0
  152.3419  144.7392  158.8868 C   0  0  0  0  0  0  0  0  0  0  0  0
  151.6712  145.1945  160.0382 C   0  0  0  0  0  0  0  0  0  0  0  0
  151.6243  144.3862  161.1902 C   0  0  0  0  0  0  0  0  0  0  0  0
  152.2490  143.1239  161.1910 C   0  0  0  0  0  0  0  0  0  0  0  0
  151.7806  137.4801  153.7778 H   0  0  0  0  0  0  0  0  0  0  0  0
  151.0161  139.0087  154.1854 H   0  0  0  0  0  0  0  0  0  0  0  0
  150.0699  137.5292  154.2185 H   0  0  0  0  0  0  0  0  0  0  0  0
  152.0310  141.7817  157.7518 H   0  0  0  0  0  0  0  0  0  0  0  0
  151.6513  140.4650  160.4897 H   0  0  0  0  0  0  0  0  0  0  0  0
  152.9107  139.2707  160.4721 H   0  0  0  0  0  0  0  0  0  0  0  0
  154.2400  141.2379  159.1571 H   0  0  0  0  0  0  0  0  0  0  0  0
  153.9099  140.9778  161.9197 H   0  0  0  0  0  0  0  0  0  0  0  0
  153.4770  143.1359  157.9980 H   0  0  0  0  0  0  0  0  0  0  0  0
  152.3758  145.3580  158.0024 H   0  0  0  0  0  0  0  0  0  0  0  0
  151.1917  146.1622  160.0373 H   0  0  0  0  0  0  0  0  0  0  0  0
  151.1083  144.7327  162.0735 H   0  0  0  0  0  0  0  0  0  0  0  0
  152.2049  142.5074  162.0774 H   0  0  0  0  0  0  0  0  0  0  0  0
  1  2  1  0  0  0  0
  1 22  1  0  0  0  0
  1 23  1  0  0  0  0
  1 24  1  0  0  0  0
  2  9  1  0  0  0  0
  2  3  1  0  0  0  0
  3  4  2  0  0  0  0
  3  5  1  0  0  0  0
  5  6  1  0  0  0  0
  6  7  2  0  0  0  0
  6  8  1  0  0  0  0
  8 12  1  0  0  0  0
  8  9  2  0  0  0  0
  9 10  1  0  0  0  0
 10 11  2  0  0  0  0
 11 12  1  0  0  0  0
 11 25  1  0  0  0  0
 12 13  1  0  0  0  0
 13 14  1  0  0  0  0
 13 26  1  0  0  0  0
 13 27  1  0  0  0  0
 14 15  1  0  0  0  0
 14 16  1  0  0  0  0
 14 28  1  0  0  0  0
 15 29  1  0  0  0  0
 16 21  1  0  0  0  0
 16 17  2  0  0  0  0
 17 18  1  0  0  0  0
 17 30  1  0  0  0  0
 18 19  2  0  0  0  0
 18 31  1  0  0  0  0
 19 20  1  0  0  0  0
 19 32  1  0  0  0  0
 20 21  2  0  0  0  0
 20 33  1  0  0  0  0
 21 34  1  0  0  0  0
M  CHG  1   5  -1
M  END
> <s_m_source_file>
AV-unprocessed.smi

> <i_m_source_file_index>
2556

> <i_lp_mmshare_version>
43012

> <i_f3d_flags>
0

> <s_epik_input>
Tz1jMVtuSF1jKD1PKW4oW0NIM10pYyhjMTIpbltjSF1uMltDSDJdW0NASF0oW09IXSljM1tjSF1bY0hdW2NIXVtjSF1bY0hdMw==

> <s_epik_cmdline>
J2VwaWtfcHl0aG9uJywgJy1waCcsICc3LjAnLCAnLXRuJywgJzgnLCAnLW1hJywgJzIwMCcsICctbWV0YWxfYmluZGluZycsICctaW1hZScsICc8aW5maWxlLm1hZT4nLCAnLW9tYWUnLCAnPG91dGZpbGUubWFlPic=

> <r_lp_tautomer_probability>
1

> <r_epik_Ionization_Penalty>
4.84872

> <r_epik_Ionization_Penalty_Charging>
0.03865

> <r_epik_Ionization_Penalty_Neutral>
4.81007

> <r_epik_State_Penalty>
4.80988

> <r_epik_Charging_Adjusted_Penalty>
4.84853

> <i_epik_Tot_Q>
-1

> <i_epik_Tot_abs_Q>
1

> <r_epik_Metal_State_Penalty>
0.994041

> <b_epik_Metal_Only>
1

> <s_lp_Force_Field>
OPLS_2005

> <r_lp_Energy>
33.4055

> <b_lp_Chiralities_Consistent>
1

> <s_lp_Variant>
AV-unprocessed.smi:2556-3

> <Gold.Version>
5.8.1

> <Gold.Id.Protein>
6NUR|6NUR_protein|mol2

> <Gold.PLP.Fitness>
48.4092

> <Gold.PLP.PLP>
-45.0608

> <Gold.PLP.part.hbond>
-3.5745

> <Gold.PLP.part.metal>
0.0000

> <Gold.PLP.part.buried>
-6.1779

> <Gold.PLP.part.nonpolar>
-36.8095

> <Gold.PLP.part.repulsive>
0.0724

> <Gold.PLP.ligand.clash>
0.0000

> <Gold.PLP.ligand.torsion>
0.8581

> <Gold.PLP.Chemscore.Hbond>
1.6788

> <Gold.PLP.Chemscore.CHOScore>
0.0000

> <Gold.PLP.Chemscore.Metal>
0.0000

> <Gold.Chemscore.Hbonds>
donor molecule, donor type, donor heavy atom, donor atom, acceptor molecule, acceptor atom, score
      P1  H  6896  6908       L1     7  0.88
      P1  H 10752 10764       L1     4  0.85

> <Gold.PLP.Chemscore.Internal.Correction>
0.0284

> <Gold.Rescore>
     Score         DG    S(hbond)    S(metal)    S(lipo)     H(rot)  DE(clash)    DE(int)     intcor
     14.07     -14.79       0.92        0.00     103.15       2.28       0.00       0.71       ----

> <Gold.Chemscore.Fitness>
14.0723

> <Gold.Chemscore.DG>
-14.7878

> <Gold.Chemscore.ZeroCoef>
-5.4800

> <Gold.Chemscore.Hbond>
0.9228

> <Gold.Chemscore.Metal>
0.0000

> <Gold.Chemscore.Lipo>
103.1502

> <Gold.Chemscore.Internal_Hbond>
0.0000

> <Gold.Chemscore.DEClash>
0.0038

> <Gold.Chemscore.DEInternal>
0.7117

> <Gold.Chemscore.Rot>
2.2824

> <Gold.Chemscore.Internal.Correction>
   9.000000E+99

> <Gold.Chemscore.Hbonds>
donor molecule, donor type, donor heavy atom, donor atom, acceptor molecule, acceptor atom, score
      P1  H  6896  6908       L1     7  0.29
      P1  H 10752 10764       L1     4  0.14

> <Gold.Chemscore.Hbond.Weighted>
-3.0823

> <Gold.Chemscore.Metal.Weighted>
-0.0000

> <Gold.Chemscore.Lipo.Weighted>
-12.0686

> <Gold.Chemscore.Internal_Hbond.Weighted>
0.0000

> <Gold.Chemscore.DEClash.Weighted>
0.0038

> <Gold.Chemscore.DEInternal.Weighted>
0.7117

> <Gold.Chemscore.Rot.Weighted>
5.8431

> <Gold.Chemscore.Internal.Correction.Weighted>
   9.000000E+99

> <Gold.Protein.RotatedTorsions>
[ 6907 6896 6895 6894 ] final  -92.10 input  -60.11 | X-H torsion
[ 7974 7965 7964 7962 ] final  118.02 input  175.53 | X-H torsion
[ 8008 7997 7996 7995 ] final  -87.82 input   59.86 | X-H torsion
[ 10167 10162 10161 10158 ] final  -56.19 input  -65.29 | X-H torsion
[ 10718 10713 10712 10709 ] final   -0.99 input   66.30 | X-H torsion
[ 10763 10752 10751 10750 ] final  -58.56 input  -60.55 | X-H torsion
[ 11005 11000 10999 10996 ] final -129.96 input  -57.11 | X-H torsion

> <Gold.Protein.ActiveResidues>
 VAL166  LYS551  ARG553  GLY616  TRP617  ASP618  TYR619  PRO620  LYS621  CYS622 
 ASP623  PHE694  ASN695  SER759  ASP760  ASP761  ALA762  ILE779  LEU786  VAL792 
 PHE793  MET794  SER795  GLU796  ALA797  LYS798  CYS799  TRP800  GLU811  SER814 

> <Gold.Protein.RotatedAtoms>
  150.6901  134.2174  159.4383 H   0  0  0  0  0  0  0  0  0  0  0  0  # atno 6907 bound_to 6896
  152.0133  134.9862  160.0578 H   0  0  0  0  0  0  0  0  0  0  0  0  # atno 6908 bound_to 6896
  152.1468  133.4462  159.4830 H   0  0  0  0  0  0  0  0  0  0  0  0  # atno 6909 bound_to 6896
  145.1603  139.3159  143.4521 H   0  0  0  0  0  0  0  0  0  0  0  0  # atno 7974 bound_to 7965
  154.6677  140.0561  157.0132 H   0  0  0  0  0  0  0  0  0  0  0  0  # atno 8008 bound_to 7997
  155.1135  140.3240  155.4497 H   0  0  0  0  0  0  0  0  0  0  0  0  # atno 8009 bound_to 7997
  156.2645  140.2010  156.6258 H   0  0  0  0  0  0  0  0  0  0  0  0  # atno 8010 bound_to 7997
  140.6331  143.2469  151.5188 H   0  0  0  0  0  0  0  0  0  0  0  0  # atno 10167 bound_to 10162
  156.8123  130.5428  149.5707 H   0  0  0  0  0  0  0  0  0  0  0  0  # atno 10718 bound_to 10713
  154.2401  135.6345  153.5204 H   0  0  0  0  0  0  0  0  0  0  0  0  # atno 10763 bound_to 10752
  152.9932  135.5540  154.5920 H   0  0  0  0  0  0  0  0  0  0  0  0  # atno 10764 bound_to 10752
  154.5423  135.2895  155.1058 H   0  0  0  0  0  0  0  0  0  0  0  0  # atno 10765 bound_to 10752
  140.9386  134.1223  157.4171 H   0  0  0  0  0  0  0  0  0  0  0  0  # atno 11005 bound_to 11000
  146.3483  140.1710  142.8589 LP  0  0  0  0  0  0  0  0  0  0  0  0  # atno 17320 bound_to 7965
  145.0338  140.8892  143.5093 LP  0  0  0  0  0  0  0  0  0  0  0  0  # atno 17321 bound_to 7965
  139.5544  144.2314  152.1586 LP  0  0  0  0  0  0  0  0  0  0  0  0  # atno 17342 bound_to 10162
  140.1563  144.5068  150.6658 LP  0  0  0  0  0  0  0  0  0  0  0  0  # atno 17343 bound_to 10162
  156.1037  130.5988  150.9936 LP  0  0  0  0  0  0  0  0  0  0  0  0  # atno 17370 bound_to 10713
  157.6500  131.0898  150.8072 LP  0  0  0  0  0  0  0  0  0  0  0  0  # atno 17371 bound_to 10713
  139.8814  135.0029  156.6155 LP  0  0  0  0  0  0  0  0  0  0  0  0  # atno 17394 bound_to 11000
  140.7765  133.8695  155.8533 LP  0  0  0  0  0  0  0  0  0  0  0  0  # atno 17395 bound_to 11000

$$$$
