AV-unprocessed.smi:163|AV-procd|sdf|1381|dock4
  -GOLD-   2262019113D 1   1.00000     0.00000
 Structure written by MMmdl.
 48 51  0  0  0  0  0  0  0  0  1 V2000
  148.5663  144.3577  160.7209 N   0  0  0  0  0  0  0  0  0  0  0  0
  149.6957  144.6054  160.6698 C   0  0  0  0  0  0  0  0  0  0  0  0
  151.1326  144.9214  160.6086 C   0  0  0  0  0  0  0  0  0  0  0  0
  152.0339  143.6799  160.5792 C   0  0  0  0  0  0  0  0  0  0  0  0
  152.4208  143.1992  161.6452 O   0  0  0  0  0  0  0  0  0  0  0  0
  152.3735  143.1525  159.3798 N   0  0  0  0  0  0  0  0  0  0  0  0
  153.1694  141.9348  159.1846 C   0  0  0  0  0  0  0  0  0  0  0  0
  152.2755  140.8475  158.5608 C   0  0  0  0  0  0  0  0  0  0  0  0
  151.6411  141.3385  157.3355 N   0  0  0  0  0  0  0  0  0  0  0  0
  151.0784  140.3880  156.5453 C   0  0  0  0  0  0  0  0  0  0  0  0
  150.7756  140.6780  155.2512 N   0  0  0  0  0  0  0  0  0  0  0  0
  150.2163  139.7547  154.4636 C   0  0  0  0  0  0  0  0  0  0  0  0
  149.8838  138.4968  154.7587 N   0  0  0  0  0  0  0  0  0  0  0  0
  150.1944  138.1943  156.0517 C   0  0  0  0  0  0  0  0  0  0  0  0
  150.7865  139.0717  157.0045 C   0  0  0  0  0  0  0  0  0  0  0  0
  150.9625  138.4050  158.2116 N   0  0  0  0  0  0  0  0  0  0  0  0
  150.4904  137.2092  157.9892 C   0  0  0  0  0  0  0  0  0  0  0  0
  150.0168  136.9925  156.7151 N   0  0  0  0  0  0  0  0  0  0  0  0
  149.4391  135.7612  156.1975 C   0  0  0  0  0  0  0  0  0  0  0  0
  150.3939  134.9479  155.2870 C   0  0  2  0  0  0  0  0  0  0  0  0
  151.0806  135.8350  154.4229 O   0  0  0  0  0  0  0  0  0  0  0  0
  149.6967  133.8724  154.4516 C   0  0  0  0  0  0  0  0  0  0  0  0
  149.9112  132.6126  155.2768 C   0  0  0  0  0  0  0  0  0  0  0  0
  151.2414  132.7761  155.7359 O   0  0  0  0  0  0  0  0  0  0  0  0
  151.4118  134.1368  156.1155 C   0  0  0  0  0  0  0  0  0  0  0  0
  150.9585  142.6307  157.4493 C   0  0  0  0  0  0  0  0  0  0  0  0
  151.8785  143.6793  158.1022 C   0  0  0  0  0  0  0  0  0  0  0  0
  151.2946  145.5209  159.7125 H   0  0  0  0  0  0  0  0  0  0  0  0
  151.3674  145.5341  161.4794 H   0  0  0  0  0  0  0  0  0  0  0  0
  154.0016  142.1587  158.5156 H   0  0  0  0  0  0  0  0  0  0  0  0
  153.6230  141.5559  160.0988 H   0  0  0  0  0  0  0  0  0  0  0  0
  152.8735  139.9571  158.3749 H   0  0  0  0  0  0  0  0  0  0  0  0
  151.4957  140.5574  159.2663 H   0  0  0  0  0  0  0  0  0  0  0  0
  150.0049  140.0696  153.4522 H   0  0  0  0  0  0  0  0  0  0  0  0
  150.4804  136.4440  158.7521 H   0  0  0  0  0  0  0  0  0  0  0  0
  149.1231  135.1539  157.0468 H   0  0  0  0  0  0  0  0  0  0  0  0
  148.5291  136.0150  155.6522 H   0  0  0  0  0  0  0  0  0  0  0  0
  150.7581  135.7054  153.5439 H   0  0  0  0  0  0  0  0  0  0  0  0
  148.6453  134.0670  154.2458 H   0  0  0  0  0  0  0  0  0  0  0  0
  150.1965  133.7464  153.4895 H   0  0  0  0  0  0  0  0  0  0  0  0
  149.2254  132.5749  156.1248 H   0  0  0  0  0  0  0  0  0  0  0  0
  149.7947  131.6990  154.6933 H   0  0  0  0  0  0  0  0  0  0  0  0
  152.4451  134.4442  155.9484 H   0  0  0  0  0  0  0  0  0  0  0  0
  151.2159  134.2263  157.1850 H   0  0  0  0  0  0  0  0  0  0  0  0
  150.6529  142.9802  156.4622 H   0  0  0  0  0  0  0  0  0  0  0  0
  150.0525  142.5092  158.0452 H   0  0  0  0  0  0  0  0  0  0  0  0
  151.3433  144.6236  158.2092 H   0  0  0  0  0  0  0  0  0  0  0  0
  152.7277  143.8891  157.4502 H   0  0  0  0  0  0  0  0  0  0  0  0
  1  2  3  0  0  0  0
  2  3  1  0  0  0  0
  3  4  1  0  0  0  0
  3 28  1  0  0  0  0
  3 29  1  0  0  0  0
  4  5  2  0  0  0  0
  4  6  1  0  0  0  0
  6 27  1  0  0  0  0
  6  7  1  0  0  0  0
  7  8  1  0  0  0  0
  7 30  1  0  0  0  0
  7 31  1  0  0  0  0
  8  9  1  0  0  0  0
  8 32  1  0  0  0  0
  8 33  1  0  0  0  0
  9 10  1  0  0  0  0
  9 26  1  0  0  0  0
 10 15  1  0  0  0  0
 10 11  2  0  0  0  0
 11 12  1  0  0  0  0
 12 13  2  0  0  0  0
 12 34  1  0  0  0  0
 13 14  1  0  0  0  0
 14 18  1  0  0  0  0
 14 15  2  0  0  0  0
 15 16  1  0  0  0  0
 16 17  2  0  0  0  0
 17 18  1  0  0  0  0
 17 35  1  0  0  0  0
 18 19  1  0  0  0  0
 19 20  1  0  0  0  0
 19 36  1  0  0  0  0
 19 37  1  0  0  0  0
 20 25  1  0  0  0  0
 20 21  1  0  0  0  0
 20 22  1  0  0  0  0
 21 38  1  0  0  0  0
 22 23  1  0  0  0  0
 22 39  1  0  0  0  0
 22 40  1  0  0  0  0
 23 24  1  0  0  0  0
 23 41  1  0  0  0  0
 23 42  1  0  0  0  0
 24 25  1  0  0  0  0
 25 43  1  0  0  0  0
 25 44  1  0  0  0  0
 26 27  1  0  0  0  0
 26 45  1  0  0  0  0
 26 46  1  0  0  0  0
 27 47  1  0  0  0  0
 27 48  1  0  0  0  0
M  END
> <s_m_source_file>
AV-unprocessed.smi

> <i_m_source_file_index>
163

> <i_lp_mmshare_version>
43012

> <i_f3d_flags>
0

> <s_epik_input>
TiNDW0NIMl1DKD1PKU4xW0NIMl1bQ0gyXU4oW0NIMl1bQ0gyXTEpYyhuW2NIXW4yKWMoYzIzKW5bY0hdbjNbQ0gyXVtDQEBdNChbT0hdKVtDSDJdW0NIMl1PW0NIMl00

> <s_epik_cmdline>
J2VwaWtfcHl0aG9uJywgJy1waCcsICc3LjAnLCAnLXRuJywgJzgnLCAnLW1hJywgJzIwMCcsICctbWV0YWxfYmluZGluZycsICctaW1hZScsICc8aW5maWxlLm1hZT4nLCAnLW9tYWUnLCAnPG91dGZpbGUubWFlPic=

> <r_lp_tautomer_probability>
1

> <r_epik_Ionization_Penalty>
0.000981096

> <r_epik_Ionization_Penalty_Charging>
0

> <r_epik_Ionization_Penalty_Neutral>
0.000981096

> <r_epik_State_Penalty>
0.000482875

> <r_epik_Charging_Adjusted_Penalty>
0.000482875

> <i_epik_Tot_Q>
0

> <i_epik_Tot_abs_Q>
0

> <r_epik_Metal_State_Penalty>
-0

> <b_epik_Metal_Only>
0

> <s_lp_Force_Field>
OPLS_2005

> <r_lp_Energy>
51.4692

> <b_lp_Chiralities_Consistent>
1

> <s_lp_Variant>
AV-unprocessed.smi:163-2

> <Gold.Version>
5.8.1

> <Gold.Id.Protein>
6NUR|6NUR_protein|mol2

> <Gold.PLP.Fitness>
49.2510

> <Gold.PLP.PLP>
-42.7579

> <Gold.PLP.part.hbond>
-3.8286

> <Gold.PLP.part.metal>
0.0000

> <Gold.PLP.part.buried>
-4.6041

> <Gold.PLP.part.nonpolar>
-34.4850

> <Gold.PLP.part.repulsive>
0.5213

> <Gold.PLP.ligand.clash>
0.0000

> <Gold.PLP.ligand.torsion>
1.0846

> <Gold.PLP.Chemscore.Hbond>
1.7132

> <Gold.PLP.Chemscore.CHOScore>
1.0000

> <Gold.PLP.Chemscore.Metal>
0.0000

> <Gold.Chemscore.Hbonds>
donor molecule, donor type, donor heavy atom, donor atom, acceptor molecule, acceptor atom, score
      L1  H    21    38       P1  7949  0.42
      P1  H  6933  6944       L1     1  0.71
      P1  H 10752 10764       L1    21  1.00
      L1  C    12    34       P1  7957  1.00

> <Gold.PLP.Chemscore.Internal.Correction>
0.5226

> <Gold.Rescore>
     Score         DG    S(hbond)    S(metal)    S(lipo)     H(rot)  DE(clash)    DE(int)     intcor
      9.42     -12.41       1.45        0.00      77.47       2.72       0.02       2.96       ----

> <Gold.Chemscore.Fitness>
9.4243

> <Gold.Chemscore.DG>
-12.4111

> <Gold.Chemscore.ZeroCoef>
-5.4800

> <Gold.Chemscore.Hbond>
1.4483

> <Gold.Chemscore.Metal>
0.0000

> <Gold.Chemscore.Lipo>
77.4746

> <Gold.Chemscore.Internal_Hbond>
0.0000

> <Gold.Chemscore.DEClash>
0.0238

> <Gold.Chemscore.DEInternal>
2.9630

> <Gold.Chemscore.Rot>
2.7230

> <Gold.Chemscore.Internal.Correction>
   9.000000E+99

> <Gold.Chemscore.Hbonds>
donor molecule, donor type, donor heavy atom, donor atom, acceptor molecule, acceptor atom, score
      L1  H    21    38       P1  7949  0.02
      P1  H  6933  6944       L1     1  0.27
      P1  H 10752 10764       L1    21  0.61

> <Gold.Chemscore.Hbond.Weighted>
-4.8375

> <Gold.Chemscore.Metal.Weighted>
-0.0000

> <Gold.Chemscore.Lipo.Weighted>
-9.0645

> <Gold.Chemscore.Internal_Hbond.Weighted>
0.0000

> <Gold.Chemscore.DEClash.Weighted>
0.0238

> <Gold.Chemscore.DEInternal.Weighted>
2.9630

> <Gold.Chemscore.Rot.Weighted>
6.9709

> <Gold.Chemscore.Internal.Correction.Weighted>
   9.000000E+99

> <Gold.Protein.RotatedTorsions>
[ 6907 6896 6895 6894 ] final -104.16 input  -60.11 | X-H torsion
[ 7974 7965 7964 7962 ] final  -36.25 input  175.53 | X-H torsion
[ 8008 7997 7996 7995 ] final  -96.65 input   59.86 | X-H torsion
[ 10167 10162 10161 10158 ] final    2.08 input  -65.29 | X-H torsion
[ 10718 10713 10712 10709 ] final  -60.95 input   66.30 | X-H torsion
[ 10763 10752 10751 10750 ] final  -65.22 input  -60.55 | X-H torsion
[ 11005 11000 10999 10996 ] final   90.86 input  -57.11 | X-H torsion

> <Gold.Protein.ActiveResidues>
 VAL166  LYS551  ARG553  GLY616  TRP617  ASP618  TYR619  PRO620  LYS621  CYS622 
 ASP623  PHE694  ASN695  SER759  ASP760  ASP761  ALA762  ILE779  LEU786  VAL792 
 PHE793  MET794  SER795  GLU796  ALA797  LYS798  CYS799  TRP800  GLU811  SER814 

> <Gold.Protein.RotatedAtoms>
  150.7274  134.0319  159.3736 H   0  0  0  0  0  0  0  0  0  0  0  0  # atno 6907 bound_to 6896
  151.8289  135.0625  160.0443 H   0  0  0  0  0  0  0  0  0  0  0  0  # atno 6908 bound_to 6896
  152.2948  133.5561  159.5617 H   0  0  0  0  0  0  0  0  0  0  0  0  # atno 6909 bound_to 6896
  146.0677  140.6256  142.8967 H   0  0  0  0  0  0  0  0  0  0  0  0  # atno 7974 bound_to 7965
  154.7772  140.0469  157.1098 H   0  0  0  0  0  0  0  0  0  0  0  0  # atno 8008 bound_to 7997
  154.9748  140.3094  155.4952 H   0  0  0  0  0  0  0  0  0  0  0  0  # atno 8009 bound_to 7997
  156.2931  140.2246  156.4843 H   0  0  0  0  0  0  0  0  0  0  0  0  # atno 8010 bound_to 7997
  140.6652  143.7198  150.7813 H   0  0  0  0  0  0  0  0  0  0  0  0  # atno 10167 bound_to 10162
  156.0955  130.4193  150.0925 H   0  0  0  0  0  0  0  0  0  0  0  0  # atno 10718 bound_to 10713
  154.3418  135.6155  153.5600 H   0  0  0  0  0  0  0  0  0  0  0  0  # atno 10763 bound_to 10752
  152.9804  135.5771  154.4844 H   0  0  0  0  0  0  0  0  0  0  0  0  # atno 10764 bound_to 10752
  154.4549  135.2854  155.1731 H   0  0  0  0  0  0  0  0  0  0  0  0  # atno 10765 bound_to 10752
  139.8848  134.8639  156.3346 H   0  0  0  0  0  0  0  0  0  0  0  0  # atno 11005 bound_to 11000
  144.7212  140.4380  143.7006 LP  0  0  0  0  0  0  0  0  0  0  0  0  # atno 17320 bound_to 7965
  145.6447  139.1555  143.2896 LP  0  0  0  0  0  0  0  0  0  0  0  0  # atno 17321 bound_to 7965
  140.0874  143.4910  152.2497 LP  0  0  0  0  0  0  0  0  0  0  0  0  # atno 17342 bound_to 10162
  139.5898  144.7546  151.3428 LP  0  0  0  0  0  0  0  0  0  0  0  0  # atno 17343 bound_to 10162
  156.8925  130.9593  151.3586 LP  0  0  0  0  0  0  0  0  0  0  0  0  # atno 17370 bound_to 10713
  157.6115  130.8586  149.8959 LP  0  0  0  0  0  0  0  0  0  0  0  0  # atno 17371 bound_to 10713
  140.9700  133.7333  156.0521 LP  0  0  0  0  0  0  0  0  0  0  0  0  # atno 17394 bound_to 11000
  140.7883  134.3647  157.5471 LP  0  0  0  0  0  0  0  0  0  0  0  0  # atno 17395 bound_to 11000

$$$$
