AV-unprocessed.smi:1677|AV-procd|sdf|6727|dock6
  -GOLD-   22720 7473D 1   1.00000     0.00000
 Structure written by MMmdl.
 36 37  0  0  0  0  0  0  0  0  1 V2000
  150.0123  138.5349  156.3476 C   0  0  0  0  0  0  0  0  0  0  0  0
  150.7892  139.7367  155.7851 C   0  0  1  0  0  0  0  0  0  0  0  0
  150.1870  140.2945  154.4774 C   0  0  0  0  0  0  0  0  0  0  0  0
  148.7551  140.5094  154.5656 N   0  0  0  0  0  0  0  0  0  0  0  0
  147.7600  139.7820  153.9261 C   0  0  0  0  0  0  0  0  0  0  0  0
  146.5602  140.3432  154.3010 C   0  0  0  0  0  0  0  0  0  0  0  0
  146.7918  141.4124  155.1633 N   0  0  0  0  0  0  0  0  0  0  0  0
  148.1137  141.4519  155.2705 C   0  0  0  0  0  0  0  0  0  0  0  0
  150.8429  140.7854  156.7991 N   0  0  0  0  0  0  0  0  0  0  0  0
  151.8299  140.9556  157.6930 C   0  0  0  0  0  0  0  0  0  0  0  0
  152.8263  140.2339  157.7449 O   0  0  0  0  0  0  0  0  0  0  0  0
  151.6668  142.1230  158.6752 C   0  0  1  0  0  0  0  0  0  0  0  0
  152.7944  142.1230  159.7322 C   0  0  0  0  0  0  0  0  0  0  0  0
  152.7996  143.3946  160.5622 C   0  0  0  0  0  0  0  0  0  0  0  0
  152.1478  144.5140  160.2032 C   0  0  0  0  0  0  0  0  0  0  0  0
  151.3378  144.6360  158.9243 C   0  0  0  0  0  0  0  0  0  0  0  0
  151.6162  143.4800  157.9441 C   0  0  0  0  0  0  0  0  0  0  0  0
  150.0240  137.6917  155.6568 H   0  0  0  0  0  0  0  0  0  0  0  0
  148.9707  138.7918  156.5429 H   0  0  0  0  0  0  0  0  0  0  0  0
  150.4512  138.1892  157.2841 H   0  0  0  0  0  0  0  0  0  0  0  0
  151.8066  139.3972  155.5809 H   0  0  0  0  0  0  0  0  0  0  0  0
  150.6641  141.2394  154.2127 H   0  0  0  0  0  0  0  0  0  0  0  0
  150.3729  139.6091  153.6493 H   0  0  0  0  0  0  0  0  0  0  0  0
  147.9827  138.9480  153.2768 H   0  0  0  0  0  0  0  0  0  0  0  0
  145.5563  140.0623  154.0180 H   0  0  0  0  0  0  0  0  0  0  0  0
  148.6274  142.1802  155.8808 H   0  0  0  0  0  0  0  0  0  0  0  0
  150.0651  141.4286  156.8281 H   0  0  0  0  0  0  0  0  0  0  0  0
  150.7158  141.9973  159.1965 H   0  0  0  0  0  0  0  0  0  0  0  0
  152.6716  141.2713  160.4024 H   0  0  0  0  0  0  0  0  0  0  0  0
  153.7757  142.0215  159.2663 H   0  0  0  0  0  0  0  0  0  0  0  0
  153.3729  143.3771  161.4775 H   0  0  0  0  0  0  0  0  0  0  0  0
  152.1788  145.3823  160.8449 H   0  0  0  0  0  0  0  0  0  0  0  0
  150.2816  144.6551  159.1949 H   0  0  0  0  0  0  0  0  0  0  0  0
  151.5609  145.5901  158.4464 H   0  0  0  0  0  0  0  0  0  0  0  0
  152.5698  143.6603  157.4446 H   0  0  0  0  0  0  0  0  0  0  0  0
  150.8565  143.4713  157.1613 H   0  0  0  0  0  0  0  0  0  0  0  0
  1  2  1  0  0  0  0
  1 18  1  0  0  0  0
  1 19  1  0  0  0  0
  1 20  1  0  0  0  0
  2  3  1  0  0  0  0
  2  9  1  0  0  0  0
  2 21  1  0  0  0  0
  3  4  1  0  0  0  0
  3 22  1  0  0  0  0
  3 23  1  0  0  0  0
  4  8  1  0  0  0  0
  4  5  1  0  0  0  0
  5  6  2  0  0  0  0
  5 24  1  0  0  0  0
  6  7  1  0  0  0  0
  6 25  1  0  0  0  0
  7  8  2  0  0  0  0
  8 26  1  0  0  0  0
  9 10  1  0  0  0  0
  9 27  1  0  0  0  0
 10 11  2  0  0  0  0
 10 12  1  0  0  0  0
 12 17  1  0  0  0  0
 12 13  1  0  0  0  0
 12 28  1  0  0  0  0
 13 14  1  0  0  0  0
 13 29  1  0  0  0  0
 13 30  1  0  0  0  0
 14 15  2  0  0  0  0
 14 31  1  0  0  0  0
 15 16  1  0  0  0  0
 15 32  1  0  0  0  0
 16 17  1  0  0  0  0
 16 33  1  0  0  0  0
 16 34  1  0  0  0  0
 17 35  1  0  0  0  0
 17 36  1  0  0  0  0
M  END
> <s_m_source_file>
AV-unprocessed.smi

> <i_m_source_file_index>
1677

> <i_lp_mmshare_version>
43012

> <i_f3d_flags>
0

> <s_epik_input>
W2NIXTFuW2NIXVtjSF1uMVtDSDJdW0NAQEhdKFtDSDNdKVtOSF1DKD1PKVtDQEBIXTJbQ0gyXVtDSF09W0NIXVtDSDJdW0NIMl0y

> <s_epik_cmdline>
J2VwaWtfcHl0aG9uJywgJy1waCcsICc3LjAnLCAnLXRuJywgJzgnLCAnLW1hJywgJzIwMCcsICctbWV0YWxfYmluZGluZycsICctaW1hZScsICc8aW5maWxlLm1hZT4nLCAnLW9tYWUnLCAnPG91dGZpbGUubWFlPic=

> <r_lp_tautomer_probability>
1

> <r_epik_Ionization_Penalty>
0.640435

> <r_epik_Ionization_Penalty_Charging>
0.640435

> <r_epik_Ionization_Penalty_Neutral>
2.11108e-08

> <r_epik_State_Penalty>
0.658069

> <r_epik_Charging_Adjusted_Penalty>
1.2985

> <i_epik_Tot_Q>
0

> <i_epik_Tot_abs_Q>
0

> <r_epik_Metal_State_Penalty>
0.311689

> <b_epik_Metal_Only>
0

> <s_lp_Force_Field>
OPLS_2005

> <r_lp_Energy>
10.2331

> <b_lp_Chiralities_Consistent>
1

> <s_lp_Variant>
AV-unprocessed.smi:1677-8

> <Gold.Version>
5.8.1

> <Gold.Id.Protein>
6NUR|6NUR_protein|mol2

> <Gold.PLP.Fitness>
43.2977

> <Gold.PLP.PLP>
-33.8406

> <Gold.PLP.part.hbond>
-1.0000

> <Gold.PLP.part.metal>
0.0000

> <Gold.PLP.part.buried>
1.9961

> <Gold.PLP.part.nonpolar>
-33.5099

> <Gold.PLP.part.repulsive>
0.1953

> <Gold.PLP.ligand.clash>
0.0000

> <Gold.PLP.ligand.torsion>
0.5601

> <Gold.PLP.Chemscore.Hbond>
0.9920

> <Gold.PLP.Chemscore.CHOScore>
2.5222

> <Gold.PLP.Chemscore.Metal>
0.0000

> <Gold.Chemscore.Hbonds>
donor molecule, donor type, donor heavy atom, donor atom, acceptor molecule, acceptor atom, score
      P1  H  7997  8010       L1    11  0.98
      L1  C     5    24       P1  7957  0.07
      L1  C     6    25       P1 10175  1.00
      L1  C     8    26       P1  8028  0.94

> <Gold.PLP.Chemscore.Internal.Correction>
0.0348

> <Gold.Rescore>
     Score         DG    S(hbond)    S(metal)    S(lipo)     H(rot)  DE(clash)    DE(int)     intcor
     14.01     -14.99       0.93        0.00      92.96       1.75       0.36       0.62       ----

> <Gold.Chemscore.Fitness>
14.0134

> <Gold.Chemscore.DG>
-14.9907

> <Gold.Chemscore.ZeroCoef>
-5.4800

> <Gold.Chemscore.Hbond>
0.9305

> <Gold.Chemscore.Metal>
0.0000

> <Gold.Chemscore.Lipo>
92.9601

> <Gold.Chemscore.Internal_Hbond>
0.0000

> <Gold.Chemscore.DEClash>
0.3613

> <Gold.Chemscore.DEInternal>
0.6160

> <Gold.Chemscore.Rot>
1.7475

> <Gold.Chemscore.Internal.Correction>
   9.000000E+99

> <Gold.Chemscore.Hbonds>
donor molecule, donor type, donor heavy atom, donor atom, acceptor molecule, acceptor atom, score
      P1  H  7997  8010       L1    11  0.93

> <Gold.Chemscore.Hbond.Weighted>
-3.1079

> <Gold.Chemscore.Metal.Weighted>
-0.0000

> <Gold.Chemscore.Lipo.Weighted>
-10.8763

> <Gold.Chemscore.Internal_Hbond.Weighted>
0.0000

> <Gold.Chemscore.DEClash.Weighted>
0.3613

> <Gold.Chemscore.DEInternal.Weighted>
0.6160

> <Gold.Chemscore.Rot.Weighted>
4.4735

> <Gold.Chemscore.Internal.Correction.Weighted>
   9.000000E+99

> <Gold.Protein.RotatedTorsions>
[ 6907 6896 6895 6894 ] final  -98.26 input  -60.11 | X-H torsion
[ 7974 7965 7964 7962 ] final   74.13 input  175.53 | X-H torsion
[ 8008 7997 7996 7995 ] final   48.41 input   59.86 | X-H torsion
[ 10167 10162 10161 10158 ] final  154.75 input  -65.29 | X-H torsion
[ 10718 10713 10712 10709 ] final -104.55 input   66.30 | X-H torsion
[ 10763 10752 10751 10750 ] final  120.42 input  -60.55 | X-H torsion
[ 11005 11000 10999 10996 ] final   30.72 input  -57.11 | X-H torsion

> <Gold.Protein.ActiveResidues>
 VAL166  LYS551  ARG553  GLY616  TRP617  ASP618  TYR619  PRO620  LYS621  CYS622 
 ASP623  PHE694  ASN695  SER759  ASP760  ASP761  ALA762  ILE779  LEU786  VAL792 
 PHE793  MET794  SER795  GLU796  ALA797  LYS798  CYS799  TRP800  GLU811  SER814 

> <Gold.Protein.RotatedAtoms>
  150.7041  134.1222  159.4038 H   0  0  0  0  0  0  0  0  0  0  0  0  # atno 6907 bound_to 6896
  151.9209  135.0296  160.0531 H   0  0  0  0  0  0  0  0  0  0  0  0  # atno 6908 bound_to 6896
  152.2257  133.4983  159.5224 H   0  0  0  0  0  0  0  0  0  0  0  0  # atno 6909 bound_to 6896
  145.7322  139.2688  143.1534 H   0  0  0  0  0  0  0  0  0  0  0  0  # atno 7974 bound_to 7965
  155.3852  140.3430  155.4248 H   0  0  0  0  0  0  0  0  0  0  0  0  # atno 8008 bound_to 7997
  156.1588  140.1594  156.8680 H   0  0  0  0  0  0  0  0  0  0  0  0  # atno 8009 bound_to 7997
  154.5120  140.0787  156.7990 H   0  0  0  0  0  0  0  0  0  0  0  0  # atno 8010 bound_to 7997
  139.4822  144.5159  151.7952 H   0  0  0  0  0  0  0  0  0  0  0  0  # atno 10167 bound_to 10162
  156.0309  130.5520  150.7412 H   0  0  0  0  0  0  0  0  0  0  0  0  # atno 10718 bound_to 10713
  153.5982  135.3453  155.2936 H   0  0  0  0  0  0  0  0  0  0  0  0  # atno 10763 bound_to 10752
  154.8641  135.4221  154.2441 H   0  0  0  0  0  0  0  0  0  0  0  0  # atno 10764 bound_to 10752
  153.3264  135.7041  153.7057 H   0  0  0  0  0  0  0  0  0  0  0  0  # atno 10765 bound_to 10752
  140.2914  134.2860  155.7775 H   0  0  0  0  0  0  0  0  0  0  0  0  # atno 11005 bound_to 11000
  146.0527  140.8053  142.9774 LP  0  0  0  0  0  0  0  0  0  0  0  0  # atno 17320 bound_to 7965
  144.6890  140.3077  143.7253 LP  0  0  0  0  0  0  0  0  0  0  0  0  # atno 17321 bound_to 7965
  140.4667  144.1644  150.5912 LP  0  0  0  0  0  0  0  0  0  0  0  0  # atno 17342 bound_to 10162
  140.4426  143.2520  151.9453 LP  0  0  0  0  0  0  0  0  0  0  0  0  # atno 17343 bound_to 10162
  157.4980  131.0916  151.0348 LP  0  0  0  0  0  0  0  0  0  0  0  0  # atno 17370 bound_to 10713
  157.0737  130.5874  149.5407 LP  0  0  0  0  0  0  0  0  0  0  0  0  # atno 17371 bound_to 10713
  141.2145  133.7587  156.9630 LP  0  0  0  0  0  0  0  0  0  0  0  0  # atno 17394 bound_to 11000
  140.1192  134.9428  157.2179 LP  0  0  0  0  0  0  0  0  0  0  0  0  # atno 17395 bound_to 11000

$$$$
