AV-unprocessed.smi:1510|AV-procd|sdf|6095|dock9
  -GOLD-   22720 6223D 1   1.00000     0.00000
 Structure written by MMmdl.
 32 33  0  0  0  0  0  0  0  0  2 V2000
  147.4540  137.5691  157.8402 O   0  0  0  0  0  0  0  0  0  0  0  0
  148.5606  137.7663  158.3453 C   0  0  0  0  0  0  0  0  0  0  0  0
  149.2103  136.7329  159.2794 C   0  0  0  0  0  0  0  0  0  0  0  0
  148.2955  136.1596  160.2776 N   0  0  0  0  0  0  0  0  0  0  0  0
  147.7166  137.1485  161.1830 N   0  5  0  0  0  0  0  0  0  0  0  0
  146.8511  136.7372  162.1473 C   0  0  0  0  0  0  0  0  0  0  0  0
  146.3154  137.5121  162.9364 O   0  0  0  0  0  0  0  0  0  0  0  0
  146.5573  135.3167  162.2424 C   0  0  0  0  0  0  0  0  0  0  0  0
  147.1203  134.4240  161.4045 C   0  0  0  0  0  0  0  0  0  0  0  0
  148.0499  134.8202  160.3537 C   0  0  0  0  0  0  0  0  0  0  0  0
  148.5747  134.0091  159.5905 O   0  0  0  0  0  0  0  0  0  0  0  0
  149.2731  138.8830  158.1330 N   0  0  0  0  0  0  0  0  0  0  0  0
  148.8610  139.9958  157.2861 C   0  0  0  0  0  0  0  0  0  0  0  0
  149.6999  140.0696  155.9995 C   0  0  1  0  0  0  0  0  0  0  0  0
  151.2102  140.0375  156.2421 C   0  0  0  0  0  0  0  0  0  0  0  0
  151.7716  139.3573  155.0004 C   0  0  0  0  0  0  0  0  0  0  0  0
  150.5318  138.9014  154.2290 C   0  0  0  0  0  0  0  0  0  0  0  0
  149.4900  138.9215  155.1919 O   0  0  0  0  0  0  0  0  0  0  0  0
  149.6393  135.9306  158.6766 H   0  0  0  0  0  0  0  0  0  0  0  0
  150.0581  137.2115  159.7733 H   0  0  0  0  0  0  0  0  0  0  0  0
  145.8744  134.9697  163.0039 H   0  0  0  0  0  0  0  0  0  0  0  0
  146.8747  133.3781  161.5135 H   0  0  0  0  0  0  0  0  0  0  0  0
  150.1714  138.9630  158.5861 H   0  0  0  0  0  0  0  0  0  0  0  0
  147.8015  139.9014  157.0420 H   0  0  0  0  0  0  0  0  0  0  0  0
  148.9661  140.9186  157.8571 H   0  0  0  0  0  0  0  0  0  0  0  0
  149.4433  140.9602  155.4222 H   0  0  0  0  0  0  0  0  0  0  0  0
  151.6221  141.0349  156.3990 H   0  0  0  0  0  0  0  0  0  0  0  0
  151.4449  139.4377  157.1226 H   0  0  0  0  0  0  0  0  0  0  0  0
  152.3843  140.0316  154.4012 H   0  0  0  0  0  0  0  0  0  0  0  0
  152.3901  138.5050  155.2842 H   0  0  0  0  0  0  0  0  0  0  0  0
  150.2955  139.6056  153.4298 H   0  0  0  0  0  0  0  0  0  0  0  0
  150.6498  137.9117  153.7873 H   0  0  0  0  0  0  0  0  0  0  0  0
  1  2  2  0  0  0  0
  2  3  1  0  0  0  0
  2 12  1  0  0  0  0
  3 19  1  0  0  0  0
  3 20  1  0  0  0  0
  3  4  1  0  0  0  0
  4  5  1  0  0  0  0
  4 10  1  0  0  0  0
  5  6  1  0  0  0  0
  6  7  2  0  0  0  0
  6  8  1  0  0  0  0
  8 21  1  0  0  0  0
  8  9  2  0  0  0  0
  9 22  1  0  0  0  0
  9 10  1  0  0  0  0
 10 11  2  0  0  0  0
 12 13  1  0  0  0  0
 12 23  1  0  0  0  0
 13 14  1  0  0  0  0
 13 24  1  0  0  0  0
 13 25  1  0  0  0  0
 14 18  1  0  0  0  0
 14 15  1  0  0  0  0
 14 26  1  0  0  0  0
 15 16  1  0  0  0  0
 15 27  1  0  0  0  0
 15 28  1  0  0  0  0
 16 17  1  0  0  0  0
 16 29  1  0  0  0  0
 16 30  1  0  0  0  0
 17 18  1  0  0  0  0
 17 31  1  0  0  0  0
 17 32  1  0  0  0  0
M  CHG  1   5  -1
M  END
> <s_m_source_file>
AV-unprocessed.smi

> <i_m_source_file_index>
1510

> <i_lp_mmshare_version>
43012

> <i_f3d_flags>
0

> <s_epik_input>
TzFbQ0gyXVtDSDJdW0NIMl1bQ0BIXTFbQ0gyXVtOSF1DKD1PKVtDSDJdbjJbbkhdYyg9TylbY0hdW2NIXWMyPU8=

> <s_epik_cmdline>
J2VwaWtfcHl0aG9uJywgJy1waCcsICc3LjAnLCAnLXRuJywgJzgnLCAnLW1hJywgJzIwMCcsICctbWV0YWxfYmluZGluZycsICctaW1hZScsICc8aW5maWxlLm1hZT4nLCAnLW9tYWUnLCAnPG91dGZpbGUubWFlPic=

> <r_lp_tautomer_probability>
1

> <r_epik_Ionization_Penalty>
0.0970799

> <r_epik_Ionization_Penalty_Charging>
0.0970799

> <r_epik_Ionization_Penalty_Neutral>
2.6859e-08

> <r_epik_State_Penalty>
0.0341592

> <r_epik_Charging_Adjusted_Penalty>
0.131239

> <i_epik_Tot_Q>
-1

> <i_epik_Tot_abs_Q>
1

> <r_epik_Metal_State_Penalty>
0.0341592

> <b_epik_Metal_Only>
0

> <s_lp_Force_Field>
OPLS_2005

> <r_lp_Energy>
32.1041

> <b_lp_Chiralities_Consistent>
1

> <s_lp_Variant>
AV-unprocessed.smi:1510-2

> <Gold.Version>
5.8.1

> <Gold.Id.Protein>
6NUR|6NUR_protein|mol2

> <Gold.PLP.Fitness>
38.7445

> <Gold.PLP.PLP>
-26.4699

> <Gold.PLP.part.hbond>
-3.2969

> <Gold.PLP.part.metal>
0.0000

> <Gold.PLP.part.buried>
-0.8804

> <Gold.PLP.part.nonpolar>
-23.0086

> <Gold.PLP.part.repulsive>
0.2409

> <Gold.PLP.ligand.clash>
0.0000

> <Gold.PLP.ligand.torsion>
0.2772

> <Gold.PLP.Chemscore.Hbond>
4.2730

> <Gold.PLP.Chemscore.CHOScore>
0.0000

> <Gold.PLP.Chemscore.Metal>
0.0000

> <Gold.Chemscore.Hbonds>
donor molecule, donor type, donor heavy atom, donor atom, acceptor molecule, acceptor atom, score
      P1  H  6896  6909       L1    11  0.79
      P1  H  6931  6943       L1     5  1.92
      P1  H  6934  6947       L1     5  1.70

> <Gold.PLP.Chemscore.Internal.Correction>
0.0099

> <Gold.Rescore>
     Score         DG    S(hbond)    S(metal)    S(lipo)     H(rot)  DE(clash)    DE(int)     intcor
     11.65     -12.07       1.90        0.00      46.80       2.05       0.04       0.39       ----

> <Gold.Chemscore.Fitness>
11.6460

> <Gold.Chemscore.DG>
-12.0701

> <Gold.Chemscore.ZeroCoef>
-5.4800

> <Gold.Chemscore.Hbond>
1.9021

> <Gold.Chemscore.Metal>
0.0000

> <Gold.Chemscore.Lipo>
46.8019

> <Gold.Chemscore.Internal_Hbond>
0.0000

> <Gold.Chemscore.DEClash>
0.0377

> <Gold.Chemscore.DEInternal>
0.3864

> <Gold.Chemscore.Rot>
2.0463

> <Gold.Chemscore.Internal.Correction>
   9.000000E+99

> <Gold.Chemscore.Hbonds>
donor molecule, donor type, donor heavy atom, donor atom, acceptor molecule, acceptor atom, score
      P1  H  6896  6909       L1    11  0.63
      P1  H  6931  6943       L1     5  0.57
      P1  H  6934  6947       L1     5  0.29

> <Gold.Chemscore.Hbond.Weighted>
-6.3529

> <Gold.Chemscore.Metal.Weighted>
-0.0000

> <Gold.Chemscore.Lipo.Weighted>
-5.4758

> <Gold.Chemscore.Internal_Hbond.Weighted>
0.0000

> <Gold.Chemscore.DEClash.Weighted>
0.0377

> <Gold.Chemscore.DEInternal.Weighted>
0.3864

> <Gold.Chemscore.Rot.Weighted>
5.2386

> <Gold.Chemscore.Internal.Correction.Weighted>
   9.000000E+99

> <Gold.Protein.RotatedTorsions>
[ 6907 6896 6895 6894 ] final   29.83 input  -60.11 | X-H torsion
[ 7974 7965 7964 7962 ] final   70.12 input  175.53 | X-H torsion
[ 8008 7997 7996 7995 ] final  121.61 input   59.86 | X-H torsion
[ 10167 10162 10161 10158 ] final  160.27 input  -65.29 | X-H torsion
[ 10718 10713 10712 10709 ] final   11.31 input   66.30 | X-H torsion
[ 10763 10752 10751 10750 ] final  133.90 input  -60.55 | X-H torsion
[ 11005 11000 10999 10996 ] final -164.35 input  -57.11 | X-H torsion

> <Gold.Protein.ActiveResidues>
 VAL166  LYS551  ARG553  GLY616  TRP617  ASP618  TYR619  PRO620  LYS621  CYS622 
 ASP623  PHE694  ASN695  SER759  ASP760  ASP761  ALA762  ILE779  LEU786  VAL792 
 PHE793  MET794  SER795  GLU796  ALA797  LYS798  CYS799  TRP800  GLU811  SER814 

> <Gold.Protein.RotatedAtoms>
  152.0371  134.9733  160.0573 H   0  0  0  0  0  0  0  0  0  0  0  0  # atno 6907 bound_to 6896
  152.1186  133.4336  159.4673 H   0  0  0  0  0  0  0  0  0  0  0  0  # atno 6908 bound_to 6896
  150.6847  134.2480  159.4542 H   0  0  0  0  0  0  0  0  0  0  0  0  # atno 6909 bound_to 6896
  145.7821  139.2892  143.1260 H   0  0  0  0  0  0  0  0  0  0  0  0  # atno 7974 bound_to 7965
  156.2693  140.2804  156.1335 H   0  0  0  0  0  0  0  0  0  0  0  0  # atno 8008 bound_to 7997
  155.1029  140.0390  157.2719 H   0  0  0  0  0  0  0  0  0  0  0  0  # atno 8009 bound_to 7997
  154.6801  140.2607  155.6923 H   0  0  0  0  0  0  0  0  0  0  0  0  # atno 8010 bound_to 7997
  139.4838  144.4650  151.8654 H   0  0  0  0  0  0  0  0  0  0  0  0  # atno 10167 bound_to 10162
  156.9937  130.6052  149.5688 H   0  0  0  0  0  0  0  0  0  0  0  0  # atno 10718 bound_to 10713
  153.8147  135.3124  155.3404 H   0  0  0  0  0  0  0  0  0  0  0  0  # atno 10763 bound_to 10752
  154.8037  135.4711  154.0341 H   0  0  0  0  0  0  0  0  0  0  0  0  # atno 10764 bound_to 10752
  153.1731  135.6881  153.8669 H   0  0  0  0  0  0  0  0  0  0  0  0  # atno 10765 bound_to 10752
  140.5879  134.5075  157.5188 H   0  0  0  0  0  0  0  0  0  0  0  0  # atno 11005 bound_to 11000
  146.0063  140.8475  142.9993 LP  0  0  0  0  0  0  0  0  0  0  0  0  # atno 17320 bound_to 7965
  144.6795  140.2425  143.7342 LP  0  0  0  0  0  0  0  0  0  0  0  0  # atno 17321 bound_to 7965
  140.4115  144.2363  150.5889 LP  0  0  0  0  0  0  0  0  0  0  0  0  # atno 17342 bound_to 10162
  140.4962  143.2332  151.8746 LP  0  0  0  0  0  0  0  0  0  0  0  0  # atno 17343 bound_to 10162
  156.0197  130.5292  150.8240 LP  0  0  0  0  0  0  0  0  0  0  0  0  # atno 17370 bound_to 10713
  157.5440  131.0942  150.9788 LP  0  0  0  0  0  0  0  0  0  0  0  0  # atno 17371 bound_to 10713
  139.9287  134.8005  156.0992 LP  0  0  0  0  0  0  0  0  0  0  0  0  # atno 17394 bound_to 11000
  141.0954  133.6697  156.2634 LP  0  0  0  0  0  0  0  0  0  0  0  0  # atno 17395 bound_to 11000

$$$$
