AV-unprocessed.smi:1815|AV-procd|sdf|7363|dock6
  -GOLD-   22720 9 23D 1   1.00000     0.00000
 Structure written by MMmdl.
 39 40  0  0  0  0  0  0  0  0  3 V2000
  146.5075  133.6062  150.8430 C   0  0  0  0  0  0  0  0  0  0  0  0
  146.5146  132.8572  152.1876 C   0  0  1  0  0  0  0  0  0  0  0  0
  147.8992  132.8185  152.8643 C   0  0  0  0  0  0  0  0  0  0  0  0
  148.2531  134.1388  153.4373 N   0  3  2  0  0  0  0  0  0  0  0  0
  149.6099  134.1500  154.0376 C   0  0  0  0  0  0  0  0  0  0  0  0
  149.7609  135.2353  155.1145 C   0  0  0  0  0  0  0  0  0  0  0  0
  150.0458  136.5238  154.4996 N   0  0  0  0  0  0  0  0  0  0  0  0
  151.0447  137.3417  154.8556 C   0  0  0  0  0  0  0  0  0  0  0  0
  151.8086  137.0158  155.7673 O   0  0  0  0  0  0  0  0  0  0  0  0
  151.0950  138.4835  154.1336 N   0  5  0  0  0  0  0  0  0  0  0  0
  150.1849  139.4494  154.3396 C   0  0  0  0  0  0  0  0  0  0  0  0
  150.5115  140.6884  154.7248 N   0  0  0  0  0  0  0  0  0  0  0  0
  149.4084  141.5288  154.8855 C   0  0  0  0  0  0  0  0  0  0  0  0
  148.2132  140.9128  154.6250 C   0  0  0  0  0  0  0  0  0  0  0  0
  148.4390  139.2490  154.1668 S   0  0  0  0  0  0  0  0  0  0  0  0
  147.1898  134.5981  154.3631 C   0  0  0  0  0  0  0  0  0  0  0  0
  145.8322  134.6477  153.6395 C   0  0  2  0  0  0  0  0  0  0  0  0
  144.6903  135.0327  154.5867 C   0  0  0  0  0  0  0  0  0  0  0  0
  145.5359  133.3643  153.0948 O   0  0  0  0  0  0  0  0  0  0  0  0
  147.1658  133.1162  150.1254 H   0  0  0  0  0  0  0  0  0  0  0  0
  146.8462  134.6374  150.9399 H   0  0  0  0  0  0  0  0  0  0  0  0
  145.5061  133.6214  150.4123 H   0  0  0  0  0  0  0  0  0  0  0  0
  146.2219  131.8285  151.9744 H   0  0  0  0  0  0  0  0  0  0  0  0
  147.8971  132.0746  153.6630 H   0  0  0  0  0  0  0  0  0  0  0  0
  148.6553  132.5047  152.1433 H   0  0  0  0  0  0  0  0  0  0  0  0
  149.8463  133.1643  154.4418 H   0  0  0  0  0  0  0  0  0  0  0  0
  150.3441  134.3476  153.2547 H   0  0  0  0  0  0  0  0  0  0  0  0
  148.8445  135.3092  155.7025 H   0  0  0  0  0  0  0  0  0  0  0  0
  150.5707  134.9953  155.8037 H   0  0  0  0  0  0  0  0  0  0  0  0
  149.4415  136.8252  153.7489 H   0  0  0  0  0  0  0  0  0  0  0  0
  149.5670  142.5523  155.1903 H   0  0  0  0  0  0  0  0  0  0  0  0
  147.2198  141.3323  154.6750 H   0  0  0  0  0  0  0  0  0  0  0  0
  147.1376  133.9252  155.2207 H   0  0  0  0  0  0  0  0  0  0  0  0
  147.4246  135.5890  154.7505 H   0  0  0  0  0  0  0  0  0  0  0  0
  145.8705  135.3881  152.8401 H   0  0  0  0  0  0  0  0  0  0  0  0
  144.8601  136.0153  155.0273 H   0  0  0  0  0  0  0  0  0  0  0  0
  144.5911  134.3136  155.4005 H   0  0  0  0  0  0  0  0  0  0  0  0
  143.7387  135.0675  154.0558 H   0  0  0  0  0  0  0  0  0  0  0  0
  148.2773  134.7875  152.6633 H   0  0  0  0  0  0  0  0  0  0  0  0
  1  2  1  0  0  0  0
  1 20  1  0  0  0  0
  1 21  1  0  0  0  0
  1 22  1  0  0  0  0
  2 19  1  0  0  0  0
  2  3  1  0  0  0  0
  2 23  1  0  0  0  0
  3  4  1  0  0  0  0
  3 24  1  0  0  0  0
  3 25  1  0  0  0  0
  4  5  1  0  0  0  0
  4 16  1  0  0  0  0
  4 39  1  0  0  0  0
  5  6  1  0  0  0  0
  5 26  1  0  0  0  0
  5 27  1  0  0  0  0
  6  7  1  0  0  0  0
  6 28  1  0  0  0  0
  6 29  1  0  0  0  0
  7  8  1  0  0  0  0
  7 30  1  0  0  0  0
  8  9  2  0  0  0  0
  8 10  1  0  0  0  0
 10 11  1  0  0  0  0
 11 15  1  0  0  0  0
 11 12  2  0  0  0  0
 12 13  1  0  0  0  0
 13 14  2  0  0  0  0
 13 31  1  0  0  0  0
 14 15  1  0  0  0  0
 14 32  1  0  0  0  0
 16 17  1  0  0  0  0
 16 33  1  0  0  0  0
 16 34  1  0  0  0  0
 17 18  1  0  0  0  0
 17 19  1  0  0  0  0
 17 35  1  0  0  0  0
 18 36  1  0  0  0  0
 18 37  1  0  0  0  0
 18 38  1  0  0  0  0
M  CHG  1   4   1
M  CHG  1  10  -1
M  END
> <s_m_source_file>
AV-unprocessed.smi

> <i_m_source_file_index>
1815

> <i_lp_mmshare_version>
43012

> <i_f3d_flags>
0

> <s_epik_input>
W0NIM11bQ0BASF0xW0NIMl1OKFtDSDJdW0NASF0oTzEpW0NIM10pW0NIMl1bQ0gyXVtOSF1DKD1PKVtOSF1jMm5bY0hdW2NIXXMy

> <s_epik_cmdline>
J2VwaWtfcHl0aG9uJywgJy1waCcsICc3LjAnLCAnLXRuJywgJzgnLCAnLW1hJywgJzIwMCcsICctbWV0YWxfYmluZGluZycsICctaW1hZScsICc8aW5maWxlLm1hZT4nLCAnLW9tYWUnLCAnPG91dGZpbGUubWFlPic=

> <r_lp_tautomer_probability>
0.999

> <r_epik_Ionization_Penalty>
6.71699

> <r_epik_Ionization_Penalty_Charging>
5.88592

> <r_epik_Ionization_Penalty_Neutral>
0.831074

> <r_epik_State_Penalty>
6.08365

> <r_epik_Charging_Adjusted_Penalty>
11.9696

> <i_epik_Tot_Q>
0

> <i_epik_Tot_abs_Q>
2

> <r_epik_Metal_State_Penalty>
2.0947

> <b_epik_Metal_Only>
1

> <s_lp_Force_Field>
OPLS_2005

> <r_lp_Energy>
8.63778

> <b_lp_Chiralities_Consistent>
1

> <s_lp_Variant>
AV-unprocessed.smi:1815-14

> <Gold.Version>
5.8.1

> <Gold.Id.Protein>
6NUR|6NUR_protein|mol2

> <Gold.PLP.Fitness>
44.9231

> <Gold.PLP.PLP>
-30.8156

> <Gold.PLP.part.hbond>
-4.2858

> <Gold.PLP.part.metal>
0.0000

> <Gold.PLP.part.buried>
-3.3204

> <Gold.PLP.part.nonpolar>
-23.2515

> <Gold.PLP.part.repulsive>
0.4890

> <Gold.PLP.ligand.clash>
0.0000

> <Gold.PLP.ligand.torsion>
1.7261

> <Gold.PLP.Chemscore.Hbond>
4.9120

> <Gold.PLP.Chemscore.CHOScore>
0.9264

> <Gold.PLP.Chemscore.Metal>
0.0000

> <Gold.Chemscore.Hbonds>
donor molecule, donor type, donor heavy atom, donor atom, acceptor molecule, acceptor atom, score
      L1  H     4    39       P1  7948  2.00
      L1  H     7    30       P1  7948  0.74
      P1  H  7989  7998       L1    12  0.63
      P1  H 10752 10763       L1     9  0.73
      L1  C    13    31       P1  8028  1.00

> <Gold.PLP.Chemscore.Internal.Correction>
0.0446

> <Gold.Rescore>
     Score         DG    S(hbond)    S(metal)    S(lipo)     H(rot)  DE(clash)    DE(int)     intcor
     16.14     -17.56       3.04        0.00      51.70       1.61       0.02       1.40       ----

> <Gold.Chemscore.Fitness>
16.1443

> <Gold.Chemscore.DG>
-17.5556

> <Gold.Chemscore.ZeroCoef>
-5.4800

> <Gold.Chemscore.Hbond>
3.0351

> <Gold.Chemscore.Metal>
0.0000

> <Gold.Chemscore.Lipo>
51.7047

> <Gold.Chemscore.Internal_Hbond>
0.0000

> <Gold.Chemscore.DEClash>
0.0157

> <Gold.Chemscore.DEInternal>
1.3955

> <Gold.Chemscore.Rot>
1.6060

> <Gold.Chemscore.Internal.Correction>
   9.000000E+99

> <Gold.Chemscore.Hbonds>
donor molecule, donor type, donor heavy atom, donor atom, acceptor molecule, acceptor atom, score
      L1  H     4    39       P1  7948  0.48
      L1  H     7    30       P1  7948  0.64
      P1  H  7989  7998       L1    12  0.06
      P1  H 10752 10763       L1     9  0.42

> <Gold.Chemscore.Hbond.Weighted>
-10.1374

> <Gold.Chemscore.Metal.Weighted>
-0.0000

> <Gold.Chemscore.Lipo.Weighted>
-6.0495

> <Gold.Chemscore.Internal_Hbond.Weighted>
0.0000

> <Gold.Chemscore.DEClash.Weighted>
0.0157

> <Gold.Chemscore.DEInternal.Weighted>
1.3955

> <Gold.Chemscore.Rot.Weighted>
4.1112

> <Gold.Chemscore.Internal.Correction.Weighted>
   9.000000E+99

> <Gold.Protein.RotatedTorsions>
[ 6907 6896 6895 6894 ] final  -18.47 input  -60.11 | X-H torsion
[ 7974 7965 7964 7962 ] final  -79.66 input  175.53 | X-H torsion
[ 8008 7997 7996 7995 ] final  -20.38 input   59.86 | X-H torsion
[ 10167 10162 10161 10158 ] final -107.77 input  -65.29 | X-H torsion
[ 10718 10713 10712 10709 ] final   20.02 input   66.30 | X-H torsion
[ 10763 10752 10751 10750 ] final   85.44 input  -60.55 | X-H torsion
[ 11005 11000 10999 10996 ] final  -56.88 input  -57.11 | X-H torsion

> <Gold.Protein.ActiveResidues>
 VAL166  LYS551  ARG553  GLY616  TRP617  ASP618  TYR619  PRO620  LYS621  CYS622 
 ASP623  PHE694  ASN695  SER759  ASP760  ASP761  ALA762  ILE779  LEU786  VAL792 
 PHE793  MET794  SER795  GLU796  ALA797  LYS798  CYS799  TRP800  GLU811  SER814 

> <Gold.Protein.RotatedAtoms>
  151.2777  135.0704  159.9157 H   0  0  0  0  0  0  0  0  0  0  0  0  # atno 6907 bound_to 6896
  152.5339  134.0063  159.7928 H   0  0  0  0  0  0  0  0  0  0  0  0  # atno 6908 bound_to 6896
  151.0312  133.5738  159.2691 H   0  0  0  0  0  0  0  0  0  0  0  0  # atno 6909 bound_to 6896
  145.5703  140.9467  143.1399 H   0  0  0  0  0  0  0  0  0  0  0  0  # atno 7974 bound_to 7965
  154.4774  140.2063  155.9846 H   0  0  0  0  0  0  0  0  0  0  0  0  # atno 8008 bound_to 7997
  156.1110  140.3229  155.8043 H   0  0  0  0  0  0  0  0  0  0  0  0  # atno 8009 bound_to 7997
  155.4634  140.0526  157.2979 H   0  0  0  0  0  0  0  0  0  0  0  0  # atno 8010 bound_to 7997
  140.1734  143.4024  152.1337 H   0  0  0  0  0  0  0  0  0  0  0  0  # atno 10167 bound_to 10162
  157.1187  130.6540  149.5917 H   0  0  0  0  0  0  0  0  0  0  0  0  # atno 10718 bound_to 10713
  153.1476  135.4617  154.9588 H   0  0  0  0  0  0  0  0  0  0  0  0  # atno 10763 bound_to 10752
  154.7798  135.3185  154.8016 H   0  0  0  0  0  0  0  0  0  0  0  0  # atno 10764 bound_to 10752
  153.8527  135.6920  153.4845 H   0  0  0  0  0  0  0  0  0  0  0  0  # atno 10765 bound_to 10752
  141.1140  133.6610  156.4685 H   0  0  0  0  0  0  0  0  0  0  0  0  # atno 11005 bound_to 11000
  144.7441  139.7368  143.7299 LP  0  0  0  0  0  0  0  0  0  0  0  0  # atno 17320 bound_to 7965
  146.1789  139.4972  142.9879 LP  0  0  0  0  0  0  0  0  0  0  0  0  # atno 17321 bound_to 7965
  139.5328  144.7177  151.4997 LP  0  0  0  0  0  0  0  0  0  0  0  0  # atno 17342 bound_to 10162
  140.6567  143.8584  150.6843 LP  0  0  0  0  0  0  0  0  0  0  0  0  # atno 17343 bound_to 10162
  155.9833  130.4852  150.6928 LP  0  0  0  0  0  0  0  0  0  0  0  0  # atno 17370 bound_to 10713
  157.4496  131.0871  151.0860 LP  0  0  0  0  0  0  0  0  0  0  0  0  # atno 17371 bound_to 10713
  140.4698  134.6764  157.5124 LP  0  0  0  0  0  0  0  0  0  0  0  0  # atno 17394 bound_to 11000
  140.0050  134.6778  155.9469 LP  0  0  0  0  0  0  0  0  0  0  0  0  # atno 17395 bound_to 11000

$$$$
