AV-unprocessed.smi:2156|AV-procd|sdf|8781|dock4
  -GOLD-   2272011563D 1   1.00000     0.00000
 Structure written by MMmdl.
 33 33  0  0  0  0  0  0  0  0  2 V2000
  144.0724  132.3474  149.6679 C   0  0  0  0  0  0  0  0  0  0  0  0
  144.7337  132.8798  150.9441 C   0  0  0  0  0  0  0  0  0  0  0  0
  144.9636  134.4004  150.8957 C   0  0  0  0  0  0  0  0  0  0  0  0
  145.6275  134.9728  152.1628 C   0  0  2  0  0  0  0  0  0  0  0  0
  145.6015  136.5103  152.1617 C   0  0  0  0  0  0  0  0  0  0  0  0
  147.0020  134.4900  152.2755 N   0  0  0  0  0  0  0  0  0  0  0  0
  147.3884  133.3856  152.9321 C   0  0  0  0  0  0  0  0  0  0  0  0
  146.6061  132.6579  153.5455 O   0  0  0  0  0  0  0  0  0  0  0  0
  148.8935  133.0834  152.9059 C   0  0  0  0  0  0  0  0  0  0  0  0
  149.4944  132.9992  154.2471 N   0  0  0  0  0  0  0  0  0  0  0  0
  150.0142  131.7574  154.6526 C   0  0  0  0  0  0  0  0  0  0  0  0
  150.5869  131.5865  155.8593 C   0  0  0  0  0  0  0  0  0  0  0  0
  150.6612  132.7329  156.7564 C   0  0  0  0  0  0  0  0  0  0  0  0
  151.1764  132.5942  157.8642 O   0  0  0  0  0  0  0  0  0  0  0  0
  150.1469  133.9182  156.3155 N   0  5  0  0  0  0  0  0  0  0  0  0
  149.5686  134.0775  155.0844 C   0  0  0  0  0  0  0  0  0  0  0  0
  149.1120  135.1565  154.7052 O   0  0  0  0  0  0  0  0  0  0  0  0
  143.9197  131.2698  149.7300 H   0  0  0  0  0  0  0  0  0  0  0  0
  144.6910  132.5457  148.7923 H   0  0  0  0  0  0  0  0  0  0  0  0
  143.0997  132.8120  149.5041 H   0  0  0  0  0  0  0  0  0  0  0  0
  144.1082  132.6320  151.8024 H   0  0  0  0  0  0  0  0  0  0  0  0
  145.6810  132.3610  151.0941 H   0  0  0  0  0  0  0  0  0  0  0  0
  145.5683  134.6493  150.0225 H   0  0  0  0  0  0  0  0  0  0  0  0
  144.0021  134.8938  150.7477 H   0  0  0  0  0  0  0  0  0  0  0  0
  145.0594  134.6218  153.0266 H   0  0  0  0  0  0  0  0  0  0  0  0
  144.5803  136.8842  152.0851 H   0  0  0  0  0  0  0  0  0  0  0  0
  146.1685  136.9161  151.3232 H   0  0  0  0  0  0  0  0  0  0  0  0
  146.0279  136.9158  153.0797 H   0  0  0  0  0  0  0  0  0  0  0  0
  147.7131  135.0290  151.8032 H   0  0  0  0  0  0  0  0  0  0  0  0
  149.0696  132.1555  152.3584 H   0  0  0  0  0  0  0  0  0  0  0  0
  149.3847  133.8596  152.3177 H   0  0  0  0  0  0  0  0  0  0  0  0
  149.9249  130.9623  153.9268 H   0  0  0  0  0  0  0  0  0  0  0  0
  150.9837  130.6264  156.1547 H   0  0  0  0  0  0  0  0  0  0  0  0
  1  2  1  0  0  0  0
  1 18  1  0  0  0  0
  1 19  1  0  0  0  0
  1 20  1  0  0  0  0
  2  3  1  0  0  0  0
  2 21  1  0  0  0  0
  2 22  1  0  0  0  0
  3  4  1  0  0  0  0
  3 23  1  0  0  0  0
  3 24  1  0  0  0  0
  4  5  1  0  0  0  0
  4  6  1  0  0  0  0
  4 25  1  0  0  0  0
  5 26  1  0  0  0  0
  5 27  1  0  0  0  0
  5 28  1  0  0  0  0
  6  7  1  0  0  0  0
  6 29  1  0  0  0  0
  7  8  2  0  0  0  0
  7  9  1  0  0  0  0
  9 10  1  0  0  0  0
  9 30  1  0  0  0  0
  9 31  1  0  0  0  0
 10 16  1  0  0  0  0
 10 11  1  0  0  0  0
 11 12  2  0  0  0  0
 11 32  1  0  0  0  0
 12 13  1  0  0  0  0
 12 33  1  0  0  0  0
 13 14  2  0  0  0  0
 13 15  1  0  0  0  0
 15 16  1  0  0  0  0
 16 17  2  0  0  0  0
M  CHG  1  15  -1
M  END
> <s_m_source_file>
AV-unprocessed.smi

> <i_m_source_file_index>
2156

> <i_lp_mmshare_version>
43012

> <i_f3d_flags>
0

> <s_epik_input>
W0NIM11bQ0gyXVtDSDJdW0NASF0oW0NIM10pW05IXUMoPU8pW0NIMl1uMVtjSF1bY0hdYyg9TylbbkhdYzE9Tw==

> <s_epik_cmdline>
J2VwaWtfcHl0aG9uJywgJy1waCcsICc3LjAnLCAnLXRuJywgJzgnLCAnLW1hJywgJzIwMCcsICctbWV0YWxfYmluZGluZycsICctaW1hZScsICc8aW5maWxlLm1hZT4nLCAnLW9tYWUnLCAnPG91dGZpbGUubWFlPic=

> <r_lp_tautomer_probability>
0.999537

> <r_epik_Ionization_Penalty>
3.08607

> <r_epik_Ionization_Penalty_Charging>
2.78879e-08

> <r_epik_Ionization_Penalty_Neutral>
3.08607

> <r_epik_State_Penalty>
3.08511

> <r_epik_Charging_Adjusted_Penalty>
3.08511

> <i_epik_Tot_Q>
-1

> <i_epik_Tot_abs_Q>
1

> <r_epik_Metal_State_Penalty>
0.460479

> <b_epik_Metal_Only>
1

> <s_lp_Force_Field>
OPLS_2005

> <r_lp_Energy>
12.6721

> <b_lp_Chiralities_Consistent>
1

> <s_lp_Variant>
AV-unprocessed.smi:2156-3

> <Gold.Version>
5.8.1

> <Gold.Id.Protein>
6NUR|6NUR_protein|mol2

> <Gold.PLP.Fitness>
35.7980

> <Gold.PLP.PLP>
-30.6523

> <Gold.PLP.part.hbond>
-2.0000

> <Gold.PLP.part.metal>
0.0000

> <Gold.PLP.part.buried>
-5.2065

> <Gold.PLP.part.nonpolar>
-24.4869

> <Gold.PLP.part.repulsive>
0.7157

> <Gold.PLP.ligand.clash>
0.0000

> <Gold.PLP.ligand.torsion>
0.4364

> <Gold.PLP.Chemscore.Hbond>
2.0000

> <Gold.PLP.Chemscore.CHOScore>
0.0000

> <Gold.PLP.Chemscore.Metal>
0.0000

> <Gold.Chemscore.Hbonds>
donor molecule, donor type, donor heavy atom, donor atom, acceptor molecule, acceptor atom, score
      L1  H     6    29       P1  7948  1.00
      P1  H  6896  6909       L1    14  1.00

> <Gold.PLP.Chemscore.Internal.Correction>
0.0186

> <Gold.Rescore>
     Score         DG    S(hbond)    S(metal)    S(lipo)     H(rot)  DE(clash)    DE(int)     intcor
     11.60     -12.17       1.97        0.00      47.81       2.14       0.02       0.55       ----

> <Gold.Chemscore.Fitness>
11.5970

> <Gold.Chemscore.DG>
-12.1697

> <Gold.Chemscore.ZeroCoef>
-5.4800

> <Gold.Chemscore.Hbond>
1.9664

> <Gold.Chemscore.Metal>
0.0000

> <Gold.Chemscore.Lipo>
47.8056

> <Gold.Chemscore.Internal_Hbond>
0.0000

> <Gold.Chemscore.DEClash>
0.0234

> <Gold.Chemscore.DEInternal>
0.5493

> <Gold.Chemscore.Rot>
2.1372

> <Gold.Chemscore.Internal.Correction>
   9.000000E+99

> <Gold.Chemscore.Hbonds>
donor molecule, donor type, donor heavy atom, donor atom, acceptor molecule, acceptor atom, score
      L1  H     6    29       P1  7948  0.67
      P1  H  6896  6909       L1    14  0.96

> <Gold.Chemscore.Hbond.Weighted>
-6.5678

> <Gold.Chemscore.Metal.Weighted>
-0.0000

> <Gold.Chemscore.Lipo.Weighted>
-5.5933

> <Gold.Chemscore.Internal_Hbond.Weighted>
0.0000

> <Gold.Chemscore.DEClash.Weighted>
0.0234

> <Gold.Chemscore.DEInternal.Weighted>
0.5493

> <Gold.Chemscore.Rot.Weighted>
5.4713

> <Gold.Chemscore.Internal.Correction.Weighted>
   9.000000E+99

> <Gold.Protein.RotatedTorsions>
[ 6907 6896 6895 6894 ] final  -52.03 input  -60.11 | X-H torsion
[ 7974 7965 7964 7962 ] final -102.94 input  175.53 | X-H torsion
[ 8008 7997 7996 7995 ] final  125.51 input   59.86 | X-H torsion
[ 10167 10162 10161 10158 ] final  126.38 input  -65.29 | X-H torsion
[ 10718 10713 10712 10709 ] final   39.21 input   66.30 | X-H torsion
[ 10763 10752 10751 10750 ] final   74.82 input  -60.55 | X-H torsion
[ 11005 11000 10999 10996 ] final    3.98 input  -57.11 | X-H torsion

> <Gold.Protein.ActiveResidues>
 VAL166  LYS551  ARG553  GLY616  TRP617  ASP618  TYR619  PRO620  LYS621  CYS622 
 ASP623  PHE694  ASN695  SER759  ASP760  ASP761  ALA762  ILE779  LEU786  VAL792 
 PHE793  MET794  SER795  GLU796  ALA797  LYS798  CYS799  TRP800  GLU811  SER814 

> <Gold.Protein.RotatedAtoms>
  150.8556  134.7893  159.7042 H   0  0  0  0  0  0  0  0  0  0  0  0  # atno 6907 bound_to 6896
  152.4608  134.5184  159.9785 H   0  0  0  0  0  0  0  0  0  0  0  0  # atno 6908 bound_to 6896
  151.5297  133.3413  159.2951 H   0  0  0  0  0  0  0  0  0  0  0  0  # atno 6909 bound_to 6896
  145.2622  140.9273  143.3034 H   0  0  0  0  0  0  0  0  0  0  0  0  # atno 7974 bound_to 7965
  156.2836  140.2714  156.1961 H   0  0  0  0  0  0  0  0  0  0  0  0  # atno 8008 bound_to 7997
  155.0409  140.0386  157.2527 H   0  0  0  0  0  0  0  0  0  0  0  0  # atno 8009 bound_to 7997
  154.7275  140.2700  155.6491 H   0  0  0  0  0  0  0  0  0  0  0  0  # atno 8010 bound_to 7997
  139.5634  144.6896  151.3977 H   0  0  0  0  0  0  0  0  0  0  0  0  # atno 10167 bound_to 10162
  157.3679  130.7685  149.7097 H   0  0  0  0  0  0  0  0  0  0  0  0  # atno 10718 bound_to 10713
  153.0612  135.5011  154.8098 H   0  0  0  0  0  0  0  0  0  0  0  0  # atno 10763 bound_to 10752
  154.6886  135.2980  154.9515 H   0  0  0  0  0  0  0  0  0  0  0  0  # atno 10764 bound_to 10752
  154.0277  135.6733  153.4830 H   0  0  0  0  0  0  0  0  0  0  0  0  # atno 10765 bound_to 10752
  140.5870  133.9959  155.8072 H   0  0  0  0  0  0  0  0  0  0  0  0  # atno 11005 bound_to 11000
  144.9408  139.4191  143.6450 LP  0  0  0  0  0  0  0  0  0  0  0  0  # atno 17320 bound_to 7965
  146.3272  139.8367  142.8898 LP  0  0  0  0  0  0  0  0  0  0  0  0  # atno 17321 bound_to 7965
  140.6916  143.7847  150.7264 LP  0  0  0  0  0  0  0  0  0  0  0  0  # atno 17342 bound_to 10162
  140.1331  143.4508  152.2241 LP  0  0  0  0  0  0  0  0  0  0  0  0  # atno 17343 bound_to 10162
  155.9750  130.4095  150.3883 LP  0  0  0  0  0  0  0  0  0  0  0  0  # atno 17370 bound_to 10713
  157.1970  131.0429  151.2670 LP  0  0  0  0  0  0  0  0  0  0  0  0  # atno 17371 bound_to 10713
  141.0959  133.9844  157.3160 LP  0  0  0  0  0  0  0  0  0  0  0  0  # atno 17394 bound_to 11000
  139.9291  135.0200  156.8338 LP  0  0  0  0  0  0  0  0  0  0  0  0  # atno 17395 bound_to 11000

$$$$
