AV-unprocessed.smi:1014|AV-procd|sdf|4430|dock3
  -GOLD-   22720 2383D 1   1.00000     0.00000
 Structure written by MMmdl.
 34 34  0  0  0  0  0  0  0  0  2 V2000
  146.5091  138.2527  151.4755 C   0  0  0  0  0  0  0  0  0  0  0  0
  146.8219  139.4221  152.4219 C   0  0  0  0  0  0  0  0  0  0  0  0
  147.5719  139.0227  153.7115 C   0  0  2  0  0  0  0  0  0  0  0  0
  148.9949  138.7737  153.3870 N   0  3  0  0  0  0  0  0  0  0  0  0
  149.9640  139.1681  154.4336 C   0  0  0  0  0  0  0  0  0  0  0  0
  149.8069  140.6476  154.8204 C   0  0  0  0  0  0  0  0  0  0  0  0
  150.5615  140.9882  156.0133 N   0  0  0  0  0  0  0  0  0  0  0  0
  150.7714  142.2329  156.5679 C   0  0  0  0  0  0  0  0  0  0  0  0
  151.5459  142.0622  157.6804 C   0  0  0  0  0  0  0  0  0  0  0  0
  152.0572  143.1001  158.6376 C   0  0  0  0  0  0  0  0  0  0  0  0
  151.7590  140.6552  157.7226 C   0  0  0  0  0  0  0  0  0  0  0  0
  151.1708  140.0159  156.7245 N   0  0  0  0  0  0  0  0  0  0  0  0
  146.9346  137.7903  154.3738 C   0  0  0  0  0  0  0  0  0  0  0  0
  147.2593  136.5928  153.8795 N   0  0  0  0  0  0  0  0  0  0  0  0
  146.1648  137.9180  155.3241 O   0  0  0  0  0  0  0  0  0  0  0  0
  145.9213  138.5949  150.6234 H   0  0  0  0  0  0  0  0  0  0  0  0
  145.9340  137.4785  151.9839 H   0  0  0  0  0  0  0  0  0  0  0  0
  147.4165  137.7954  151.0811 H   0  0  0  0  0  0  0  0  0  0  0  0
  147.3862  140.1836  151.8811 H   0  0  0  0  0  0  0  0  0  0  0  0
  145.8764  139.8923  152.6959 H   0  0  0  0  0  0  0  0  0  0  0  0
  147.5297  139.8661  154.4033 H   0  0  0  0  0  0  0  0  0  0  0  0
  149.1115  137.7920  153.1782 H   0  0  0  0  0  0  0  0  0  0  0  0
  149.8328  138.5390  155.3151 H   0  0  0  0  0  0  0  0  0  0  0  0
  150.9768  138.9971  154.0678 H   0  0  0  0  0  0  0  0  0  0  0  0
  150.1602  141.2800  154.0050 H   0  0  0  0  0  0  0  0  0  0  0  0
  148.7566  140.8994  154.9764 H   0  0  0  0  0  0  0  0  0  0  0  0
  150.3574  143.1293  156.1300 H   0  0  0  0  0  0  0  0  0  0  0  0
  152.1686  142.6999  159.6456 H   0  0  0  0  0  0  0  0  0  0  0  0
  151.3845  143.9554  158.7059 H   0  0  0  0  0  0  0  0  0  0  0  0
  153.0321  143.4811  158.3331 H   0  0  0  0  0  0  0  0  0  0  0  0
  152.3220  140.0829  158.4450 H   0  0  0  0  0  0  0  0  0  0  0  0
  146.8607  135.7537  154.2755 H   0  0  0  0  0  0  0  0  0  0  0  0
  147.9004  136.5302  153.1013 H   0  0  0  0  0  0  0  0  0  0  0  0
  149.2202  139.3046  152.5575 H   0  0  0  0  0  0  0  0  0  0  0  0
  1  2  1  0  0  0  0
  1 16  1  0  0  0  0
  1 17  1  0  0  0  0
  1 18  1  0  0  0  0
  2  3  1  0  0  0  0
  2 19  1  0  0  0  0
  2 20  1  0  0  0  0
  3  4  1  0  0  0  0
  3 13  1  0  0  0  0
  3 21  1  0  0  0  0
  4  5  1  0  0  0  0
  4 22  1  0  0  0  0
  4 34  1  0  0  0  0
  5  6  1  0  0  0  0
  5 23  1  0  0  0  0
  5 24  1  0  0  0  0
  6  7  1  0  0  0  0
  6 25  1  0  0  0  0
  6 26  1  0  0  0  0
  7 12  1  0  0  0  0
  7  8  1  0  0  0  0
  8  9  2  0  0  0  0
  8 27  1  0  0  0  0
  9 10  1  0  0  0  0
  9 11  1  0  0  0  0
 10 28  1  0  0  0  0
 10 29  1  0  0  0  0
 10 30  1  0  0  0  0
 11 12  2  0  0  0  0
 11 31  1  0  0  0  0
 13 14  1  0  0  0  0
 13 15  2  0  0  0  0
 14 32  1  0  0  0  0
 14 33  1  0  0  0  0
M  CHG  1   4   1
M  END
> <s_m_source_file>
AV-unprocessed.smi

> <i_m_source_file_index>
1014

> <i_lp_mmshare_version>
43012

> <i_f3d_flags>
0

> <s_epik_input>
W0NIM11bQ0gyXVtDQEBIXShDKD1PKVtOSDJdKVtOSF1bQ0gyXVtDSDJdbjFbY0hdYyhbQ0gzXSlbY0hdbjE=

> <s_epik_cmdline>
J2VwaWtfcHl0aG9uJywgJy1waCcsICc3LjAnLCAnLXRuJywgJzgnLCAnLW1hJywgJzIwMCcsICctbWV0YWxfYmluZGluZycsICctaW1hZScsICc8aW5maWxlLm1hZT4nLCAnLW9tYWUnLCAnPG91dGZpbGUubWFlPic=

> <r_lp_tautomer_probability>
1

> <r_epik_Ionization_Penalty>
0.19042

> <r_epik_Ionization_Penalty_Charging>
0.190412

> <r_epik_Ionization_Penalty_Neutral>
7.5834e-06

> <r_epik_State_Penalty>
0.180404

> <r_epik_Charging_Adjusted_Penalty>
0.370816

> <i_epik_Tot_Q>
1

> <i_epik_Tot_abs_Q>
1

> <r_epik_Metal_State_Penalty>
0.180563

> <b_epik_Metal_Only>
0

> <s_lp_Force_Field>
OPLS_2005

> <r_lp_Energy>
2.67467

> <b_lp_Chiralities_Consistent>
1

> <s_lp_Variant>
AV-unprocessed.smi:1014-1

> <Gold.Version>
5.8.1

> <Gold.Id.Protein>
6NUR|6NUR_protein|mol2

> <Gold.PLP.Fitness>
40.7118

> <Gold.PLP.PLP>
-28.0221

> <Gold.PLP.part.hbond>
-3.0000

> <Gold.PLP.part.metal>
0.0000

> <Gold.PLP.part.buried>
1.0622

> <Gold.PLP.part.nonpolar>
-26.5018

> <Gold.PLP.part.repulsive>
0.1189

> <Gold.PLP.ligand.clash>
0.0000

> <Gold.PLP.ligand.torsion>
1.2008

> <Gold.PLP.Chemscore.Hbond>
4.0000

> <Gold.PLP.Chemscore.CHOScore>
1.0000

> <Gold.PLP.Chemscore.Metal>
0.0000

> <Gold.Chemscore.Hbonds>
donor molecule, donor type, donor heavy atom, donor atom, acceptor molecule, acceptor atom, score
      L1  H     4    22       P1  7948  1.98
      L1  H     4    34       P1  7957  1.00
      L1  H    14    33       P1  7948  1.00
      L1  C     8    27       P1  8028  1.00

> <Gold.PLP.Chemscore.Internal.Correction>
0.0913

> <Gold.Rescore>
     Score         DG    S(hbond)    S(metal)    S(lipo)     H(rot)  DE(clash)    DE(int)     intcor
     15.66     -17.17       2.90        0.00      73.66       2.59       0.41       1.10       ----

> <Gold.Chemscore.Fitness>
15.6625

> <Gold.Chemscore.DG>
-17.1684

> <Gold.Chemscore.ZeroCoef>
-5.4800

> <Gold.Chemscore.Hbond>
2.9028

> <Gold.Chemscore.Metal>
0.0000

> <Gold.Chemscore.Lipo>
73.6564

> <Gold.Chemscore.Internal_Hbond>
0.0000

> <Gold.Chemscore.DEClash>
0.4069

> <Gold.Chemscore.DEInternal>
1.0990

> <Gold.Chemscore.Rot>
2.5878

> <Gold.Chemscore.Internal.Correction>
   9.000000E+99

> <Gold.Chemscore.Hbonds>
donor molecule, donor type, donor heavy atom, donor atom, acceptor molecule, acceptor atom, score
      L1  H     4    22       P1  7948  0.88
      L1  H     4    34       P1  7957  0.99
      L1  H    14    33       P1  7948  1.00

> <Gold.Chemscore.Hbond.Weighted>
-9.6953

> <Gold.Chemscore.Metal.Weighted>
-0.0000

> <Gold.Chemscore.Lipo.Weighted>
-8.6178

> <Gold.Chemscore.Internal_Hbond.Weighted>
0.0000

> <Gold.Chemscore.DEClash.Weighted>
0.4069

> <Gold.Chemscore.DEInternal.Weighted>
1.0990

> <Gold.Chemscore.Rot.Weighted>
6.6247

> <Gold.Chemscore.Internal.Correction.Weighted>
   9.000000E+99

> <Gold.Protein.RotatedTorsions>
[ 6907 6896 6895 6894 ] final   89.72 input  -60.11 | X-H torsion
[ 7974 7965 7964 7962 ] final   39.93 input  175.53 | X-H torsion
[ 8008 7997 7996 7995 ] final   57.86 input   59.86 | X-H torsion
[ 10167 10162 10161 10158 ] final   53.82 input  -65.29 | X-H torsion
[ 10718 10713 10712 10709 ] final  167.07 input   66.30 | X-H torsion
[ 10763 10752 10751 10750 ] final   76.61 input  -60.55 | X-H torsion
[ 11005 11000 10999 10996 ] final   32.75 input  -57.11 | X-H torsion

> <Gold.Protein.ActiveResidues>
 VAL166  LYS551  ARG553  GLY616  TRP617  ASP618  TYR619  PRO620  LYS621  CYS622 
 ASP623  PHE694  ASN695  SER759  ASP760  ASP761  ALA762  ILE779  LEU786  VAL792 
 PHE793  MET794  SER795  GLU796  ALA797  LYS798  CYS799  TRP800  GLU811  SER814 

> <Gold.Protein.RotatedAtoms>
  152.5439  134.1922  159.8678 H   0  0  0  0  0  0  0  0  0  0  0  0  # atno 6907 bound_to 6896
  151.1916  133.4657  159.2602 H   0  0  0  0  0  0  0  0  0  0  0  0  # atno 6908 bound_to 6896
  151.1077  135.0021  159.8534 H   0  0  0  0  0  0  0  0  0  0  0  0  # atno 6909 bound_to 6896
  146.0946  139.5594  142.9454 H   0  0  0  0  0  0  0  0  0  0  0  0  # atno 7974 bound_to 7965
  155.5406  140.3484  155.4446 H   0  0  0  0  0  0  0  0  0  0  0  0  # atno 8008 bound_to 7997
  156.0654  140.1350  156.9918 H   0  0  0  0  0  0  0  0  0  0  0  0  # atno 8009 bound_to 7997
  154.4501  140.0976  156.6564 H   0  0  0  0  0  0  0  0  0  0  0  0  # atno 8010 bound_to 7997
  140.2366  144.3629  150.6395 H   0  0  0  0  0  0  0  0  0  0  0  0  # atno 10167 bound_to 10162
  157.0568  131.0329  151.2661 H   0  0  0  0  0  0  0  0  0  0  0  0  # atno 10718 bound_to 10713
  153.0738  135.4945  154.8361 H   0  0  0  0  0  0  0  0  0  0  0  0  # atno 10763 bound_to 10752
  154.7059  135.3010  154.9273 H   0  0  0  0  0  0  0  0  0  0  0  0  # atno 10764 bound_to 10752
  153.9982  135.6769  153.4810 H   0  0  0  0  0  0  0  0  0  0  0  0  # atno 10765 bound_to 10752
  140.2703  134.3090  155.7830 H   0  0  0  0  0  0  0  0  0  0  0  0  # atno 11005 bound_to 11000
  145.5974  141.0360  143.2037 LP  0  0  0  0  0  0  0  0  0  0  0  0  # atno 17320 bound_to 7965
  144.7385  139.7515  143.7320 LP  0  0  0  0  0  0  0  0  0  0  0  0  # atno 17321 bound_to 7965
  140.6145  143.2171  151.6820 LP  0  0  0  0  0  0  0  0  0  0  0  0  # atno 17342 bound_to 10162
  139.5091  144.3587  152.0583 LP  0  0  0  0  0  0  0  0  0  0  0  0  # atno 17343 bound_to 10162
  157.4986  130.7866  149.7581 LP  0  0  0  0  0  0  0  0  0  0  0  0  # atno 17370 bound_to 10713
  155.9990  130.3891  150.2678 LP  0  0  0  0  0  0  0  0  0  0  0  0  # atno 17371 bound_to 10713
  141.2178  133.7462  156.9324 LP  0  0  0  0  0  0  0  0  0  0  0  0  # atno 17394 bound_to 11000
  140.1380  134.9312  157.2428 LP  0  0  0  0  0  0  0  0  0  0  0  0  # atno 17395 bound_to 11000

$$$$
