#       Name:                AV-unprocessed.smi:2364
#       Creating user name   scv26
#       Creation time:       Fri Mar 27 13:05:38 2020


#       File generated by GOLD software.
#

@<TRIPOS>MOLECULE
AV-unprocessed.smi:2364
    52    53     1
SMALL
NO_CHARGES


@<TRIPOS>ATOM
      1 ****        -2.7664   1.3534  -3.9353 C.3            1 S1                 0.0000
      2 ****        -3.5484   0.5638  -2.8701 C.3            1 S1                 0.0000
      3 ****        -3.0717  -0.8945  -2.6134 C.3            1 S1                 0.0000
      4 ****        -3.3324  -1.7479  -3.8743 C.3            1 S1                 0.0000
      5 ****        -3.8731  -1.4806  -1.4194 C.3            1 S1                 0.0000
      6 ****        -3.5077  -2.8163  -1.1298 O.3            1 S1                 0.0000
      7 ****        -1.6272  -0.9409  -2.3395 N.am           1 S1                 0.0000
      8 ****        -0.9440  -0.3427  -1.3484 C.2            1 S1                 0.0000
      9 ****        -1.4594   0.3787  -0.4939 O.2            1 S1                 0.0000
     10 ****         0.3655  -0.6382  -1.4226 N.am           1 S1                 0.0000
     11 ****         1.4158  -0.1939  -0.5774 C.2            1 S1                 0.0000
     12 ****         2.6899  -0.6107  -0.8242 N.2            1 S1                 0.0000
     13 ****         3.3131   0.0270   0.1580 C.2            1 S1                 0.0000
     14 ****         2.5058   0.7351   0.9589 N.pl3          1 S1                 0.0000
     15 ****         2.8106   1.6340   2.0766 C.3            1 S1                 0.0000
     16 ****         4.0937   1.2175   2.8334 C.3            1 S1                 0.0000
     17 ****         3.9119  -0.1119   3.5897 C.3            1 S1                 0.0000
     18 ****         2.7286  -0.0341   4.5684 C.3            1 S1                 0.0000
     19 ****         1.4384   0.4151   3.8621 C.3            1 S1                 0.0000
     20 ****         1.6536   1.7373   3.1019 C.3            1 S1                 0.0000
     21 ****         1.2499   0.6350   0.4546 N.2            1 S1                 0.0000
     22 ****        -3.1593   2.3666  -4.0200 H              1 S1                 0.0000
     23 ****        -2.8445   0.8949  -4.9205 H              1 S1                 0.0000
     24 ****        -1.7091   1.4373  -3.6846 H              1 S1                 0.0000
     25 ****        -3.5150   1.1309  -1.9397 H              1 S1                 0.0000
     26 ****        -4.6015   0.5504  -3.1540 H              1 S1                 0.0000
     27 ****        -4.3893  -1.7467  -4.1425 H              1 S1                 0.0000
     28 ****        -3.0347  -2.7867  -3.7287 H              1 S1                 0.0000
     29 ****        -2.7744  -1.3826  -4.7360 H              1 S1                 0.0000
     30 ****        -3.7428  -0.8833  -0.5171 H              1 S1                 0.0000
     31 ****        -4.9406  -1.4653  -1.6414 H              1 S1                 0.0000
     32 ****        -4.0179  -3.1131  -0.3919 H              1 S1                 0.0000
     33 ****        -1.0898  -1.5115  -2.9755 H              1 S1                 0.0000
     34 ****         0.6456  -1.2512  -2.1736 H              1 S1                 0.0000
     35 ****         4.3832  -0.0285   0.2895 H              1 S1                 0.0000
     36 ****         2.9729   2.6211   1.6422 H              1 S1                 0.0000
     37 ****         4.9436   1.1527   2.1544 H              1 S1                 0.0000
     38 ****         4.3536   1.9984   3.5494 H              1 S1                 0.0000
     39 ****         3.7496  -0.9263   2.8831 H              1 S1                 0.0000
     40 ****         4.8246  -0.3562   4.1335 H              1 S1                 0.0000
     41 ****         2.5747  -1.0025   5.0449 H              1 S1                 0.0000
     42 ****         2.9667   0.6685   5.3679 H              1 S1                 0.0000
     43 ****         1.1069  -0.3624   3.1730 H              1 S1                 0.0000
     44 ****         0.6395   0.5353   4.5943 H              1 S1                 0.0000
     45 ****         1.8837   2.5251   3.8204 H              1 S1                 0.0000
     46 ****         0.7265   2.0481   2.6193 H              1 S1                 0.0000
     47 ****        -2.5340  -2.8587  -0.9058 LP             1 S1                 0.0000
     48 ****        -3.6927  -3.3963  -1.9232 LP             1 S1                 0.0000
     49 ****        -2.4446   0.5492  -0.5116 LP             1 S1                 0.0000
     50 ****        -0.8927   0.7941   0.2177 LP             1 S1                 0.0000
     51 ****         3.0482  -1.2168  -1.5344 LP             1 S1                 0.0000
     52 ****         0.4104   1.0730   0.7760 LP             1 S1                 0.0000
@<TRIPOS>BOND
    1    1    2 1     
    2    1   22 1     
    3    1   23 1     
    4    1   24 1     
    5    2    3 1     
    6    2   25 1     
    7    2   26 1     
    8    3    4 1     
    9    3    5 1     
   10    3    7 1     
   11    4   27 1     
   12    4   28 1     
   13    4   29 1     
   14    5    6 1     
   15    5   30 1     
   16    5   31 1     
   17    6   32 1     
   18    7    8 am    
   19    7   33 1     
   20    8    9 2     
   21    8   10 am    
   22   10   11 1     
   23   10   34 1     
   24   11   21 2     
   25   11   12 1     
   26   12   13 2     
   27   13   14 1     
   28   13   35 1     
   29   14   15 1     
   30   14   21 1     
   31   15   20 1     
   32   15   16 1     
   33   15   36 1     
   34   16   17 1     
   35   16   37 1     
   36   16   38 1     
   37   17   18 1     
   38   17   39 1     
   39   17   40 1     
   40   18   19 1     
   41   18   41 1     
   42   18   42 1     
   43   19   20 1     
   44   19   43 1     
   45   19   44 1     
   46   20   45 1     
   47   20   46 1     
   48    6   47 1     
   49    6   48 1     
   50    9   49 1     
   51    9   50 1     
   52   12   51 1     
   53   21   52 1     
@<TRIPOS>SUBSTRUCTURE
      1 S1             1
@<TRIPOS>SET
LONE_PAIRS      STATIC     ATOMS    <user>   **** ""
6 47 48 49 50 51 52
DONOR_HYDROGENS      STATIC     ATOMS    <user>   **** ""
3 32 33 34
ATOM$BLUE        STATIC     ATOMS    COLORGROUP SYSTEM
6 47 48 49 50 51 52
ATOM$RED        STATIC     ATOMS    COLORGROUP SYSTEM
3 32 33 34
