AV-unprocessed.smi:624|AV-procd|sdf|3099|dock3
  -GOLD-   22720 0 23D 1   1.00000     0.00000
 Structure written by MMmdl.
 30 32  0  0  0  0  0  0  0  0  1 V2000
  150.4043  136.5088  156.2378 O   0  0  0  0  0  0  0  0  0  0  0  0
  149.9465  136.4858  155.0957 C   0  0  0  0  0  0  0  0  0  0  0  0
  149.6521  135.3757  154.3998 N   0  0  0  0  0  0  0  0  0  0  0  0
  149.7669  134.0269  154.8199 C   0  0  0  0  0  0  0  0  0  0  0  0
  150.2594  133.7896  156.0414 N   0  0  0  0  0  0  0  0  0  0  0  0
  150.3205  132.4303  156.3231 N   0  0  0  0  0  0  0  0  0  0  0  0
  149.8727  131.6950  155.3007 C   0  0  0  0  0  0  0  0  0  0  0  0
  149.3297  132.5892  153.8921 S   0  0  0  0  0  0  0  0  0  0  0  0
  149.6750  137.5888  154.3828 N   0  0  0  0  0  0  0  0  0  0  0  0
  149.8503  138.9639  154.8397 C   0  0  0  0  0  0  0  0  0  0  0  0
  149.1674  139.9716  153.9282 C   0  0  0  0  0  0  0  0  0  0  0  0
  148.8331  141.3660  154.4048 C   0  0  0  0  0  0  0  0  0  0  0  0
  147.7258  140.3741  154.1352 C   0  0  0  0  0  0  0  0  0  0  0  0
  151.3195  139.3114  154.9993 C   0  0  0  0  0  0  0  0  0  0  0  0
  152.3996  138.3881  154.4884 C   0  0  0  0  0  0  0  0  0  0  0  0
  152.2053  138.5746  155.9763 C   0  0  0  0  0  0  0  0  0  0  0  0
  149.2920  135.5093  153.4664 H   0  0  0  0  0  0  0  0  0  0  0  0
  149.8627  130.6177  155.3771 H   0  0  0  0  0  0  0  0  0  0  0  0
  149.3059  137.4691  153.4507 H   0  0  0  0  0  0  0  0  0  0  0  0
  149.3948  139.0519  155.8285 H   0  0  0  0  0  0  0  0  0  0  0  0
  149.4919  139.9012  152.8915 H   0  0  0  0  0  0  0  0  0  0  0  0
  149.0339  141.6151  155.4447 H   0  0  0  0  0  0  0  0  0  0  0  0
  148.9599  142.1826  153.6969 H   0  0  0  0  0  0  0  0  0  0  0  0
  147.1162  140.5267  153.2472 H   0  0  0  0  0  0  0  0  0  0  0  0
  147.2000  139.9689  154.9974 H   0  0  0  0  0  0  0  0  0  0  0  0
  151.5241  140.3758  154.8966 H   0  0  0  0  0  0  0  0  0  0  0  0
  152.0931  137.4360  154.0592 H   0  0  0  0  0  0  0  0  0  0  0  0
  153.2764  138.8444  154.0337 H   0  0  0  0  0  0  0  0  0  0  0  0
  152.9515  139.1565  156.5137 H   0  0  0  0  0  0  0  0  0  0  0  0
  151.7776  137.7411  156.5295 H   0  0  0  0  0  0  0  0  0  0  0  0
  1  2  2  0  0  0  0
  2  3  1  0  0  0  0
  2  9  1  0  0  0  0
  3  4  1  0  0  0  0
  3 17  1  0  0  0  0
  4  8  1  0  0  0  0
  4  5  2  0  0  0  0
  5  6  1  0  0  0  0
  6  7  2  0  0  0  0
  7  8  1  0  0  0  0
  7 18  1  0  0  0  0
  9 10  1  0  0  0  0
  9 19  1  0  0  0  0
 10 11  1  0  0  0  0
 10 14  1  0  0  0  0
 10 20  1  0  0  0  0
 11 13  1  0  0  0  0
 11 12  1  0  0  0  0
 11 21  1  0  0  0  0
 12 13  1  0  0  0  0
 12 22  1  0  0  0  0
 12 23  1  0  0  0  0
 13 24  1  0  0  0  0
 13 25  1  0  0  0  0
 14 16  1  0  0  0  0
 14 15  1  0  0  0  0
 14 26  1  0  0  0  0
 15 16  1  0  0  0  0
 15 27  1  0  0  0  0
 15 28  1  0  0  0  0
 16 29  1  0  0  0  0
 16 30  1  0  0  0  0
M  END
> <s_m_source_file>
AV-unprocessed.smi

> <i_m_source_file_index>
624

> <i_lp_mmshare_version>
43012

> <i_f3d_flags>
0

> <s_epik_input>
W0NIMl0xW0NIMl1bQ0hdMVtDSF0oW0NIXTJbQ0gyXVtDSDJdMilbTkhdQyg9TylbTkhdYzNubltjSF1zMw==

> <s_epik_cmdline>
J2VwaWtfcHl0aG9uJywgJy1waCcsICc3LjAnLCAnLXRuJywgJzgnLCAnLW1hJywgJzIwMCcsICctbWV0YWxfYmluZGluZycsICctaW1hZScsICc8aW5maWxlLm1hZT4nLCAnLW9tYWUnLCAnPG91dGZpbGUubWFlPic=

> <r_lp_tautomer_probability>
1

> <r_epik_Ionization_Penalty>
0.000305758

> <r_epik_Ionization_Penalty_Charging>
0

> <r_epik_Ionization_Penalty_Neutral>
0.000305758

> <r_epik_State_Penalty>
-0

> <r_epik_Charging_Adjusted_Penalty>
0

> <i_epik_Tot_Q>
0

> <i_epik_Tot_abs_Q>
0

> <r_epik_Metal_State_Penalty>
0.165203

> <b_epik_Metal_Only>
0

> <s_lp_Force_Field>
OPLS_2005

> <r_lp_Energy>
21.213

> <b_lp_Chiralities_Consistent>
1

> <s_lp_Variant>
AV-unprocessed.smi:624-1

> <Gold.Version>
5.8.1

> <Gold.Id.Protein>
6NUR|6NUR_protein|mol2

> <Gold.PLP.Fitness>
33.5546

> <Gold.PLP.PLP>
-28.3232

> <Gold.PLP.part.hbond>
-2.0307

> <Gold.PLP.part.metal>
0.0000

> <Gold.PLP.part.buried>
-0.3029

> <Gold.PLP.part.nonpolar>
-25.9092

> <Gold.PLP.part.repulsive>
0.0791

> <Gold.PLP.ligand.clash>
0.0000

> <Gold.PLP.ligand.torsion>
1.3801

> <Gold.PLP.Chemscore.Hbond>
1.9600

> <Gold.PLP.Chemscore.CHOScore>
0.0000

> <Gold.PLP.Chemscore.Metal>
0.0000

> <Gold.Chemscore.Hbonds>
donor molecule, donor type, donor heavy atom, donor atom, acceptor molecule, acceptor atom, score
      L1  H     3    17       P1  7948  1.00
      L1  H     9    19       P1  7948  0.96

> <Gold.PLP.Chemscore.Internal.Correction>
2.1117

> <Gold.Rescore>
     Score         DG    S(hbond)    S(metal)    S(lipo)     H(rot)  DE(clash)    DE(int)     intcor
      8.60     -14.04       1.56        0.00      62.04       1.52       1.17       4.27       ----

> <Gold.Chemscore.Fitness>
8.6004

> <Gold.Chemscore.DG>
-14.0426

> <Gold.Chemscore.ZeroCoef>
-5.4800

> <Gold.Chemscore.Hbond>
1.5577

> <Gold.Chemscore.Metal>
0.0000

> <Gold.Chemscore.Lipo>
62.0351

> <Gold.Chemscore.Internal_Hbond>
0.0000

> <Gold.Chemscore.DEClash>
1.1685

> <Gold.Chemscore.DEInternal>
4.2737

> <Gold.Chemscore.Rot>
1.5227

> <Gold.Chemscore.Internal.Correction>
   9.000000E+99

> <Gold.Chemscore.Hbonds>
donor molecule, donor type, donor heavy atom, donor atom, acceptor molecule, acceptor atom, score
      L1  H     3    17       P1  7948  0.35
      L1  H     9    19       P1  7948  0.86

> <Gold.Chemscore.Hbond.Weighted>
-5.2027

> <Gold.Chemscore.Metal.Weighted>
-0.0000

> <Gold.Chemscore.Lipo.Weighted>
-7.2581

> <Gold.Chemscore.Internal_Hbond.Weighted>
0.0000

> <Gold.Chemscore.DEClash.Weighted>
1.1685

> <Gold.Chemscore.DEInternal.Weighted>
4.2737

> <Gold.Chemscore.Rot.Weighted>
3.8982

> <Gold.Chemscore.Internal.Correction.Weighted>
   9.000000E+99

> <Gold.Protein.RotatedTorsions>
[ 6907 6896 6895 6894 ] final   49.45 input  -60.11 | X-H torsion
[ 7974 7965 7964 7962 ] final  124.16 input  175.53 | X-H torsion
[ 8008 7997 7996 7995 ] final  -79.61 input   59.86 | X-H torsion
[ 10167 10162 10161 10158 ] final   94.36 input  -65.29 | X-H torsion
[ 10718 10713 10712 10709 ] final   91.07 input   66.30 | X-H torsion
[ 10763 10752 10751 10750 ] final  -47.77 input  -60.55 | X-H torsion
[ 11005 11000 10999 10996 ] final  -49.68 input  -57.11 | X-H torsion

> <Gold.Protein.ActiveResidues>
 VAL166  LYS551  ARG553  GLY616  TRP617  ASP618  TYR619  PRO620  LYS621  CYS622 
 ASP623  PHE694  ASN695  SER759  ASP760  ASP761  ALA762  ILE779  LEU786  VAL792 
 PHE793  MET794  SER795  GLU796  ALA797  LYS798  CYS799  TRP800  GLU811  SER814 

> <Gold.Protein.RotatedAtoms>
  152.2909  134.7722  160.0377 H   0  0  0  0  0  0  0  0  0  0  0  0  # atno 6907 bound_to 6896
  151.8269  133.3397  159.3609 H   0  0  0  0  0  0  0  0  0  0  0  0  # atno 6908 bound_to 6896
  150.7230  134.5449  159.5810 H   0  0  0  0  0  0  0  0  0  0  0  0  # atno 6909 bound_to 6896
  145.0876  139.3611  143.4877 H   0  0  0  0  0  0  0  0  0  0  0  0  # atno 7974 bound_to 7965
  154.5801  140.0676  156.9092 H   0  0  0  0  0  0  0  0  0  0  0  0  # atno 8008 bound_to 7997
  155.2477  140.3349  155.4267 H   0  0  0  0  0  0  0  0  0  0  0  0  # atno 8009 bound_to 7997
  156.2183  140.1788  156.7522 H   0  0  0  0  0  0  0  0  0  0  0  0  # atno 8010 bound_to 7997
  139.8091  144.6781  150.9664 H   0  0  0  0  0  0  0  0  0  0  0  0  # atno 10167 bound_to 10162
  157.6960  131.0394  150.3673 H   0  0  0  0  0  0  0  0  0  0  0  0  # atno 10718 bound_to 10713
  154.0668  135.6610  153.4819 H   0  0  0  0  0  0  0  0  0  0  0  0  # atno 10763 bound_to 10752
  153.0406  135.5148  154.7605 H   0  0  0  0  0  0  0  0  0  0  0  0  # atno 10764 bound_to 10752
  154.6659  135.3022  154.9773 H   0  0  0  0  0  0  0  0  0  0  0  0  # atno 10765 bound_to 10752
  141.0773  133.6662  156.3620 H   0  0  0  0  0  0  0  0  0  0  0  0  # atno 11005 bound_to 11000
  146.3531  140.0695  142.8624 LP  0  0  0  0  0  0  0  0  0  0  0  0  # atno 17320 bound_to 7965
  145.1104  140.9401  143.4660 LP  0  0  0  0  0  0  0  0  0  0  0  0  # atno 17321 bound_to 7965
  140.7818  143.4203  151.0851 LP  0  0  0  0  0  0  0  0  0  0  0  0  # atno 17342 bound_to 10162
  139.7871  143.8272  152.3146 LP  0  0  0  0  0  0  0  0  0  0  0  0  # atno 17343 bound_to 10162
  156.4102  130.3932  149.6897 LP  0  0  0  0  0  0  0  0  0  0  0  0  # atno 17370 bound_to 10713
  156.4184  130.7756  151.2772 LP  0  0  0  0  0  0  0  0  0  0  0  0  # atno 17371 bound_to 10713
  140.5546  134.5994  157.5417 LP  0  0  0  0  0  0  0  0  0  0  0  0  # atno 17394 bound_to 11000
  139.9585  134.7493  156.0288 LP  0  0  0  0  0  0  0  0  0  0  0  0  # atno 17395 bound_to 11000

$$$$
