AV-unprocessed.smi:3345|AV-procd|sdf|12902|dock1
  -GOLD-   2272019313D 1   1.00000     0.00000
 Structure written by MMmdl.
 40 41  0  0  0  0  0  0  0  0  1 V2000
  152.5934  144.7177  158.0448 C   0  0  0  0  0  0  0  0  0  0  0  0
  152.1715  143.3771  158.6598 C   0  0  1  0  0  0  0  0  0  0  0  0
  152.1551  143.4376  160.2027 C   0  0  0  0  0  0  0  0  0  0  0  0
  152.8142  142.3199  160.8825 N   0  0  0  0  0  0  0  0  0  0  0  0
  153.9584  141.7993  160.1386 C   0  0  0  0  0  0  0  0  0  0  0  0
  154.6304  140.6270  160.8738 C   0  0  0  0  0  0  0  0  0  0  0  0
  155.0179  141.0403  162.1801 O   0  0  0  0  0  0  0  0  0  0  0  0
  153.9217  141.5173  162.9536 C   0  0  0  0  0  0  0  0  0  0  0  0
  153.2474  142.6921  162.2239 C   0  0  0  0  0  0  0  0  0  0  0  0
  150.8422  143.0140  158.1746 N   0  0  0  0  0  0  0  0  0  0  0  0
  150.5422  141.9311  157.4395 C   0  0  0  0  0  0  0  0  0  0  0  0
  151.3921  141.1995  156.9305 O   0  0  0  0  0  0  0  0  0  0  0  0
  149.0464  141.6094  157.3063 C   0  0  1  0  0  0  0  0  0  0  0  0
  148.1454  142.6127  158.0556 C   0  0  0  0  0  0  0  0  0  0  0  0
  148.6985  141.4978  155.8938 N   0  0  0  0  0  0  0  0  0  0  0  0
  149.4847  141.5090  154.8146 C   0  0  0  0  0  0  0  0  0  0  0  0
  148.8255  141.4587  153.6658 N   0  0  0  0  0  0  0  0  0  0  0  0
  147.5449  141.4287  154.1399 C   0  0  0  0  0  0  0  0  0  0  0  0
  147.4118  141.4614  155.4655 N   0  0  0  0  0  0  0  0  0  0  0  0
  153.5878  145.0078  158.3851 H   0  0  0  0  0  0  0  0  0  0  0  0
  151.9026  145.5168  158.3165 H   0  0  0  0  0  0  0  0  0  0  0  0
  152.6226  144.6578  156.9563 H   0  0  0  0  0  0  0  0  0  0  0  0
  152.9081  142.6365  158.3459 H   0  0  0  0  0  0  0  0  0  0  0  0
  152.5943  144.3796  160.5345 H   0  0  0  0  0  0  0  0  0  0  0  0
  151.1118  143.4693  160.5208 H   0  0  0  0  0  0  0  0  0  0  0  0
  153.6475  141.4572  159.1525 H   0  0  0  0  0  0  0  0  0  0  0  0
  154.6890  142.5937  159.9789 H   0  0  0  0  0  0  0  0  0  0  0  0
  153.9529  139.7745  160.9397 H   0  0  0  0  0  0  0  0  0  0  0  0
  155.5131  140.2927  160.3282 H   0  0  0  0  0  0  0  0  0  0  0  0
  153.2102  140.7086  163.1251 H   0  0  0  0  0  0  0  0  0  0  0  0
  154.2855  141.8360  163.9304 H   0  0  0  0  0  0  0  0  0  0  0  0
  153.9431  143.5308  162.1690 H   0  0  0  0  0  0  0  0  0  0  0  0
  152.3921  143.0334  162.8080 H   0  0  0  0  0  0  0  0  0  0  0  0
  150.0727  143.5589  158.5352 H   0  0  0  0  0  0  0  0  0  0  0  0
  148.8829  140.6282  157.7554 H   0  0  0  0  0  0  0  0  0  0  0  0
  148.3829  142.6341  159.1196 H   0  0  0  0  0  0  0  0  0  0  0  0
  147.0950  142.3361  157.9617 H   0  0  0  0  0  0  0  0  0  0  0  0
  148.2541  143.6284  157.6728 H   0  0  0  0  0  0  0  0  0  0  0  0
  150.5618  141.5658  154.8708 H   0  0  0  0  0  0  0  0  0  0  0  0
  146.6845  141.3915  153.4880 H   0  0  0  0  0  0  0  0  0  0  0  0
  1  2  1  0  0  0  0
  1 20  1  0  0  0  0
  1 21  1  0  0  0  0
  1 22  1  0  0  0  0
  2  3  1  0  0  0  0
  2 10  1  0  0  0  0
  2 23  1  0  0  0  0
  3  4  1  0  0  0  0
  3 24  1  0  0  0  0
  3 25  1  0  0  0  0
  4  9  1  0  0  0  0
  4  5  1  0  0  0  0
  5  6  1  0  0  0  0
  5 26  1  0  0  0  0
  5 27  1  0  0  0  0
  6  7  1  0  0  0  0
  6 28  1  0  0  0  0
  6 29  1  0  0  0  0
  7  8  1  0  0  0  0
  8  9  1  0  0  0  0
  8 30  1  0  0  0  0
  8 31  1  0  0  0  0
  9 32  1  0  0  0  0
  9 33  1  0  0  0  0
 10 11  1  0  0  0  0
 10 34  1  0  0  0  0
 11 12  2  0  0  0  0
 11 13  1  0  0  0  0
 13 14  1  0  0  0  0
 13 15  1  0  0  0  0
 13 35  1  0  0  0  0
 14 36  1  0  0  0  0
 14 37  1  0  0  0  0
 14 38  1  0  0  0  0
 15 19  1  0  0  0  0
 15 16  1  0  0  0  0
 16 17  2  0  0  0  0
 16 39  1  0  0  0  0
 17 18  1  0  0  0  0
 18 19  2  0  0  0  0
 18 40  1  0  0  0  0
M  END
> <s_m_source_file>
AV-unprocessed.smi

> <i_m_source_file_index>
3345

> <i_lp_mmshare_version>
43012

> <i_f3d_flags>
0

> <s_epik_input>
W0NIMl0xW0NIMl1PW0NIMl1bQ0gyXU4xW0NIMl1bQ0BASF0oW0NIM10pW05IXUMoPU8pW0NASF0oW0NIM10pbjJbY0hdbltjSF1uMg==

> <s_epik_cmdline>
J2VwaWtfcHl0aG9uJywgJy1waCcsICc3LjAnLCAnLXRuJywgJzgnLCAnLW1hJywgJzIwMCcsICctbWV0YWxfYmluZGluZycsICctaW1hZScsICc8aW5maWxlLm1hZT4nLCAnLW9tYWUnLCAnPG91dGZpbGUubWFlPic=

> <r_lp_tautomer_probability>
1

> <r_epik_Ionization_Penalty>
0.211373

> <r_epik_Ionization_Penalty_Charging>
0

> <r_epik_Ionization_Penalty_Neutral>
0.211373

> <r_epik_State_Penalty>
0.201459

> <r_epik_Charging_Adjusted_Penalty>
0.201459

> <i_epik_Tot_Q>
0

> <i_epik_Tot_abs_Q>
0

> <r_epik_Metal_State_Penalty>
0.201458

> <b_epik_Metal_Only>
0

> <s_lp_Force_Field>
OPLS_2005

> <r_lp_Energy>
29.1888

> <b_lp_Chiralities_Consistent>
1

> <s_lp_Variant>
AV-unprocessed.smi:3345-4

> <Gold.Version>
5.8.1

> <Gold.Id.Protein>
6NUR|6NUR_protein|mol2

> <Gold.PLP.Fitness>
38.7068

> <Gold.PLP.PLP>
-39.2950

> <Gold.PLP.part.hbond>
-2.1475

> <Gold.PLP.part.metal>
0.0000

> <Gold.PLP.part.buried>
-6.0675

> <Gold.PLP.part.nonpolar>
-32.0242

> <Gold.PLP.part.repulsive>
1.5083

> <Gold.PLP.ligand.clash>
0.7568

> <Gold.PLP.ligand.torsion>
1.2722

> <Gold.PLP.Chemscore.Hbond>
0.8160

> <Gold.PLP.Chemscore.CHOScore>
0.0000

> <Gold.PLP.Chemscore.Metal>
0.0000

> <Gold.Chemscore.Hbonds>
donor molecule, donor type, donor heavy atom, donor atom, acceptor molecule, acceptor atom, score
      P1  H  8011  8017       L1    17  0.77

> <Gold.PLP.Chemscore.Internal.Correction>
0.2649

> <Gold.Rescore>
     Score         DG    S(hbond)    S(metal)    S(lipo)     H(rot)  DE(clash)    DE(int)     intcor
      6.90     -10.44       0.57        0.00      81.50       2.54       1.23       2.31       ----

> <Gold.Chemscore.Fitness>
6.8954

> <Gold.Chemscore.DG>
-10.4365

> <Gold.Chemscore.ZeroCoef>
-5.4800

> <Gold.Chemscore.Hbond>
0.5724

> <Gold.Chemscore.Metal>
0.0000

> <Gold.Chemscore.Lipo>
81.4974

> <Gold.Chemscore.Internal_Hbond>
0.0000

> <Gold.Chemscore.DEClash>
1.2340

> <Gold.Chemscore.DEInternal>
2.3071

> <Gold.Chemscore.Rot>
2.5353

> <Gold.Chemscore.Internal.Correction>
   9.000000E+99

> <Gold.Chemscore.Hbonds>
donor molecule, donor type, donor heavy atom, donor atom, acceptor molecule, acceptor atom, score
      P1  H  8011  8017       L1    17  0.58

> <Gold.Chemscore.Hbond.Weighted>
-1.9117

> <Gold.Chemscore.Metal.Weighted>
-0.0000

> <Gold.Chemscore.Lipo.Weighted>
-9.5352

> <Gold.Chemscore.Internal_Hbond.Weighted>
0.0000

> <Gold.Chemscore.DEClash.Weighted>
1.2340

> <Gold.Chemscore.DEInternal.Weighted>
2.3071

> <Gold.Chemscore.Rot.Weighted>
6.4905

> <Gold.Chemscore.Internal.Correction.Weighted>
   9.000000E+99

> <Gold.Protein.RotatedTorsions>
[ 6907 6896 6895 6894 ] final   92.61 input  -60.11 | X-H torsion
[ 7974 7965 7964 7962 ] final -108.69 input  175.53 | X-H torsion
[ 8008 7997 7996 7995 ] final  173.34 input   59.86 | X-H torsion
[ 10167 10162 10161 10158 ] final  142.69 input  -65.29 | X-H torsion
[ 10718 10713 10712 10709 ] final  -41.14 input   66.30 | X-H torsion
[ 10763 10752 10751 10750 ] final  110.07 input  -60.55 | X-H torsion
[ 11005 11000 10999 10996 ] final   99.56 input  -57.11 | X-H torsion

> <Gold.Protein.ActiveResidues>
 VAL166  LYS551  ARG553  GLY616  TRP617  ASP618  TYR619  PRO620  LYS621  CYS622 
 ASP623  PHE694  ASN695  SER759  ASP760  ASP761  ALA762  ILE779  LEU786  VAL792 
 PHE793  MET794  SER795  GLU796  ALA797  LYS798  CYS799  TRP800  GLU811  SER814 

> <Gold.Protein.RotatedAtoms>
  152.5453  134.1476  159.8504 H   0  0  0  0  0  0  0  0  0  0  0  0  # atno 6907 bound_to 6896
  151.1506  133.4903  159.2603 H   0  0  0  0  0  0  0  0  0  0  0  0  # atno 6908 bound_to 6896
  151.1477  135.0222  159.8709 H   0  0  0  0  0  0  0  0  0  0  0  0  # atno 6909 bound_to 6896
  145.1898  140.9009  143.3431 H   0  0  0  0  0  0  0  0  0  0  0  0  # atno 7974 bound_to 7965
  156.1085  140.1463  156.9370 H   0  0  0  0  0  0  0  0  0  0  0  0  # atno 8008 bound_to 7997
  154.4751  140.0897  156.7285 H   0  0  0  0  0  0  0  0  0  0  0  0  # atno 8009 bound_to 7997
  155.4637  140.3439  155.4318 H   0  0  0  0  0  0  0  0  0  0  0  0  # atno 8010 bound_to 7997
  139.4988  144.6090  151.6314 H   0  0  0  0  0  0  0  0  0  0  0  0  # atno 10167 bound_to 10162
  156.2736  130.4209  149.8411 H   0  0  0  0  0  0  0  0  0  0  0  0  # atno 10718 bound_to 10713
  153.4437  135.3760  155.2243 H   0  0  0  0  0  0  0  0  0  0  0  0  # atno 10763 bound_to 10752
  154.8754  135.3869  154.4122 H   0  0  0  0  0  0  0  0  0  0  0  0  # atno 10764 bound_to 10752
  153.4671  135.7087  153.6079 H   0  0  0  0  0  0  0  0  0  0  0  0  # atno 10765 bound_to 10752
  139.8771  134.9101  156.4624 H   0  0  0  0  0  0  0  0  0  0  0  0  # atno 11005 bound_to 11000
  145.0052  139.3560  143.6147 LP  0  0  0  0  0  0  0  0  0  0  0  0  # atno 17320 bound_to 7965
  146.3438  139.9292  142.8756 LP  0  0  0  0  0  0  0  0  0  0  0  0  # atno 17321 bound_to 7965
  140.5759  144.0029  150.6241 LP  0  0  0  0  0  0  0  0  0  0  0  0  # atno 17342 bound_to 10162
  140.3162  143.3166  152.0830 LP  0  0  0  0  0  0  0  0  0  0  0  0  # atno 17343 bound_to 10162
  156.5883  130.8495  151.3401 LP  0  0  0  0  0  0  0  0  0  0  0  0  # atno 17370 bound_to 10713
  157.7292  130.9668  150.1777 LP  0  0  0  0  0  0  0  0  0  0  0  0  # atno 17371 bound_to 10713
  140.8854  133.7887  155.9513 LP  0  0  0  0  0  0  0  0  0  0  0  0  # atno 17394 bound_to 11000
  140.8810  134.2612  157.5144 LP  0  0  0  0  0  0  0  0  0  0  0  0  # atno 17395 bound_to 11000

$$$$
