#       Name:                AV-unprocessed.smi:1042
#       Creating user name   scv26
#       Creation time:       Fri Mar 27 02:56:25 2020


#       File generated by GOLD software.
#

@<TRIPOS>MOLECULE
AV-unprocessed.smi:1042
    43    45     1
SMALL
NO_CHARGES


@<TRIPOS>ATOM
      1 ****        -1.1314   1.6995  -1.1618 O.2            1 S1                 0.0000
      2 ****        -1.5975   0.5999  -1.4616 C.2            1 S1                 0.0000
      3 ****        -0.8417  -0.4825  -1.6985 N.am           1 S1                 0.0000
      4 ****         0.6165  -0.5263  -1.6378 C.3            1 S1                 0.0000
      5 ****         1.1252  -0.9731  -0.2533 C.3            1 S1                 0.0000
      6 ****         0.8292  -0.0078   0.8953 C.3            1 S1                 0.0000
      7 ****         1.8694  -0.3602   1.9637 C.3            1 S1                 0.0000
      8 ****         2.9646  -1.0791   1.2722 N.4            1 S1                 1.0000
      9 ****         4.3160  -0.5650   1.5800 C.3            1 S1                 0.0000
     10 ****         5.3933  -1.6206   1.5130 C.3            1 S1                 0.0000
     11 ****         4.8994  -1.1248   2.8551 C.3            1 S1                 0.0000
     12 ****         2.6464  -1.1003  -0.1707 C.3            1 S1                 0.0000
     13 ****        -2.9061   0.3181  -1.5903 N.am           1 S1                 0.0000
     14 ****        -4.0148   1.1790  -1.3727 C.ar           1 S1                 0.0000
     15 ****        -5.2816   0.5880  -1.5807 C.ar           1 S1                 0.0000
     16 ****        -6.4455   1.3564  -1.3852 C.ar           1 S1                 0.0000
     17 ****        -6.3127   2.6985  -0.9870 C.ar           1 S1                 0.0000
     18 ****        -5.0149   3.2096  -0.8020 C.ar           1 S1                 0.0000
     19 ****        -3.8979   2.4745  -0.9876 N.ar           1 S1                 0.0000
     20 ****        -1.3108  -1.3425  -1.9428 H              1 S1                 0.0000
     21 ****         0.9559  -1.2340  -2.3944 H              1 S1                 0.0000
     22 ****         1.0444   0.4392  -1.9134 H              1 S1                 0.0000
     23 ****         0.6889  -1.9433  -0.0087 H              1 S1                 0.0000
     24 ****         0.9844   1.0207   0.5664 H              1 S1                 0.0000
     25 ****        -0.1938  -0.0879   1.2642 H              1 S1                 0.0000
     26 ****         2.2193   0.5350   2.4801 H              1 S1                 0.0000
     27 ****         1.4415  -1.0265   2.7131 H              1 S1                 0.0000
     28 ****         4.5251   0.4610   1.2820 H              1 S1                 0.0000
     29 ****         5.1101  -2.6285   1.2144 H              1 S1                 0.0000
     30 ****         6.3860  -1.3045   1.1992 H              1 S1                 0.0000
     31 ****         5.5677  -0.4828   3.4254 H              1 S1                 0.0000
     32 ****         4.2871  -1.8017   3.4479 H              1 S1                 0.0000
     33 ****         3.0176  -2.0085  -0.6464 H              1 S1                 0.0000
     34 ****         3.1172  -0.2471  -0.6628 H              1 S1                 0.0000
     35 ****        -3.1380  -0.6269  -1.8583 H              1 S1                 0.0000
     36 ****        -5.3659  -0.4450  -1.8860 H              1 S1                 0.0000
     37 ****        -7.4228   0.9228  -1.5381 H              1 S1                 0.0000
     38 ****        -7.1816   3.3194  -0.8274 H              1 S1                 0.0000
     39 ****        -4.8691   4.2350  -0.4963 H              1 S1                 0.0000
     40 ****         2.9217  -2.0359   1.5929 H              1 S1                 0.0000
     41 ****        -0.1416   1.8187  -1.0843 LP             1 S1                 0.0000
     42 ****        -1.7427   2.4732  -0.9959 LP             1 S1                 0.0000
     43 ****        -2.9953   2.8800  -0.8430 LP             1 S1                 0.0000
@<TRIPOS>BOND
    1    1    2 2     
    2    2    3 am    
    3    2   13 am    
    4    3    4 1     
    5    3   20 1     
    6    4    5 1     
    7    4   21 1     
    8    4   22 1     
    9    5   12 1     
   10    5    6 1     
   11    5   23 1     
   12    6    7 1     
   13    6   24 1     
   14    6   25 1     
   15    7    8 1     
   16    7   26 1     
   17    7   27 1     
   18    8    9 1     
   19    8   12 1     
   20    8   40 1     
   21    9   11 1     
   22    9   10 1     
   23    9   28 1     
   24   10   11 1     
   25   10   29 1     
   26   10   30 1     
   27   11   31 1     
   28   11   32 1     
   29   12   33 1     
   30   12   34 1     
   31   13   14 1     
   32   13   35 1     
   33   14   19 ar    
   34   14   15 ar    
   35   15   16 ar    
   36   15   36 1     
   37   16   17 ar    
   38   16   37 1     
   39   17   18 ar    
   40   17   38 1     
   41   18   19 ar    
   42   18   39 1     
   43    1   41 1     
   44    1   42 1     
   45   19   43 1     
@<TRIPOS>SUBSTRUCTURE
      1 S1             1
@<TRIPOS>SET
LONE_PAIRS      STATIC     ATOMS    <user>   **** ""
3 41 42 43
DONOR_HYDROGENS      STATIC     ATOMS    <user>   **** ""
3 20 40 35
ATOM$BLUE        STATIC     ATOMS    COLORGROUP SYSTEM
3 41 42 43
ATOM$RED        STATIC     ATOMS    COLORGROUP SYSTEM
3 20 40 35
