AV-unprocessed.smi:1191|AV-procd|sdf|4985|dock7
  -GOLD-   22720 3583D 1   1.00000     0.00000
 Structure written by MMmdl.
 47 48  0  0  0  0  0  0  0  0  2 V2000
  147.7572  141.4895  154.4086 C   0  0  0  0  0  0  0  0  0  0  0  0
  148.9488  140.6762  154.8216 C   0  0  0  0  0  0  0  0  0  0  0  0
  149.7178  140.7807  156.0143 C   0  0  0  0  0  0  0  0  0  0  0  0
  150.6769  139.8160  155.8842 C   0  0  0  0  0  0  0  0  0  0  0  0
  151.7851  139.4275  156.8071 C   0  0  0  0  0  0  0  0  0  0  0  0
  150.4570  139.1936  154.6678 N   0  0  0  0  0  0  0  0  0  0  0  0
  151.1899  138.0981  154.0508 C   0  0  0  0  0  0  0  0  0  0  0  0
  151.0186  136.7957  154.8353 C   0  0  0  0  0  0  0  0  0  0  0  0
  151.6123  136.6358  155.9015 O   0  0  0  0  0  0  0  0  0  0  0  0
  150.2074  135.8711  154.2980 N   0  0  0  0  0  0  0  0  0  0  0  0
  149.9110  134.5721  154.8881 C   0  0  0  0  0  0  0  0  0  0  0  0
  149.4244  133.5662  153.8268 C   0  0  0  0  0  0  0  0  0  0  0  0
  148.0952  133.9284  153.2745 N   0  3  2  0  0  0  0  0  0  0  0  0
  147.1953  134.5067  154.3056 C   0  0  0  0  0  0  0  0  0  0  0  0
  145.8914  135.0227  153.6763 C   0  0  0  0  0  0  0  0  0  0  0  0
  145.1834  133.9141  152.8842 C   0  0  0  0  0  0  0  0  0  0  0  0
  146.1323  133.2660  151.8589 C   0  0  1  0  0  0  0  0  0  0  0  0
  146.3998  134.1668  150.6402 C   0  0  0  0  0  0  0  0  0  0  0  0
  147.4379  132.8107  152.5433 C   0  0  0  0  0  0  0  0  0  0  0  0
  149.3943  139.7217  154.0214 N   0  0  0  0  0  0  0  0  0  0  0  0
  147.5733  142.3032  155.1105 H   0  0  0  0  0  0  0  0  0  0  0  0
  146.8574  140.8754  154.3693 H   0  0  0  0  0  0  0  0  0  0  0  0
  147.9041  141.9309  153.4225 H   0  0  0  0  0  0  0  0  0  0  0  0
  149.5860  141.4633  156.8408 H   0  0  0  0  0  0  0  0  0  0  0  0
  151.7665  140.0324  157.7138 H   0  0  0  0  0  0  0  0  0  0  0  0
  152.7553  139.5686  156.3308 H   0  0  0  0  0  0  0  0  0  0  0  0
  151.6995  138.3812  157.1011 H   0  0  0  0  0  0  0  0  0  0  0  0
  150.8416  137.9575  153.0263 H   0  0  0  0  0  0  0  0  0  0  0  0
  152.2455  138.3662  153.9918 H   0  0  0  0  0  0  0  0  0  0  0  0
  149.7611  136.0895  153.4181 H   0  0  0  0  0  0  0  0  0  0  0  0
  150.8205  134.2009  155.3610 H   0  0  0  0  0  0  0  0  0  0  0  0
  149.1790  134.7044  155.6848 H   0  0  0  0  0  0  0  0  0  0  0  0
  150.1434  133.4702  153.0119 H   0  0  0  0  0  0  0  0  0  0  0  0
  149.3637  132.5845  154.2993 H   0  0  0  0  0  0  0  0  0  0  0  0
  146.9774  133.7529  155.0642 H   0  0  0  0  0  0  0  0  0  0  0  0
  147.6949  135.3328  154.8132 H   0  0  0  0  0  0  0  0  0  0  0  0
  145.2285  135.4017  154.4546 H   0  0  0  0  0  0  0  0  0  0  0  0
  146.1077  135.8679  153.0222 H   0  0  0  0  0  0  0  0  0  0  0  0
  144.8309  133.1506  153.5792 H   0  0  0  0  0  0  0  0  0  0  0  0
  144.2953  134.3090  152.3895 H   0  0  0  0  0  0  0  0  0  0  0  0
  145.6345  132.3737  151.4768 H   0  0  0  0  0  0  0  0  0  0  0  0
  146.9275  135.0800  150.9155 H   0  0  0  0  0  0  0  0  0  0  0  0
  145.4676  134.4563  150.1542 H   0  0  0  0  0  0  0  0  0  0  0  0
  147.0070  133.6482  149.8978 H   0  0  0  0  0  0  0  0  0  0  0  0
  148.1074  132.3921  151.7930 H   0  0  0  0  0  0  0  0  0  0  0  0
  147.2234  132.0042  153.2466 H   0  0  0  0  0  0  0  0  0  0  0  0
  148.2583  134.6643  152.6021 H   0  0  0  0  0  0  0  0  0  0  0  0
  1  2  1  0  0  0  0
  1 21  1  0  0  0  0
  1 22  1  0  0  0  0
  1 23  1  0  0  0  0
  2 20  2  0  0  0  0
  2  3  1  0  0  0  0
  3  4  2  0  0  0  0
  3 24  1  0  0  0  0
  4  5  1  0  0  0  0
  4  6  1  0  0  0  0
  5 25  1  0  0  0  0
  5 26  1  0  0  0  0
  5 27  1  0  0  0  0
  6  7  1  0  0  0  0
  6 20  1  0  0  0  0
  7  8  1  0  0  0  0
  7 28  1  0  0  0  0
  7 29  1  0  0  0  0
  8  9  2  0  0  0  0
  8 10  1  0  0  0  0
 10 11  1  0  0  0  0
 10 30  1  0  0  0  0
 11 12  1  0  0  0  0
 11 31  1  0  0  0  0
 11 32  1  0  0  0  0
 12 13  1  0  0  0  0
 12 33  1  0  0  0  0
 12 34  1  0  0  0  0
 13 19  1  0  0  0  0
 13 14  1  0  0  0  0
 13 47  1  0  0  0  0
 14 15  1  0  0  0  0
 14 35  1  0  0  0  0
 14 36  1  0  0  0  0
 15 16  1  0  0  0  0
 15 37  1  0  0  0  0
 15 38  1  0  0  0  0
 16 17  1  0  0  0  0
 16 39  1  0  0  0  0
 16 40  1  0  0  0  0
 17 18  1  0  0  0  0
 17 19  1  0  0  0  0
 17 41  1  0  0  0  0
 18 42  1  0  0  0  0
 18 43  1  0  0  0  0
 18 44  1  0  0  0  0
 19 45  1  0  0  0  0
 19 46  1  0  0  0  0
M  CHG  1  13   1
M  END
> <s_m_source_file>
AV-unprocessed.smi

> <i_m_source_file_index>
1191

> <i_lp_mmshare_version>
43012

> <i_f3d_flags>
0

> <s_epik_input>
W0NIM11jMVtjSF1jKFtDSDNdKW4objEpW0NIMl1DKD1PKVtOSF1bQ0gyXVtDSDJdTjJbQ0gyXVtDSDJdW0NIMl1bQ0BASF0oW0NIM10pW0NIMl0y

> <s_epik_cmdline>
J2VwaWtfcHl0aG9uJywgJy1waCcsICc3LjAnLCAnLXRuJywgJzgnLCAnLW1hJywgJzIwMCcsICctbWV0YWxfYmluZGluZycsICctaW1hZScsICc8aW5maWxlLm1hZT4nLCAnLW9tYWUnLCAnPG91dGZpbGUubWFlPic=

> <r_lp_tautomer_probability>
1

> <r_epik_Ionization_Penalty>
0.00249932

> <r_epik_Ionization_Penalty_Charging>
0.00230623

> <r_epik_Ionization_Penalty_Neutral>
0.000193092

> <r_epik_State_Penalty>
-0

> <r_epik_Charging_Adjusted_Penalty>
0.00230623

> <i_epik_Tot_Q>
1

> <i_epik_Tot_abs_Q>
1

> <r_epik_Metal_State_Penalty>
-0

> <b_epik_Metal_Only>
0

> <s_lp_Force_Field>
OPLS_2005

> <r_lp_Energy>
16.5378

> <b_lp_Chiralities_Consistent>
1

> <s_lp_Variant>
AV-unprocessed.smi:1191-2

> <Gold.Version>
5.8.1

> <Gold.Id.Protein>
6NUR|6NUR_protein|mol2

> <Gold.PLP.Fitness>
44.8845

> <Gold.PLP.PLP>
-34.6256

> <Gold.PLP.part.hbond>
-4.6092

> <Gold.PLP.part.metal>
0.0000

> <Gold.PLP.part.buried>
-3.2733

> <Gold.PLP.part.nonpolar>
-28.5543

> <Gold.PLP.part.repulsive>
1.5935

> <Gold.PLP.ligand.clash>
0.0000

> <Gold.PLP.ligand.torsion>
0.5889

> <Gold.PLP.Chemscore.Hbond>
3.7968

> <Gold.PLP.Chemscore.CHOScore>
0.0000

> <Gold.PLP.Chemscore.Metal>
0.0000

> <Gold.Chemscore.Hbonds>
donor molecule, donor type, donor heavy atom, donor atom, acceptor molecule, acceptor atom, score
      L1  H    10    30       P1  7948  0.80
      L1  H    13    47       P1  7948  2.00
      P1  H 10752 10763       L1     9  0.56

> <Gold.PLP.Chemscore.Internal.Correction>
0.0462

> <Gold.Rescore>
     Score         DG    S(hbond)    S(metal)    S(lipo)     H(rot)  DE(clash)    DE(int)     intcor
     15.33     -16.42       2.12        0.00      69.54       1.67       0.26       0.83       ----

> <Gold.Chemscore.Fitness>
15.3265

> <Gold.Chemscore.DG>
-16.4182

> <Gold.Chemscore.ZeroCoef>
-5.4800

> <Gold.Chemscore.Hbond>
2.1156

> <Gold.Chemscore.Metal>
0.0000

> <Gold.Chemscore.Lipo>
69.5402

> <Gold.Chemscore.Internal_Hbond>
0.0000

> <Gold.Chemscore.DEClash>
0.2579

> <Gold.Chemscore.DEInternal>
0.8338

> <Gold.Chemscore.Rot>
1.6657

> <Gold.Chemscore.Internal.Correction>
   9.000000E+99

> <Gold.Chemscore.Hbonds>
donor molecule, donor type, donor heavy atom, donor atom, acceptor molecule, acceptor atom, score
      L1  H    10    30       P1  7948  0.12
      L1  H    13    47       P1  7948  0.39
      P1  H 10752 10763       L1     9  0.11

> <Gold.Chemscore.Hbond.Weighted>
-7.0661

> <Gold.Chemscore.Metal.Weighted>
-0.0000

> <Gold.Chemscore.Lipo.Weighted>
-8.1362

> <Gold.Chemscore.Internal_Hbond.Weighted>
0.0000

> <Gold.Chemscore.DEClash.Weighted>
0.2579

> <Gold.Chemscore.DEInternal.Weighted>
0.8338

> <Gold.Chemscore.Rot.Weighted>
4.2641

> <Gold.Chemscore.Internal.Correction.Weighted>
   9.000000E+99

> <Gold.Protein.RotatedTorsions>
[ 6907 6896 6895 6894 ] final  -72.02 input  -60.11 | X-H torsion
[ 7974 7965 7964 7962 ] final -135.52 input  175.53 | X-H torsion
[ 8008 7997 7996 7995 ] final  -51.67 input   59.86 | X-H torsion
[ 10167 10162 10161 10158 ] final   36.36 input  -65.29 | X-H torsion
[ 10718 10713 10712 10709 ] final    8.44 input   66.30 | X-H torsion
[ 10763 10752 10751 10750 ] final  100.76 input  -60.55 | X-H torsion
[ 11005 11000 10999 10996 ] final  174.86 input  -57.11 | X-H torsion

> <Gold.Protein.ActiveResidues>
 VAL166  LYS551  ARG553  GLY616  TRP617  ASP618  TYR619  PRO620  LYS621  CYS622 
 ASP623  PHE694  ASN695  SER759  ASP760  ASP761  ALA762  ILE779  LEU786  VAL792 
 PHE793  MET794  SER795  GLU796  ALA797  LYS798  CYS799  TRP800  GLU811  SER814 

> <Gold.Protein.RotatedAtoms>
  150.7187  134.5223  159.5659 H   0  0  0  0  0  0  0  0  0  0  0  0  # atno 6907 bound_to 6896
  152.2775  134.7862  160.0412 H   0  0  0  0  0  0  0  0  0  0  0  0  # atno 6908 bound_to 6896
  151.8520  133.3406  159.3713 H   0  0  0  0  0  0  0  0  0  0  0  0  # atno 6909 bound_to 6896
  144.9007  140.6766  143.5087 H   0  0  0  0  0  0  0  0  0  0  0  0  # atno 7974 bound_to 7965
  154.4088  140.1242  156.4866 H   0  0  0  0  0  0  0  0  0  0  0  0  # atno 8008 bound_to 7997
  155.7032  140.3494  155.4922 H   0  0  0  0  0  0  0  0  0  0  0  0  # atno 8009 bound_to 7997
  155.9367  140.1079  157.1079 H   0  0  0  0  0  0  0  0  0  0  0  0  # atno 8010 bound_to 7997
  140.4135  144.1559  150.6141 H   0  0  0  0  0  0  0  0  0  0  0  0  # atno 10167 bound_to 10162
  156.9517  130.5899  149.5657 H   0  0  0  0  0  0  0  0  0  0  0  0  # atno 10718 bound_to 10713
  153.3180  135.4068  155.1393 H   0  0  0  0  0  0  0  0  0  0  0  0  # atno 10763 bound_to 10752
  154.8593  135.3580  154.5634 H   0  0  0  0  0  0  0  0  0  0  0  0  # atno 10764 bound_to 10752
  153.6066  135.7069  153.5422 H   0  0  0  0  0  0  0  0  0  0  0  0  # atno 10765 bound_to 10752
  140.3559  134.7154  157.4299 H   0  0  0  0  0  0  0  0  0  0  0  0  # atno 11005 bound_to 11000
  145.3622  139.1679  143.4377 LP  0  0  0  0  0  0  0  0  0  0  0  0  # atno 17320 bound_to 7965
  146.3106  140.3686  142.8672 LP  0  0  0  0  0  0  0  0  0  0  0  0  # atno 17321 bound_to 7965
  140.4612  143.2448  151.9217 LP  0  0  0  0  0  0  0  0  0  0  0  0  # atno 17342 bound_to 10162
  139.4782  144.5466  151.8449 LP  0  0  0  0  0  0  0  0  0  0  0  0  # atno 17343 bound_to 10162
  156.0360  130.5447  150.8654 LP  0  0  0  0  0  0  0  0  0  0  0  0  # atno 17370 bound_to 10713
  157.5717  131.0946  150.9407 LP  0  0  0  0  0  0  0  0  0  0  0  0  # atno 17371 bound_to 10713
  140.0665  134.5922  155.8689 LP  0  0  0  0  0  0  0  0  0  0  0  0  # atno 17394 bound_to 11000
  141.1998  133.6609  156.5865 LP  0  0  0  0  0  0  0  0  0  0  0  0  # atno 17395 bound_to 11000

$$$$
