AV-unprocessed.smi:1900|AV-procd|sdf|7709|dock5
  -GOLD-   22720 9443D 1   1.00000     0.00000
 Structure written by MMmdl.
 44 45  0  0  0  0  0  0  0  0  2 V2000
  149.9122  140.8024  157.1307 C   0  0  0  0  0  0  0  0  0  0  0  0
  150.3798  141.2008  155.7195 C   0  0  2  0  0  0  0  0  0  0  0  0
  149.2242  141.5753  154.7706 C   0  0  0  0  0  0  0  0  0  0  0  0
  148.4745  140.3731  154.3343 N   0  3  1  0  0  0  0  0  0  0  0  0
  147.3203  140.7146  153.4657 C   0  0  0  0  0  0  0  0  0  0  0  0
  146.9922  139.6034  152.4541 C   0  0  0  0  0  0  0  0  0  0  0  0
  146.2694  138.4163  153.1132 C   0  0  0  0  0  0  0  0  0  0  0  0
  146.5531  137.1586  152.4310 N   0  0  0  0  0  0  0  0  0  0  0  0
  145.6239  136.3255  151.9406 C   0  0  0  0  0  0  0  0  0  0  0  0
  144.4146  136.5518  151.9913 O   0  0  0  0  0  0  0  0  0  0  0  0
  146.1832  135.2313  151.3986 N   0  0  0  0  0  0  0  0  0  0  0  0
  145.5174  134.1360  150.7922 C   0  0  0  0  0  0  0  0  0  0  0  0
  146.1273  132.8913  150.4780 C   0  0  0  0  0  0  0  0  0  0  0  0
  145.2635  132.0570  149.9175 N   0  0  0  0  0  0  0  0  0  0  0  0
  144.1085  132.7581  149.8687 N   0  0  0  0  0  0  0  0  0  0  0  0
  144.2157  134.0286  150.3899 C   0  0  0  0  0  0  0  0  0  0  0  0
  149.3995  139.3838  153.7301 C   0  0  0  0  0  0  0  0  0  0  0  0
  150.5201  139.0189  154.7204 C   0  0  1  0  0  0  0  0  0  0  0  0
  151.5477  138.0673  154.0977 C   0  0  0  0  0  0  0  0  0  0  0  0
  151.2056  140.2024  155.1208 O   0  0  0  0  0  0  0  0  0  0  0  0
  143.2644  132.3600  149.4820 H   0  0  0  0  0  0  0  0  0  0  0  0
  149.3995  141.6333  157.6159 H   0  0  0  0  0  0  0  0  0  0  0  0
  150.7607  140.5289  157.7584 H   0  0  0  0  0  0  0  0  0  0  0  0
  149.2209  139.9605  157.1169 H   0  0  0  0  0  0  0  0  0  0  0  0
  151.0109  142.0823  155.8355 H   0  0  0  0  0  0  0  0  0  0  0  0
  148.5536  142.2801  155.2639 H   0  0  0  0  0  0  0  0  0  0  0  0
  149.6223  142.0826  153.8903 H   0  0  0  0  0  0  0  0  0  0  0  0
  146.4397  140.8705  154.0907 H   0  0  0  0  0  0  0  0  0  0  0  0
  147.5072  141.6605  152.9551 H   0  0  0  0  0  0  0  0  0  0  0  0
  146.3691  139.9995  151.6528 H   0  0  0  0  0  0  0  0  0  0  0  0
  147.9128  139.2529  151.9856 H   0  0  0  0  0  0  0  0  0  0  0  0
  146.5881  138.3162  154.1511 H   0  0  0  0  0  0  0  0  0  0  0  0
  145.1921  138.5894  153.1351 H   0  0  0  0  0  0  0  0  0  0  0  0
  147.5236  136.8927  152.3463 H   0  0  0  0  0  0  0  0  0  0  0  0
  147.1902  135.1687  151.4321 H   0  0  0  0  0  0  0  0  0  0  0  0
  147.1468  132.5719  150.6365 H   0  0  0  0  0  0  0  0  0  0  0  0
  143.3805  134.7121  150.4228 H   0  0  0  0  0  0  0  0  0  0  0  0
  148.8610  138.4786  153.4524 H   0  0  0  0  0  0  0  0  0  0  0  0
  149.8247  139.7951  152.8130 H   0  0  0  0  0  0  0  0  0  0  0  0
  150.0916  138.5273  155.5941 H   0  0  0  0  0  0  0  0  0  0  0  0
  151.0786  137.1356  153.7803 H   0  0  0  0  0  0  0  0  0  0  0  0
  152.3313  137.8168  154.8132 H   0  0  0  0  0  0  0  0  0  0  0  0
  152.0246  138.5160  153.2258 H   0  0  0  0  0  0  0  0  0  0  0  0
  148.0952  139.9549  155.1717 H   0  0  0  0  0  0  0  0  0  0  0  0
  1  2  1  0  0  0  0
  1 22  1  0  0  0  0
  1 23  1  0  0  0  0
  1 24  1  0  0  0  0
  2 20  1  0  0  0  0
  2  3  1  0  0  0  0
  2 25  1  0  0  0  0
  3  4  1  0  0  0  0
  3 26  1  0  0  0  0
  3 27  1  0  0  0  0
  4  5  1  0  0  0  0
  4 17  1  0  0  0  0
  4 44  1  0  0  0  0
  5  6  1  0  0  0  0
  5 28  1  0  0  0  0
  5 29  1  0  0  0  0
  6  7  1  0  0  0  0
  6 30  1  0  0  0  0
  6 31  1  0  0  0  0
  7  8  1  0  0  0  0
  7 32  1  0  0  0  0
  7 33  1  0  0  0  0
  8  9  1  0  0  0  0
  8 34  1  0  0  0  0
  9 10  2  0  0  0  0
  9 11  1  0  0  0  0
 11 12  1  0  0  0  0
 11 35  1  0  0  0  0
 12 16  2  0  0  0  0
 12 13  1  0  0  0  0
 13 14  2  0  0  0  0
 13 36  1  0  0  0  0
 14 15  1  0  0  0  0
 15 21  1  0  0  0  0
 15 16  1  0  0  0  0
 16 37  1  0  0  0  0
 17 18  1  0  0  0  0
 17 38  1  0  0  0  0
 17 39  1  0  0  0  0
 18 19  1  0  0  0  0
 18 20  1  0  0  0  0
 18 40  1  0  0  0  0
 19 41  1  0  0  0  0
 19 42  1  0  0  0  0
 19 43  1  0  0  0  0
M  CHG  1   4   1
M  END
> <s_m_source_file>
AV-unprocessed.smi

> <i_m_source_file_index>
1900

> <i_lp_mmshare_version>
43012

> <i_f3d_flags>
0

> <s_epik_input>
W0NIM11bQ0BASF0xW0NIMl1OKFtDSDJdW0NASF0oTzEpW0NIM10pW0NIMl1bQ0gyXVtDSDJdW05IXUMoPU8pW05IXWMyW2NIXW5bbkhdW2NIXTI=

> <s_epik_cmdline>
J2VwaWtfcHl0aG9uJywgJy1waCcsICc3LjAnLCAnLXRuJywgJzgnLCAnLW1hJywgJzIwMCcsICctbWV0YWxfYmluZGluZycsICctaW1hZScsICc8aW5maWxlLm1hZT4nLCAnLW9tYWUnLCAnPG91dGZpbGUubWFlPic=

> <r_lp_tautomer_probability>
0.5

> <r_epik_Ionization_Penalty>
0.270543

> <r_epik_Ionization_Penalty_Charging>
0.270496

> <r_epik_Ionization_Penalty_Neutral>
4.67091e-05

> <r_epik_State_Penalty>
0.262618

> <r_epik_Charging_Adjusted_Penalty>
0.533114

> <i_epik_Tot_Q>
1

> <i_epik_Tot_abs_Q>
1

> <r_epik_Metal_State_Penalty>
0.262618

> <b_epik_Metal_Only>
0

> <s_lp_Force_Field>
OPLS_2005

> <r_lp_Energy>
21.2497

> <b_lp_Chiralities_Consistent>
1

> <s_lp_Variant>
AV-unprocessed.smi:1900-1

> <Gold.Version>
5.8.1

> <Gold.Id.Protein>
6NUR|6NUR_protein|mol2

> <Gold.PLP.Fitness>
46.4126

> <Gold.PLP.PLP>
-33.9053

> <Gold.PLP.part.hbond>
-3.0000

> <Gold.PLP.part.metal>
0.0000

> <Gold.PLP.part.buried>
-2.2200

> <Gold.PLP.part.nonpolar>
-30.1822

> <Gold.PLP.part.repulsive>
1.2054

> <Gold.PLP.ligand.clash>
0.6027

> <Gold.PLP.ligand.torsion>
0.7218

> <Gold.PLP.Chemscore.Hbond>
2.8892

> <Gold.PLP.Chemscore.CHOScore>
1.9531

> <Gold.PLP.Chemscore.Metal>
0.0000

> <Gold.Chemscore.Hbonds>
donor molecule, donor type, donor heavy atom, donor atom, acceptor molecule, acceptor atom, score
      L1  H     8    34       P1  7948  1.00
      L1  H    11    35       P1  7948  0.86
      P1  H  7989  7998       L1    20  1.00
      L1  C    13    36       P1 10747  1.00
      L1  C    16    37       P1 10186  0.99

> <Gold.PLP.Chemscore.Internal.Correction>
0.0268

> <Gold.Rescore>
     Score         DG    S(hbond)    S(metal)    S(lipo)     H(rot)  DE(clash)    DE(int)     intcor
     14.38     -17.17       2.08        0.00      82.78       1.93       1.06       1.73       ----

> <Gold.Chemscore.Fitness>
14.3819

> <Gold.Chemscore.DG>
-17.1741

> <Gold.Chemscore.ZeroCoef>
-5.4800

> <Gold.Chemscore.Hbond>
2.0845

> <Gold.Chemscore.Metal>
0.0000

> <Gold.Chemscore.Lipo>
82.7757

> <Gold.Chemscore.Internal_Hbond>
0.0000

> <Gold.Chemscore.DEClash>
1.0593

> <Gold.Chemscore.DEInternal>
1.7329

> <Gold.Chemscore.Rot>
1.9347

> <Gold.Chemscore.Internal.Correction>
   9.000000E+99

> <Gold.Chemscore.Hbonds>
donor molecule, donor type, donor heavy atom, donor atom, acceptor molecule, acceptor atom, score
      L1  H     8    34       P1  7948  0.99
      L1  H    11    35       P1  7948  0.69
      P1  H  7989  7998       L1    20  0.13

> <Gold.Chemscore.Hbond.Weighted>
-6.9622

> <Gold.Chemscore.Metal.Weighted>
-0.0000

> <Gold.Chemscore.Lipo.Weighted>
-9.6848

> <Gold.Chemscore.Internal_Hbond.Weighted>
0.0000

> <Gold.Chemscore.DEClash.Weighted>
1.0593

> <Gold.Chemscore.DEInternal.Weighted>
1.7329

> <Gold.Chemscore.Rot.Weighted>
4.9528

> <Gold.Chemscore.Internal.Correction.Weighted>
   9.000000E+99

> <Gold.Protein.RotatedTorsions>
[ 6907 6896 6895 6894 ] final  124.99 input  -60.11 | X-H torsion
[ 7974 7965 7964 7962 ] final    4.71 input  175.53 | X-H torsion
[ 8008 7997 7996 7995 ] final -153.09 input   59.86 | X-H torsion
[ 10167 10162 10161 10158 ] final   -1.70 input  -65.29 | X-H torsion
[ 10718 10713 10712 10709 ] final  -65.54 input   66.30 | X-H torsion
[ 10763 10752 10751 10750 ] final  139.35 input  -60.55 | X-H torsion
[ 11005 11000 10999 10996 ] final   94.75 input  -57.11 | X-H torsion

> <Gold.Protein.ActiveResidues>
 VAL166  LYS551  ARG553  GLY616  TRP617  ASP618  TYR619  PRO620  LYS621  CYS622 
 ASP623  PHE694  ASN695  SER759  ASP760  ASP761  ALA762  ILE779  LEU786  VAL792 
 PHE793  MET794  SER795  GLU796  ALA797  LYS798  CYS799  TRP800  GLU811  SER814 

> <Gold.Protein.RotatedAtoms>
  152.4031  133.6847  159.6332 H   0  0  0  0  0  0  0  0  0  0  0  0  # atno 6907 bound_to 6896
  150.7919  133.8757  159.3280 H   0  0  0  0  0  0  0  0  0  0  0  0  # atno 6908 bound_to 6896
  151.6518  135.1002  160.0213 H   0  0  0  0  0  0  0  0  0  0  0  0  # atno 6909 bound_to 6896
  146.2443  140.0493  142.8376 H   0  0  0  0  0  0  0  0  0  0  0  0  # atno 7974 bound_to 7965
  155.6653  140.0727  157.2539 H   0  0  0  0  0  0  0  0  0  0  0  0  # atno 8008 bound_to 7997
  154.4134  140.1709  156.1872 H   0  0  0  0  0  0  0  0  0  0  0  0  # atno 8009 bound_to 7997
  155.9662  140.3366  155.6538 H   0  0  0  0  0  0  0  0  0  0  0  0  # atno 8010 bound_to 7997
  140.6821  143.6744  150.8158 H   0  0  0  0  0  0  0  0  0  0  0  0  # atno 10167 bound_to 10162
  156.0664  130.4249  150.1579 H   0  0  0  0  0  0  0  0  0  0  0  0  # atno 10718 bound_to 10713
  153.9046  135.3018  155.3448 H   0  0  0  0  0  0  0  0  0  0  0  0  # atno 10763 bound_to 10752
  154.7653  135.4913  153.9546 H   0  0  0  0  0  0  0  0  0  0  0  0  # atno 10764 bound_to 10752
  153.1226  135.6785  153.9411 H   0  0  0  0  0  0  0  0  0  0  0  0  # atno 10765 bound_to 10752
  139.8795  134.8862  156.3910 H   0  0  0  0  0  0  0  0  0  0  0  0  # atno 11005 bound_to 11000
  145.0998  140.9338  143.4719 LP  0  0  0  0  0  0  0  0  0  0  0  0  # atno 17320 bound_to 7965
  145.0684  139.3051  143.5845 LP  0  0  0  0  0  0  0  0  0  0  0  0  # atno 17321 bound_to 7965
  140.0446  143.5311  152.2702 LP  0  0  0  0  0  0  0  0  0  0  0  0  # atno 17342 bound_to 10162
  139.6151  144.7617  151.2865 LP  0  0  0  0  0  0  0  0  0  0  0  0  # atno 17343 bound_to 10162
  156.9638  130.9813  151.3473 LP  0  0  0  0  0  0  0  0  0  0  0  0  # atno 17370 bound_to 10713
  157.5708  130.8309  149.8388 LP  0  0  0  0  0  0  0  0  0  0  0  0  # atno 17371 bound_to 10713
  140.9333  133.7564  156.0052 LP  0  0  0  0  0  0  0  0  0  0  0  0  # atno 17394 bound_to 11000
  140.8305  134.3183  157.5350 LP  0  0  0  0  0  0  0  0  0  0  0  0  # atno 17395 bound_to 11000

$$$$
