#       Name:                AV-unprocessed.smi:1738
#       Creating user name   scv26
#       Creation time:       Fri Mar 27 08:21:13 2020


#       File generated by GOLD software.
#

@<TRIPOS>MOLECULE
AV-unprocessed.smi:1738
    49    51     1
SMALL
NO_CHARGES


@<TRIPOS>ATOM
      1 ****        -7.7216   1.4558  -1.3367 C.3            1 S1                 0.0000
      2 ****        -7.1186  -0.2762  -1.2024 S.o2           1 S1                 0.0000
      3 ****        -7.5991  -0.8236   0.0761 O.2            1 S1                 0.0000
      4 ****        -7.4381  -0.9750  -2.4570 O.2            1 S1                 0.0000
      5 ****        -5.3402  -0.1020  -1.1070 C.ar           1 S1                 0.0000
      6 ****        -4.6684  -0.2922   0.1170 C.ar           1 S1                 0.0000
      7 ****        -3.2726  -0.1095   0.1446 C.ar           1 S1                 0.0000
      8 ****        -2.6070   0.2725  -1.0473 C.ar           1 S1                 0.0000
      9 ****        -1.2042   0.4763  -1.1655 N.am           1 S1                 0.0000
     10 ****        -0.2743   0.5786  -0.2000 C.2            1 S1                 0.0000
     11 ****        -0.4900   0.5361   1.0103 O.2            1 S1                 0.0000
     12 ****         0.9482   0.7462  -0.7240 N.am           1 S1                 0.0000
     13 ****         2.1812   0.8901   0.0457 C.3            1 S1                 0.0000
     14 ****         3.2385   1.7268  -0.6649 C.3            1 S1                 0.0000
     15 ****         4.5185   1.3167   0.0658 C.3            1 S1                 0.0000
     16 ****         4.3411  -0.1079   0.4310 N.4            1 S1                 1.0000
     17 ****         4.9514  -0.4929   1.7271 C.3            1 S1                 0.0000
     18 ****         4.7331  -1.9910   2.0091 C.3            1 S1                 0.0000
     19 ****         3.2654  -2.4331   1.8313 C.3            1 S1                 0.0000
     20 ****         2.3402  -1.2618   1.4663 C.3            1 S1                 0.0000
     21 ****         2.8988  -0.4513   0.2743 C.3            1 S1                 0.0000
     22 ****        -3.3886   0.4417  -2.2109 C.ar           1 S1                 0.0000
     23 ****        -4.7263   0.2703  -2.2498 N.ar           1 S1                 0.0000
     24 ****        -8.8092   1.4564  -1.4028 H              1 S1                 0.0000
     25 ****        -7.3036   1.9188  -2.2305 H              1 S1                 0.0000
     26 ****        -7.4103   2.0183  -0.4569 H              1 S1                 0.0000
     27 ****        -5.2016  -0.5760   1.0122 H              1 S1                 0.0000
     28 ****        -2.7516  -0.2747   1.0738 H              1 S1                 0.0000
     29 ****        -0.8688   0.5849  -2.1115 H              1 S1                 0.0000
     30 ****         1.0320   0.7766  -1.7298 H              1 S1                 0.0000
     31 ****         1.9738   1.3667   1.0066 H              1 S1                 0.0000
     32 ****         3.3041   1.4490  -1.7181 H              1 S1                 0.0000
     33 ****         3.0440   2.7983  -0.6072 H              1 S1                 0.0000
     34 ****         5.4122   1.4640  -0.5411 H              1 S1                 0.0000
     35 ****         4.6254   1.9219   0.9677 H              1 S1                 0.0000
     36 ****         6.0185  -0.2686   1.7083 H              1 S1                 0.0000
     37 ****         4.5195   0.1067   2.5300 H              1 S1                 0.0000
     38 ****         5.3644  -2.5790   1.3417 H              1 S1                 0.0000
     39 ****         5.0706  -2.2219   3.0200 H              1 S1                 0.0000
     40 ****         3.2122  -3.1875   1.0454 H              1 S1                 0.0000
     41 ****         2.9068  -2.9188   2.7394 H              1 S1                 0.0000
     42 ****         1.3439  -1.6377   1.2321 H              1 S1                 0.0000
     43 ****         2.2201  -0.6147   2.3364 H              1 S1                 0.0000
     44 ****         2.8313  -1.0575  -0.6307 H              1 S1                 0.0000
     45 ****        -2.9251   0.7284  -3.1439 H              1 S1                 0.0000
     46 ****         4.8218  -0.6463  -0.2755 H              1 S1                 0.0000
     47 ****        -1.4236   0.4162   1.3479 LP             1 S1                 0.0000
     48 ****         0.2683   0.6213   1.6566 LP             1 S1                 0.0000
     49 ****        -5.2434   0.4137  -3.0936 LP             1 S1                 0.0000
@<TRIPOS>BOND
    1    1    2 1     
    2    1   24 1     
    3    1   25 1     
    4    1   26 1     
    5    2    3 2     
    6    2    4 2     
    7    2    5 1     
    8    5   23 ar    
    9    5    6 ar    
   10    6    7 ar    
   11    6   27 1     
   12    7    8 ar    
   13    7   28 1     
   14    8    9 1     
   15    8   22 ar    
   16    9   10 am    
   17    9   29 1     
   18   10   11 2     
   19   10   12 am    
   20   12   13 1     
   21   12   30 1     
   22   13   21 1     
   23   13   14 1     
   24   13   31 1     
   25   14   15 1     
   26   14   32 1     
   27   14   33 1     
   28   15   16 1     
   29   15   34 1     
   30   15   35 1     
   31   16   21 1     
   32   16   17 1     
   33   16   46 1     
   34   17   18 1     
   35   17   36 1     
   36   17   37 1     
   37   18   19 1     
   38   18   38 1     
   39   18   39 1     
   40   19   20 1     
   41   19   40 1     
   42   19   41 1     
   43   20   21 1     
   44   20   42 1     
   45   20   43 1     
   46   21   44 1     
   47   22   23 ar    
   48   22   45 1     
   49   11   47 1     
   50   11   48 1     
   51   23   49 1     
@<TRIPOS>SUBSTRUCTURE
      1 S1             1
@<TRIPOS>SET
LONE_PAIRS      STATIC     ATOMS    <user>   **** ""
5 3 4 47 48 49
DONOR_HYDROGENS      STATIC     ATOMS    <user>   **** ""
3 29 30 46
ATOM$BLUE        STATIC     ATOMS    COLORGROUP SYSTEM
5 3 4 47 48 49
ATOM$RED        STATIC     ATOMS    COLORGROUP SYSTEM
3 29 30 46
