AV-unprocessed.smi:2195|AV-procd|sdf|8906|dock9
  -GOLD-   2272012123D 1   1.00000     0.00000
 Structure written by MMmdl.
 40 42  0  0  0  0  0  0  0  0  2 V2000
  146.1691  132.8024  161.9635 C   0  0  0  0  0  0  0  0  0  0  0  0
  146.9194  134.0217  161.4680 C   0  0  0  0  0  0  0  0  0  0  0  0
  147.1140  135.1332  162.3117 C   0  0  0  0  0  0  0  0  0  0  0  0
  147.8132  136.2618  161.8425 C   0  0  0  0  0  0  0  0  0  0  0  0
  148.3273  136.2996  160.5300 C   0  0  0  0  0  0  0  0  0  0  0  0
  148.9991  137.4431  160.1550 O   0  0  0  0  0  0  0  0  0  0  0  0
  149.6623  137.4547  158.8969 C   0  0  0  0  0  0  0  0  0  0  0  0
  149.5748  138.8561  158.2700 C   0  0  2  0  0  0  0  0  0  0  0  0
  148.8254  138.7864  157.0730 O   0  0  0  0  0  0  0  0  0  0  0  0
  150.9502  139.5180  158.0481 C   0  0  0  0  0  0  0  0  0  0  0  0
  150.8494  140.9390  157.6871 N   0  0  0  0  0  0  0  0  0  0  0  0
  150.0889  141.5410  156.7328 C   0  0  0  0  0  0  0  0  0  0  0  0
  150.3382  142.8786  156.7902 N   0  3  0  0  0  0  0  0  0  0  0  0
  151.2732  143.1359  157.7952 C   0  0  0  0  0  0  0  0  0  0  0  0
  151.8379  144.3312  158.2296 C   0  0  0  0  0  0  0  0  0  0  0  0
  152.7699  144.2444  159.2845 C   0  0  0  0  0  0  0  0  0  0  0  0
  153.1096  143.0049  159.8644 C   0  0  0  0  0  0  0  0  0  0  0  0
  152.5302  141.7994  159.4168 C   0  0  0  0  0  0  0  0  0  0  0  0
  151.6079  141.8935  158.3750 C   0  0  0  0  0  0  0  0  0  0  0  0
  148.1258  135.1788  159.6854 C   0  0  0  0  0  0  0  0  0  0  0  0
  147.4260  134.0497  160.1539 C   0  0  0  0  0  0  0  0  0  0  0  0
  145.9489  132.8770  163.0287 H   0  0  0  0  0  0  0  0  0  0  0  0
  146.7611  131.9010  161.8026 H   0  0  0  0  0  0  0  0  0  0  0  0
  145.2264  132.6952  161.4265 H   0  0  0  0  0  0  0  0  0  0  0  0
  146.7290  135.1259  163.3208 H   0  0  0  0  0  0  0  0  0  0  0  0
  147.9579  137.1082  162.4978 H   0  0  0  0  0  0  0  0  0  0  0  0
  150.7048  137.1482  158.9994 H   0  0  0  0  0  0  0  0  0  0  0  0
  149.1720  136.7437  158.2300 H   0  0  0  0  0  0  0  0  0  0  0  0
  148.9970  139.4842  158.9491 H   0  0  0  0  0  0  0  0  0  0  0  0
  149.2996  138.2547  156.4519 H   0  0  0  0  0  0  0  0  0  0  0  0
  151.5370  139.4623  158.9658 H   0  0  0  0  0  0  0  0  0  0  0  0
  151.5294  138.9976  157.2848 H   0  0  0  0  0  0  0  0  0  0  0  0
  149.4086  141.0470  156.0541 H   0  0  0  0  0  0  0  0  0  0  0  0
  151.5811  145.2820  157.7858 H   0  0  0  0  0  0  0  0  0  0  0  0
  153.2348  145.1463  159.6554 H   0  0  0  0  0  0  0  0  0  0  0  0
  153.8305  142.9771  160.6686 H   0  0  0  0  0  0  0  0  0  0  0  0
  152.8025  140.8545  159.8636 H   0  0  0  0  0  0  0  0  0  0  0  0
  148.4982  135.1591  158.6724 H   0  0  0  0  0  0  0  0  0  0  0  0
  147.2786  133.2032  159.4992 H   0  0  0  0  0  0  0  0  0  0  0  0
  149.9007  143.5632  156.1868 H   0  0  0  0  0  0  0  0  0  0  0  0
  1  2  1  0  0  0  0
  1 22  1  0  0  0  0
  1 23  1  0  0  0  0
  1 24  1  0  0  0  0
  2 21  1  0  0  0  0
  2  3  2  0  0  0  0
  3  4  1  0  0  0  0
  3 25  1  0  0  0  0
  4  5  2  0  0  0  0
  4 26  1  0  0  0  0
  5  6  1  0  0  0  0
  5 20  1  0  0  0  0
  6  7  1  0  0  0  0
  7  8  1  0  0  0  0
  7 27  1  0  0  0  0
  7 28  1  0  0  0  0
  8  9  1  0  0  0  0
  8 10  1  0  0  0  0
  8 29  1  0  0  0  0
  9 30  1  0  0  0  0
 10 11  1  0  0  0  0
 10 31  1  0  0  0  0
 10 32  1  0  0  0  0
 11 19  1  0  0  0  0
 11 12  1  0  0  0  0
 12 13  2  0  0  0  0
 12 33  1  0  0  0  0
 13 14  1  0  0  0  0
 13 40  1  0  0  0  0
 14 19  2  0  0  0  0
 14 15  1  0  0  0  0
 15 16  2  0  0  0  0
 15 34  1  0  0  0  0
 16 17  1  0  0  0  0
 16 35  1  0  0  0  0
 17 18  2  0  0  0  0
 17 36  1  0  0  0  0
 18 19  1  0  0  0  0
 18 37  1  0  0  0  0
 20 21  2  0  0  0  0
 20 38  1  0  0  0  0
 21 39  1  0  0  0  0
M  CHG  1  13   1
M  END
> <s_m_source_file>
AV-unprocessed.smi

> <i_m_source_file_index>
2195

> <i_lp_mmshare_version>
43012

> <i_f3d_flags>
0

> <s_epik_input>
W0NIM11jMVtjSF1bY0hdYyhbY0hdW2NIXTEpT1tDSDJdW0NASF0oW09IXSlbQ0gyXW4oW2NIXW4yKWMoYzIzKVtjSF1bY0hdW2NIXVtjSF0z

> <s_epik_cmdline>
J2VwaWtfcHl0aG9uJywgJy1waCcsICc3LjAnLCAnLXRuJywgJzgnLCAnLW1hJywgJzIwMCcsICctbWV0YWxfYmluZGluZycsICctaW1hZScsICc8aW5maWxlLm1hZT4nLCAnLW9tYWUnLCAnPG91dGZpbGUubWFlPic=

> <r_lp_tautomer_probability>
1

> <r_epik_Ionization_Penalty>
1.3774

> <r_epik_Ionization_Penalty_Charging>
1.37739

> <r_epik_Ionization_Penalty_Neutral>
2.3993e-06

> <r_epik_State_Penalty>
1.45762

> <r_epik_Charging_Adjusted_Penalty>
2.83501

> <i_epik_Tot_Q>
1

> <i_epik_Tot_abs_Q>
1

> <r_epik_Metal_State_Penalty>
5.49752

> <b_epik_Metal_Only>
0

> <s_lp_Force_Field>
OPLS_2005

> <r_lp_Energy>
21.3932

> <b_lp_Chiralities_Consistent>
1

> <s_lp_Variant>
AV-unprocessed.smi:2195-3

> <Gold.Version>
5.8.1

> <Gold.Id.Protein>
6NUR|6NUR_protein|mol2

> <Gold.PLP.Fitness>
52.5041

> <Gold.PLP.PLP>
-47.7421

> <Gold.PLP.part.hbond>
-2.9483

> <Gold.PLP.part.metal>
0.0000

> <Gold.PLP.part.buried>
-5.2447

> <Gold.PLP.part.nonpolar>
-40.6353

> <Gold.PLP.part.repulsive>
0.0554

> <Gold.PLP.ligand.clash>
0.0000

> <Gold.PLP.ligand.torsion>
1.1616

> <Gold.PLP.Chemscore.Hbond>
2.3440

> <Gold.PLP.Chemscore.CHOScore>
0.0000

> <Gold.PLP.Chemscore.Metal>
0.0000

> <Gold.Chemscore.Hbonds>
donor molecule, donor type, donor heavy atom, donor atom, acceptor molecule, acceptor atom, score
      L1  H    13    40       P1  8028  2.00
      P1  H  6931  6943       L1     6  0.36

> <Gold.PLP.Chemscore.Internal.Correction>
0.0533

> <Gold.Rescore>
     Score         DG    S(hbond)    S(metal)    S(lipo)     H(rot)  DE(clash)    DE(int)     intcor
     17.00     -18.26       1.06        0.00     128.73       2.27       0.05       1.21       ----

> <Gold.Chemscore.Fitness>
16.9952

> <Gold.Chemscore.DG>
-18.2559

> <Gold.Chemscore.ZeroCoef>
-5.4800

> <Gold.Chemscore.Hbond>
1.0575

> <Gold.Chemscore.Metal>
0.0000

> <Gold.Chemscore.Lipo>
128.7266

> <Gold.Chemscore.Internal_Hbond>
0.0000

> <Gold.Chemscore.DEClash>
0.0491

> <Gold.Chemscore.DEInternal>
1.2116

> <Gold.Chemscore.Rot>
2.2723

> <Gold.Chemscore.Internal.Correction>
   9.000000E+99

> <Gold.Chemscore.Hbonds>
donor molecule, donor type, donor heavy atom, donor atom, acceptor molecule, acceptor atom, score
      L1  H    13    40       P1  8028  0.99
      P1  H  6931  6943       L1     6  0.07

> <Gold.Chemscore.Hbond.Weighted>
-3.5319

> <Gold.Chemscore.Metal.Weighted>
-0.0000

> <Gold.Chemscore.Lipo.Weighted>
-15.0610

> <Gold.Chemscore.Internal_Hbond.Weighted>
0.0000

> <Gold.Chemscore.DEClash.Weighted>
0.0491

> <Gold.Chemscore.DEInternal.Weighted>
1.2116

> <Gold.Chemscore.Rot.Weighted>
5.8170

> <Gold.Chemscore.Internal.Correction.Weighted>
   9.000000E+99

> <Gold.Protein.RotatedTorsions>
[ 6907 6896 6895 6894 ] final   57.98 input  -60.11 | X-H torsion
[ 7974 7965 7964 7962 ] final -154.15 input  175.53 | X-H torsion
[ 8008 7997 7996 7995 ] final -125.47 input   59.86 | X-H torsion
[ 10167 10162 10161 10158 ] final  136.95 input  -65.29 | X-H torsion
[ 10718 10713 10712 10709 ] final -161.15 input   66.30 | X-H torsion
[ 10763 10752 10751 10750 ] final    2.70 input  -60.55 | X-H torsion
[ 11005 11000 10999 10996 ] final   -3.49 input  -57.11 | X-H torsion

> <Gold.Protein.ActiveResidues>
 VAL166  LYS551  ARG553  GLY616  TRP617  ASP618  TYR619  PRO620  LYS621  CYS622 
 ASP623  PHE694  ASN695  SER759  ASP760  ASP761  ALA762  ILE779  LEU786  VAL792 
 PHE793  MET794  SER795  GLU796  ALA797  LYS798  CYS799  TRP800  GLU811  SER814 

> <Gold.Protein.RotatedAtoms>
  152.3782  134.6631  160.0152 H   0  0  0  0  0  0  0  0  0  0  0  0  # atno 6907 bound_to 6896
  151.6902  133.3305  159.3249 H   0  0  0  0  0  0  0  0  0  0  0  0  # atno 6908 bound_to 6896
  150.7726  134.6640  159.6400 H   0  0  0  0  0  0  0  0  0  0  0  0  # atno 6909 bound_to 6896
  144.7704  140.4428  143.5911 H   0  0  0  0  0  0  0  0  0  0  0  0  # atno 7974 bound_to 7965
  155.2139  140.0420  157.2938 H   0  0  0  0  0  0  0  0  0  0  0  0  # atno 8008 bound_to 7997
  154.5994  140.2448  155.7784 H   0  0  0  0  0  0  0  0  0  0  0  0  # atno 8009 bound_to 7997
  156.2311  140.2938  156.0200 H   0  0  0  0  0  0  0  0  0  0  0  0  # atno 8010 bound_to 7997
  139.5161  144.6437  151.5500 H   0  0  0  0  0  0  0  0  0  0  0  0  # atno 10167 bound_to 10162
  156.5922  130.8775  151.2893 H   0  0  0  0  0  0  0  0  0  0  0  0  # atno 10718 bound_to 10713
  153.2923  135.6949  153.7281 H   0  0  0  0  0  0  0  0  0  0  0  0  # atno 10763 bound_to 10752
  153.6227  135.3424  155.3017 H   0  0  0  0  0  0  0  0  0  0  0  0  # atno 10764 bound_to 10752
  154.8527  135.4390  154.2009 H   0  0  0  0  0  0  0  0  0  0  0  0  # atno 10765 bound_to 10752
  140.6699  133.9245  155.8488 H   0  0  0  0  0  0  0  0  0  0  0  0  # atno 11005 bound_to 11000
  145.6342  139.1540  143.2952 LP  0  0  0  0  0  0  0  0  0  0  0  0  # atno 17320 bound_to 7965
  146.1846  140.6443  142.9173 LP  0  0  0  0  0  0  0  0  0  0  0  0  # atno 17321 bound_to 7965
  140.6213  143.9253  150.6528 LP  0  0  0  0  0  0  0  0  0  0  0  0  # atno 17342 bound_to 10162
  140.2527  143.3581  152.1391 LP  0  0  0  0  0  0  0  0  0  0  0  0  # atno 17343 bound_to 10162
  157.7301  130.9680  150.1816 LP  0  0  0  0  0  0  0  0  0  0  0  0  # atno 17370 bound_to 10713
  156.2540  130.3703  149.8202 LP  0  0  0  0  0  0  0  0  0  0  0  0  # atno 17371 bound_to 10713
  141.0400  134.0635  157.3913 LP  0  0  0  0  0  0  0  0  0  0  0  0  # atno 17394 bound_to 11000
  139.8985  135.0155  156.7151 LP  0  0  0  0  0  0  0  0  0  0  0  0  # atno 17395 bound_to 11000

$$$$
