AV-unprocessed.smi:200|AV-procd|sdf|1579|dock8
  -GOLD-   2262019463D 1   1.00000     0.00000
 Structure written by MMmdl.
 56 59  0  0  0  0  0  0  0  0  1 V2000
  150.8831  131.8479  156.6133 C   0  0  0  0  0  0  0  0  0  0  0  0
  150.2287  132.2436  157.8057 O   0  0  0  0  0  0  0  0  0  0  0  0
  148.8466  132.4920  157.6106 C   0  0  0  0  0  0  0  0  0  0  0  0
  148.4709  133.8100  158.3106 C   0  0  0  0  0  0  0  0  0  0  0  0
  147.0592  133.8847  158.7044 N   0  0  0  0  0  0  0  0  0  0  0  0
  146.1752  134.2070  157.7309 C   0  0  0  0  0  0  0  0  0  0  0  0
  144.8616  133.9974  157.9949 N   0  0  0  0  0  0  0  0  0  0  0  0
  143.9391  134.2901  157.0739 C   0  0  0  0  0  0  0  0  0  0  0  0
  144.1114  134.7993  155.8524 N   0  0  0  0  0  0  0  0  0  0  0  0
  145.4298  135.0275  155.5896 C   0  0  0  0  0  0  0  0  0  0  0  0
  146.5206  134.7603  156.4648 C   0  0  0  0  0  0  0  0  0  0  0  0
  147.7151  135.1243  155.8553 N   0  0  0  0  0  0  0  0  0  0  0  0
  147.3525  135.5741  154.6858 C   0  0  0  0  0  0  0  0  0  0  0  0
  145.9970  135.5617  154.4457 N   0  0  0  0  0  0  0  0  0  0  0  0
  145.3295  136.0098  153.2328 C   0  0  0  0  0  0  0  0  0  0  0  0
  145.0776  134.8942  152.1964 C   0  0  0  0  0  0  0  0  0  0  0  0
  144.3996  135.4561  150.9337 C   0  0  0  0  0  0  0  0  0  0  0  0
  145.2499  136.3500  150.2439 O   0  0  0  0  0  0  0  0  0  0  0  0
  146.2639  133.9584  151.9261 C   0  0  0  0  0  0  0  0  0  0  0  0
  145.4550  132.7814  152.1335 O   0  0  0  0  0  0  0  0  0  0  0  0
  144.4370  133.6071  152.7365 C   0  0  0  0  0  0  0  0  0  0  0  0
  146.6805  134.4507  160.0035 C   0  0  1  0  0  0  0  0  0  0  0  0
  147.1336  133.6447  161.2235 C   0  0  0  0  0  0  0  0  0  0  0  0
  146.9406  134.6371  162.3679 C   0  0  0  0  0  0  0  0  0  0  0  0
  147.3734  135.9932  161.7872 C   0  0  2  0  0  0  0  0  0  0  0  0
  146.6473  137.1869  162.4218 C   0  0  0  0  0  0  0  0  0  0  0  0
  147.1744  135.8847  160.2626 C   0  0  0  0  0  0  0  0  0  0  0  0
  151.9405  131.6775  156.8153 H   0  0  0  0  0  0  0  0  0  0  0  0
  150.8063  132.6194  155.8460 H   0  0  0  0  0  0  0  0  0  0  0  0
  150.4613  130.9210  156.2226 H   0  0  0  0  0  0  0  0  0  0  0  0
  148.6471  132.5847  156.5422 H   0  0  0  0  0  0  0  0  0  0  0  0
  148.2452  131.6570  157.9728 H   0  0  0  0  0  0  0  0  0  0  0  0
  149.1074  133.9253  159.1858 H   0  0  0  0  0  0  0  0  0  0  0  0
  148.7138  134.6464  157.6572 H   0  0  0  0  0  0  0  0  0  0  0  0
  142.9164  134.0878  157.3564 H   0  0  0  0  0  0  0  0  0  0  0  0
  148.0686  135.9395  153.9638 H   0  0  0  0  0  0  0  0  0  0  0  0
  144.3874  136.4794  153.5185 H   0  0  0  0  0  0  0  0  0  0  0  0
  145.9310  136.8090  152.7981 H   0  0  0  0  0  0  0  0  0  0  0  0
  144.1403  134.6487  150.2481 H   0  0  0  0  0  0  0  0  0  0  0  0
  143.4623  135.9608  151.1688 H   0  0  0  0  0  0  0  0  0  0  0  0
  144.9167  137.2274  150.3561 H   0  0  0  0  0  0  0  0  0  0  0  0
  146.6618  134.0221  150.9127 H   0  0  0  0  0  0  0  0  0  0  0  0
  147.0646  134.0341  152.6637 H   0  0  0  0  0  0  0  0  0  0  0  0
  144.4492  133.5214  153.8239 H   0  0  0  0  0  0  0  0  0  0  0  0
  143.4405  133.4057  152.3420 H   0  0  0  0  0  0  0  0  0  0  0  0
  145.5900  134.4778  160.0552 H   0  0  0  0  0  0  0  0  0  0  0  0
  146.5558  132.7301  161.3588 H   0  0  0  0  0  0  0  0  0  0  0  0
  148.1864  133.3717  161.1645 H   0  0  0  0  0  0  0  0  0  0  0  0
  145.8860  134.6639  162.6467 H   0  0  0  0  0  0  0  0  0  0  0  0
  147.5090  134.3641  163.2576 H   0  0  0  0  0  0  0  0  0  0  0  0
  148.4425  136.1073  161.9728 H   0  0  0  0  0  0  0  0  0  0  0  0
  145.5707  137.1282  162.2592 H   0  0  0  0  0  0  0  0  0  0  0  0
  146.9980  138.1280  161.9972 H   0  0  0  0  0  0  0  0  0  0  0  0
  146.8214  137.2230  163.4975 H   0  0  0  0  0  0  0  0  0  0  0  0
  148.1239  136.0829  159.7652 H   0  0  0  0  0  0  0  0  0  0  0  0
  146.4581  136.6127  159.8796 H   0  0  0  0  0  0  0  0  0  0  0  0
  1  2  1  0  0  0  0
  1 28  1  0  0  0  0
  1 29  1  0  0  0  0
  1 30  1  0  0  0  0
  2  3  1  0  0  0  0
  3  4  1  0  0  0  0
  3 31  1  0  0  0  0
  3 32  1  0  0  0  0
  4  5  1  0  0  0  0
  4 33  1  0  0  0  0
  4 34  1  0  0  0  0
  5  6  1  0  0  0  0
  5 22  1  0  0  0  0
  6 11  1  0  0  0  0
  6  7  2  0  0  0  0
  7  8  1  0  0  0  0
  8  9  2  0  0  0  0
  8 35  1  0  0  0  0
  9 10  1  0  0  0  0
 10 14  1  0  0  0  0
 10 11  2  0  0  0  0
 11 12  1  0  0  0  0
 12 13  2  0  0  0  0
 13 14  1  0  0  0  0
 13 36  1  0  0  0  0
 14 15  1  0  0  0  0
 15 16  1  0  0  0  0
 15 37  1  0  0  0  0
 15 38  1  0  0  0  0
 16 21  1  0  0  0  0
 16 17  1  0  0  0  0
 16 19  1  0  0  0  0
 17 18  1  0  0  0  0
 17 39  1  0  0  0  0
 17 40  1  0  0  0  0
 18 41  1  0  0  0  0
 19 20  1  0  0  0  0
 19 42  1  0  0  0  0
 19 43  1  0  0  0  0
 20 21  1  0  0  0  0
 21 44  1  0  0  0  0
 21 45  1  0  0  0  0
 22 27  1  0  0  0  0
 22 23  1  0  0  0  0
 22 46  1  0  0  0  0
 23 24  1  0  0  0  0
 23 47  1  0  0  0  0
 23 48  1  0  0  0  0
 24 25  1  0  0  0  0
 24 49  1  0  0  0  0
 24 50  1  0  0  0  0
 25 26  1  0  0  0  0
 25 27  1  0  0  0  0
 25 51  1  0  0  0  0
 26 52  1  0  0  0  0
 26 53  1  0  0  0  0
 26 54  1  0  0  0  0
 27 55  1  0  0  0  0
 27 56  1  0  0  0  0
M  END
> <s_m_source_file>
AV-unprocessed.smi

> <i_m_source_file_index>
200

> <i_lp_mmshare_version>
43012

> <i_f3d_flags>
0

> <s_epik_input>
W0NIM11bQ0BASF0oW0NIMl0xKVtDSDJdW0NIMl1bQ0BIXTFOKFtDSDJdW0NIMl1PW0NIM10pYyhuW2NIXW4yKWMoYzIzKW5bY0hdbjNbQ0gyXUM0KFtDSDJdW09IXSlbQ0gyXU9bQ0gyXTQ=

> <s_epik_cmdline>
J2VwaWtfcHl0aG9uJywgJy1waCcsICc3LjAnLCAnLXRuJywgJzgnLCAnLW1hJywgJzIwMCcsICctbWV0YWxfYmluZGluZycsICctaW1hZScsICc8aW5maWxlLm1hZT4nLCAnLW9tYWUnLCAnPG91dGZpbGUubWFlPic=

> <r_lp_tautomer_probability>
1

> <r_epik_Ionization_Penalty>
0.00363087

> <r_epik_Ionization_Penalty_Charging>
0

> <r_epik_Ionization_Penalty_Neutral>
0.00363087

> <r_epik_State_Penalty>
0.0024341

> <r_epik_Charging_Adjusted_Penalty>
0.0024341

> <i_epik_Tot_Q>
0

> <i_epik_Tot_abs_Q>
0

> <r_epik_Metal_State_Penalty>
-0

> <b_epik_Metal_Only>
0

> <s_lp_Force_Field>
OPLS_2005

> <r_lp_Energy>
49.9898

> <b_lp_Chiralities_Consistent>
1

> <s_lp_Variant>
AV-unprocessed.smi:200-4

> <Gold.Version>
5.8.1

> <Gold.Id.Protein>
6NUR|6NUR_protein|mol2

> <Gold.PLP.Fitness>
38.2464

> <Gold.PLP.PLP>
-30.5557

> <Gold.PLP.part.hbond>
-3.0000

> <Gold.PLP.part.metal>
0.0000

> <Gold.PLP.part.buried>
-3.7525

> <Gold.PLP.part.nonpolar>
-23.8719

> <Gold.PLP.part.repulsive>
0.2477

> <Gold.PLP.ligand.clash>
0.0000

> <Gold.PLP.ligand.torsion>
2.0295

> <Gold.PLP.Chemscore.Hbond>
1.9920

> <Gold.PLP.Chemscore.CHOScore>
1.4672

> <Gold.PLP.Chemscore.Metal>
0.0000

> <Gold.Chemscore.Hbonds>
donor molecule, donor type, donor heavy atom, donor atom, acceptor molecule, acceptor atom, score
      L1  H    18    41       P1 10171  0.99
      P1  H  6896  6907       L1     2  0.64
      L1  C     8    35       P1 11000  0.79
      L1  C    13    36       P1  7948  1.00

> <Gold.PLP.Chemscore.Internal.Correction>
1.3720

> <Gold.Rescore>
     Score         DG    S(hbond)    S(metal)    S(lipo)     H(rot)  DE(clash)    DE(int)     intcor
      8.58     -11.65       1.82        0.00      72.28       3.28       0.01       3.05       ----

> <Gold.Chemscore.Fitness>
8.5802

> <Gold.Chemscore.DG>
-11.6455

> <Gold.Chemscore.ZeroCoef>
-5.4800

> <Gold.Chemscore.Hbond>
1.8249

> <Gold.Chemscore.Metal>
0.0000

> <Gold.Chemscore.Lipo>
72.2834

> <Gold.Chemscore.Internal_Hbond>
0.0000

> <Gold.Chemscore.DEClash>
0.0121

> <Gold.Chemscore.DEInternal>
3.0531

> <Gold.Chemscore.Rot>
3.2761

> <Gold.Chemscore.Internal.Correction>
   9.000000E+99

> <Gold.Chemscore.Hbonds>
donor molecule, donor type, donor heavy atom, donor atom, acceptor molecule, acceptor atom, score
      L1  H    18    41       P1 10171  0.94
      P1  H  6896  6907       L1     2  0.57

> <Gold.Chemscore.Hbond.Weighted>
-6.0951

> <Gold.Chemscore.Metal.Weighted>
-0.0000

> <Gold.Chemscore.Lipo.Weighted>
-8.4572

> <Gold.Chemscore.Internal_Hbond.Weighted>
0.0000

> <Gold.Chemscore.DEClash.Weighted>
0.0121

> <Gold.Chemscore.DEInternal.Weighted>
3.0531

> <Gold.Chemscore.Rot.Weighted>
8.3868

> <Gold.Chemscore.Internal.Correction.Weighted>
   9.000000E+99

> <Gold.Protein.RotatedTorsions>
[ 6907 6896 6895 6894 ] final -168.57 input  -60.11 | X-H torsion
[ 7974 7965 7964 7962 ] final    0.52 input  175.53 | X-H torsion
[ 8008 7997 7996 7995 ] final -151.72 input   59.86 | X-H torsion
[ 10167 10162 10161 10158 ] final  109.05 input  -65.29 | X-H torsion
[ 10718 10713 10712 10709 ] final  -24.62 input   66.30 | X-H torsion
[ 10763 10752 10751 10750 ] final  -79.35 input  -60.55 | X-H torsion
[ 11005 11000 10999 10996 ] final   37.58 input  -57.11 | X-H torsion

> <Gold.Protein.ActiveResidues>
 VAL166  LYS551  ARG553  GLY616  TRP617  ASP618  TYR619  PRO620  LYS621  CYS622 
 ASP623  PHE694  ASN695  SER759  ASP760  ASP761  ALA762  ILE779  LEU786  VAL792 
 PHE793  MET794  SER795  GLU796  ALA797  LYS798  CYS799  TRP800  GLU811  SER814 

> <Gold.Protein.RotatedAtoms>
  151.4777  133.3554  159.2833 H   0  0  0  0  0  0  0  0  0  0  0  0  # atno 6907 bound_to 6896
  150.8918  134.8324  159.7309 H   0  0  0  0  0  0  0  0  0  0  0  0  # atno 6908 bound_to 6896
  152.4827  134.4688  159.9680 H   0  0  0  0  0  0  0  0  0  0  0  0  # atno 6909 bound_to 6896
  146.2435  140.1125  142.8343 H   0  0  0  0  0  0  0  0  0  0  0  0  # atno 7974 bound_to 7965
  155.6438  140.0704  157.2610 H   0  0  0  0  0  0  0  0  0  0  0  0  # atno 8008 bound_to 7997
  154.4178  140.1745  156.1651 H   0  0  0  0  0  0  0  0  0  0  0  0  # atno 8009 bound_to 7997
  155.9834  140.3352  155.6687 H   0  0  0  0  0  0  0  0  0  0  0  0  # atno 8010 bound_to 7997
  139.6797  144.7119  151.1538 H   0  0  0  0  0  0  0  0  0  0  0  0  # atno 10167 bound_to 10162
  156.4752  130.4533  149.6844 H   0  0  0  0  0  0  0  0  0  0  0  0  # atno 10718 bound_to 10713
  154.5375  135.5698  153.6811 H   0  0  0  0  0  0  0  0  0  0  0  0  # atno 10763 bound_to 10752
  152.9955  135.6219  154.2547 H   0  0  0  0  0  0  0  0  0  0  0  0  # atno 10764 bound_to 10752
  154.2476  135.2860  155.2809 H   0  0  0  0  0  0  0  0  0  0  0  0  # atno 10765 bound_to 10752
  140.2211  134.3639  155.8004 H   0  0  0  0  0  0  0  0  0  0  0  0  # atno 11005 bound_to 11000
  145.0475  140.8992  143.5015 LP  0  0  0  0  0  0  0  0  0  0  0  0  # atno 17320 bound_to 7965
  145.1217  139.2689  143.5585 LP  0  0  0  0  0  0  0  0  0  0  0  0  # atno 17321 bound_to 7965
  140.7648  143.5718  150.8988 LP  0  0  0  0  0  0  0  0  0  0  0  0  # atno 17342 bound_to 10162
  139.9389  143.6405  152.3058 LP  0  0  0  0  0  0  0  0  0  0  0  0  # atno 17343 bound_to 10162
  156.3577  130.7465  151.2433 LP  0  0  0  0  0  0  0  0  0  0  0  0  # atno 17370 bound_to 10713
  157.7488  131.0359  150.4385 LP  0  0  0  0  0  0  0  0  0  0  0  0  # atno 17371 bound_to 10713
  141.2223  133.7194  156.8578 LP  0  0  0  0  0  0  0  0  0  0  0  0  # atno 17394 bound_to 11000
  140.1848  134.9007  157.2991 LP  0  0  0  0  0  0  0  0  0  0  0  0  # atno 17395 bound_to 11000

$$$$
