AV-unprocessed.smi:1951|AV-procd|sdf|7881|dock7
  -GOLD-   2272010 33D 1   1.00000     0.00000
 Structure written by MMmdl.
 46 47  0  0  0  0  0  0  0  0  2 V2000
  151.2834  145.5816  159.7405 C   0  0  0  0  0  0  0  0  0  0  0  0
  151.1059  144.5807  158.7440 O   0  0  0  0  0  0  0  0  0  0  0  0
  151.7691  143.3774  158.8919 C   0  0  0  0  0  0  0  0  0  0  0  0
  152.6716  143.2569  159.8980 N   0  0  0  0  0  0  0  0  0  0  0  0
  153.3212  142.0835  160.0413 C   0  0  0  0  0  0  0  0  0  0  0  0
  153.1144  140.9795  159.1938 C   0  0  0  0  0  0  0  0  0  0  0  0
  152.1782  141.1015  158.1506 C   0  0  0  0  0  0  0  0  0  0  0  0
  151.4766  142.3219  157.9970 C   0  0  0  0  0  0  0  0  0  0  0  0
  150.5259  142.5557  156.9662 N   0  0  0  0  0  0  0  0  0  0  0  0
  150.1511  141.7281  155.9767 C   0  0  0  0  0  0  0  0  0  0  0  0
  150.5883  140.5922  155.7930 O   0  0  0  0  0  0  0  0  0  0  0  0
  149.2030  142.2855  155.2103 N   0  0  0  0  0  0  0  0  0  0  0  0
  148.5598  141.6332  154.0758 C   0  0  0  0  0  0  0  0  0  0  0  0
  147.0401  141.5010  154.2929 C   0  0  0  0  0  0  0  0  0  0  0  0
  146.4615  140.3442  153.5642 N   0  3  2  0  0  0  0  0  0  0  0  0
  146.3242  139.1471  154.4336 C   0  0  0  0  0  0  0  0  0  0  0  0
  145.6052  138.0032  153.6992 C   0  0  0  0  0  0  0  0  0  0  0  0
  146.3326  137.6328  152.3963 C   0  0  1  0  0  0  0  0  0  0  0  0
  145.6084  136.5096  151.6410 C   0  0  0  0  0  0  0  0  0  0  0  0
  146.4898  138.8940  151.5308 C   0  0  0  0  0  0  0  0  0  0  0  0
  147.1896  140.0223  152.3076 C   0  0  0  0  0  0  0  0  0  0  0  0
  150.6942  146.4599  159.4778 H   0  0  0  0  0  0  0  0  0  0  0  0
  152.3265  145.8930  159.8124 H   0  0  0  0  0  0  0  0  0  0  0  0
  150.9441  145.2365  160.7182 H   0  0  0  0  0  0  0  0  0  0  0  0
  154.0322  142.0251  160.8520 H   0  0  0  0  0  0  0  0  0  0  0  0
  153.6654  140.0620  159.3381 H   0  0  0  0  0  0  0  0  0  0  0  0
  152.0274  140.2675  157.4826 H   0  0  0  0  0  0  0  0  0  0  0  0
  150.0116  143.4211  157.0439 H   0  0  0  0  0  0  0  0  0  0  0  0
  148.9015  143.2236  155.4318 H   0  0  0  0  0  0  0  0  0  0  0  0
  148.7569  142.2303  153.1852 H   0  0  0  0  0  0  0  0  0  0  0  0
  149.0290  140.6633  153.9084 H   0  0  0  0  0  0  0  0  0  0  0  0
  146.7974  141.4212  155.3539 H   0  0  0  0  0  0  0  0  0  0  0  0
  146.5709  142.4208  153.9403 H   0  0  0  0  0  0  0  0  0  0  0  0
  147.3118  138.8211  154.7648 H   0  0  0  0  0  0  0  0  0  0  0  0
  145.7579  139.4041  155.3294 H   0  0  0  0  0  0  0  0  0  0  0  0
  145.5416  137.1319  154.3521 H   0  0  0  0  0  0  0  0  0  0  0  0
  144.5787  138.3001  153.4794 H   0  0  0  0  0  0  0  0  0  0  0  0
  147.3291  137.2702  152.6533 H   0  0  0  0  0  0  0  0  0  0  0  0
  144.6018  136.8110  151.3497 H   0  0  0  0  0  0  0  0  0  0  0  0
  145.5223  135.6148  152.2580 H   0  0  0  0  0  0  0  0  0  0  0  0
  146.1489  136.2336  150.7352 H   0  0  0  0  0  0  0  0  0  0  0  0
  147.0610  138.6601  150.6316 H   0  0  0  0  0  0  0  0  0  0  0  0
  145.5106  139.2375  151.1935 H   0  0  0  0  0  0  0  0  0  0  0  0
  147.2510  140.9021  151.6683 H   0  0  0  0  0  0  0  0  0  0  0  0
  148.2153  139.7334  152.5434 H   0  0  0  0  0  0  0  0  0  0  0  0
  145.5228  140.6103  153.3032 H   0  0  0  0  0  0  0  0  0  0  0  0
  1  2  1  0  0  0  0
  1 22  1  0  0  0  0
  1 23  1  0  0  0  0
  1 24  1  0  0  0  0
  2  3  1  0  0  0  0
  3  8  1  0  0  0  0
  3  4  2  0  0  0  0
  4  5  1  0  0  0  0
  5  6  2  0  0  0  0
  5 25  1  0  0  0  0
  6  7  1  0  0  0  0
  6 26  1  0  0  0  0
  7  8  2  0  0  0  0
  7 27  1  0  0  0  0
  8  9  1  0  0  0  0
  9 10  1  0  0  0  0
  9 28  1  0  0  0  0
 10 11  2  0  0  0  0
 10 12  1  0  0  0  0
 12 13  1  0  0  0  0
 12 29  1  0  0  0  0
 13 14  1  0  0  0  0
 13 30  1  0  0  0  0
 13 31  1  0  0  0  0
 14 15  1  0  0  0  0
 14 32  1  0  0  0  0
 14 33  1  0  0  0  0
 15 21  1  0  0  0  0
 15 16  1  0  0  0  0
 15 46  1  0  0  0  0
 16 17  1  0  0  0  0
 16 34  1  0  0  0  0
 16 35  1  0  0  0  0
 17 18  1  0  0  0  0
 17 36  1  0  0  0  0
 17 37  1  0  0  0  0
 18 19  1  0  0  0  0
 18 20  1  0  0  0  0
 18 38  1  0  0  0  0
 19 39  1  0  0  0  0
 19 40  1  0  0  0  0
 19 41  1  0  0  0  0
 20 21  1  0  0  0  0
 20 42  1  0  0  0  0
 20 43  1  0  0  0  0
 21 44  1  0  0  0  0
 21 45  1  0  0  0  0
M  CHG  1  15   1
M  END
> <s_m_source_file>
AV-unprocessed.smi

> <i_m_source_file_index>
1951

> <i_lp_mmshare_version>
43012

> <i_f3d_flags>
0

> <s_epik_input>
W0NIM11PYzFuW2NIXVtjSF1bY0hdYzFbTkhdQyg9TylbTkhdW0NIMl1bQ0gyXU4yW0NIMl1bQ0gyXVtDSF0oW0NIM10pW0NIMl1bQ0gyXTI=

> <s_epik_cmdline>
J2VwaWtfcHl0aG9uJywgJy1waCcsICc3LjAnLCAnLXRuJywgJzgnLCAnLW1hJywgJzIwMCcsICctbWV0YWxfYmluZGluZycsICctaW1hZScsICc8aW5maWxlLm1hZT4nLCAnLW9tYWUnLCAnPG91dGZpbGUubWFlPic=

> <r_lp_tautomer_probability>
1

> <r_epik_Ionization_Penalty>
0.00147101

> <r_epik_Ionization_Penalty_Charging>
0.00139388

> <r_epik_Ionization_Penalty_Neutral>
7.71355e-05

> <r_epik_State_Penalty>
0.000929204

> <r_epik_Charging_Adjusted_Penalty>
0.00232308

> <i_epik_Tot_Q>
1

> <i_epik_Tot_abs_Q>
1

> <r_epik_Metal_State_Penalty>
-0

> <b_epik_Metal_Only>
0

> <s_lp_Force_Field>
OPLS_2005

> <r_lp_Energy>
18.8997

> <b_lp_Chiralities_Consistent>
1

> <s_lp_Variant>
AV-unprocessed.smi:1951-1

> <Gold.Version>
5.8.1

> <Gold.Id.Protein>
6NUR|6NUR_protein|mol2

> <Gold.PLP.Fitness>
48.9695

> <Gold.PLP.PLP>
-40.0031

> <Gold.PLP.part.hbond>
-2.9505

> <Gold.PLP.part.metal>
0.0000

> <Gold.PLP.part.buried>
0.0735

> <Gold.PLP.part.nonpolar>
-37.8423

> <Gold.PLP.part.repulsive>
0.3856

> <Gold.PLP.ligand.clash>
0.0000

> <Gold.PLP.ligand.torsion>
0.6493

> <Gold.PLP.Chemscore.Hbond>
3.4155

> <Gold.PLP.Chemscore.CHOScore>
0.0000

> <Gold.PLP.Chemscore.Metal>
0.0000

> <Gold.Chemscore.Hbonds>
donor molecule, donor type, donor heavy atom, donor atom, acceptor molecule, acceptor atom, score
      L1  H     9    28       P1  8028  0.43
      L1  H    12    29       P1  8028  0.94
      L1  H    15    46       P1 10175  2.00

> <Gold.PLP.Chemscore.Internal.Correction>
0.0186

> <Gold.Rescore>
     Score         DG    S(hbond)    S(metal)    S(lipo)     H(rot)  DE(clash)    DE(int)     intcor
     17.98     -21.56       2.65        0.00      99.12       1.71       1.72       1.86       ----

> <Gold.Chemscore.Fitness>
17.9816

> <Gold.Chemscore.DG>
-21.5628

> <Gold.Chemscore.ZeroCoef>
-5.4800

> <Gold.Chemscore.Hbond>
2.6544

> <Gold.Chemscore.Metal>
0.0000

> <Gold.Chemscore.Lipo>
99.1150

> <Gold.Chemscore.Internal_Hbond>
0.0000

> <Gold.Chemscore.DEClash>
1.7179

> <Gold.Chemscore.DEInternal>
1.8633

> <Gold.Chemscore.Rot>
1.7107

> <Gold.Chemscore.Internal.Correction>
   9.000000E+99

> <Gold.Chemscore.Hbonds>
donor molecule, donor type, donor heavy atom, donor atom, acceptor molecule, acceptor atom, score
      L1  H     9    28       P1  8028  0.43
      L1  H    12    29       P1  8028  0.90
      L1  H    15    46       P1 10175  0.85

> <Gold.Chemscore.Hbond.Weighted>
-8.8658

> <Gold.Chemscore.Metal.Weighted>
-0.0000

> <Gold.Chemscore.Lipo.Weighted>
-11.5965

> <Gold.Chemscore.Internal_Hbond.Weighted>
0.0000

> <Gold.Chemscore.DEClash.Weighted>
1.7179

> <Gold.Chemscore.DEInternal.Weighted>
1.8633

> <Gold.Chemscore.Rot.Weighted>
4.3794

> <Gold.Chemscore.Internal.Correction.Weighted>
   9.000000E+99

> <Gold.Protein.RotatedTorsions>
[ 6907 6896 6895 6894 ] final  -78.46 input  -60.11 | X-H torsion
[ 7974 7965 7964 7962 ] final   97.53 input  175.53 | X-H torsion
[ 8008 7997 7996 7995 ] final   50.62 input   59.86 | X-H torsion
[ 10167 10162 10161 10158 ] final  140.85 input  -65.29 | X-H torsion
[ 10718 10713 10712 10709 ] final -138.52 input   66.30 | X-H torsion
[ 10763 10752 10751 10750 ] final  -86.07 input  -60.55 | X-H torsion
[ 11005 11000 10999 10996 ] final   15.38 input  -57.11 | X-H torsion

> <Gold.Protein.ActiveResidues>
 VAL166  LYS551  ARG553  GLY616  TRP617  ASP618  TYR619  PRO620  LYS621  CYS622 
 ASP623  PHE694  ASN695  SER759  ASP760  ASP761  ALA762  ILE779  LEU786  VAL792 
 PHE793  MET794  SER795  GLU796  ALA797  LYS798  CYS799  TRP800  GLU811  SER814 

> <Gold.Protein.RotatedAtoms>
  150.6972  134.4268  159.5230 H   0  0  0  0  0  0  0  0  0  0  0  0  # atno 6907 bound_to 6896
  152.2002  134.8592  160.0518 H   0  0  0  0  0  0  0  0  0  0  0  0  # atno 6908 bound_to 6896
  151.9515  133.3632  159.4038 H   0  0  0  0  0  0  0  0  0  0  0  0  # atno 6909 bound_to 6896
  145.4242  139.2318  143.3179 H   0  0  0  0  0  0  0  0  0  0  0  0  # atno 7974 bound_to 7965
  155.4218  140.3447  155.4272 H   0  0  0  0  0  0  0  0  0  0  0  0  # atno 8008 bound_to 7997
  156.1388  140.1536  156.8984 H   0  0  0  0  0  0  0  0  0  0  0  0  # atno 8009 bound_to 7997
  154.4954  140.0829  156.7665 H   0  0  0  0  0  0  0  0  0  0  0  0  # atno 8010 bound_to 7997
  139.5037  144.6208  151.6055 H   0  0  0  0  0  0  0  0  0  0  0  0  # atno 10167 bound_to 10162
  156.3003  130.7425  151.1475 H   0  0  0  0  0  0  0  0  0  0  0  0  # atno 10718 bound_to 10713
  154.6182  135.5462  153.7547 H   0  0  0  0  0  0  0  0  0  0  0  0  # atno 10763 bound_to 10752
  153.0226  135.6406  154.1479 H   0  0  0  0  0  0  0  0  0  0  0  0  # atno 10764 bound_to 10752
  154.1414  135.2908  155.3140 H   0  0  0  0  0  0  0  0  0  0  0  0  # atno 10765 bound_to 10752
  140.4589  134.1147  155.7713 H   0  0  0  0  0  0  0  0  0  0  0  0  # atno 11005 bound_to 11000
  146.2641  140.4970  142.8841 LP  0  0  0  0  0  0  0  0  0  0  0  0  # atno 17320 bound_to 7965
  144.8225  140.6574  143.6343 LP  0  0  0  0  0  0  0  0  0  0  0  0  # atno 17321 bound_to 7965
  140.5910  143.9780  150.6324 LP  0  0  0  0  0  0  0  0  0  0  0  0  # atno 17342 bound_to 10162
  140.2960  143.3292  152.1017 LP  0  0  0  0  0  0  0  0  0  0  0  0  # atno 17343 bound_to 10162
  157.7366  131.0560  150.5403 LP  0  0  0  0  0  0  0  0  0  0  0  0  # atno 17370 bound_to 10713
  156.5530  130.4236  149.6099 LP  0  0  0  0  0  0  0  0  0  0  0  0  # atno 17371 bound_to 10713
  141.1630  133.8757  157.1794 LP  0  0  0  0  0  0  0  0  0  0  0  0  # atno 17394 bound_to 11000
  139.9958  135.0047  157.0079 LP  0  0  0  0  0  0  0  0  0  0  0  0  # atno 17395 bound_to 11000

$$$$
