AV-unprocessed.smi:158|AV-procd|sdf|1332|dock5
  -GOLD-   2262019 33D 1   1.00000     0.00000
 Structure written by MMmdl.
 31 33  0  0  0  0  0  0  0  0  1 V2000
  149.9479  129.6799  156.0163 N   0  0  0  0  0  0  0  0  0  0  0  0
  149.5653  130.7682  155.3336 C   0  0  0  0  0  0  0  0  0  0  0  0
  150.1598  131.9496  155.6202 N   0  0  0  0  0  0  0  0  0  0  0  0
  149.8066  133.0611  154.9628 C   0  0  0  0  0  0  0  0  0  0  0  0
  150.6281  134.5099  155.4089 Cl  0  0  0  0  0  0  0  0  0  0  0  0
  148.8869  133.1753  153.9991 N   0  0  0  0  0  0  0  0  0  0  0  0
  148.2844  131.9859  153.7068 C   0  0  0  0  0  0  0  0  0  0  0  0
  148.5685  130.7401  154.3277 C   0  0  0  0  0  0  0  0  0  0  0  0
  147.7695  129.7449  153.7810 N   0  0  0  0  0  0  0  0  0  0  0  0
  147.0541  130.3733  152.8863 C   0  0  0  0  0  0  0  0  0  0  0  0
  147.2986  131.7244  152.7758 N   0  0  0  0  0  0  0  0  0  0  0  0
  146.6394  132.6979  151.8507 C   0  0  1  0  0  0  0  0  0  0  0  0
  145.5647  132.0748  151.2100 O   0  0  0  0  0  0  0  0  0  0  0  0
  144.3950  132.8903  151.3015 C   0  0  2  0  0  0  0  0  0  0  0  0
  143.6243  132.8220  149.9742 C   0  0  0  0  0  0  0  0  0  0  0  0
  143.2357  131.4942  149.6929 O   0  0  0  0  0  0  0  0  0  0  0  0
  144.9349  134.2791  151.6642 C   0  0  1  0  0  0  0  0  0  0  0  0
  143.9896  135.1140  152.3032 O   0  0  0  0  0  0  0  0  0  0  0  0
  146.0866  133.9244  152.5838 C   0  0  1  0  0  0  0  0  0  0  0  0
  145.6459  133.5732  153.7960 F   0  0  0  0  0  0  0  0  0  0  0  0
  147.4014  132.9514  151.1125 H   0  0  0  0  0  0  0  0  0  0  0  0
  143.7862  132.4959  152.1173 H   0  0  0  0  0  0  0  0  0  0  0  0
  145.3165  134.7808  150.7737 H   0  0  0  0  0  0  0  0  0  0  0  0
  146.8394  134.7053  152.6946 H   0  0  0  0  0  0  0  0  0  0  0  0
  149.5186  128.7869  155.8208 H   0  0  0  0  0  0  0  0  0  0  0  0
  150.6630  129.7547  156.7252 H   0  0  0  0  0  0  0  0  0  0  0  0
  146.3219  129.8635  152.2771 H   0  0  0  0  0  0  0  0  0  0  0  0
  142.7439  133.4651  149.9980 H   0  0  0  0  0  0  0  0  0  0  0  0
  144.2571  133.1724  149.1584 H   0  0  0  0  0  0  0  0  0  0  0  0
  142.3392  131.3787  149.9693 H   0  0  0  0  0  0  0  0  0  0  0  0
  143.6916  134.6805  153.0888 H   0  0  0  0  0  0  0  0  0  0  0  0
  1  2  1  0  0  0  0
  1 25  1  0  0  0  0
  1 26  1  0  0  0  0
  2  8  1  0  0  0  0
  2  3  2  0  0  0  0
  3  4  1  0  0  0  0
  4  5  1  0  0  0  0
  4  6  2  0  0  0  0
  6  7  1  0  0  0  0
  7 11  1  0  0  0  0
  7  8  2  0  0  0  0
  8  9  1  0  0  0  0
  9 10  2  0  0  0  0
 10 11  1  0  0  0  0
 10 27  1  0  0  0  0
 11 12  1  0  0  0  0
 12 21  1  0  0  0  0
 12 19  1  0  0  0  0
 12 13  1  0  0  0  0
 13 14  1  0  0  0  0
 14 22  1  0  0  0  0
 14 15  1  0  0  0  0
 14 17  1  0  0  0  0
 15 16  1  0  0  0  0
 15 28  1  0  0  0  0
 15 29  1  0  0  0  0
 16 30  1  0  0  0  0
 17 23  1  0  0  0  0
 17 18  1  0  0  0  0
 17 19  1  0  0  0  0
 18 31  1  0  0  0  0
 19 24  1  0  0  0  0
 19 20  1  0  0  0  0
M  END
> <s_m_source_file>
AV-unprocessed.smi

> <i_m_source_file_index>
158

> <i_lp_mmshare_version>
43012

> <i_f3d_flags>
0

> <s_epik_input>
Q2xjKG4xKW5jKFtOSDJdKWMoYzEyKW5bY0hdbjJbQ0BASF0zT1tDQEhdKFtDSDJdW09IXSlbQ0BASF0oW09IXSlbQ0BASF0zRg==

> <s_epik_cmdline>
J2VwaWtfcHl0aG9uJywgJy1waCcsICc3LjAnLCAnLXRuJywgJzgnLCAnLW1hJywgJzIwMCcsICctbWV0YWxfYmluZGluZycsICctaW1hZScsICc8aW5maWxlLm1hZT4nLCAnLW9tYWUnLCAnPG91dGZpbGUubWFlPic=

> <r_lp_tautomer_probability>
1

> <r_epik_Ionization_Penalty>
6.51543e-05

> <r_epik_Ionization_Penalty_Charging>
0

> <r_epik_Ionization_Penalty_Neutral>
6.51543e-05

> <r_epik_State_Penalty>
-0

> <r_epik_Charging_Adjusted_Penalty>
0

> <i_epik_Tot_Q>
0

> <i_epik_Tot_abs_Q>
0

> <r_epik_Metal_State_Penalty>
-0

> <b_epik_Metal_Only>
0

> <s_epik_Chemistry_Notes>
This compound contains an acetal/aminal-like group ( X-CH(R)-Y where X, Y are N, S, or O) that may be acid/base labile, releasing an aldehyde.

> <s_lp_Force_Field>
OPLS_2005

> <r_lp_Energy>
35.9633

> <b_lp_Chiralities_Consistent>
1

> <s_lp_Variant>
AV-unprocessed.smi:158-10

> <Gold.Version>
5.8.1

> <Gold.Id.Protein>
6NUR|6NUR_protein|mol2

> <Gold.PLP.Fitness>
31.7701

> <Gold.PLP.PLP>
-27.4325

> <Gold.PLP.part.hbond>
-2.0000

> <Gold.PLP.part.metal>
0.0000

> <Gold.PLP.part.buried>
-3.9327

> <Gold.PLP.part.nonpolar>
-22.4009

> <Gold.PLP.part.repulsive>
0.3271

> <Gold.PLP.ligand.clash>
0.0000

> <Gold.PLP.ligand.torsion>
0.1341

> <Gold.PLP.Chemscore.Hbond>
1.5340

> <Gold.PLP.Chemscore.CHOScore>
0.0000

> <Gold.PLP.Chemscore.Metal>
0.0000

> <Gold.Chemscore.Hbonds>
donor molecule, donor type, donor heavy atom, donor atom, acceptor molecule, acceptor atom, score
      L1  H    16    30       P1 10952  0.82
      P1  H 10785 10796       L1    16  0.65

> <Gold.PLP.Chemscore.Internal.Correction>
0.0037

> <Gold.Rescore>
     Score         DG    S(hbond)    S(metal)    S(lipo)     H(rot)  DE(clash)    DE(int)     intcor
      5.71      -5.82       1.24        0.00      35.85       3.12       0.01       0.09       ----

> <Gold.Chemscore.Fitness>
5.7103

> <Gold.Chemscore.DG>
-5.8156

> <Gold.Chemscore.ZeroCoef>
-5.4800

> <Gold.Chemscore.Hbond>
1.2385

> <Gold.Chemscore.Metal>
0.0000

> <Gold.Chemscore.Lipo>
35.8450

> <Gold.Chemscore.Internal_Hbond>
0.0000

> <Gold.Chemscore.DEClash>
0.0149

> <Gold.Chemscore.DEInternal>
0.0905

> <Gold.Chemscore.Rot>
3.1230

> <Gold.Chemscore.Internal.Correction>
   9.000000E+99

> <Gold.Chemscore.Hbonds>
donor molecule, donor type, donor heavy atom, donor atom, acceptor molecule, acceptor atom, score
      L1  H    16    30       P1 10952  0.75
      P1  H 10785 10796       L1    16  0.06

> <Gold.Chemscore.Hbond.Weighted>
-4.1367

> <Gold.Chemscore.Metal.Weighted>
-0.0000

> <Gold.Chemscore.Lipo.Weighted>
-4.1939

> <Gold.Chemscore.Internal_Hbond.Weighted>
0.0000

> <Gold.Chemscore.DEClash.Weighted>
0.0149

> <Gold.Chemscore.DEInternal.Weighted>
0.0905

> <Gold.Chemscore.Rot.Weighted>
7.9950

> <Gold.Chemscore.Internal.Correction.Weighted>
   9.000000E+99

> <Gold.Protein.RotatedTorsions>
[ 6907 6896 6895 6894 ] final  145.99 input  -60.11 | X-H torsion
[ 7974 7965 7964 7962 ] final  167.31 input  175.53 | X-H torsion
[ 8008 7997 7996 7995 ] final -166.19 input   59.86 | X-H torsion
[ 10167 10162 10161 10158 ] final -139.92 input  -65.29 | X-H torsion
[ 10718 10713 10712 10709 ] final  116.58 input   66.30 | X-H torsion
[ 10763 10752 10751 10750 ] final  -15.88 input  -60.55 | X-H torsion
[ 11005 11000 10999 10996 ] final   97.32 input  -57.11 | X-H torsion

> <Gold.Protein.ActiveResidues>
 VAL166  LYS551  ARG553  GLY616  TRP617  ASP618  TYR619  PRO620  LYS621  CYS622 
 ASP623  PHE694  ASN695  SER759  ASP760  ASP761  ALA762  ILE779  LEU786  VAL792 
 PHE793  MET794  SER795  GLU796  ALA797  LYS798  CYS799  TRP800  GLU811  SER814 

> <Gold.Protein.RotatedAtoms>
  152.1738  133.4661  159.4922 H   0  0  0  0  0  0  0  0  0  0  0  0  # atno 6907 bound_to 6896
  150.6924  134.1920  159.4298 H   0  0  0  0  0  0  0  0  0  0  0  0  # atno 6908 bound_to 6896
  151.9828  135.0019  160.0609 H   0  0  0  0  0  0  0  0  0  0  0  0  # atno 6909 bound_to 6896
  144.7429  139.8743  143.6391 H   0  0  0  0  0  0  0  0  0  0  0  0  # atno 7974 bound_to 7965
  155.8604  140.0977  157.1617 H   0  0  0  0  0  0  0  0  0  0  0  0  # atno 8008 bound_to 7997
  154.3990  140.1366  156.4016 H   0  0  0  0  0  0  0  0  0  0  0  0  # atno 8009 bound_to 7997
  155.7863  140.3457  155.5327 H   0  0  0  0  0  0  0  0  0  0  0  0  # atno 8010 bound_to 7997
  139.8332  143.7419  152.2665 H   0  0  0  0  0  0  0  0  0  0  0  0  # atno 10167 bound_to 10162
  157.6151  131.1027  150.7492 H   0  0  0  0  0  0  0  0  0  0  0  0  # atno 10718 bound_to 10713
  153.5500  135.7012  153.5596 H   0  0  0  0  0  0  0  0  0  0  0  0  # atno 10763 bound_to 10752
  153.3524  135.3991  155.1656 H   0  0  0  0  0  0  0  0  0  0  0  0  # atno 10764 bound_to 10752
  154.8662  135.3768  154.5010 H   0  0  0  0  0  0  0  0  0  0  0  0  # atno 10765 bound_to 10752
  139.8776  134.8995  156.4290 H   0  0  0  0  0  0  0  0  0  0  0  0  # atno 11005 bound_to 11000
  146.1258  139.4283  143.0200 LP  0  0  0  0  0  0  0  0  0  0  0  0  # atno 17320 bound_to 7965
  145.7238  141.0066  143.1388 LP  0  0  0  0  0  0  0  0  0  0  0  0  # atno 17321 bound_to 7965
  139.7633  144.7500  151.0331 LP  0  0  0  0  0  0  0  0  0  0  0  0  # atno 17342 bound_to 10162
  140.7805  143.4726  151.0125 LP  0  0  0  0  0  0  0  0  0  0  0  0  # atno 17343 bound_to 10162
  156.7861  130.4875  149.5392 LP  0  0  0  0  0  0  0  0  0  0  0  0  # atno 17370 bound_to 10713
  156.1270  130.6151  151.0278 LP  0  0  0  0  0  0  0  0  0  0  0  0  # atno 17371 bound_to 10713
  140.9080  133.7732  155.9758 LP  0  0  0  0  0  0  0  0  0  0  0  0  # atno 17394 bound_to 11000
  140.8578  134.2877  157.5248 LP  0  0  0  0  0  0  0  0  0  0  0  0  # atno 17395 bound_to 11000

$$$$
