AV-unprocessed.smi:1831|AV-procd|sdf|7461|dock2
  -GOLD-   22720 9153D 1   1.00000     0.00000
 Structure written by MMmdl.
 40 41  0  0  0  0  0  0  0  0  3 V2000
  148.7226  140.6052  154.8144 C   0  0  0  0  0  0  0  0  0  0  0  0
  149.6601  139.4467  154.8186 C   0  0  0  0  0  0  0  0  0  0  0  0
  150.9624  139.5667  154.5495 N   0  0  0  0  0  0  0  0  0  0  0  0
  151.6241  138.3489  154.6154 N   0  0  0  0  0  0  0  0  0  0  0  0
  150.8170  137.3286  154.9389 C   0  0  0  0  0  0  0  0  0  0  0  0
  151.2622  136.0663  155.0531 N   0  5  0  0  0  0  0  0  0  0  0  0
  150.4019  135.0727  155.3708 C   0  0  0  0  0  0  0  0  0  0  0  0
  150.4488  134.3600  156.3759 O   0  0  0  0  0  0  0  0  0  0  0  0
  149.4280  134.8994  154.4666 N   0  0  0  0  0  0  0  0  0  0  0  0
  148.3444  133.9242  154.5349 C   0  0  0  0  0  0  0  0  0  0  0  0
  148.6526  132.7067  153.6486 C   0  0  1  0  0  0  0  0  0  0  0  0
  149.3584  131.5537  154.3614 C   0  0  0  0  0  0  0  0  0  0  0  0
  148.9850  130.3071  153.5483 C   0  0  0  0  0  0  0  0  0  0  0  0
  147.8717  130.6902  152.6432 N   0  3  1  0  0  0  0  0  0  0  0  0
  146.8054  129.6623  152.4781 C   0  0  0  0  0  0  0  0  0  0  0  0
  147.3298  128.4383  151.7033 C   0  0  0  0  0  0  0  0  0  0  0  0
  145.5672  130.2331  151.7600 C   0  0  0  0  0  0  0  0  0  0  0  0
  147.4103  132.0260  153.0804 C   0  0  0  0  0  0  0  0  0  0  0  0
  149.1357  137.8087  155.1699 S   0  0  0  0  0  0  0  0  0  0  0  0
  149.2617  141.5337  155.0043 H   0  0  0  0  0  0  0  0  0  0  0  0
  147.9659  140.4782  155.5888 H   0  0  0  0  0  0  0  0  0  0  0  0
  148.2265  140.6778  153.8466 H   0  0  0  0  0  0  0  0  0  0  0  0
  149.4427  135.5054  153.6593 H   0  0  0  0  0  0  0  0  0  0  0  0
  148.2223  133.6189  155.5746 H   0  0  0  0  0  0  0  0  0  0  0  0
  147.3938  134.3606  154.2245 H   0  0  0  0  0  0  0  0  0  0  0  0
  149.2768  133.0262  152.8119 H   0  0  0  0  0  0  0  0  0  0  0  0
  150.4367  131.7019  154.4281 H   0  0  0  0  0  0  0  0  0  0  0  0
  148.9762  131.4524  155.3784 H   0  0  0  0  0  0  0  0  0  0  0  0
  149.8263  129.9590  152.9483 H   0  0  0  0  0  0  0  0  0  0  0  0
  148.7020  129.4992  154.2247 H   0  0  0  0  0  0  0  0  0  0  0  0
  146.4960  129.3328  153.4714 H   0  0  0  0  0  0  0  0  0  0  0  0
  146.5423  127.6962  151.5679 H   0  0  0  0  0  0  0  0  0  0  0  0
  148.1472  127.9396  152.2242 H   0  0  0  0  0  0  0  0  0  0  0  0
  147.6891  128.7209  150.7130 H   0  0  0  0  0  0  0  0  0  0  0  0
  144.8153  129.4589  151.6035 H   0  0  0  0  0  0  0  0  0  0  0  0
  145.8274  130.6414  150.7827 H   0  0  0  0  0  0  0  0  0  0  0  0
  145.0872  131.0235  152.3373 H   0  0  0  0  0  0  0  0  0  0  0  0
  146.6527  131.9166  153.8587 H   0  0  0  0  0  0  0  0  0  0  0  0
  146.9752  132.5941  152.2575 H   0  0  0  0  0  0  0  0  0  0  0  0
  148.2901  130.8316  151.7347 H   0  0  0  0  0  0  0  0  0  0  0  0
  1  2  1  0  0  0  0
  1 20  1  0  0  0  0
  1 21  1  0  0  0  0
  1 22  1  0  0  0  0
  2 19  1  0  0  0  0
  2  3  2  0  0  0  0
  3  4  1  0  0  0  0
  4  5  2  0  0  0  0
  5  6  1  0  0  0  0
  5 19  1  0  0  0  0
  6  7  1  0  0  0  0
  7  8  2  0  0  0  0
  7  9  1  0  0  0  0
  9 10  1  0  0  0  0
  9 23  1  0  0  0  0
 10 11  1  0  0  0  0
 10 24  1  0  0  0  0
 10 25  1  0  0  0  0
 11 18  1  0  0  0  0
 11 12  1  0  0  0  0
 11 26  1  0  0  0  0
 12 13  1  0  0  0  0
 12 27  1  0  0  0  0
 12 28  1  0  0  0  0
 13 14  1  0  0  0  0
 13 29  1  0  0  0  0
 13 30  1  0  0  0  0
 14 15  1  0  0  0  0
 14 18  1  0  0  0  0
 14 40  1  0  0  0  0
 15 16  1  0  0  0  0
 15 17  1  0  0  0  0
 15 31  1  0  0  0  0
 16 32  1  0  0  0  0
 16 33  1  0  0  0  0
 16 34  1  0  0  0  0
 17 35  1  0  0  0  0
 17 36  1  0  0  0  0
 17 37  1  0  0  0  0
 18 38  1  0  0  0  0
 18 39  1  0  0  0  0
M  CHG  1   6  -1
M  CHG  1  14   1
M  END
> <s_m_source_file>
AV-unprocessed.smi

> <i_m_source_file_index>
1831

> <i_lp_mmshare_version>
43012

> <i_f3d_flags>
0

> <s_epik_input>
W0NIM11jMW5uYyhzMSlbTkhdQyg9TylbTkhdW0NIMl1bQ0BASF0yW0NIMl1bQ0gyXU4oW0NIMl0yKVtDSF0oW0NIM10pW0NIM10=

> <s_epik_cmdline>
J2VwaWtfcHl0aG9uJywgJy1waCcsICc3LjAnLCAnLXRuJywgJzgnLCAnLW1hJywgJzIwMCcsICctbWV0YWxfYmluZGluZycsICctaW1hZScsICc8aW5maWxlLm1hZT4nLCAnLW9tYWUnLCAnPG91dGZpbGUubWFlPic=

> <r_lp_tautomer_probability>
1

> <r_epik_Ionization_Penalty>
4.24531

> <r_epik_Ionization_Penalty_Charging>
4.11954

> <r_epik_Ionization_Penalty_Neutral>
0.125766

> <r_epik_State_Penalty>
4.11879

> <r_epik_Charging_Adjusted_Penalty>
8.23833

> <i_epik_Tot_Q>
0

> <i_epik_Tot_abs_Q>
2

> <r_epik_Metal_State_Penalty>
0.659341

> <b_epik_Metal_Only>
1

> <s_lp_Force_Field>
OPLS_2005

> <r_lp_Energy>
24.973

> <b_lp_Chiralities_Consistent>
1

> <s_lp_Variant>
AV-unprocessed.smi:1831-6

> <Gold.Version>
5.8.1

> <Gold.Id.Protein>
6NUR|6NUR_protein|mol2

> <Gold.PLP.Fitness>
47.9508

> <Gold.PLP.PLP>
-35.6990

> <Gold.PLP.part.hbond>
-4.0000

> <Gold.PLP.part.metal>
0.0000

> <Gold.PLP.part.buried>
-5.1375

> <Gold.PLP.part.nonpolar>
-27.2589

> <Gold.PLP.part.repulsive>
0.4405

> <Gold.PLP.ligand.clash>
0.0000

> <Gold.PLP.ligand.torsion>
1.2824

> <Gold.PLP.Chemscore.Hbond>
4.9000

> <Gold.PLP.Chemscore.CHOScore>
0.0000

> <Gold.PLP.Chemscore.Metal>
0.0000

> <Gold.Chemscore.Hbonds>
donor molecule, donor type, donor heavy atom, donor atom, acceptor molecule, acceptor atom, score
      L1  H     9    23       P1  7948  1.00
      L1  H    14    40       P1 10747  1.00
      P1  H  7989  7998       L1     3  1.00
      P1  H 10752 10763       L1     6  2.00

> <Gold.PLP.Chemscore.Internal.Correction>
0.1165

> <Gold.Rescore>
     Score         DG    S(hbond)    S(metal)    S(lipo)     H(rot)  DE(clash)    DE(int)     intcor
     19.86     -21.27       3.45        0.00      69.73       1.51       0.15       1.26       ----

> <Gold.Chemscore.Fitness>
19.8579

> <Gold.Chemscore.DG>
-21.2713

> <Gold.Chemscore.ZeroCoef>
-5.4800

> <Gold.Chemscore.Hbond>
3.4451

> <Gold.Chemscore.Metal>
0.0000

> <Gold.Chemscore.Lipo>
69.7277

> <Gold.Chemscore.Internal_Hbond>
0.0000

> <Gold.Chemscore.DEClash>
0.1505

> <Gold.Chemscore.DEInternal>
1.2629

> <Gold.Chemscore.Rot>
1.5131

> <Gold.Chemscore.Internal.Correction>
   9.000000E+99

> <Gold.Chemscore.Hbonds>
donor molecule, donor type, donor heavy atom, donor atom, acceptor molecule, acceptor atom, score
      L1  H     9    23       P1  7948  0.25
      L1  H    14    40       P1 10747  0.98
      P1  H  7989  7998       L1     3  0.95
      P1  H 10752 10763       L1     6  0.94

> <Gold.Chemscore.Hbond.Weighted>
-11.5066

> <Gold.Chemscore.Metal.Weighted>
-0.0000

> <Gold.Chemscore.Lipo.Weighted>
-8.1581

> <Gold.Chemscore.Internal_Hbond.Weighted>
0.0000

> <Gold.Chemscore.DEClash.Weighted>
0.1505

> <Gold.Chemscore.DEInternal.Weighted>
1.2629

> <Gold.Chemscore.Rot.Weighted>
3.8735

> <Gold.Chemscore.Internal.Correction.Weighted>
   9.000000E+99

> <Gold.Protein.RotatedTorsions>
[ 6907 6896 6895 6894 ] final -118.31 input  -60.11 | X-H torsion
[ 7974 7965 7964 7962 ] final  -60.74 input  175.53 | X-H torsion
[ 8008 7997 7996 7995 ] final  -29.61 input   59.86 | X-H torsion
[ 10167 10162 10161 10158 ] final -152.13 input  -65.29 | X-H torsion
[ 10718 10713 10712 10709 ] final  -51.03 input   66.30 | X-H torsion
[ 10763 10752 10751 10750 ] final   59.95 input  -60.55 | X-H torsion
[ 11005 11000 10999 10996 ] final   26.56 input  -57.11 | X-H torsion

> <Gold.Protein.ActiveResidues>
 VAL166  LYS551  ARG553  GLY616  TRP617  ASP618  TYR619  PRO620  LYS621  CYS622 
 ASP623  PHE694  ASN695  SER759  ASP760  ASP761  ALA762  ILE779  LEU786  VAL792 
 PHE793  MET794  SER795  GLU796  ALA797  LYS798  CYS799  TRP800  GLU811  SER814 

> <Gold.Protein.RotatedAtoms>
  150.8209  133.8255  159.3139 H   0  0  0  0  0  0  0  0  0  0  0  0  # atno 6907 bound_to 6896
  151.6013  135.1045  160.0070 H   0  0  0  0  0  0  0  0  0  0  0  0  # atno 6908 bound_to 6896
  152.4298  133.7217  159.6593 H   0  0  0  0  0  0  0  0  0  0  0  0  # atno 6909 bound_to 6896
  145.8119  140.8593  143.0177 H   0  0  0  0  0  0  0  0  0  0  0  0  # atno 7974 bound_to 7965
  154.4283  140.1813  156.1275 H   0  0  0  0  0  0  0  0  0  0  0  0  # atno 8008 bound_to 7997
  156.0094  140.3352  155.6900 H   0  0  0  0  0  0  0  0  0  0  0  0  # atno 8009 bound_to 7997
  155.6132  140.0652  157.2691 H   0  0  0  0  0  0  0  0  0  0  0  0  # atno 8010 bound_to 7997
  139.7207  143.8961  152.2502 H   0  0  0  0  0  0  0  0  0  0  0  0  # atno 10167 bound_to 10162
  156.1747  130.4149  149.9595 H   0  0  0  0  0  0  0  0  0  0  0  0  # atno 10718 bound_to 10713
  152.9908  135.5553  154.5795 H   0  0  0  0  0  0  0  0  0  0  0  0  # atno 10763 bound_to 10752
  154.5179  135.2806  155.1289 H   0  0  0  0  0  0  0  0  0  0  0  0  # atno 10764 bound_to 10752
  154.2655  135.6373  153.5343 H   0  0  0  0  0  0  0  0  0  0  0  0  # atno 10765 bound_to 10752
  140.3357  134.2388  155.7696 H   0  0  0  0  0  0  0  0  0  0  0  0  # atno 11005 bound_to 11000
  144.6756  140.0408  143.7481 LP  0  0  0  0  0  0  0  0  0  0  0  0  # atno 17320 bound_to 7965
  145.9768  139.2911  143.1066 LP  0  0  0  0  0  0  0  0  0  0  0  0  # atno 17321 bound_to 7965
  139.8856  144.6994  150.8828 LP  0  0  0  0  0  0  0  0  0  0  0  0  # atno 17342 bound_to 10162
  140.7753  143.3626  151.1799 LP  0  0  0  0  0  0  0  0  0  0  0  0  # atno 17343 bound_to 10162
  156.7384  130.9070  151.3630 LP  0  0  0  0  0  0  0  0  0  0  0  0  # atno 17370 bound_to 10713
  157.6827  130.9156  150.0308 LP  0  0  0  0  0  0  0  0  0  0  0  0  # atno 17371 bound_to 10713
  141.2052  133.7867  157.0247 LP  0  0  0  0  0  0  0  0  0  0  0  0  # atno 17394 bound_to 11000
  140.0823  134.9641  157.1644 LP  0  0  0  0  0  0  0  0  0  0  0  0  # atno 17395 bound_to 11000

$$$$
