AV-unprocessed.smi:2074|AV-procd|sdf|8453|dock2
  -GOLD-   2272011153D 1   1.00000     0.00000
 Structure written by MMmdl.
 43 44  0  0  0  0  0  0  0  0  1 V2000
  157.5149  139.7639  161.7321 C   0  0  0  0  0  0  0  0  0  0  0  0
  156.6475  139.0714  162.7434 C   0  0  0  0  0  0  0  0  0  0  0  0
  156.8677  139.2573  164.0343 N   0  0  0  0  0  0  0  0  0  0  0  0
  155.9124  138.4835  164.7007 O   0  0  0  0  0  0  0  0  0  0  0  0
  155.1461  137.8548  163.7735 C   0  0  0  0  0  0  0  0  0  0  0  0
  154.0650  136.9679  164.2908 C   0  0  0  0  0  0  0  0  0  0  0  0
  155.5553  138.1874  162.5115 C   0  0  0  0  0  0  0  0  0  0  0  0
  154.9967  137.7314  161.1856 C   0  0  0  0  0  0  0  0  0  0  0  0
  154.7839  138.9038  160.2196 C   0  0  0  0  0  0  0  0  0  0  0  0
  154.9704  138.7791  159.0082 O   0  0  0  0  0  0  0  0  0  0  0  0
  154.3821  140.0531  160.7827 N   0  0  0  0  0  0  0  0  0  0  0  0
  154.0978  141.2899  160.0597 C   0  0  0  0  0  0  0  0  0  0  0  0
  153.0418  142.1928  160.7627 C   0  0  1  0  0  0  0  0  0  0  0  0
  153.4467  142.3755  162.2479 C   0  0  0  0  0  0  0  0  0  0  0  0
  152.8193  143.4820  160.0669 N   0  0  0  0  0  0  0  0  0  0  0  0
  151.8665  144.3462  160.7737 C   0  0  0  0  0  0  0  0  0  0  0  0
  151.6082  145.6755  160.0437 C   0  0  0  0  0  0  0  0  0  0  0  0
  151.1429  145.4150  158.7271 O   0  0  0  0  0  0  0  0  0  0  0  0
  152.0718  144.6450  157.9770 C   0  0  0  0  0  0  0  0  0  0  0  0
  152.3366  143.3084  158.6915 C   0  0  0  0  0  0  0  0  0  0  0  0
  158.0040  139.0397  161.0802 H   0  0  0  0  0  0  0  0  0  0  0  0
  158.2939  140.3616  162.2068 H   0  0  0  0  0  0  0  0  0  0  0  0
  156.9235  140.4296  161.1036 H   0  0  0  0  0  0  0  0  0  0  0  0
  153.7733  136.2313  163.5419 H   0  0  0  0  0  0  0  0  0  0  0  0
  153.1826  137.5500  164.5561 H   0  0  0  0  0  0  0  0  0  0  0  0
  154.3963  136.4296  165.1790 H   0  0  0  0  0  0  0  0  0  0  0  0
  155.6638  137.0110  160.7109 H   0  0  0  0  0  0  0  0  0  0  0  0
  154.0439  137.2181  161.3191 H   0  0  0  0  0  0  0  0  0  0  0  0
  154.2544  140.0715  161.7841 H   0  0  0  0  0  0  0  0  0  0  0  0
  155.0341  141.8369  159.9449 H   0  0  0  0  0  0  0  0  0  0  0  0
  153.7865  141.0009  159.0568 H   0  0  0  0  0  0  0  0  0  0  0  0
  152.0977  141.6460  160.7578 H   0  0  0  0  0  0  0  0  0  0  0  0
  153.6581  141.4280  162.7425 H   0  0  0  0  0  0  0  0  0  0  0  0
  152.6528  142.8299  162.8391 H   0  0  0  0  0  0  0  0  0  0  0  0
  154.3366  142.9989  162.3400 H   0  0  0  0  0  0  0  0  0  0  0  0
  150.9211  143.8194  160.9114 H   0  0  0  0  0  0  0  0  0  0  0  0
  152.2373  144.5960  161.7662 H   0  0  0  0  0  0  0  0  0  0  0  0
  150.8582  146.2600  160.5766 H   0  0  0  0  0  0  0  0  0  0  0  0
  152.5163  146.2792  160.0054 H   0  0  0  0  0  0  0  0  0  0  0  0
  151.6640  144.4672  156.9819 H   0  0  0  0  0  0  0  0  0  0  0  0
  152.9997  145.2043  157.8470 H   0  0  0  0  0  0  0  0  0  0  0  0
  153.0672  142.7714  158.0904 H   0  0  0  0  0  0  0  0  0  0  0  0
  151.4238  142.7108  158.6921 H   0  0  0  0  0  0  0  0  0  0  0  0
  1  2  1  0  0  0  0
  1 21  1  0  0  0  0
  1 22  1  0  0  0  0
  1 23  1  0  0  0  0
  2  7  1  0  0  0  0
  2  3  2  0  0  0  0
  3  4  1  0  0  0  0
  4  5  1  0  0  0  0
  5  6  1  0  0  0  0
  5  7  2  0  0  0  0
  6 24  1  0  0  0  0
  6 25  1  0  0  0  0
  6 26  1  0  0  0  0
  7  8  1  0  0  0  0
  8  9  1  0  0  0  0
  8 27  1  0  0  0  0
  8 28  1  0  0  0  0
  9 10  2  0  0  0  0
  9 11  1  0  0  0  0
 11 12  1  0  0  0  0
 11 29  1  0  0  0  0
 12 13  1  0  0  0  0
 12 30  1  0  0  0  0
 12 31  1  0  0  0  0
 13 14  1  0  0  0  0
 13 15  1  0  0  0  0
 13 32  1  0  0  0  0
 14 33  1  0  0  0  0
 14 34  1  0  0  0  0
 14 35  1  0  0  0  0
 15 20  1  0  0  0  0
 15 16  1  0  0  0  0
 16 17  1  0  0  0  0
 16 36  1  0  0  0  0
 16 37  1  0  0  0  0
 17 18  1  0  0  0  0
 17 38  1  0  0  0  0
 17 39  1  0  0  0  0
 18 19  1  0  0  0  0
 19 20  1  0  0  0  0
 19 40  1  0  0  0  0
 19 41  1  0  0  0  0
 20 42  1  0  0  0  0
 20 43  1  0  0  0  0
M  END
> <s_m_source_file>
AV-unprocessed.smi

> <i_m_source_file_index>
2074

> <i_lp_mmshare_version>
43012

> <i_f3d_flags>
0

> <s_epik_input>
W0NIM11jMW5vYyhbQ0gzXSljMVtDSDJdQyg9TylbTkhdW0NIMl1bQ0BIXShbQ0gzXSlOMltDSDJdW0NIMl1PW0NIMl1bQ0gyXTI=

> <s_epik_cmdline>
J2VwaWtfcHl0aG9uJywgJy1waCcsICc3LjAnLCAnLXRuJywgJzgnLCAnLW1hJywgJzIwMCcsICctbWV0YWxfYmluZGluZycsICctaW1hZScsICc8aW5maWxlLm1hZT4nLCAnLW9tYWUnLCAnPG91dGZpbGUubWFlPic=

> <r_epik_Ionization_Penalty>
0.234179

> <r_epik_Ionization_Penalty_Charging>
0

> <r_epik_Ionization_Penalty_Neutral>
0.234179

> <r_epik_State_Penalty>
0.224936

> <r_epik_Charging_Adjusted_Penalty>
0.224936

> <i_epik_Tot_Q>
0

> <i_epik_Tot_abs_Q>
0

> <r_epik_Metal_State_Penalty>
0.224936

> <b_epik_Metal_Only>
0

> <s_lp_Force_Field>
OPLS_2005

> <r_lp_Energy>
23.5804

> <b_lp_Chiralities_Consistent>
1

> <s_lp_Variant>
AV-unprocessed.smi:2074-2

> <Gold.Version>
5.8.1

> <Gold.Id.Protein>
6NUR|6NUR_protein|mol2

> <Gold.PLP.Fitness>
44.7233

> <Gold.PLP.PLP>
-43.0544

> <Gold.PLP.part.hbond>
-1.9905

> <Gold.PLP.part.metal>
0.0000

> <Gold.PLP.part.buried>
-4.8920

> <Gold.PLP.part.nonpolar>
-35.9207

> <Gold.PLP.part.repulsive>
0.2170

> <Gold.PLP.ligand.clash>
0.0000

> <Gold.PLP.ligand.torsion>
0.7173

> <Gold.PLP.Chemscore.Hbond>
1.0000

> <Gold.PLP.Chemscore.CHOScore>
0.0000

> <Gold.PLP.Chemscore.Metal>
0.0000

> <Gold.Chemscore.Hbonds>
donor molecule, donor type, donor heavy atom, donor atom, acceptor molecule, acceptor atom, score
      P1  H  7997  8010       L1    10  0.89

> <Gold.PLP.Chemscore.Internal.Correction>
0.1036

> <Gold.Rescore>
     Score         DG    S(hbond)    S(metal)    S(lipo)     H(rot)  DE(clash)    DE(int)     intcor
     17.46     -18.16       0.99        0.00     117.71       1.72       0.05       0.65       ----

> <Gold.Chemscore.Fitness>
17.4597

> <Gold.Chemscore.DG>
-18.1552

> <Gold.Chemscore.ZeroCoef>
-5.4800

> <Gold.Chemscore.Hbond>
0.9893

> <Gold.Chemscore.Metal>
0.0000

> <Gold.Chemscore.Lipo>
117.7145

> <Gold.Chemscore.Internal_Hbond>
0.0000

> <Gold.Chemscore.DEClash>
0.0469

> <Gold.Chemscore.DEInternal>
0.6485

> <Gold.Chemscore.Rot>
1.7195

> <Gold.Chemscore.Internal.Correction>
   9.000000E+99

> <Gold.Chemscore.Hbonds>
donor molecule, donor type, donor heavy atom, donor atom, acceptor molecule, acceptor atom, score
      P1  H  7997  8010       L1    10  0.87

> <Gold.Chemscore.Hbond.Weighted>
-3.3044

> <Gold.Chemscore.Metal.Weighted>
-0.0000

> <Gold.Chemscore.Lipo.Weighted>
-13.7726

> <Gold.Chemscore.Internal_Hbond.Weighted>
0.0000

> <Gold.Chemscore.DEClash.Weighted>
0.0469

> <Gold.Chemscore.DEInternal.Weighted>
0.6485

> <Gold.Chemscore.Rot.Weighted>
4.4018

> <Gold.Chemscore.Internal.Correction.Weighted>
   9.000000E+99

> <Gold.Protein.RotatedTorsions>
[ 6907 6896 6895 6894 ] final  -59.59 input  -60.11 | X-H torsion
[ 7974 7965 7964 7962 ] final  136.28 input  175.53 | X-H torsion
[ 8008 7997 7996 7995 ] final   -4.44 input   59.86 | X-H torsion
[ 10167 10162 10161 10158 ] final   -5.41 input  -65.29 | X-H torsion
[ 10718 10713 10712 10709 ] final  151.82 input   66.30 | X-H torsion
[ 10763 10752 10751 10750 ] final   59.42 input  -60.55 | X-H torsion
[ 11005 11000 10999 10996 ] final  172.34 input  -57.11 | X-H torsion

> <Gold.Protein.ActiveResidues>
 VAL166  LYS551  ARG553  GLY616  TRP617  ASP618  TYR619  PRO620  LYS621  CYS622 
 ASP623  PHE694  ASN695  SER759  ASP760  ASP761  ALA762  ILE779  LEU786  VAL792 
 PHE793  MET794  SER795  GLU796  ALA797  LYS798  CYS799  TRP800  GLU811  SER814 

> <Gold.Protein.RotatedAtoms>
  150.7919  134.6949  159.6517 H   0  0  0  0  0  0  0  0  0  0  0  0  # atno 6907 bound_to 6896
  152.4026  134.6258  160.0072 H   0  0  0  0  0  0  0  0  0  0  0  0  # atno 6908 bound_to 6896
  151.6524  133.3283  159.3191 H   0  0  0  0  0  0  0  0  0  0  0  0  # atno 6909 bound_to 6896
  144.9580  139.4742  143.5493 H   0  0  0  0  0  0  0  0  0  0  0  0  # atno 7974 bound_to 7965
  154.6143  140.2484  155.7629 H   0  0  0  0  0  0  0  0  0  0  0  0  # atno 8008 bound_to 7997
  156.2389  140.2940  156.0340 H   0  0  0  0  0  0  0  0  0  0  0  0  # atno 8009 bound_to 7997
  155.2000  140.0394  157.2906 H   0  0  0  0  0  0  0  0  0  0  0  0  # atno 8010 bound_to 7997
  140.6962  143.6311  150.8522 H   0  0  0  0  0  0  0  0  0  0  0  0  # atno 10167 bound_to 10162
  157.2658  131.0807  151.1634 H   0  0  0  0  0  0  0  0  0  0  0  0  # atno 10718 bound_to 10713
  152.9894  135.5572  154.5711 H   0  0  0  0  0  0  0  0  0  0  0  0  # atno 10763 bound_to 10752
  154.5111  135.2802  155.1344 H   0  0  0  0  0  0  0  0  0  0  0  0  # atno 10764 bound_to 10752
  154.2735  135.6358  153.5372 H   0  0  0  0  0  0  0  0  0  0  0  0  # atno 10765 bound_to 10752
  140.3287  134.7376  157.4118 H   0  0  0  0  0  0  0  0  0  0  0  0  # atno 11005 bound_to 11000
  146.3344  139.8711  142.8840 LP  0  0  0  0  0  0  0  0  0  0  0  0  # atno 17320 bound_to 7965
  145.2742  141.0118  143.3754 LP  0  0  0  0  0  0  0  0  0  0  0  0  # atno 17321 bound_to 7965
  140.0029  143.5724  152.2868 LP  0  0  0  0  0  0  0  0  0  0  0  0  # atno 17342 bound_to 10162
  139.6420  144.7655  151.2319 LP  0  0  0  0  0  0  0  0  0  0  0  0  # atno 17343 bound_to 10162
  157.3126  130.6897  149.6224 LP  0  0  0  0  0  0  0  0  0  0  0  0  # atno 17370 bound_to 10713
  155.9663  130.4359  150.5111 LP  0  0  0  0  0  0  0  0  0  0  0  0  # atno 17371 bound_to 10713
  140.0879  134.5641  155.8473 LP  0  0  0  0  0  0  0  0  0  0  0  0  # atno 17394 bound_to 11000
  141.2069  133.6659  156.6270 LP  0  0  0  0  0  0  0  0  0  0  0  0  # atno 17395 bound_to 11000

$$$$
