AV-unprocessed.smi:1795|AV-procd|sdf|7246|dock10
  -GOLD-   22720 8493D 1   1.00000     0.00000
 Structure written by MMmdl.
 48 49  0  0  0  0  0  0  0  0  2 V2000
  146.8783  130.3795  152.7245 C   0  0  0  0  0  0  0  0  0  0  0  0
  146.5043  131.8422  152.9873 C   0  0  1  0  0  0  0  0  0  0  0  0
  147.6085  132.8146  152.5259 C   0  0  0  0  0  0  0  0  0  0  0  0
  147.2064  134.2312  152.7427 N   0  3  2  0  0  0  0  0  0  0  0  0
  147.2566  134.7560  154.1492 C   0  0  1  0  0  0  0  0  0  0  0  0
  146.2016  134.1159  155.0841 C   0  0  0  0  0  0  0  0  0  0  0  0
  148.6754  134.5558  154.7367 C   0  0  0  0  0  0  0  0  0  0  0  0
  149.5736  135.6533  154.3981 N   0  0  0  0  0  0  0  0  0  0  0  0
  150.3404  136.3027  155.2853 C   0  0  0  0  0  0  0  0  0  0  0  0
  150.3575  136.0263  156.4855 O   0  0  0  0  0  0  0  0  0  0  0  0
  151.2334  137.4143  154.7156 C   0  0  0  0  0  0  0  0  0  0  0  0
  150.6599  138.7616  154.8687 N   0  0  0  0  0  0  0  0  0  0  0  0
  149.4217  139.0056  154.2418 C   0  0  0  0  0  0  0  0  0  0  0  0
  148.8112  140.1987  154.3161 C   0  0  0  0  0  0  0  0  0  0  0  0
  149.4561  141.2497  155.0671 C   0  0  0  0  0  0  0  0  0  0  0  0
  150.6431  141.0286  155.6661 C   0  0  0  0  0  0  0  0  0  0  0  0
  151.3174  139.7276  155.5817 C   0  0  0  0  0  0  0  0  0  0  0  0
  152.4056  139.5186  156.1190 O   0  0  0  0  0  0  0  0  0  0  0  0
  145.9100  134.4706  152.0505 C   0  0  0  0  0  0  0  0  0  0  0  0
  144.8331  133.4493  152.4820 C   0  0  1  0  0  0  0  0  0  0  0  0
  143.5324  133.6192  151.6897 C   0  0  0  0  0  0  0  0  0  0  0  0
  145.3161  132.1294  152.2583 O   0  0  0  0  0  0  0  0  0  0  0  0
  147.7824  130.1018  153.2669 H   0  0  0  0  0  0  0  0  0  0  0  0
  147.0562  130.2010  151.6635 H   0  0  0  0  0  0  0  0  0  0  0  0
  146.0799  129.7096  153.0446 H   0  0  0  0  0  0  0  0  0  0  0  0
  146.3130  131.9643  154.0546 H   0  0  0  0  0  0  0  0  0  0  0  0
  148.5698  132.5807  152.9806 H   0  0  0  0  0  0  0  0  0  0  0  0
  147.7705  132.6781  151.4555 H   0  0  0  0  0  0  0  0  0  0  0  0
  147.0447  135.8247  154.1272 H   0  0  0  0  0  0  0  0  0  0  0  0
  146.2878  134.4854  156.1056 H   0  0  0  0  0  0  0  0  0  0  0  0
  146.3081  133.0312  155.1211 H   0  0  0  0  0  0  0  0  0  0  0  0
  145.1832  134.3496  154.7742 H   0  0  0  0  0  0  0  0  0  0  0  0
  148.6161  134.4666  155.8230 H   0  0  0  0  0  0  0  0  0  0  0  0
  149.1327  133.6361  154.3744 H   0  0  0  0  0  0  0  0  0  0  0  0
  149.6152  135.9378  153.4300 H   0  0  0  0  0  0  0  0  0  0  0  0
  152.2040  137.3573  155.2104 H   0  0  0  0  0  0  0  0  0  0  0  0
  151.4383  137.2092  153.6631 H   0  0  0  0  0  0  0  0  0  0  0  0
  149.0097  138.1698  153.6947 H   0  0  0  0  0  0  0  0  0  0  0  0
  147.8650  140.3689  153.8239 H   0  0  0  0  0  0  0  0  0  0  0  0
  148.9844  142.2179  155.1485 H   0  0  0  0  0  0  0  0  0  0  0  0
  151.1107  141.8272  156.2233 H   0  0  0  0  0  0  0  0  0  0  0  0
  145.5484  135.4855  152.2039 H   0  0  0  0  0  0  0  0  0  0  0  0
  146.0815  134.3791  150.9769 H   0  0  0  0  0  0  0  0  0  0  0  0
  144.5996  133.5662  153.5408 H   0  0  0  0  0  0  0  0  0  0  0  0
  143.1071  134.6115  151.8419 H   0  0  0  0  0  0  0  0  0  0  0  0
  142.7866  132.8881  152.0027 H   0  0  0  0  0  0  0  0  0  0  0  0
  143.6998  133.4867  150.6202 H   0  0  0  0  0  0  0  0  0  0  0  0
  147.8972  134.7767  152.2469 H   0  0  0  0  0  0  0  0  0  0  0  0
  1  2  1  0  0  0  0
  1 23  1  0  0  0  0
  1 24  1  0  0  0  0
  1 25  1  0  0  0  0
  2 22  1  0  0  0  0
  2  3  1  0  0  0  0
  2 26  1  0  0  0  0
  3  4  1  0  0  0  0
  3 27  1  0  0  0  0
  3 28  1  0  0  0  0
  4  5  1  0  0  0  0
  4 19  1  0  0  0  0
  4 48  1  0  0  0  0
  5  6  1  0  0  0  0
  5  7  1  0  0  0  0
  5 29  1  0  0  0  0
  6 30  1  0  0  0  0
  6 31  1  0  0  0  0
  6 32  1  0  0  0  0
  7  8  1  0  0  0  0
  7 33  1  0  0  0  0
  7 34  1  0  0  0  0
  8  9  1  0  0  0  0
  8 35  1  0  0  0  0
  9 10  2  0  0  0  0
  9 11  1  0  0  0  0
 11 12  1  0  0  0  0
 11 36  1  0  0  0  0
 11 37  1  0  0  0  0
 12 17  1  0  0  0  0
 12 13  1  0  0  0  0
 13 14  2  0  0  0  0
 13 38  1  0  0  0  0
 14 15  1  0  0  0  0
 14 39  1  0  0  0  0
 15 16  2  0  0  0  0
 15 40  1  0  0  0  0
 16 17  1  0  0  0  0
 16 41  1  0  0  0  0
 17 18  2  0  0  0  0
 19 20  1  0  0  0  0
 19 42  1  0  0  0  0
 19 43  1  0  0  0  0
 20 21  1  0  0  0  0
 20 22  1  0  0  0  0
 20 44  1  0  0  0  0
 21 45  1  0  0  0  0
 21 46  1  0  0  0  0
 21 47  1  0  0  0  0
M  CHG  1   4   1
M  END
> <s_m_source_file>
AV-unprocessed.smi

> <i_m_source_file_index>
1795

> <i_lp_mmshare_version>
43012

> <i_f3d_flags>
0

> <s_epik_input>
W0NIM11bQ0BASF0xW0NIMl1OKFtDSDJdW0NASF0oTzEpW0NIM10pW0NASF0oW0NIM10pW0NIMl1bTkhdQyg9TylbQ0gyXW4yW2NIXVtjSF1bY0hdW2NIXWMyPU8=

> <s_epik_cmdline>
J2VwaWtfcHl0aG9uJywgJy1waCcsICc3LjAnLCAnLXRuJywgJzgnLCAnLW1hJywgJzIwMCcsICctbWV0YWxfYmluZGluZycsICctaW1hZScsICc8aW5maWxlLm1hZT4nLCAnLW9tYWUnLCAnPG91dGZpbGUubWFlPic=

> <r_lp_tautomer_probability>
1

> <r_epik_Ionization_Penalty>
0.656654

> <r_epik_Ionization_Penalty_Charging>
0.656654

> <r_epik_Ionization_Penalty_Neutral>
8.90321e-08

> <r_epik_State_Penalty>
0.675641

> <r_epik_Charging_Adjusted_Penalty>
1.33229

> <i_epik_Tot_Q>
1

> <i_epik_Tot_abs_Q>
1

> <r_epik_Metal_State_Penalty>
0.675691

> <b_epik_Metal_Only>
0

> <s_lp_Force_Field>
OPLS_2005

> <r_lp_Energy>
32.8471

> <b_lp_Chiralities_Consistent>
1

> <s_lp_Variant>
AV-unprocessed.smi:1795-10

> <Gold.Version>
5.8.1

> <Gold.Id.Protein>
6NUR|6NUR_protein|mol2

> <Gold.PLP.Fitness>
48.8981

> <Gold.PLP.PLP>
-36.2352

> <Gold.PLP.part.hbond>
-3.1026

> <Gold.PLP.part.metal>
0.0000

> <Gold.PLP.part.buried>
-1.2338

> <Gold.PLP.part.nonpolar>
-31.3298

> <Gold.PLP.part.repulsive>
0.1919

> <Gold.PLP.ligand.clash>
0.0000

> <Gold.PLP.ligand.torsion>
0.7478

> <Gold.PLP.Chemscore.Hbond>
3.9500

> <Gold.PLP.Chemscore.CHOScore>
0.7395

> <Gold.PLP.Chemscore.Metal>
0.0000

> <Gold.Chemscore.Hbonds>
donor molecule, donor type, donor heavy atom, donor atom, acceptor molecule, acceptor atom, score
      L1  H     4    48       P1  7948  2.00
      L1  H     8    35       P1  7948  0.95
      P1  H  7997  8010       L1    18  0.94
      L1  C    13    38       P1  7948  0.71

> <Gold.PLP.Chemscore.Internal.Correction>
0.0898

> <Gold.Rescore>
     Score         DG    S(hbond)    S(metal)    S(lipo)     H(rot)  DE(clash)    DE(int)     intcor
     16.17     -18.06       2.74        0.00      70.53       1.89       0.03       1.86       ----

> <Gold.Chemscore.Fitness>
16.1702

> <Gold.Chemscore.DG>
-18.0577

> <Gold.Chemscore.ZeroCoef>
-5.4800

> <Gold.Chemscore.Hbond>
2.7415

> <Gold.Chemscore.Metal>
0.0000

> <Gold.Chemscore.Lipo>
70.5285

> <Gold.Chemscore.Internal_Hbond>
0.0000

> <Gold.Chemscore.DEClash>
0.0252

> <Gold.Chemscore.DEInternal>
1.8624

> <Gold.Chemscore.Rot>
1.8870

> <Gold.Chemscore.Internal.Correction>
   9.000000E+99

> <Gold.Chemscore.Hbonds>
donor molecule, donor type, donor heavy atom, donor atom, acceptor molecule, acceptor atom, score
      L1  H     4    48       P1  7948  0.60
      L1  H     8    35       P1  7948  0.21
      P1  H  7997  8010       L1    18  0.90

> <Gold.Chemscore.Hbond.Weighted>
-9.1567

> <Gold.Chemscore.Metal.Weighted>
-0.0000

> <Gold.Chemscore.Lipo.Weighted>
-8.2518

> <Gold.Chemscore.Internal_Hbond.Weighted>
0.0000

> <Gold.Chemscore.DEClash.Weighted>
0.0252

> <Gold.Chemscore.DEInternal.Weighted>
1.8624

> <Gold.Chemscore.Rot.Weighted>
4.8308

> <Gold.Chemscore.Internal.Correction.Weighted>
   9.000000E+99

> <Gold.Protein.RotatedTorsions>
[ 6907 6896 6895 6894 ] final  -56.82 input  -60.11 | X-H torsion
[ 7974 7965 7964 7962 ] final -138.01 input  175.53 | X-H torsion
[ 8008 7997 7996 7995 ] final   90.00 input   59.86 | X-H torsion
[ 10167 10162 10161 10158 ] final -164.02 input  -65.29 | X-H torsion
[ 10718 10713 10712 10709 ] final  -60.36 input   66.30 | X-H torsion
[ 10763 10752 10751 10750 ] final  158.37 input  -60.55 | X-H torsion
[ 11005 11000 10999 10996 ] final   -2.18 input  -57.11 | X-H torsion

> <Gold.Protein.ActiveResidues>
 VAL166  LYS551  ARG553  GLY616  TRP617  ASP618  TYR619  PRO620  LYS621  CYS622 
 ASP623  PHE694  ASN695  SER759  ASP760  ASP761  ALA762  ILE779  LEU786  VAL792 
 PHE793  MET794  SER795  GLU796  ALA797  LYS798  CYS799  TRP800  GLU811  SER814 

> <Gold.Protein.RotatedAtoms>
  150.8136  134.7306  159.6709 H   0  0  0  0  0  0  0  0  0  0  0  0  # atno 6907 bound_to 6896
  152.4256  134.5872  159.9974 H   0  0  0  0  0  0  0  0  0  0  0  0  # atno 6908 bound_to 6896
  151.6075  133.3313  159.3096 H   0  0  0  0  0  0  0  0  0  0  0  0  # atno 6909 bound_to 6896
  144.8794  140.6485  143.5216 H   0  0  0  0  0  0  0  0  0  0  0  0  # atno 7974 bound_to 7965
  156.0067  140.3354  155.6900 H   0  0  0  0  0  0  0  0  0  0  0  0  # atno 8008 bound_to 7997
  155.6214  140.0675  157.2694 H   0  0  0  0  0  0  0  0  0  0  0  0  # atno 8009 bound_to 7997
  154.4267  140.1776  156.1364 H   0  0  0  0  0  0  0  0  0  0  0  0  # atno 8010 bound_to 7997
  139.6280  144.0495  152.1991 H   0  0  0  0  0  0  0  0  0  0  0  0  # atno 10167 bound_to 10162
  156.0996  130.4188  150.0843 H   0  0  0  0  0  0  0  0  0  0  0  0  # atno 10718 bound_to 10713
  154.2150  135.2784  155.2945 H   0  0  0  0  0  0  0  0  0  0  0  0  # atno 10763 bound_to 10752
  154.5748  135.5607  153.7132 H   0  0  0  0  0  0  0  0  0  0  0  0  # atno 10764 bound_to 10752
  153.0055  135.6330  154.2289 H   0  0  0  0  0  0  0  0  0  0  0  0  # atno 10765 bound_to 10752
  140.6555  133.9367  155.8405 H   0  0  0  0  0  0  0  0  0  0  0  0  # atno 11005 bound_to 11000
  145.3982  139.1603  143.4192 LP  0  0  0  0  0  0  0  0  0  0  0  0  # atno 17320 bound_to 7965
  146.2984  140.4077  142.8713 LP  0  0  0  0  0  0  0  0  0  0  0  0  # atno 17321 bound_to 7965
  140.0153  144.6193  150.7612 LP  0  0  0  0  0  0  0  0  0  0  0  0  # atno 17342 bound_to 10162
  140.7422  143.2829  151.3546 LP  0  0  0  0  0  0  0  0  0  0  0  0  # atno 17343 bound_to 10162
  156.8833  130.9564  151.3597 LP  0  0  0  0  0  0  0  0  0  0  0  0  # atno 17370 bound_to 10713
  157.6164  130.8622  149.9035 LP  0  0  0  0  0  0  0  0  0  0  0  0  # atno 17371 bound_to 10713
  141.0505  134.0492  157.3790 LP  0  0  0  0  0  0  0  0  0  0  0  0  # atno 17394 bound_to 11000
  139.9031  135.0171  156.7361 LP  0  0  0  0  0  0  0  0  0  0  0  0  # atno 17395 bound_to 11000

$$$$
