AV-unprocessed.smi:3346|AV-procd|sdf|12908|dock4
  -GOLD-   2272019323D 1   1.00000     0.00000
 Structure written by MMmdl.
 48 49  0  0  0  0  0  0  0  0  2 V2000
  153.5357  141.3070  160.3217 C   0  0  0  0  0  0  0  0  0  0  0  0
  152.8221  142.5656  159.8048 C   0  0  0  0  0  0  0  0  0  0  0  0
  152.2125  143.3521  160.9776 C   0  0  0  0  0  0  0  0  0  0  0  0
  151.7746  142.1892  158.7324 C   0  0  0  0  0  0  0  0  0  0  0  0
  150.9927  143.3688  158.1053 C   0  0  1  0  0  0  0  0  0  0  0  0
  151.9134  144.3870  157.4143 C   0  0  0  0  0  0  0  0  0  0  0  0
  150.0019  142.8823  157.1194 N   0  3  0  0  0  0  0  0  0  0  0  0
  150.3983  141.6802  156.3556 C   0  0  0  0  0  0  0  0  0  0  0  0
  149.3342  141.3318  155.3265 C   0  0  0  0  0  0  0  0  0  0  0  0
  148.3836  142.3019  154.9434 C   0  0  0  0  0  0  0  0  0  0  0  0
  147.3946  141.9583  154.0040 C   0  0  0  0  0  0  0  0  0  0  0  0
  147.3933  140.6512  153.4827 C   0  0  0  0  0  0  0  0  0  0  0  0
  148.2942  139.7126  153.8415 N   0  0  0  0  0  0  0  0  0  0  0  0
  149.2494  140.0395  154.7446 C   0  0  0  0  0  0  0  0  0  0  0  0
  150.1766  139.0452  155.1004 N   0  0  0  0  0  0  0  0  0  0  0  0
  149.8413  137.6785  154.7180 C   0  0  0  0  0  0  0  0  0  0  0  0
  150.8388  136.7018  155.3644 C   0  0  0  0  0  0  0  0  0  0  0  0
  152.1674  137.0609  154.9937 O   0  0  0  0  0  0  0  0  0  0  0  0
  152.5111  138.3764  155.4211 C   0  0  0  0  0  0  0  0  0  0  0  0
  151.5537  139.3948  154.7786 C   0  0  0  0  0  0  0  0  0  0  0  0
  152.8358  140.6217  160.8012 H   0  0  0  0  0  0  0  0  0  0  0  0
  154.3037  141.5619  161.0528 H   0  0  0  0  0  0  0  0  0  0  0  0
  154.0253  140.7690  159.5093 H   0  0  0  0  0  0  0  0  0  0  0  0
  153.5878  143.1898  159.3450 H   0  0  0  0  0  0  0  0  0  0  0  0
  151.4045  142.7944  161.4521 H   0  0  0  0  0  0  0  0  0  0  0  0
  151.8133  144.3133  160.6552 H   0  0  0  0  0  0  0  0  0  0  0  0
  152.9633  143.5608  161.7407 H   0  0  0  0  0  0  0  0  0  0  0  0
  152.2711  141.6378  157.9324 H   0  0  0  0  0  0  0  0  0  0  0  0
  151.0748  141.4857  159.1836 H   0  0  0  0  0  0  0  0  0  0  0  0
  150.4395  143.8988  158.8809 H   0  0  0  0  0  0  0  0  0  0  0  0
  152.5776  144.8775  158.1256 H   0  0  0  0  0  0  0  0  0  0  0  0
  151.3324  145.1730  156.9301 H   0  0  0  0  0  0  0  0  0  0  0  0
  152.5306  143.9124  156.6507 H   0  0  0  0  0  0  0  0  0  0  0  0
  149.1707  142.6342  157.6371 H   0  0  0  0  0  0  0  0  0  0  0  0
  151.3524  141.8551  155.8582 H   0  0  0  0  0  0  0  0  0  0  0  0
  150.5459  140.8339  157.0266 H   0  0  0  0  0  0  0  0  0  0  0  0
  148.4074  143.2966  155.3638 H   0  0  0  0  0  0  0  0  0  0  0  0
  146.6531  142.6785  153.6908 H   0  0  0  0  0  0  0  0  0  0  0  0
  146.6491  140.3510  152.7600 H   0  0  0  0  0  0  0  0  0  0  0  0
  148.8244  137.4431  155.0344 H   0  0  0  0  0  0  0  0  0  0  0  0
  149.8764  137.5773  153.6323 H   0  0  0  0  0  0  0  0  0  0  0  0
  150.7397  136.7079  156.4512 H   0  0  0  0  0  0  0  0  0  0  0  0
  150.6392  135.6835  155.0310 H   0  0  0  0  0  0  0  0  0  0  0  0
  152.4699  138.4382  156.5100 H   0  0  0  0  0  0  0  0  0  0  0  0
  153.5393  138.5890  155.1278 H   0  0  0  0  0  0  0  0  0  0  0  0
  151.6815  139.3957  153.6951 H   0  0  0  0  0  0  0  0  0  0  0  0
  151.7856  140.4012  155.1280 H   0  0  0  0  0  0  0  0  0  0  0  0
  149.7674  143.6276  156.4796 H   0  0  0  0  0  0  0  0  0  0  0  0
  1  2  1  0  0  0  0
  1 21  1  0  0  0  0
  1 22  1  0  0  0  0
  1 23  1  0  0  0  0
  2  3  1  0  0  0  0
  2  4  1  0  0  0  0
  2 24  1  0  0  0  0
  3 25  1  0  0  0  0
  3 26  1  0  0  0  0
  3 27  1  0  0  0  0
  4  5  1  0  0  0  0
  4 28  1  0  0  0  0
  4 29  1  0  0  0  0
  5  6  1  0  0  0  0
  5  7  1  0  0  0  0
  5 30  1  0  0  0  0
  6 31  1  0  0  0  0
  6 32  1  0  0  0  0
  6 33  1  0  0  0  0
  7  8  1  0  0  0  0
  7 34  1  0  0  0  0
  7 48  1  0  0  0  0
  8  9  1  0  0  0  0
  8 35  1  0  0  0  0
  8 36  1  0  0  0  0
  9 14  1  0  0  0  0
  9 10  2  0  0  0  0
 10 11  1  0  0  0  0
 10 37  1  0  0  0  0
 11 12  2  0  0  0  0
 11 38  1  0  0  0  0
 12 13  1  0  0  0  0
 12 39  1  0  0  0  0
 13 14  2  0  0  0  0
 14 15  1  0  0  0  0
 15 20  1  0  0  0  0
 15 16  1  0  0  0  0
 16 17  1  0  0  0  0
 16 40  1  0  0  0  0
 16 41  1  0  0  0  0
 17 18  1  0  0  0  0
 17 42  1  0  0  0  0
 17 43  1  0  0  0  0
 18 19  1  0  0  0  0
 19 20  1  0  0  0  0
 19 44  1  0  0  0  0
 19 45  1  0  0  0  0
 20 46  1  0  0  0  0
 20 47  1  0  0  0  0
M  CHG  1   7   1
M  END
> <s_m_source_file>
AV-unprocessed.smi

> <i_m_source_file_index>
3346

> <i_lp_mmshare_version>
43012

> <i_f3d_flags>
0

> <s_epik_input>
W0NIM11bQ0hdKFtDSDNdKVtDSDJdW0NASF0oW0NIM10pW05IXVtDSDJdYzFbY0hdW2NIXVtjSF1uYzFOMltDSDJdW0NIMl1PW0NIMl1bQ0gyXTI=

> <s_epik_cmdline>
J2VwaWtfcHl0aG9uJywgJy1waCcsICc3LjAnLCAnLXRuJywgJzgnLCAnLW1hJywgJzIwMCcsICctbWV0YWxfYmluZGluZycsICctaW1hZScsICc8aW5maWxlLm1hZT4nLCAnLW9tYWUnLCAnPG91dGZpbGUubWFlPic=

> <r_lp_tautomer_probability>
1

> <r_epik_Ionization_Penalty>
0.0185938

> <r_epik_Ionization_Penalty_Charging>
0.0176519

> <r_epik_Ionization_Penalty_Neutral>
0.000941891

> <r_epik_State_Penalty>
0.0140027

> <r_epik_Charging_Adjusted_Penalty>
0.0316546

> <i_epik_Tot_Q>
1

> <i_epik_Tot_abs_Q>
1

> <r_epik_Metal_State_Penalty>
0.0141454

> <b_epik_Metal_Only>
0

> <s_lp_Force_Field>
OPLS_2005

> <r_lp_Energy>
23.7399

> <b_lp_Chiralities_Consistent>
1

> <s_lp_Variant>
AV-unprocessed.smi:3346-2

> <Gold.Version>
5.8.1

> <Gold.Id.Protein>
6NUR|6NUR_protein|mol2

> <Gold.PLP.Fitness>
50.5766

> <Gold.PLP.PLP>
-43.2201

> <Gold.PLP.part.hbond>
-2.0000

> <Gold.PLP.part.metal>
0.0000

> <Gold.PLP.part.buried>
-0.8182

> <Gold.PLP.part.nonpolar>
-41.0584

> <Gold.PLP.part.repulsive>
1.0892

> <Gold.PLP.ligand.clash>
0.0000

> <Gold.PLP.ligand.torsion>
0.7829

> <Gold.PLP.Chemscore.Hbond>
2.8960

> <Gold.PLP.Chemscore.CHOScore>
0.0000

> <Gold.PLP.Chemscore.Metal>
0.0000

> <Gold.Chemscore.Hbonds>
donor molecule, donor type, donor heavy atom, donor atom, acceptor molecule, acceptor atom, score
      L1  H     7    48       P1  8028  2.00
      P1  H 10752 10765       L1    18  0.88

> <Gold.PLP.Chemscore.Internal.Correction>
0.2343

> <Gold.Rescore>
     Score         DG    S(hbond)    S(metal)    S(lipo)     H(rot)  DE(clash)    DE(int)     intcor
     19.69     -22.30       1.89        0.00     125.32       1.62       1.63       0.98       ----

> <Gold.Chemscore.Fitness>
19.6859

> <Gold.Chemscore.DG>
-22.2986

> <Gold.Chemscore.ZeroCoef>
-5.4800

> <Gold.Chemscore.Hbond>
1.8908

> <Gold.Chemscore.Metal>
0.0000

> <Gold.Chemscore.Lipo>
125.3241

> <Gold.Chemscore.Internal_Hbond>
0.0000

> <Gold.Chemscore.DEClash>
1.6278

> <Gold.Chemscore.DEInternal>
0.9850

> <Gold.Chemscore.Rot>
1.6248

> <Gold.Chemscore.Internal.Correction>
   9.000000E+99

> <Gold.Chemscore.Hbonds>
donor molecule, donor type, donor heavy atom, donor atom, acceptor molecule, acceptor atom, score
      L1  H     7    48       P1  8028  0.99
      P1  H 10752 10765       L1    18  0.52

> <Gold.Chemscore.Hbond.Weighted>
-6.3153

> <Gold.Chemscore.Metal.Weighted>
-0.0000

> <Gold.Chemscore.Lipo.Weighted>
-14.6629

> <Gold.Chemscore.Internal_Hbond.Weighted>
0.0000

> <Gold.Chemscore.DEClash.Weighted>
1.6278

> <Gold.Chemscore.DEInternal.Weighted>
0.9850

> <Gold.Chemscore.Rot.Weighted>
4.1596

> <Gold.Chemscore.Internal.Correction.Weighted>
   9.000000E+99

> <Gold.Protein.RotatedTorsions>
[ 6907 6896 6895 6894 ] final  145.58 input  -60.11 | X-H torsion
[ 7974 7965 7964 7962 ] final   72.29 input  175.53 | X-H torsion
[ 8008 7997 7996 7995 ] final -148.98 input   59.86 | X-H torsion
[ 10167 10162 10161 10158 ] final  -90.10 input  -65.29 | X-H torsion
[ 10718 10713 10712 10709 ] final -179.44 input   66.30 | X-H torsion
[ 10763 10752 10751 10750 ] final -179.91 input  -60.55 | X-H torsion
[ 11005 11000 10999 10996 ] final -131.35 input  -57.11 | X-H torsion

> <Gold.Protein.ActiveResidues>
 VAL166  LYS551  ARG553  GLY616  TRP617  ASP618  TYR619  PRO620  LYS621  CYS622 
 ASP623  PHE694  ASN695  SER759  ASP760  ASP761  ALA762  ILE779  LEU786  VAL792 
 PHE793  MET794  SER795  GLU796  ALA797  LYS798  CYS799  TRP800  GLU811  SER814 

> <Gold.Protein.RotatedAtoms>
  152.1790  133.4695  159.4948 H   0  0  0  0  0  0  0  0  0  0  0  0  # atno 6907 bound_to 6896
  150.6931  134.1857  159.4275 H   0  0  0  0  0  0  0  0  0  0  0  0  # atno 6908 bound_to 6896
  151.9767  135.0049  160.0606 H   0  0  0  0  0  0  0  0  0  0  0  0  # atno 6909 bound_to 6896
  145.7552  139.2777  143.1408 H   0  0  0  0  0  0  0  0  0  0  0  0  # atno 7974 bound_to 7965
  155.6003  140.0661  157.2735 H   0  0  0  0  0  0  0  0  0  0  0  0  # atno 8008 bound_to 7997
  154.4280  140.1819  156.1213 H   0  0  0  0  0  0  0  0  0  0  0  0  # atno 8009 bound_to 7997
  156.0164  140.3321  155.6997 H   0  0  0  0  0  0  0  0  0  0  0  0  # atno 8010 bound_to 7997
  140.3582  143.2855  151.9645 H   0  0  0  0  0  0  0  0  0  0  0  0  # atno 10167 bound_to 10162
  156.8591  130.9745  151.3085 H   0  0  0  0  0  0  0  0  0  0  0  0  # atno 10718 bound_to 10713
  154.5290  135.2798  155.1196 H   0  0  0  0  0  0  0  0  0  0  0  0  # atno 10763 bound_to 10752
  154.2724  135.6301  153.5319 H   0  0  0  0  0  0  0  0  0  0  0  0  # atno 10764 bound_to 10752
  152.9953  135.5631  154.5799 H   0  0  0  0  0  0  0  0  0  0  0  0  # atno 10765 bound_to 10752
  140.9266  134.1374  157.4270 H   0  0  0  0  0  0  0  0  0  0  0  0  # atno 11005 bound_to 11000
  146.0318  140.8251  142.9872 LP  0  0  0  0  0  0  0  0  0  0  0  0  # atno 17320 bound_to 7965
  144.6841  140.2779  143.7296 LP  0  0  0  0  0  0  0  0  0  0  0  0  # atno 17321 bound_to 7965
  139.4817  144.6016  151.7596 LP  0  0  0  0  0  0  0  0  0  0  0  0  # atno 17342 bound_to 10162
  140.5152  144.0963  150.6006 LP  0  0  0  0  0  0  0  0  0  0  0  0  # atno 17343 bound_to 10162
  157.6260  130.8692  149.9190 LP  0  0  0  0  0  0  0  0  0  0  0  0  # atno 17370 bound_to 10713
  156.0786  130.3676  150.0626 LP  0  0  0  0  0  0  0  0  0  0  0  0  # atno 17371 bound_to 10713
  139.8787  134.9990  156.5933 LP  0  0  0  0  0  0  0  0  0  0  0  0  # atno 17394 bound_to 11000
  140.7918  133.8576  155.8652 LP  0  0  0  0  0  0  0  0  0  0  0  0  # atno 17395 bound_to 11000

$$$$
