#       Name:                AV-unprocessed.smi:212
#       Creating user name   scv26
#       Creation time:       Thu Mar 26 19:56:13 2020


#       File generated by GOLD software.
#

@<TRIPOS>MOLECULE
AV-unprocessed.smi:212
    74    77     1
SMALL
NO_CHARGES


@<TRIPOS>ATOM
      1 ****        -3.7445  -1.1012   0.2608 C.3            1 S1                 0.0000
      2 ****        -2.4318  -0.3157   0.4211 C.3            1 S1                 0.0000
      3 ****        -2.3842   0.4763   1.7449 C.3            1 S1                 0.0000
      4 ****        -3.2942   1.6521   1.7129 N.4            1 S1                 1.0000
      5 ****        -3.3767   2.3698   3.0123 C.3            1 S1                 0.0000
      6 ****        -4.6484   2.0052   3.8142 C.3            1 S1                 0.0000
      7 ****        -4.6810   2.7890   5.1372 C.3            1 S1                 0.0000
      8 ****        -5.9386   2.2590   3.0120 C.3            1 S1                 0.0000
      9 ****        -4.6033   0.6349   4.1595 O.3            1 S1                 0.0000
     10 ****        -3.0065   2.5497   0.5661 C.3            1 S1                 0.0000
     11 ****        -3.0443   1.7754  -0.7644 C.3            1 S1                 0.0000
     12 ****        -2.1968   0.5828  -0.7123 N.pl3          1 S1                 0.0000
     13 ****        -0.9102   0.6762  -1.1402 C.ar           1 S1                 0.0000
     14 ****        -0.2760   1.8791  -1.1286 N.ar           1 S1                 0.0000
     15 ****         0.9929   1.9787  -1.5360 C.ar           1 S1                 0.0000
     16 ****         1.8015   1.0186  -1.9881 N.ar           1 S1                 0.0000
     17 ****         1.1690  -0.1889  -2.0104 C.ar           1 S1                 0.0000
     18 ****        -0.1719  -0.4472  -1.6089 C.ar           1 S1                 0.0000
     19 ****        -0.4662  -1.7947  -1.7841 N.2            1 S1                 0.0000
     20 ****         0.6393  -2.3045  -2.2555 C.2            1 S1                 0.0000
     21 ****         1.6737  -1.4106  -2.4159 N.pl3          1 S1                 0.0000
     22 ****         3.0065  -1.6979  -2.9154 C.3            1 S1                 0.0000
     23 ****         4.0840  -1.7138  -1.8027 C.3            1 S1                 0.0000
     24 ****         3.7115  -2.6467  -0.6247 C.3            1 S1                 0.0000
     25 ****         3.6025  -3.9916  -1.0445 O.3            1 S1                 0.0000
     26 ****         5.4895  -2.0204  -2.3784 C.3            1 S1                 0.0000
     27 ****         6.6263  -1.9389  -1.3748 C.3            1 S1                 0.0000
     28 ****         7.8460  -1.8107  -2.2802 C.3            1 S1                 0.0000
     29 ****         7.4010  -1.0884  -3.4226 O.3            1 S1                 0.0000
     30 ****         5.9783  -1.0200  -3.4316 C.3            1 S1                 0.0000
     31 ****        -3.8766  -1.8089   1.0796 H              1 S1                 0.0000
     32 ****        -3.7438  -1.6724  -0.6681 H              1 S1                 0.0000
     33 ****        -4.6168  -0.4475   0.2495 H              1 S1                 0.0000
     34 ****        -1.6351  -1.0575   0.4737 H              1 S1                 0.0000
     35 ****        -2.6367  -0.1797   2.5777 H              1 S1                 0.0000
     36 ****        -1.3656   0.8250   1.9235 H              1 S1                 0.0000
     37 ****        -2.4783   2.1831   3.6037 H              1 S1                 0.0000
     38 ****        -3.3862   3.4467   2.8353 H              1 S1                 0.0000
     39 ****        -4.7257   3.8637   4.9578 H              1 S1                 0.0000
     40 ****        -3.7926   2.5934   5.7391 H              1 S1                 0.0000
     41 ****        -5.5504   2.5216   5.7392 H              1 S1                 0.0000
     42 ****        -6.0123   3.3031   2.7053 H              1 S1                 0.0000
     43 ****        -6.8250   2.0287   3.6044 H              1 S1                 0.0000
     44 ****        -5.9851   1.6460   2.1110 H              1 S1                 0.0000
     45 ****        -5.3646   0.4301   4.6812 H              1 S1                 0.0000
     46 ****        -3.7408   3.3555   0.5344 H              1 S1                 0.0000
     47 ****        -2.0303   3.0147   0.7101 H              1 S1                 0.0000
     48 ****        -4.0664   1.4607  -0.9759 H              1 S1                 0.0000
     49 ****        -2.7588   2.4239  -1.5938 H              1 S1                 0.0000
     50 ****         1.4221   2.9689  -1.4937 H              1 S1                 0.0000
     51 ****         0.7338  -3.3539  -2.4952 H              1 S1                 0.0000
     52 ****         2.9827  -2.6577  -3.4332 H              1 S1                 0.0000
     53 ****         3.2432  -0.9476  -3.6701 H              1 S1                 0.0000
     54 ****         4.1235  -0.7053  -1.3886 H              1 S1                 0.0000
     55 ****         4.4560  -2.5869   0.1688 H              1 S1                 0.0000
     56 ****         2.7685  -2.3447  -0.1692 H              1 S1                 0.0000
     57 ****         3.3918  -4.5251  -0.2934 H              1 S1                 0.0000
     58 ****         5.4937  -3.0170  -2.8228 H              1 S1                 0.0000
     59 ****         6.5256  -1.0473  -0.7541 H              1 S1                 0.0000
     60 ****         6.6865  -2.8080  -0.7190 H              1 S1                 0.0000
     61 ****         8.6804  -1.3092  -1.7892 H              1 S1                 0.0000
     62 ****         8.1846  -2.7961  -2.6029 H              1 S1                 0.0000
     63 ****         5.5840  -1.2352  -4.4251 H              1 S1                 0.0000
     64 ****         5.6852  -0.0032  -3.1666 H              1 S1                 0.0000
     65 ****        -4.2203   1.2853   1.5457 H              1 S1                 0.0000
     66 ****        -3.7739   0.4471   4.6857 LP             1 S1                 0.0000
     67 ****        -4.6043   0.0779   3.3289 LP             1 S1                 0.0000
     68 ****        -0.7621   2.6941  -0.8133 LP             1 S1                 0.0000
     69 ****         2.7486   1.1656  -2.2736 LP             1 S1                 0.0000
     70 ****        -1.3274  -2.2656  -1.5928 LP             1 S1                 0.0000
     71 ****         4.4706  -4.2930  -1.4392 LP             1 S1                 0.0000
     72 ****         2.8787  -4.0733  -1.7297 LP             1 S1                 0.0000
     73 ****         7.7156  -1.5522  -4.2509 LP             1 S1                 0.0000
     74 ****         7.7770  -0.1622  -3.3960 LP             1 S1                 0.0000
@<TRIPOS>BOND
    1    1    2 1     
    2    1   31 1     
    3    1   32 1     
    4    1   33 1     
    5    2   12 1     
    6    2    3 1     
    7    2   34 1     
    8    3    4 1     
    9    3   35 1     
   10    3   36 1     
   11    4    5 1     
   12    4   10 1     
   13    4   65 1     
   14    5    6 1     
   15    5   37 1     
   16    5   38 1     
   17    6    7 1     
   18    6    8 1     
   19    6    9 1     
   20    7   39 1     
   21    7   40 1     
   22    7   41 1     
   23    8   42 1     
   24    8   43 1     
   25    8   44 1     
   26    9   45 1     
   27   10   11 1     
   28   10   46 1     
   29   10   47 1     
   30   11   12 1     
   31   11   48 1     
   32   11   49 1     
   33   12   13 1     
   34   13   18 ar    
   35   13   14 ar    
   36   14   15 ar    
   37   15   16 ar    
   38   15   50 1     
   39   16   17 ar    
   40   17   21 1     
   41   17   18 ar    
   42   18   19 1     
   43   19   20 2     
   44   20   21 1     
   45   20   51 1     
   46   21   22 1     
   47   22   23 1     
   48   22   52 1     
   49   22   53 1     
   50   23   24 1     
   51   23   26 1     
   52   23   54 1     
   53   24   25 1     
   54   24   55 1     
   55   24   56 1     
   56   25   57 1     
   57   26   30 1     
   58   26   27 1     
   59   26   58 1     
   60   27   28 1     
   61   27   59 1     
   62   27   60 1     
   63   28   29 1     
   64   28   61 1     
   65   28   62 1     
   66   29   30 1     
   67   30   63 1     
   68   30   64 1     
   69    9   66 1     
   70    9   67 1     
   71   14   68 1     
   72   16   69 1     
   73   19   70 1     
   74   25   71 1     
   75   25   72 1     
   76   29   73 1     
   77   29   74 1     
@<TRIPOS>SUBSTRUCTURE
      1 S1             1
@<TRIPOS>SET
LONE_PAIRS      STATIC     ATOMS    <user>   **** ""
9 66 67 68 69 70 71 72 73 74
DONOR_HYDROGENS      STATIC     ATOMS    <user>   **** ""
3 65 45 57
ATOM$BLUE        STATIC     ATOMS    COLORGROUP SYSTEM
9 66 67 68 69 70 71 72 73 74
ATOM$RED        STATIC     ATOMS    COLORGROUP SYSTEM
3 65 45 57
