AV-unprocessed.smi:1026|AV-procd|sdf|4468|dock10
  -GOLD-   22720 2443D 1   1.00000     0.00000
 Structure written by MMmdl.
 40 41  0  0  0  0  0  0  0  0  1 V2000
  143.9329  145.2630  155.3791 C   0  0  0  0  0  0  0  0  0  0  0  0
  144.5258  143.9757  155.9621 C   0  0  0  0  0  0  0  0  0  0  0  0
  145.4622  143.2979  155.0186 C   0  0  0  0  0  0  0  0  0  0  0  0
  146.1423  142.1904  155.3261 N   0  0  0  0  0  0  0  0  0  0  0  0
  146.9803  141.7663  154.2901 C   0  0  0  0  0  0  0  0  0  0  0  0
  147.8124  140.5317  154.4617 C   0  0  0  0  0  0  0  0  0  0  0  0
  149.3195  140.8340  154.4196 C   0  0  0  0  0  0  0  0  0  0  0  0
  149.6578  141.9842  155.2497 N   0  0  0  0  0  0  0  0  0  0  0  0
  150.5709  141.9807  156.2357 C   0  0  0  0  0  0  0  0  0  0  0  0
  151.2374  140.9924  156.5369 O   0  0  0  0  0  0  0  0  0  0  0  0
  150.7120  143.1525  156.8816 N   0  0  0  0  0  0  0  0  0  0  0  0
  151.6092  143.4832  157.9910 C   0  0  0  0  0  0  0  0  0  0  0  0
  151.5133  142.4133  159.0996 C   0  0  0  0  0  0  0  0  0  0  0  0
  152.4771  142.6850  160.2639 C   0  0  0  0  0  0  0  0  0  0  0  0
  152.0938  144.2558  161.0853 S   0  0  0  0  0  0  0  0  0  0  0  0
  152.2013  145.3471  159.6413 C   0  0  0  0  0  0  0  0  0  0  0  0
  151.2558  144.8855  158.5227 C   0  0  0  0  0  0  0  0  0  0  0  0
  146.9315  142.5816  153.1869 C   0  0  0  0  0  0  0  0  0  0  0  0
  145.8339  143.9160  153.4132 S   0  0  0  0  0  0  0  0  0  0  0  0
  143.2568  145.7364  156.0912 H   0  0  0  0  0  0  0  0  0  0  0  0
  143.3692  145.0591  154.4684 H   0  0  0  0  0  0  0  0  0  0  0  0
  144.7164  145.9813  155.1355 H   0  0  0  0  0  0  0  0  0  0  0  0
  145.0574  144.1969  156.8884 H   0  0  0  0  0  0  0  0  0  0  0  0
  143.7259  143.2809  156.2194 H   0  0  0  0  0  0  0  0  0  0  0  0
  147.5668  140.0470  155.4072 H   0  0  0  0  0  0  0  0  0  0  0  0
  147.5600  139.8103  153.6835 H   0  0  0  0  0  0  0  0  0  0  0  0
  149.8953  139.9625  154.7363 H   0  0  0  0  0  0  0  0  0  0  0  0
  149.6257  141.0525  153.3963 H   0  0  0  0  0  0  0  0  0  0  0  0
  149.1593  142.8427  155.0668 H   0  0  0  0  0  0  0  0  0  0  0  0
  150.1343  143.9121  156.5510 H   0  0  0  0  0  0  0  0  0  0  0  0
  152.6358  143.5228  157.6223 H   0  0  0  0  0  0  0  0  0  0  0  0
  150.4910  142.3572  159.4765 H   0  0  0  0  0  0  0  0  0  0  0  0
  151.7374  141.4300  158.6849 H   0  0  0  0  0  0  0  0  0  0  0  0
  152.4139  141.8838  161.0002 H   0  0  0  0  0  0  0  0  0  0  0  0
  153.5071  142.7114  159.9073 H   0  0  0  0  0  0  0  0  0  0  0  0
  151.9504  146.3616  159.9519 H   0  0  0  0  0  0  0  0  0  0  0  0
  153.2322  145.3675  159.2860 H   0  0  0  0  0  0  0  0  0  0  0  0
  151.3032  145.6058  157.7049 H   0  0  0  0  0  0  0  0  0  0  0  0
  150.2265  144.9018  158.8839 H   0  0  0  0  0  0  0  0  0  0  0  0
  147.4753  142.4810  152.2594 H   0  0  0  0  0  0  0  0  0  0  0  0
  1  2  1  0  0  0  0
  1 20  1  0  0  0  0
  1 21  1  0  0  0  0
  1 22  1  0  0  0  0
  2  3  1  0  0  0  0
  2 23  1  0  0  0  0
  2 24  1  0  0  0  0
  3 19  1  0  0  0  0
  3  4  2  0  0  0  0
  4  5  1  0  0  0  0
  5  6  1  0  0  0  0
  5 18  2  0  0  0  0
  6  7  1  0  0  0  0
  6 25  1  0  0  0  0
  6 26  1  0  0  0  0
  7  8  1  0  0  0  0
  7 27  1  0  0  0  0
  7 28  1  0  0  0  0
  8  9  1  0  0  0  0
  8 29  1  0  0  0  0
  9 10  2  0  0  0  0
  9 11  1  0  0  0  0
 11 12  1  0  0  0  0
 11 30  1  0  0  0  0
 12 17  1  0  0  0  0
 12 13  1  0  0  0  0
 12 31  1  0  0  0  0
 13 14  1  0  0  0  0
 13 32  1  0  0  0  0
 13 33  1  0  0  0  0
 14 15  1  0  0  0  0
 14 34  1  0  0  0  0
 14 35  1  0  0  0  0
 15 16  1  0  0  0  0
 16 17  1  0  0  0  0
 16 36  1  0  0  0  0
 16 37  1  0  0  0  0
 17 38  1  0  0  0  0
 17 39  1  0  0  0  0
 18 19  1  0  0  0  0
 18 40  1  0  0  0  0
M  END
> <s_m_source_file>
AV-unprocessed.smi

> <i_m_source_file_index>
1026

> <i_lp_mmshare_version>
43012

> <i_f3d_flags>
0

> <s_epik_input>
W0NIM11bQ0gyXWMxbmMoW2NIXXMxKVtDSDJdW0NIMl1bTkhdQyg9TylbTkhdW0NIXTJbQ0gyXVtDSDJdU1tDSDJdW0NIMl0y

> <s_epik_cmdline>
J2VwaWtfcHl0aG9uJywgJy1waCcsICc3LjAnLCAnLXRuJywgJzgnLCAnLW1hJywgJzIwMCcsICctbWV0YWxfYmluZGluZycsICctaW1hZScsICc8aW5maWxlLm1hZT4nLCAnLW9tYWUnLCAnPG91dGZpbGUubWFlPic=

> <r_epik_Ionization_Penalty>
0.00199316

> <r_epik_Ionization_Penalty_Charging>
0

> <r_epik_Ionization_Penalty_Neutral>
0.00199316

> <r_epik_State_Penalty>
0.00132065

> <r_epik_Charging_Adjusted_Penalty>
0.00132065

> <i_epik_Tot_Q>
0

> <i_epik_Tot_abs_Q>
0

> <r_epik_Metal_State_Penalty>
-0

> <b_epik_Metal_Only>
0

> <s_lp_Force_Field>
OPLS_2005

> <r_lp_Energy>
4.0728

> <b_lp_Chiralities_Consistent>
1

> <s_lp_Variant>
AV-unprocessed.smi:1026-1

> <Gold.Version>
5.8.1

> <Gold.Id.Protein>
6NUR|6NUR_protein|mol2

> <Gold.PLP.Fitness>
49.1104

> <Gold.PLP.PLP>
-43.6749

> <Gold.PLP.part.hbond>
-2.0000

> <Gold.PLP.part.metal>
0.0000

> <Gold.PLP.part.buried>
-7.5670

> <Gold.PLP.part.nonpolar>
-33.4278

> <Gold.PLP.part.repulsive>
0.3706

> <Gold.PLP.ligand.clash>
0.0000

> <Gold.PLP.ligand.torsion>
0.1646

> <Gold.PLP.Chemscore.Hbond>
1.9120

> <Gold.PLP.Chemscore.CHOScore>
0.0000

> <Gold.PLP.Chemscore.Metal>
0.0000

> <Gold.Chemscore.Hbonds>
donor molecule, donor type, donor heavy atom, donor atom, acceptor molecule, acceptor atom, score
      L1  H     8    29       P1  8028  0.91
      L1  H    11    30       P1  8028  1.00

> <Gold.PLP.Chemscore.Internal.Correction>
0.0287

> <Gold.Rescore>
     Score         DG    S(hbond)    S(metal)    S(lipo)     H(rot)  DE(clash)    DE(int)     intcor
     19.60     -21.11       1.83        0.00     116.01       1.58       1.44       0.08       ----

> <Gold.Chemscore.Fitness>
19.5965

> <Gold.Chemscore.DG>
-21.1134

> <Gold.Chemscore.ZeroCoef>
-5.4800

> <Gold.Chemscore.Hbond>
1.8255

> <Gold.Chemscore.Metal>
0.0000

> <Gold.Chemscore.Lipo>
116.0071

> <Gold.Chemscore.Internal_Hbond>
0.0000

> <Gold.Chemscore.DEClash>
1.4391

> <Gold.Chemscore.DEInternal>
0.0777

> <Gold.Chemscore.Rot>
1.5768

> <Gold.Chemscore.Internal.Correction>
   9.000000E+99

> <Gold.Chemscore.Hbonds>
donor molecule, donor type, donor heavy atom, donor atom, acceptor molecule, acceptor atom, score
      L1  H     8    29       P1  8028  0.88
      L1  H    11    30       P1  8028  1.00

> <Gold.Chemscore.Hbond.Weighted>
-6.0973

> <Gold.Chemscore.Metal.Weighted>
-0.0000

> <Gold.Chemscore.Lipo.Weighted>
-13.5728

> <Gold.Chemscore.Internal_Hbond.Weighted>
0.0000

> <Gold.Chemscore.DEClash.Weighted>
1.4391

> <Gold.Chemscore.DEInternal.Weighted>
0.0777

> <Gold.Chemscore.Rot.Weighted>
4.0367

> <Gold.Chemscore.Internal.Correction.Weighted>
   9.000000E+99

> <Gold.Protein.RotatedTorsions>
[ 6907 6896 6895 6894 ] final   -8.23 input  -60.11 | X-H torsion
[ 7974 7965 7964 7962 ] final   34.97 input  175.53 | X-H torsion
[ 8008 7997 7996 7995 ] final  142.29 input   59.86 | X-H torsion
[ 10167 10162 10161 10158 ] final -154.67 input  -65.29 | X-H torsion
[ 10718 10713 10712 10709 ] final   56.89 input   66.30 | X-H torsion
[ 10763 10752 10751 10750 ] final -178.05 input  -60.55 | X-H torsion
[ 11005 11000 10999 10996 ] final    2.38 input  -57.11 | X-H torsion

> <Gold.Protein.ActiveResidues>
 VAL166  LYS551  ARG553  GLY616  TRP617  ASP618  TYR619  PRO620  LYS621  CYS622 
 ASP623  PHE694  ASN695  SER759  ASP760  ASP761  ALA762  ILE779  LEU786  VAL792 
 PHE793  MET794  SER795  GLU796  ALA797  LYS798  CYS799  TRP800  GLU811  SER814 

> <Gold.Protein.RotatedAtoms>
  151.4369  135.1016  159.9658 H   0  0  0  0  0  0  0  0  0  0  0  0  # atno 6907 bound_to 6896
  152.4936  133.8565  159.7239 H   0  0  0  0  0  0  0  0  0  0  0  0  # atno 6908 bound_to 6896
  150.9115  133.6933  159.2881 H   0  0  0  0  0  0  0  0  0  0  0  0  # atno 6909 bound_to 6896
  146.1315  139.6201  142.9223 H   0  0  0  0  0  0  0  0  0  0  0  0  # atno 7974 bound_to 7965
  156.2952  140.2292  156.4704 H   0  0  0  0  0  0  0  0  0  0  0  0  # atno 8008 bound_to 7997
  154.7940  140.0452  157.1243 H   0  0  0  0  0  0  0  0  0  0  0  0  # atno 8009 bound_to 7997
  154.9611  140.3054  155.5033 H   0  0  0  0  0  0  0  0  0  0  0  0  # atno 8010 bound_to 7997
  139.6994  143.9288  152.2422 H   0  0  0  0  0  0  0  0  0  0  0  0  # atno 10167 bound_to 10162
  157.5469  130.8737  149.8904 H   0  0  0  0  0  0  0  0  0  0  0  0  # atno 10718 bound_to 10713
  154.5525  135.2814  155.0995 H   0  0  0  0  0  0  0  0  0  0  0  0  # atno 10763 bound_to 10752
  154.2435  135.6352  153.5219 H   0  0  0  0  0  0  0  0  0  0  0  0  # atno 10764 bound_to 10752
  153.0007  135.5565  154.6095 H   0  0  0  0  0  0  0  0  0  0  0  0  # atno 10765 bound_to 10752
  140.6050  133.9801  155.8150 H   0  0  0  0  0  0  0  0  0  0  0  0  # atno 11005 bound_to 11000
  145.5249  141.0430  143.2415 LP  0  0  0  0  0  0  0  0  0  0  0  0  # atno 17320 bound_to 7965
  144.7696  139.6766  143.7200 LP  0  0  0  0  0  0  0  0  0  0  0  0  # atno 17321 bound_to 7965
  139.9126  144.6847  150.8546 LP  0  0  0  0  0  0  0  0  0  0  0  0  # atno 17342 bound_to 10162
  140.7705  143.3432  151.2164 LP  0  0  0  0  0  0  0  0  0  0  0  0  # atno 17343 bound_to 10162
  156.0543  130.3711  150.1128 LP  0  0  0  0  0  0  0  0  0  0  0  0  # atno 17370 bound_to 10713
  156.9303  130.9712  151.3534 LP  0  0  0  0  0  0  0  0  0  0  0  0  # atno 17371 bound_to 10713
  141.0847  134.0009  157.3332 LP  0  0  0  0  0  0  0  0  0  0  0  0  # atno 17394 bound_to 11000
  139.9216  135.0200  156.8085 LP  0  0  0  0  0  0  0  0  0  0  0  0  # atno 17395 bound_to 11000

$$$$
