AV-unprocessed.smi:155|AV-procd|sdf|1280|dock2
  -GOLD-   2262018553D 1   1.00000     0.00000
 Structure written by MMmdl.
 64 67  0  0  0  0  0  0  0  0  3 V2000
  143.4587  133.0990  151.4170 C   0  0  0  0  0  0  0  0  0  0  0  0
  143.7382  133.7538  152.7152 N   0  3  0  0  0  0  0  0  0  0  0  0
  142.9243  134.9804  152.8796 C   0  0  0  0  0  0  0  0  0  0  0  0
  145.1964  133.9649  152.9262 C   0  0  0  0  0  0  0  0  0  0  0  0
  145.9621  132.6817  153.3269 C   0  0  0  0  0  0  0  0  0  0  0  0
  147.2532  132.9374  154.0213 N   0  3  1  0  0  0  0  0  0  0  0  0
  147.4909  132.0375  155.1815 C   0  0  0  0  0  0  0  0  0  0  0  0
  148.0027  132.8440  156.3880 C   0  0  0  0  0  0  0  0  0  0  0  0
  149.4443  133.3644  156.2341 C   0  0  0  0  0  0  0  0  0  0  0  0
  149.6518  134.1238  155.0016 N   0  0  0  0  0  0  0  0  0  0  0  0
  149.3184  135.4468  154.9002 C   0  0  0  0  0  0  0  0  0  0  0  0
  148.0028  135.7549  154.7374 N   0  0  0  0  0  0  0  0  0  0  0  0
  147.5935  137.0218  154.6484 C   0  0  0  0  0  0  0  0  0  0  0  0
  148.3219  138.1345  154.7066 N   0  0  0  0  0  0  0  0  0  0  0  0
  149.6455  137.8496  154.8592 C   0  0  0  0  0  0  0  0  0  0  0  0
  150.2275  136.5506  154.9679 C   0  0  0  0  0  0  0  0  0  0  0  0
  151.6017  136.6844  155.1403 N   0  0  0  0  0  0  0  0  0  0  0  0
  151.8175  137.9699  155.1244 C   0  0  0  0  0  0  0  0  0  0  0  0
  150.6964  138.7453  154.9489 N   0  0  0  0  0  0  0  0  0  0  0  0
  150.6466  140.1978  154.8889 C   0  0  0  0  0  0  0  0  0  0  0  0
  149.6323  140.8454  155.8605 C   0  0  2  0  0  0  0  0  0  0  0  0
  148.8919  141.8668  155.2210 O   0  0  0  0  0  0  0  0  0  0  0  0
  150.2259  141.3655  157.1899 C   0  0  2  0  0  0  0  0  0  0  0  0
  151.1780  142.5596  157.0714 C   0  0  0  0  0  0  0  0  0  0  0  0
  151.9882  142.4266  158.3409 C   0  0  0  0  0  0  0  0  0  0  0  0
  152.1407  140.9127  158.4499 C   0  0  0  0  0  0  0  0  0  0  0  0
  150.9409  140.3654  157.9126 O   0  0  0  0  0  0  0  0  0  0  0  0
  149.7679  133.3188  153.7813 C   0  0  0  0  0  0  0  0  0  0  0  0
  148.4157  133.0236  153.0925 C   0  0  0  0  0  0  0  0  0  0  0  0
  143.7753  133.7297  150.5850 H   0  0  0  0  0  0  0  0  0  0  0  0
  142.3926  132.8974  151.3061 H   0  0  0  0  0  0  0  0  0  0  0  0
  143.9799  132.1439  151.3411 H   0  0  0  0  0  0  0  0  0  0  0  0
  143.2605  135.7668  152.2031 H   0  0  0  0  0  0  0  0  0  0  0  0
  142.9714  135.3570  153.8994 H   0  0  0  0  0  0  0  0  0  0  0  0
  141.8733  134.7809  152.6675 H   0  0  0  0  0  0  0  0  0  0  0  0
  145.6217  134.2883  151.9751 H   0  0  0  0  0  0  0  0  0  0  0  0
  145.3664  134.7941  153.6120 H   0  0  0  0  0  0  0  0  0  0  0  0
  145.2982  132.0842  153.9529 H   0  0  0  0  0  0  0  0  0  0  0  0
  146.1623  132.0770  152.4412 H   0  0  0  0  0  0  0  0  0  0  0  0
  146.5642  131.5513  155.4873 H   0  0  0  0  0  0  0  0  0  0  0  0
  148.1746  131.2281  154.9209 H   0  0  0  0  0  0  0  0  0  0  0  0
  147.3197  133.6702  156.5843 H   0  0  0  0  0  0  0  0  0  0  0  0
  147.9631  132.2130  157.2762 H   0  0  0  0  0  0  0  0  0  0  0  0
  149.7524  133.9408  157.1047 H   0  0  0  0  0  0  0  0  0  0  0  0
  150.1225  132.5104  156.2233 H   0  0  0  0  0  0  0  0  0  0  0  0
  146.5310  137.1640  154.5158 H   0  0  0  0  0  0  0  0  0  0  0  0
  152.8077  138.3901  155.2269 H   0  0  0  0  0  0  0  0  0  0  0  0
  151.6485  140.5803  155.0875 H   0  0  0  0  0  0  0  0  0  0  0  0
  150.4098  140.4891  153.8649 H   0  0  0  0  0  0  0  0  0  0  0  0
  148.9061  140.0735  156.1172 H   0  0  0  0  0  0  0  0  0  0  0  0
  149.1678  142.7017  155.5667 H   0  0  0  0  0  0  0  0  0  0  0  0
  149.4000  141.6660  157.8366 H   0  0  0  0  0  0  0  0  0  0  0  0
  151.8367  142.4627  156.2075 H   0  0  0  0  0  0  0  0  0  0  0  0
  150.6560  143.5137  156.9948 H   0  0  0  0  0  0  0  0  0  0  0  0
  152.9441  142.9494  158.2986 H   0  0  0  0  0  0  0  0  0  0  0  0
  151.4226  142.8114  159.1904 H   0  0  0  0  0  0  0  0  0  0  0  0
  152.9788  140.5708  157.8414 H   0  0  0  0  0  0  0  0  0  0  0  0
  152.3080  140.5804  159.4746 H   0  0  0  0  0  0  0  0  0  0  0  0
  150.4655  133.7742  153.0773 H   0  0  0  0  0  0  0  0  0  0  0  0
  150.2308  132.3685  154.0492 H   0  0  0  0  0  0  0  0  0  0  0  0
  148.4988  132.1067  152.5075 H   0  0  0  0  0  0  0  0  0  0  0  0
  148.2311  133.8237  152.3779 H   0  0  0  0  0  0  0  0  0  0  0  0
  143.4312  133.1002  153.4218 H   0  0  0  0  0  0  0  0  0  0  0  0
  147.1566  133.8546  154.4322 H   0  0  0  0  0  0  0  0  0  0  0  0
  1  2  1  0  0  0  0
  1 30  1  0  0  0  0
  1 31  1  0  0  0  0
  1 32  1  0  0  0  0
  2  3  1  0  0  0  0
  2  4  1  0  0  0  0
  2 63  1  0  0  0  0
  3 33  1  0  0  0  0
  3 34  1  0  0  0  0
  3 35  1  0  0  0  0
  4  5  1  0  0  0  0
  4 36  1  0  0  0  0
  4 37  1  0  0  0  0
  5  6  1  0  0  0  0
  5 38  1  0  0  0  0
  5 39  1  0  0  0  0
  6 29  1  0  0  0  0
  6  7  1  0  0  0  0
  6 64  1  0  0  0  0
  7  8  1  0  0  0  0
  7 40  1  0  0  0  0
  7 41  1  0  0  0  0
  8  9  1  0  0  0  0
  8 42  1  0  0  0  0
  8 43  1  0  0  0  0
  9 10  1  0  0  0  0
  9 44  1  0  0  0  0
  9 45  1  0  0  0  0
 10 11  1  0  0  0  0
 10 28  1  0  0  0  0
 11 16  1  0  0  0  0
 11 12  2  0  0  0  0
 12 13  1  0  0  0  0
 13 14  2  0  0  0  0
 13 46  1  0  0  0  0
 14 15  1  0  0  0  0
 15 19  1  0  0  0  0
 15 16  2  0  0  0  0
 16 17  1  0  0  0  0
 17 18  2  0  0  0  0
 18 19  1  0  0  0  0
 18 47  1  0  0  0  0
 19 20  1  0  0  0  0
 20 21  1  0  0  0  0
 20 48  1  0  0  0  0
 20 49  1  0  0  0  0
 21 22  1  0  0  0  0
 21 23  1  0  0  0  0
 21 50  1  0  0  0  0
 22 51  1  0  0  0  0
 23 27  1  0  0  0  0
 23 24  1  0  0  0  0
 23 52  1  0  0  0  0
 24 25  1  0  0  0  0
 24 53  1  0  0  0  0
 24 54  1  0  0  0  0
 25 26  1  0  0  0  0
 25 55  1  0  0  0  0
 25 56  1  0  0  0  0
 26 27  1  0  0  0  0
 26 57  1  0  0  0  0
 26 58  1  0  0  0  0
 28 29  1  0  0  0  0
 28 59  1  0  0  0  0
 28 60  1  0  0  0  0
 29 61  1  0  0  0  0
 29 62  1  0  0  0  0
M  CHG  1   2   1
M  CHG  1   6   1
M  END
> <s_m_source_file>
AV-unprocessed.smi

> <i_m_source_file_index>
155

> <i_lp_mmshare_version>
43012

> <i_f3d_flags>
0

> <s_epik_input>
W0NIM11OKFtDSDNdKVtDSDJdW0NIMl1OMVtDSDJdW0NIMl1bQ0gyXU4oW0NIMl1bQ0gyXTEpYyhuW2NIXW4yKWMoYzIzKW5bY0hdbjNbQ0gyXVtDQEhdKFtPSF0pW0NAQEhdNFtDSDJdW0NIMl1bQ0gyXU80

> <s_epik_cmdline>
J2VwaWtfcHl0aG9uJywgJy1waCcsICc3LjAnLCAnLXRuJywgJzgnLCAnLW1hJywgJzIwMCcsICctbWV0YWxfYmluZGluZycsICctaW1hZScsICc8aW5maWxlLm1hZT4nLCAnLW9tYWUnLCAnPG91dGZpbGUubWFlPic=

> <r_lp_tautomer_probability>
1

> <r_epik_Ionization_Penalty>
3.0333

> <r_epik_Ionization_Penalty_Charging>
3.03317

> <r_epik_Ionization_Penalty_Neutral>
0.000131872

> <r_epik_State_Penalty>
1.99939

> <r_epik_Charging_Adjusted_Penalty>
5.03256

> <i_epik_Tot_Q>
2

> <i_epik_Tot_abs_Q>
2

> <r_epik_Metal_State_Penalty>
2.00021

> <b_epik_Metal_Only>
0

> <s_lp_Force_Field>
OPLS_2005

> <r_lp_Energy>
60.5665

> <b_lp_Chiralities_Consistent>
1

> <s_lp_Variant>
AV-unprocessed.smi:155-14

> <Gold.Version>
5.8.1

> <Gold.Id.Protein>
6NUR|6NUR_protein|mol2

> <Gold.PLP.Fitness>
45.7667

> <Gold.PLP.PLP>
-39.2380

> <Gold.PLP.part.hbond>
-2.9745

> <Gold.PLP.part.metal>
0.0000

> <Gold.PLP.part.buried>
-5.2572

> <Gold.PLP.part.nonpolar>
-31.4453

> <Gold.PLP.part.repulsive>
0.3335

> <Gold.PLP.ligand.clash>
0.0000

> <Gold.PLP.ligand.torsion>
2.8955

> <Gold.PLP.Chemscore.Hbond>
4.0000

> <Gold.PLP.Chemscore.CHOScore>
0.0000

> <Gold.PLP.Chemscore.Metal>
0.0000

> <Gold.Chemscore.Hbonds>
donor molecule, donor type, donor heavy atom, donor atom, acceptor molecule, acceptor atom, score
      L1  H     2    63       P1 10957  1.92
      L1  H    22    51       P1  8028  0.95
      P1  H 10752 10765       L1    17  1.00

> <Gold.PLP.Chemscore.Internal.Correction>
0.3198

> <Gold.Rescore>
     Score         DG    S(hbond)    S(metal)    S(lipo)     H(rot)  DE(clash)    DE(int)     intcor
     13.90     -18.27       2.86        0.00      87.76       2.75       0.36       4.01       ----

> <Gold.Chemscore.Fitness>
13.9024

> <Gold.Chemscore.DG>
-18.2735

> <Gold.Chemscore.ZeroCoef>
-5.4800

> <Gold.Chemscore.Hbond>
2.8635

> <Gold.Chemscore.Metal>
0.0000

> <Gold.Chemscore.Lipo>
87.7573

> <Gold.Chemscore.Internal_Hbond>
0.0000

> <Gold.Chemscore.DEClash>
0.3587

> <Gold.Chemscore.DEInternal>
4.0124

> <Gold.Chemscore.Rot>
2.7493

> <Gold.Chemscore.Internal.Correction>
   9.000000E+99

> <Gold.Chemscore.Hbonds>
donor molecule, donor type, donor heavy atom, donor atom, acceptor molecule, acceptor atom, score
      L1  H     2    63       P1 10957  0.79
      L1  H    22    51       P1  8028  0.85
      P1  H 10752 10765       L1    17  0.96

> <Gold.Chemscore.Hbond.Weighted>
-9.5641

> <Gold.Chemscore.Metal.Weighted>
-0.0000

> <Gold.Chemscore.Lipo.Weighted>
-10.2676

> <Gold.Chemscore.Internal_Hbond.Weighted>
0.0000

> <Gold.Chemscore.DEClash.Weighted>
0.3587

> <Gold.Chemscore.DEInternal.Weighted>
4.0124

> <Gold.Chemscore.Rot.Weighted>
7.0383

> <Gold.Chemscore.Internal.Correction.Weighted>
   9.000000E+99

> <Gold.Protein.RotatedTorsions>
[ 6907 6896 6895 6894 ] final   21.16 input  -60.11 | X-H torsion
[ 7974 7965 7964 7962 ] final  -38.31 input  175.53 | X-H torsion
[ 8008 7997 7996 7995 ] final  -68.44 input   59.86 | X-H torsion
[ 10167 10162 10161 10158 ] final  -63.97 input  -65.29 | X-H torsion
[ 10718 10713 10712 10709 ] final  133.23 input   66.30 | X-H torsion
[ 10763 10752 10751 10750 ] final -179.38 input  -60.55 | X-H torsion
[ 11005 11000 10999 10996 ] final   79.06 input  -57.11 | X-H torsion

> <Gold.Protein.ActiveResidues>
 VAL166  LYS551  ARG553  GLY616  TRP617  ASP618  TYR619  PRO620  LYS621  CYS622 
 ASP623  PHE694  ASN695  SER759  ASP760  ASP761  ALA762  ILE779  LEU786  VAL792 
 PHE793  MET794  SER795  GLU796  ALA797  LYS798  CYS799  TRP800  GLU811  SER814 

> <Gold.Protein.RotatedAtoms>
  151.9075  135.0353  160.0511 H   0  0  0  0  0  0  0  0  0  0  0  0  # atno 6907 bound_to 6896
  152.2307  133.5051  159.5222 H   0  0  0  0  0  0  0  0  0  0  0  0  # atno 6908 bound_to 6896
  150.7025  134.1137  159.4052 H   0  0  0  0  0  0  0  0  0  0  0  0  # atno 6909 bound_to 6896
  146.0498  140.6497  142.9047 H   0  0  0  0  0  0  0  0  0  0  0  0  # atno 7974 bound_to 7965
  154.4868  140.0873  156.7505 H   0  0  0  0  0  0  0  0  0  0  0  0  # atno 8008 bound_to 7997
  155.4329  140.3450  155.4264 H   0  0  0  0  0  0  0  0  0  0  0  0  # atno 8009 bound_to 7997
  156.1273  140.1491  156.9105 H   0  0  0  0  0  0  0  0  0  0  0  0  # atno 8010 bound_to 7997
  140.5833  143.2330  151.6295 H   0  0  0  0  0  0  0  0  0  0  0  0  # atno 10167 bound_to 10162
  157.4793  131.1085  150.9702 H   0  0  0  0  0  0  0  0  0  0  0  0  # atno 10718 bound_to 10713
  154.5358  135.2803  155.1140 H   0  0  0  0  0  0  0  0  0  0  0  0  # atno 10763 bound_to 10752
  154.2642  135.6316  153.5289 H   0  0  0  0  0  0  0  0  0  0  0  0  # atno 10764 bound_to 10752
  152.9967  135.5613  154.5884 H   0  0  0  0  0  0  0  0  0  0  0  0  # atno 10765 bound_to 10752
  139.9187  134.7813  156.1730 H   0  0  0  0  0  0  0  0  0  0  0  0  # atno 11005 bound_to 11000
  144.7116  140.4061  143.7076 LP  0  0  0  0  0  0  0  0  0  0  0  0  # atno 17320 bound_to 7965
  145.6744  139.1605  143.2736 LP  0  0  0  0  0  0  0  0  0  0  0  0  # atno 17321 bound_to 7965
  139.5183  144.3289  152.0844 LP  0  0  0  0  0  0  0  0  0  0  0  0  # atno 17342 bound_to 10162
  140.2443  144.4237  150.6247 LP  0  0  0  0  0  0  0  0  0  0  0  0  # atno 17343 bound_to 10162
  157.0441  130.5761  149.5360 LP  0  0  0  0  0  0  0  0  0  0  0  0  # atno 17370 bound_to 10713
  156.0113  130.5205  150.7997 LP  0  0  0  0  0  0  0  0  0  0  0  0  # atno 17371 bound_to 10713
  141.0689  133.6806  156.2100 LP  0  0  0  0  0  0  0  0  0  0  0  0  # atno 17394 bound_to 11000
  140.6540  134.5037  157.5579 LP  0  0  0  0  0  0  0  0  0  0  0  0  # atno 17395 bound_to 11000

$$$$
