#       Name:                AV-unprocessed.smi:1868
#       Creating user name   scv26
#       Creation time:       Fri Mar 27 09:29:55 2020


#       File generated by GOLD software.
#

@<TRIPOS>MOLECULE
AV-unprocessed.smi:1868
    50    52     1
SMALL
NO_CHARGES


@<TRIPOS>ATOM
      1 ****        -2.6859   1.8844  -2.3000 C.3            1 S1                 0.0000
      2 ****        -2.9028   2.2801  -0.8740 C.2            1 S1                 0.0000
      3 ****        -3.3941   3.4715  -0.5341 N.2            1 S1                 0.0000
      4 ****        -3.4349   3.4005   0.8451 C.ar           1 S1                 0.0000
      5 ****        -3.8628   4.3488   1.8015 C.ar           1 S1                 0.0000
      6 ****        -3.8096   4.0478   3.1782 C.ar           1 S1                 0.0000
      7 ****        -3.3284   2.7975   3.6175 C.ar           1 S1                 0.0000
      8 ****        -2.8976   1.8379   2.6814 C.ar           1 S1                 0.0000
      9 ****        -2.9533   2.1429   1.3082 C.ar           1 S1                 0.0000
     10 ****        -2.6138   1.4439   0.1533 N.pl3          1 S1                 0.0000
     11 ****        -2.0686   0.0946   0.0842 C.3            1 S1                 0.0000
     12 ****        -0.5272   0.0741   0.0525 C.3            1 S1                 0.0000
     13 ****        -0.0230   0.6753   1.2297 O.3            1 S1                 0.0000
     14 ****         0.0195  -1.3645  -0.0362 C.3            1 S1                 0.0000
     15 ****         1.5016  -1.4123  -0.1317 N.4            1 S1                 1.0000
     16 ****         2.0186  -1.0705  -1.4835 C.3            1 S1                 0.0000
     17 ****         3.5567  -1.0059  -1.4906 C.3            1 S1                 0.0000
     18 ****         4.1984  -2.3088  -0.9797 C.3            1 S1                 0.0000
     19 ****         4.1059  -3.4580  -1.9990 C.3            1 S1                 0.0000
     20 ****         3.5929  -2.6743   0.3874 C.3            1 S1                 0.0000
     21 ****         2.0544  -2.7025   0.3544 C.3            1 S1                 0.0000
     22 ****        -2.9307   2.7117  -2.9672 H              1 S1                 0.0000
     23 ****        -3.3229   1.0379  -2.5569 H              1 S1                 0.0000
     24 ****        -1.6448   1.6082  -2.4655 H              1 S1                 0.0000
     25 ****        -4.2332   5.3093   1.4753 H              1 S1                 0.0000
     26 ****        -4.1397   4.7800   3.9006 H              1 S1                 0.0000
     27 ****        -3.2909   2.5755   4.6741 H              1 S1                 0.0000
     28 ****        -2.5281   0.8801   3.0163 H              1 S1                 0.0000
     29 ****        -2.4377  -0.4711   0.9409 H              1 S1                 0.0000
     30 ****        -2.4719  -0.4022  -0.7986 H              1 S1                 0.0000
     31 ****        -0.1889   0.6631  -0.7987 H              1 S1                 0.0000
     32 ****        -0.3729   1.5517   1.2934 H              1 S1                 0.0000
     33 ****        -0.3088  -1.9092   0.8507 H              1 S1                 0.0000
     34 ****        -0.4132  -1.8881  -0.8901 H              1 S1                 0.0000
     35 ****         1.6643  -1.8049  -2.2079 H              1 S1                 0.0000
     36 ****         1.6290  -0.1057  -1.8058 H              1 S1                 0.0000
     37 ****         3.9178  -0.7752  -2.4935 H              1 S1                 0.0000
     38 ****         3.8776  -0.1775  -0.8573 H              1 S1                 0.0000
     39 ****         5.2615  -2.1164  -0.8281 H              1 S1                 0.0000
     40 ****         3.0746  -3.7287  -2.2229 H              1 S1                 0.0000
     41 ****         4.6066  -4.3519  -1.6261 H              1 S1                 0.0000
     42 ****         4.5859  -3.1846  -2.9392 H              1 S1                 0.0000
     43 ****         3.9782  -3.6363   0.7271 H              1 S1                 0.0000
     44 ****         3.9161  -1.9421   1.1288 H              1 S1                 0.0000
     45 ****         1.6851  -2.9044   1.3607 H              1 S1                 0.0000
     46 ****         1.6983  -3.5160  -0.2791 H              1 S1                 0.0000
     47 ****         1.8440  -0.7049   0.5034 H              1 S1                 0.0000
     48 ****        -3.6655   4.2281  -1.1289 LP             1 S1                 0.0000
     49 ****         0.9754   0.7131   1.1880 LP             1 S1                 0.0000
     50 ****        -0.3033   0.1415   2.0276 LP             1 S1                 0.0000
@<TRIPOS>BOND
    1    1    2 1     
    2    1   22 1     
    3    1   23 1     
    4    1   24 1     
    5    2   10 1     
    6    2    3 2     
    7    3    4 1     
    8    4    9 ar    
    9    4    5 ar    
   10    5    6 ar    
   11    5   25 1     
   12    6    7 ar    
   13    6   26 1     
   14    7    8 ar    
   15    7   27 1     
   16    8    9 ar    
   17    8   28 1     
   18    9   10 1     
   19   10   11 1     
   20   11   12 1     
   21   11   29 1     
   22   11   30 1     
   23   12   13 1     
   24   12   14 1     
   25   12   31 1     
   26   13   32 1     
   27   14   15 1     
   28   14   33 1     
   29   14   34 1     
   30   15   21 1     
   31   15   16 1     
   32   15   47 1     
   33   16   17 1     
   34   16   35 1     
   35   16   36 1     
   36   17   18 1     
   37   17   37 1     
   38   17   38 1     
   39   18   19 1     
   40   18   20 1     
   41   18   39 1     
   42   19   40 1     
   43   19   41 1     
   44   19   42 1     
   45   20   21 1     
   46   20   43 1     
   47   20   44 1     
   48   21   45 1     
   49   21   46 1     
   50    3   48 1     
   51   13   49 1     
   52   13   50 1     
@<TRIPOS>SUBSTRUCTURE
      1 S1             1
@<TRIPOS>SET
LONE_PAIRS      STATIC     ATOMS    <user>   **** ""
3 48 49 50
DONOR_HYDROGENS      STATIC     ATOMS    <user>   **** ""
2 32 47
ATOM$BLUE        STATIC     ATOMS    COLORGROUP SYSTEM
3 48 49 50
ATOM$RED        STATIC     ATOMS    COLORGROUP SYSTEM
2 32 47
