AV-unprocessed.smi:3274|AV-procd|sdf|12527|dock4
  -GOLD-   2272018443D 1   1.00000     0.00000
 Structure written by MMmdl.
 43 44  0  0  0  0  0  0  0  0  2 V2000
  151.4886  145.3836  159.1878 C   0  0  0  0  0  0  0  0  0  0  0  0
  151.9234  144.0766  159.8299 C   0  0  0  0  0  0  0  0  0  0  0  0
  152.2293  144.0435  161.1411 C   0  0  0  0  0  0  0  0  0  0  0  0
  152.7382  142.8190  161.8667 C   0  0  0  0  0  0  0  0  0  0  0  0
  153.3305  141.8044  160.8854 C   0  0  0  0  0  0  0  0  0  0  0  0
  152.3731  141.5313  159.7139 C   0  0  2  0  0  0  0  0  0  0  0  0
  152.9712  140.4380  158.8063 C   0  0  0  0  0  0  0  0  0  0  0  0
  152.0146  142.8299  158.9268 C   0  0  1  0  0  0  0  0  0  0  0  0
  150.7310  142.6050  158.0861 C   0  0  0  0  0  0  0  0  0  0  0  0
  150.9143  142.9420  156.6565 N   0  3  0  0  0  0  0  0  0  0  0  0
  150.3753  141.9556  155.6911 C   0  0  1  0  0  0  0  0  0  0  0  0
  151.1803  140.6542  155.8069 C   0  0  0  0  0  0  0  0  0  0  0  0
  148.8729  141.6817  155.9303 C   0  0  0  0  0  0  0  0  0  0  0  0
  148.2091  141.0540  154.8025 N   0  0  0  0  0  0  0  0  0  0  0  0
  148.4266  139.8772  154.2128 C   0  0  0  0  0  0  0  0  0  0  0  0
  147.6140  139.6308  153.1954 N   0  0  0  0  0  0  0  0  0  0  0  0
  146.8814  140.7840  153.2023 C   0  0  0  0  0  0  0  0  0  0  0  0
  147.2008  141.6723  154.1437 N   0  0  0  0  0  0  0  0  0  0  0  0
  152.0804  145.5859  158.2948 H   0  0  0  0  0  0  0  0  0  0  0  0
  151.6223  146.2242  159.8698 H   0  0  0  0  0  0  0  0  0  0  0  0
  150.4339  145.3517  158.9158 H   0  0  0  0  0  0  0  0  0  0  0  0
  152.1286  144.9362  161.7414 H   0  0  0  0  0  0  0  0  0  0  0  0
  153.4978  143.1202  162.5886 H   0  0  0  0  0  0  0  0  0  0  0  0
  151.9154  142.3791  162.4309 H   0  0  0  0  0  0  0  0  0  0  0  0
  154.2796  142.1814  160.5011 H   0  0  0  0  0  0  0  0  0  0  0  0
  153.5588  140.8796  161.4169 H   0  0  0  0  0  0  0  0  0  0  0  0
  151.4533  141.1342  160.1466 H   0  0  0  0  0  0  0  0  0  0  0  0
  153.8866  140.7819  158.3235 H   0  0  0  0  0  0  0  0  0  0  0  0
  152.2838  140.1217  158.0234 H   0  0  0  0  0  0  0  0  0  0  0  0
  153.2212  139.5472  159.3835 H   0  0  0  0  0  0  0  0  0  0  0  0
  152.8410  143.0281  158.2423 H   0  0  0  0  0  0  0  0  0  0  0  0
  150.4128  141.5685  158.1471 H   0  0  0  0  0  0  0  0  0  0  0  0
  149.9127  143.1956  158.5003 H   0  0  0  0  0  0  0  0  0  0  0  0
  150.4265  143.8128  156.5010 H   0  0  0  0  0  0  0  0  0  0  0  0
  150.5218  142.3304  154.6767 H   0  0  0  0  0  0  0  0  0  0  0  0
  150.8382  139.9142  155.0825 H   0  0  0  0  0  0  0  0  0  0  0  0
  151.0862  140.2143  156.8007 H   0  0  0  0  0  0  0  0  0  0  0  0
  152.2401  140.8292  155.6187 H   0  0  0  0  0  0  0  0  0  0  0  0
  148.7465  141.0243  156.7916 H   0  0  0  0  0  0  0  0  0  0  0  0
  148.3503  142.6087  156.1708 H   0  0  0  0  0  0  0  0  0  0  0  0
  149.1874  139.1829  154.5383 H   0  0  0  0  0  0  0  0  0  0  0  0
  146.0886  140.9738  152.4937 H   0  0  0  0  0  0  0  0  0  0  0  0
  151.8949  143.0901  156.4654 H   0  0  0  0  0  0  0  0  0  0  0  0
  1  2  1  0  0  0  0
  1 19  1  0  0  0  0
  1 20  1  0  0  0  0
  1 21  1  0  0  0  0
  2  8  1  0  0  0  0
  2  3  2  0  0  0  0
  3  4  1  0  0  0  0
  3 22  1  0  0  0  0
  4  5  1  0  0  0  0
  4 23  1  0  0  0  0
  4 24  1  0  0  0  0
  5  6  1  0  0  0  0
  5 25  1  0  0  0  0
  5 26  1  0  0  0  0
  6  7  1  0  0  0  0
  6  8  1  0  0  0  0
  6 27  1  0  0  0  0
  7 28  1  0  0  0  0
  7 29  1  0  0  0  0
  7 30  1  0  0  0  0
  8  9  1  0  0  0  0
  8 31  1  0  0  0  0
  9 10  1  0  0  0  0
  9 32  1  0  0  0  0
  9 33  1  0  0  0  0
 10 11  1  0  0  0  0
 10 34  1  0  0  0  0
 10 43  1  0  0  0  0
 11 12  1  0  0  0  0
 11 13  1  0  0  0  0
 11 35  1  0  0  0  0
 12 36  1  0  0  0  0
 12 37  1  0  0  0  0
 12 38  1  0  0  0  0
 13 14  1  0  0  0  0
 13 39  1  0  0  0  0
 13 40  1  0  0  0  0
 14 18  1  0  0  0  0
 14 15  1  0  0  0  0
 15 16  2  0  0  0  0
 15 41  1  0  0  0  0
 16 17  1  0  0  0  0
 17 18  2  0  0  0  0
 17 42  1  0  0  0  0
M  CHG  1  10   1
M  END
> <s_m_source_file>
AV-unprocessed.smi

> <i_m_source_file_index>
3274

> <i_lp_mmshare_version>
43012

> <i_f3d_flags>
0

> <s_epik_input>
W0NIM11DMT1bQ0hdW0NIMl1bQ0gyXVtDQEBIXShbQ0gzXSlbQ0BIXTFbQ0gyXVtOSF1bQ0BIXShbQ0gzXSlbQ0gyXW4yW2NIXW5bY0hdbjI=

> <s_epik_cmdline>
J2VwaWtfcHl0aG9uJywgJy1waCcsICc3LjAnLCAnLXRuJywgJzgnLCAnLW1hJywgJzIwMCcsICctbWV0YWxfYmluZGluZycsICctaW1hZScsICc8aW5maWxlLm1hZT4nLCAnLW9tYWUnLCAnPG91dGZpbGUubWFlPic=

> <r_lp_tautomer_probability>
1

> <r_epik_Ionization_Penalty>
0.0017527

> <r_epik_Ionization_Penalty_Charging>
0.00175191

> <r_epik_Ionization_Penalty_Neutral>
7.94565e-07

> <r_epik_State_Penalty>
0.00118605

> <r_epik_Charging_Adjusted_Penalty>
0.00293796

> <i_epik_Tot_Q>
1

> <i_epik_Tot_abs_Q>
1

> <r_epik_Metal_State_Penalty>
-0

> <b_epik_Metal_Only>
0

> <s_lp_Force_Field>
OPLS_2005

> <r_lp_Energy>
18.4066

> <b_lp_Chiralities_Consistent>
1

> <s_lp_Variant>
AV-unprocessed.smi:3274-6

> <Gold.Version>
5.8.1

> <Gold.Id.Protein>
6NUR|6NUR_protein|mol2

> <Gold.PLP.Fitness>
49.4396

> <Gold.PLP.PLP>
-42.7085

> <Gold.PLP.part.hbond>
-1.0000

> <Gold.PLP.part.metal>
0.0000

> <Gold.PLP.part.buried>
-6.2121

> <Gold.PLP.part.nonpolar>
-37.3843

> <Gold.PLP.part.repulsive>
1.7436

> <Gold.PLP.ligand.clash>
0.0000

> <Gold.PLP.ligand.torsion>
1.1718

> <Gold.PLP.Chemscore.Hbond>
1.9825

> <Gold.PLP.Chemscore.CHOScore>
1.0000

> <Gold.PLP.Chemscore.Metal>
0.0000

> <Gold.Chemscore.Hbonds>
donor molecule, donor type, donor heavy atom, donor atom, acceptor molecule, acceptor atom, score
      L1  H    10    34       P1  8028  1.92
      L1  C    17    42       P1 10175  0.79

> <Gold.PLP.Chemscore.Internal.Correction>
0.1273

> <Gold.Rescore>
     Score         DG    S(hbond)    S(metal)    S(lipo)     H(rot)  DE(clash)    DE(int)     intcor
     15.07     -16.22       0.97        0.00     115.68       2.36       0.07       1.08       ----

> <Gold.Chemscore.Fitness>
15.0704

> <Gold.Chemscore.DG>
-16.2235

> <Gold.Chemscore.ZeroCoef>
-5.4800

> <Gold.Chemscore.Hbond>
0.9743

> <Gold.Chemscore.Metal>
0.0000

> <Gold.Chemscore.Lipo>
115.6808

> <Gold.Chemscore.Internal_Hbond>
0.0000

> <Gold.Chemscore.DEClash>
0.0689

> <Gold.Chemscore.DEInternal>
1.0843

> <Gold.Chemscore.Rot>
2.3615

> <Gold.Chemscore.Internal.Correction>
   9.000000E+99

> <Gold.Chemscore.Hbonds>
donor molecule, donor type, donor heavy atom, donor atom, acceptor molecule, acceptor atom, score
      L1  H    10    34       P1  8028  0.91

> <Gold.Chemscore.Hbond.Weighted>
-3.2543

> <Gold.Chemscore.Metal.Weighted>
-0.0000

> <Gold.Chemscore.Lipo.Weighted>
-13.5347

> <Gold.Chemscore.Internal_Hbond.Weighted>
0.0000

> <Gold.Chemscore.DEClash.Weighted>
0.0689

> <Gold.Chemscore.DEInternal.Weighted>
1.0843

> <Gold.Chemscore.Rot.Weighted>
6.0454

> <Gold.Chemscore.Internal.Correction.Weighted>
   9.000000E+99

> <Gold.Protein.RotatedTorsions>
[ 6907 6896 6895 6894 ] final  -93.68 input  -60.11 | X-H torsion
[ 7974 7965 7964 7962 ] final  136.76 input  175.53 | X-H torsion
[ 8008 7997 7996 7995 ] final  -30.02 input   59.86 | X-H torsion
[ 10167 10162 10161 10158 ] final  100.36 input  -65.29 | X-H torsion
[ 10718 10713 10712 10709 ] final   30.27 input   66.30 | X-H torsion
[ 10763 10752 10751 10750 ] final   44.22 input  -60.55 | X-H torsion
[ 11005 11000 10999 10996 ] final   36.51 input  -57.11 | X-H torsion

> <Gold.Protein.ActiveResidues>
 VAL166  LYS551  ARG553  GLY616  TRP617  ASP618  TYR619  PRO620  LYS621  CYS622 
 ASP623  PHE694  ASN695  SER759  ASP760  ASP761  ALA762  ILE779  LEU786  VAL792 
 PHE793  MET794  SER795  GLU796  ALA797  LYS798  CYS799  TRP800  GLU811  SER814 

> <Gold.Protein.RotatedAtoms>
  150.6927  134.1929  159.4292 H   0  0  0  0  0  0  0  0  0  0  0  0  # atno 6907 bound_to 6896
  151.9899  134.9982  160.0570 H   0  0  0  0  0  0  0  0  0  0  0  0  # atno 6908 bound_to 6896
  152.1677  133.4588  159.4930 H   0  0  0  0  0  0  0  0  0  0  0  0  # atno 6909 bound_to 6896
  144.9533  139.4793  143.5515 H   0  0  0  0  0  0  0  0  0  0  0  0  # atno 7974 bound_to 7965
  154.4266  140.1802  156.1341 H   0  0  0  0  0  0  0  0  0  0  0  0  # atno 8008 bound_to 7997
  156.0044  140.3357  155.6852 H   0  0  0  0  0  0  0  0  0  0  0  0  # atno 8009 bound_to 7997
  155.6198  140.0658  157.2672 H   0  0  0  0  0  0  0  0  0  0  0  0  # atno 8010 bound_to 7997
  139.7534  144.6977  151.0398 H   0  0  0  0  0  0  0  0  0  0  0  0  # atno 10167 bound_to 10162
  157.2574  130.7144  149.6436 H   0  0  0  0  0  0  0  0  0  0  0  0  # atno 10718 bound_to 10713
  152.9845  135.6077  154.3238 H   0  0  0  0  0  0  0  0  0  0  0  0  # atno 10763 bound_to 10752
  154.2946  135.2774  155.2641 H   0  0  0  0  0  0  0  0  0  0  0  0  # atno 10764 bound_to 10752
  154.4920  135.5889  153.6523 H   0  0  0  0  0  0  0  0  0  0  0  0  # atno 10765 bound_to 10752
  140.2318  134.3518  155.7961 H   0  0  0  0  0  0  0  0  0  0  0  0  # atno 11005 bound_to 11000
  146.3328  139.8633  142.8852 LP  0  0  0  0  0  0  0  0  0  0  0  0  # atno 17320 bound_to 7965
  145.2810  141.0139  143.3717 LP  0  0  0  0  0  0  0  0  0  0  0  0  # atno 17321 bound_to 7965
  140.7800  143.4782  151.0054 LP  0  0  0  0  0  0  0  0  0  0  0  0  # atno 17342 bound_to 10162
  139.8469  143.7489  152.3179 LP  0  0  0  0  0  0  0  0  0  0  0  0  # atno 17343 bound_to 10162
  155.9664  130.4408  150.5315 LP  0  0  0  0  0  0  0  0  0  0  0  0  # atno 17370 bound_to 10713
  157.3212  131.0682  151.1930 LP  0  0  0  0  0  0  0  0  0  0  0  0  # atno 17371 bound_to 10713
  141.2217  133.7250  156.8744 LP  0  0  0  0  0  0  0  0  0  0  0  0  # atno 17394 bound_to 11000
  140.1743  134.9078  157.2871 LP  0  0  0  0  0  0  0  0  0  0  0  0  # atno 17395 bound_to 11000

$$$$
