AV-unprocessed.smi:2079|AV-procd|sdf|8476|dock4
  -GOLD-   2272011183D 1   1.00000     0.00000
 Structure written by MMmdl.
 42 43  0  0  0  0  0  0  0  0  2 V2000
  153.4684  137.4846  156.9777 C   0  0  0  0  0  0  0  0  0  0  0  0
  152.5482  138.1788  156.0330 C   0  0  0  0  0  0  0  0  0  0  0  0
  151.4842  137.7529  155.2884 C   0  0  0  0  0  0  0  0  0  0  0  0
  151.0724  138.9338  154.6153 C   0  0  0  0  0  0  0  0  0  0  0  0
  149.9723  138.9165  153.7203 N   0  0  0  0  0  0  0  0  0  0  0  0
  148.6940  138.6128  154.0026 C   0  0  0  0  0  0  0  0  0  0  0  0
  148.2699  138.2793  155.1096 O   0  0  0  0  0  0  0  0  0  0  0  0
  147.9146  138.7123  152.9157 N   0  0  0  0  0  0  0  0  0  0  0  0
  146.4783  138.4600  152.9001 C   0  0  0  0  0  0  0  0  0  0  0  0
  146.1351  137.1117  153.5650 C   0  0  0  0  0  0  0  0  0  0  0  0
  146.1859  135.9580  152.6268 N   0  3  1  0  0  0  0  0  0  0  0  0
  146.3762  134.6687  153.3455 C   0  0  0  0  0  0  0  0  0  0  0  0
  146.6402  133.5123  152.3687 C   0  0  0  0  0  0  0  0  0  0  0  0
  145.5148  133.3978  151.3355 C   0  0  0  0  0  0  0  0  0  0  0  0
  145.3285  134.7419  150.6191 C   0  0  0  0  0  0  0  0  0  0  0  0
  145.0888  135.9027  151.6082 C   0  0  1  0  0  0  0  0  0  0  0  0
  143.6727  135.8626  152.2223 C   0  0  0  0  0  0  0  0  0  0  0  0
  151.8165  139.9856  154.9219 N   0  0  0  0  0  0  0  0  0  0  0  0
  152.7667  139.5069  155.8315 O   0  0  0  0  0  0  0  0  0  0  0  0
  153.0312  136.5507  157.3312 H   0  0  0  0  0  0  0  0  0  0  0  0
  153.6764  138.1094  157.8465 H   0  0  0  0  0  0  0  0  0  0  0  0
  154.4165  137.2529  156.4921 H   0  0  0  0  0  0  0  0  0  0  0  0
  151.0712  136.7564  155.2353 H   0  0  0  0  0  0  0  0  0  0  0  0
  150.1808  139.1700  152.7660 H   0  0  0  0  0  0  0  0  0  0  0  0
  148.3404  138.9934  152.0445 H   0  0  0  0  0  0  0  0  0  0  0  0
  145.9764  139.2920  153.3943 H   0  0  0  0  0  0  0  0  0  0  0  0
  146.1419  138.4614  151.8628 H   0  0  0  0  0  0  0  0  0  0  0  0
  146.8616  136.9395  154.3604 H   0  0  0  0  0  0  0  0  0  0  0  0
  145.1628  137.1505  154.0564 H   0  0  0  0  0  0  0  0  0  0  0  0
  147.2242  134.7513  154.0264 H   0  0  0  0  0  0  0  0  0  0  0  0
  145.5046  134.4524  153.9639 H   0  0  0  0  0  0  0  0  0  0  0  0
  147.5913  133.6727  151.8590 H   0  0  0  0  0  0  0  0  0  0  0  0
  146.7381  132.5755  152.9180 H   0  0  0  0  0  0  0  0  0  0  0  0
  145.7472  132.6154  150.6122 H   0  0  0  0  0  0  0  0  0  0  0  0
  144.5875  133.1004  151.8261 H   0  0  0  0  0  0  0  0  0  0  0  0
  146.2208  134.9543  150.0282 H   0  0  0  0  0  0  0  0  0  0  0  0
  144.5055  134.6744  149.9066 H   0  0  0  0  0  0  0  0  0  0  0  0
  145.1455  136.8100  151.0083 H   0  0  0  0  0  0  0  0  0  0  0  0
  142.9164  135.7931  151.4399 H   0  0  0  0  0  0  0  0  0  0  0  0
  143.4508  136.7663  152.7893 H   0  0  0  0  0  0  0  0  0  0  0  0
  143.5309  135.0096  152.8851 H   0  0  0  0  0  0  0  0  0  0  0  0
  147.0348  136.0873  152.0950 H   0  0  0  0  0  0  0  0  0  0  0  0
  1  2  1  0  0  0  0
  1 20  1  0  0  0  0
  1 21  1  0  0  0  0
  1 22  1  0  0  0  0
  2 19  1  0  0  0  0
  2  3  2  0  0  0  0
  3  4  1  0  0  0  0
  3 23  1  0  0  0  0
  4  5  1  0  0  0  0
  4 18  2  0  0  0  0
  5  6  1  0  0  0  0
  5 24  1  0  0  0  0
  6  7  2  0  0  0  0
  6  8  1  0  0  0  0
  8  9  1  0  0  0  0
  8 25  1  0  0  0  0
  9 10  1  0  0  0  0
  9 26  1  0  0  0  0
  9 27  1  0  0  0  0
 10 11  1  0  0  0  0
 10 28  1  0  0  0  0
 10 29  1  0  0  0  0
 11 16  1  0  0  0  0
 11 12  1  0  0  0  0
 11 42  1  0  0  0  0
 12 13  1  0  0  0  0
 12 30  1  0  0  0  0
 12 31  1  0  0  0  0
 13 14  1  0  0  0  0
 13 32  1  0  0  0  0
 13 33  1  0  0  0  0
 14 15  1  0  0  0  0
 14 34  1  0  0  0  0
 14 35  1  0  0  0  0
 15 16  1  0  0  0  0
 15 36  1  0  0  0  0
 15 37  1  0  0  0  0
 16 17  1  0  0  0  0
 16 38  1  0  0  0  0
 17 39  1  0  0  0  0
 17 40  1  0  0  0  0
 17 41  1  0  0  0  0
 18 19  1  0  0  0  0
M  CHG  1  11   1
M  END
> <s_m_source_file>
AV-unprocessed.smi

> <i_m_source_file_index>
2079

> <i_lp_mmshare_version>
43012

> <i_f3d_flags>
0

> <s_epik_input>
W0NIM11jMVtjSF1jKG5vMSlbTkhdQyg9TylbTkhdW0NIMl1bQ0gyXU4yW0NIMl1bQ0gyXVtDSDJdW0NIMl1bQ0BIXTJbQ0gzXQ==

> <s_epik_cmdline>
J2VwaWtfcHl0aG9uJywgJy1waCcsICc3LjAnLCAnLXRuJywgJzgnLCAnLW1hJywgJzIwMCcsICctbWV0YWxfYmluZGluZycsICctaW1hZScsICc8aW5maWxlLm1hZT4nLCAnLW9tYWUnLCAnPG91dGZpbGUubWFlPic=

> <r_epik_Ionization_Penalty>
0.00265971

> <r_epik_Ionization_Penalty_Charging>
0.00262393

> <r_epik_Ionization_Penalty_Neutral>
3.57846e-05

> <r_epik_State_Penalty>
0.00182566

> <r_epik_Charging_Adjusted_Penalty>
0.00444959

> <i_epik_Tot_Q>
1

> <i_epik_Tot_abs_Q>
1

> <r_epik_Metal_State_Penalty>
0.0216344

> <b_epik_Metal_Only>
0

> <s_lp_Force_Field>
OPLS_2005

> <r_lp_Energy>
16.3098

> <b_lp_Chiralities_Consistent>
1

> <s_lp_Variant>
AV-unprocessed.smi:2079-2

> <Gold.Version>
5.8.1

> <Gold.Id.Protein>
6NUR|6NUR_protein|mol2

> <Gold.PLP.Fitness>
46.7552

> <Gold.PLP.PLP>
-30.7157

> <Gold.PLP.part.hbond>
-6.0000

> <Gold.PLP.part.metal>
0.0000

> <Gold.PLP.part.buried>
-5.2346

> <Gold.PLP.part.nonpolar>
-20.9875

> <Gold.PLP.part.repulsive>
0.2896

> <Gold.PLP.ligand.clash>
0.0000

> <Gold.PLP.ligand.torsion>
0.9316

> <Gold.PLP.Chemscore.Hbond>
5.9520

> <Gold.PLP.Chemscore.CHOScore>
0.0000

> <Gold.PLP.Chemscore.Metal>
0.0000

> <Gold.Chemscore.Hbonds>
donor molecule, donor type, donor heavy atom, donor atom, acceptor molecule, acceptor atom, score
      L1  H     5    24       P1  7957  0.98
      L1  H     8    25       P1  7957  1.00
      L1  H    11    42       P1  7948  2.00
      P1  H  7989  7998       L1    18  0.96
      P1  H  7997  8009       L1    19  1.00

> <Gold.PLP.Chemscore.Internal.Correction>
0.0466

> <Gold.Rescore>
     Score         DG    S(hbond)    S(metal)    S(lipo)     H(rot)  DE(clash)    DE(int)     intcor
     19.67     -21.82       4.20        0.00      54.17       1.57       0.13       2.02       ----

> <Gold.Chemscore.Fitness>
19.6743

> <Gold.Chemscore.DG>
-21.8249

> <Gold.Chemscore.ZeroCoef>
-5.4800

> <Gold.Chemscore.Hbond>
4.1991

> <Gold.Chemscore.Metal>
0.0000

> <Gold.Chemscore.Lipo>
54.1748

> <Gold.Chemscore.Internal_Hbond>
0.0000

> <Gold.Chemscore.DEClash>
0.1288

> <Gold.Chemscore.DEInternal>
2.0218

> <Gold.Chemscore.Rot>
1.5697

> <Gold.Chemscore.Internal.Correction>
   9.000000E+99

> <Gold.Chemscore.Hbonds>
donor molecule, donor type, donor heavy atom, donor atom, acceptor molecule, acceptor atom, score
      L1  H     5    24       P1  7957  0.69
      L1  H     8    25       P1  7957  0.92
      L1  H    11    42       P1  7948  0.98
      P1  H  7989  7998       L1    18  0.24
      P1  H  7997  8009       L1    19  0.96

> <Gold.Chemscore.Hbond.Weighted>
-14.0249

> <Gold.Chemscore.Metal.Weighted>
-0.0000

> <Gold.Chemscore.Lipo.Weighted>
-6.3385

> <Gold.Chemscore.Internal_Hbond.Weighted>
0.0000

> <Gold.Chemscore.DEClash.Weighted>
0.1288

> <Gold.Chemscore.DEInternal.Weighted>
2.0218

> <Gold.Chemscore.Rot.Weighted>
4.0185

> <Gold.Chemscore.Internal.Correction.Weighted>
   9.000000E+99

> <Gold.Protein.RotatedTorsions>
[ 6907 6896 6895 6894 ] final  -52.23 input  -60.11 | X-H torsion
[ 7974 7965 7964 7962 ] final -147.81 input  175.53 | X-H torsion
[ 8008 7997 7996 7995 ] final -155.43 input   59.86 | X-H torsion
[ 10167 10162 10161 10158 ] final -101.53 input  -65.29 | X-H torsion
[ 10718 10713 10712 10709 ] final -112.39 input   66.30 | X-H torsion
[ 10763 10752 10751 10750 ] final -133.30 input  -60.55 | X-H torsion
[ 11005 11000 10999 10996 ] final   16.75 input  -57.11 | X-H torsion

> <Gold.Protein.ActiveResidues>
 VAL166  LYS551  ARG553  GLY616  TRP617  ASP618  TYR619  PRO620  LYS621  CYS622 
 ASP623  PHE694  ASN695  SER759  ASP760  ASP761  ALA762  ILE779  LEU786  VAL792 
 PHE793  MET794  SER795  GLU796  ALA797  LYS798  CYS799  TRP800  GLU811  SER814 

> <Gold.Protein.RotatedAtoms>
  150.8537  134.7870  159.7028 H   0  0  0  0  0  0  0  0  0  0  0  0  # atno 6907 bound_to 6896
  152.4595  134.5213  159.9793 H   0  0  0  0  0  0  0  0  0  0  0  0  # atno 6908 bound_to 6896
  151.5330  133.3408  159.2957 H   0  0  0  0  0  0  0  0  0  0  0  0  # atno 6909 bound_to 6896
  144.8069  140.5278  143.5669 H   0  0  0  0  0  0  0  0  0  0  0  0  # atno 7974 bound_to 7965
  155.7017  140.0767  157.2407 H   0  0  0  0  0  0  0  0  0  0  0  0  # atno 8008 bound_to 7997
  154.4072  140.1646  156.2251 H   0  0  0  0  0  0  0  0  0  0  0  0  # atno 8009 bound_to 7997
  155.9362  140.3388  155.6292 H   0  0  0  0  0  0  0  0  0  0  0  0  # atno 8010 bound_to 7997
  140.2403  143.3544  152.0808 H   0  0  0  0  0  0  0  0  0  0  0  0  # atno 10167 bound_to 10162
  156.0703  130.5917  150.8502 H   0  0  0  0  0  0  0  0  0  0  0  0  # atno 10718 bound_to 10713
  154.8734  135.3770  154.4551 H   0  0  0  0  0  0  0  0  0  0  0  0  # atno 10763 bound_to 10752
  153.5224  135.7029  153.5730 H   0  0  0  0  0  0  0  0  0  0  0  0  # atno 10764 bound_to 10752
  153.3971  135.3957  155.1928 H   0  0  0  0  0  0  0  0  0  0  0  0  # atno 10765 bound_to 10752
  140.4436  134.1296  155.7693 H   0  0  0  0  0  0  0  0  0  0  0  0  # atno 11005 bound_to 11000
  145.5416  139.1475  143.3444 LP  0  0  0  0  0  0  0  0  0  0  0  0  # atno 17320 bound_to 7965
  146.2362  140.5556  142.8954 LP  0  0  0  0  0  0  0  0  0  0  0  0  # atno 17321 bound_to 7965
  139.5080  144.6841  151.5932 LP  0  0  0  0  0  0  0  0  0  0  0  0  # atno 17342 bound_to 10162
  140.6119  143.9421  150.6459 LP  0  0  0  0  0  0  0  0  0  0  0  0  # atno 17343 bound_to 10162
  157.5769  131.0946  150.9331 LP  0  0  0  0  0  0  0  0  0  0  0  0  # atno 17370 bound_to 10713
  156.9535  130.5428  149.5283 LP  0  0  0  0  0  0  0  0  0  0  0  0  # atno 17371 bound_to 10713
  141.1695  133.8637  157.1614 LP  0  0  0  0  0  0  0  0  0  0  0  0  # atno 17394 bound_to 11000
  140.0053  135.0011  157.0280 LP  0  0  0  0  0  0  0  0  0  0  0  0  # atno 17395 bound_to 11000

$$$$
