AV-unprocessed.smi:2658|AV-procd|sdf|10309|dock8
  -GOLD-   2272014323D 1   1.00000     0.00000
 Structure written by MMmdl.
 46 48  0  0  0  0  0  0  0  0  1 V2000
  152.1533  145.3204  159.4737 C   0  0  0  0  0  0  0  0  0  0  0  0
  151.9485  143.8479  159.1641 C   0  0  0  0  0  0  0  0  0  0  0  0
  151.4824  143.4741  157.8837 C   0  0  0  0  0  0  0  0  0  0  0  0
  151.2841  142.1159  157.5531 C   0  0  0  0  0  0  0  0  0  0  0  0
  150.8442  141.5329  156.3771 N   0  0  0  0  0  0  0  0  0  0  0  0
  150.8775  140.2410  156.6907 C   0  0  0  0  0  0  0  0  0  0  0  0
  151.2869  139.9178  157.9325 N   0  0  0  0  0  0  0  0  0  0  0  0
  151.4116  138.5850  158.4949 C   0  0  0  0  0  0  0  0  0  0  0  0
  150.2383  137.6641  158.1066 C   0  0  1  0  0  0  0  0  0  0  0  0
  150.6254  136.3103  158.2370 O   0  0  0  0  0  0  0  0  0  0  0  0
  148.9990  137.9014  158.9817 C   0  0  0  0  0  0  0  0  0  0  0  0
  148.9772  136.9360  160.0296 O   0  0  0  0  0  0  0  0  0  0  0  0
  147.7886  136.7139  160.6938 C   0  0  0  0  0  0  0  0  0  0  0  0
  147.6181  135.5075  161.3990 C   0  0  0  0  0  0  0  0  0  0  0  0
  146.3940  135.3021  162.0628 C   0  0  0  0  0  0  0  0  0  0  0  0
  146.1391  134.0269  162.8442 C   0  0  0  0  0  0  0  0  0  0  0  0
  145.4282  136.3289  161.9653 C   0  0  0  0  0  0  0  0  0  0  0  0
  144.0713  136.2146  162.6349 C   0  0  0  0  0  0  0  0  0  0  0  0
  145.6520  137.4700  161.2730 N   0  0  0  0  0  0  0  0  0  0  0  0
  146.8171  137.6620  160.6461 N   0  0  0  0  0  0  0  0  0  0  0  0
  151.5674  141.1333  158.5465 C   0  0  0  0  0  0  0  0  0  0  0  0
  152.0278  141.4924  159.8256 C   0  0  0  0  0  0  0  0  0  0  0  0
  152.2202  142.8546  160.1394 C   0  0  0  0  0  0  0  0  0  0  0  0
  152.7176  143.2338  161.5229 C   0  0  0  0  0  0  0  0  0  0  0  0
  151.9012  145.9464  158.6173 H   0  0  0  0  0  0  0  0  0  0  0  0
  153.1940  145.5148  159.7337 H   0  0  0  0  0  0  0  0  0  0  0  0
  151.5237  145.6272  160.3092 H   0  0  0  0  0  0  0  0  0  0  0  0
  151.2747  144.2299  157.1408 H   0  0  0  0  0  0  0  0  0  0  0  0
  150.5875  139.4848  155.9758 H   0  0  0  0  0  0  0  0  0  0  0  0
  152.3588  138.1557  158.1649 H   0  0  0  0  0  0  0  0  0  0  0  0
  151.4748  138.6795  159.5795 H   0  0  0  0  0  0  0  0  0  0  0  0
  149.9738  137.8286  157.0612 H   0  0  0  0  0  0  0  0  0  0  0  0
  150.9538  136.0101  157.4034 H   0  0  0  0  0  0  0  0  0  0  0  0
  149.0385  138.9010  159.4188 H   0  0  0  0  0  0  0  0  0  0  0  0
  148.0967  137.8393  158.3700 H   0  0  0  0  0  0  0  0  0  0  0  0
  148.4042  134.7672  161.4270 H   0  0  0  0  0  0  0  0  0  0  0  0
  145.9028  134.2568  163.8836 H   0  0  0  0  0  0  0  0  0  0  0  0
  147.0145  133.3767  162.8335 H   0  0  0  0  0  0  0  0  0  0  0  0
  145.3028  133.4764  162.4125 H   0  0  0  0  0  0  0  0  0  0  0  0
  143.5451  135.3283  162.2805 H   0  0  0  0  0  0  0  0  0  0  0  0
  143.4462  137.0830  162.4224 H   0  0  0  0  0  0  0  0  0  0  0  0
  144.1869  136.1393  163.7163 H   0  0  0  0  0  0  0  0  0  0  0  0
  152.2315  140.7247  160.5577 H   0  0  0  0  0  0  0  0  0  0  0  0
  152.8875  142.3518  162.1411 H   0  0  0  0  0  0  0  0  0  0  0  0
  151.9873  143.8637  162.0313 H   0  0  0  0  0  0  0  0  0  0  0  0
  153.6586  143.7801  161.4543 H   0  0  0  0  0  0  0  0  0  0  0  0
  1  2  1  0  0  0  0
  1 25  1  0  0  0  0
  1 26  1  0  0  0  0
  1 27  1  0  0  0  0
  2 23  1  0  0  0  0
  2  3  2  0  0  0  0
  3  4  1  0  0  0  0
  3 28  1  0  0  0  0
  4 21  2  0  0  0  0
  4  5  1  0  0  0  0
  5  6  2  0  0  0  0
  6  7  1  0  0  0  0
  6 29  1  0  0  0  0
  7  8  1  0  0  0  0
  7 21  1  0  0  0  0
  8  9  1  0  0  0  0
  8 30  1  0  0  0  0
  8 31  1  0  0  0  0
  9 10  1  0  0  0  0
  9 11  1  0  0  0  0
  9 32  1  0  0  0  0
 10 33  1  0  0  0  0
 11 12  1  0  0  0  0
 11 34  1  0  0  0  0
 11 35  1  0  0  0  0
 12 13  1  0  0  0  0
 13 20  1  0  0  0  0
 13 14  2  0  0  0  0
 14 15  1  0  0  0  0
 14 36  1  0  0  0  0
 15 16  1  0  0  0  0
 15 17  2  0  0  0  0
 16 37  1  0  0  0  0
 16 38  1  0  0  0  0
 16 39  1  0  0  0  0
 17 18  1  0  0  0  0
 17 19  1  0  0  0  0
 18 40  1  0  0  0  0
 18 41  1  0  0  0  0
 18 42  1  0  0  0  0
 19 20  2  0  0  0  0
 21 22  1  0  0  0  0
 22 23  2  0  0  0  0
 22 43  1  0  0  0  0
 23 24  1  0  0  0  0
 24 44  1  0  0  0  0
 24 45  1  0  0  0  0
 24 46  1  0  0  0  0
M  END
> <s_m_source_file>
AV-unprocessed.smi

> <i_m_source_file_index>
2658

> <i_lp_mmshare_version>
43012

> <i_f3d_flags>
0

> <s_epik_input>
W0NIM11jKFtjSF0xKWMoW0NIM10pW2NIXWMoYzEyKW4oW2NIXW4yKVtDSDJdW0NASF0oW09IXSlbQ0gyXU9jM1tjSF1jKFtDSDNdKWMoW0NIM10pbm4z

> <s_epik_cmdline>
J2VwaWtfcHl0aG9uJywgJy1waCcsICc3LjAnLCAnLXRuJywgJzgnLCAnLW1hJywgJzIwMCcsICctbWV0YWxfYmluZGluZycsICctaW1hZScsICc8aW5maWxlLm1hZT4nLCAnLW9tYWUnLCAnPG91dGZpbGUubWFlPic=

> <r_lp_tautomer_probability>
1

> <r_epik_Ionization_Penalty>
0.110663

> <r_epik_Ionization_Penalty_Charging>
0

> <r_epik_Ionization_Penalty_Neutral>
0.110663

> <r_epik_State_Penalty>
0.100267

> <r_epik_Charging_Adjusted_Penalty>
0.100267

> <i_epik_Tot_Q>
0

> <i_epik_Tot_abs_Q>
0

> <r_epik_Metal_State_Penalty>
0.0843924

> <b_epik_Metal_Only>
0

> <s_lp_Force_Field>
OPLS_2005

> <r_lp_Energy>
13.1317

> <b_lp_Chiralities_Consistent>
1

> <s_lp_Variant>
AV-unprocessed.smi:2658-2

> <Gold.Version>
5.8.1

> <Gold.Id.Protein>
6NUR|6NUR_protein|mol2

> <Gold.PLP.Fitness>
51.6259

> <Gold.PLP.PLP>
-49.2920

> <Gold.PLP.part.hbond>
-3.3896

> <Gold.PLP.part.metal>
0.0000

> <Gold.PLP.part.buried>
-6.9740

> <Gold.PLP.part.nonpolar>
-39.8004

> <Gold.PLP.part.repulsive>
0.0549

> <Gold.PLP.ligand.clash>
0.0000

> <Gold.PLP.ligand.torsion>
1.3355

> <Gold.PLP.Chemscore.Hbond>
1.6400

> <Gold.PLP.Chemscore.CHOScore>
0.0000

> <Gold.PLP.Chemscore.Metal>
0.0000

> <Gold.Chemscore.Hbonds>
donor molecule, donor type, donor heavy atom, donor atom, acceptor molecule, acceptor atom, score
      P1  H  6896  6908       L1    10  0.70
      P1  H  6934  6947       L1    20  0.76

> <Gold.PLP.Chemscore.Internal.Correction>
0.0849

> <Gold.Rescore>
     Score         DG    S(hbond)    S(metal)    S(lipo)     H(rot)  DE(clash)    DE(int)     intcor
     16.91     -18.31       1.44        0.00     120.93       2.40       0.06       1.34       ----

> <Gold.Chemscore.Fitness>
16.9142

> <Gold.Chemscore.DG>
-18.3073

> <Gold.Chemscore.ZeroCoef>
-5.4800

> <Gold.Chemscore.Hbond>
1.4425

> <Gold.Chemscore.Metal>
0.0000

> <Gold.Chemscore.Lipo>
120.9308

> <Gold.Chemscore.Internal_Hbond>
0.0000

> <Gold.Chemscore.DEClash>
0.0580

> <Gold.Chemscore.DEInternal>
1.3351

> <Gold.Chemscore.Rot>
2.3983

> <Gold.Chemscore.Internal.Correction>
   9.000000E+99

> <Gold.Chemscore.Hbonds>
donor molecule, donor type, donor heavy atom, donor atom, acceptor molecule, acceptor atom, score
      P1  H  6896  6908       L1    10  0.49
      P1  H  6934  6947       L1    20  0.36

> <Gold.Chemscore.Hbond.Weighted>
-4.8180

> <Gold.Chemscore.Metal.Weighted>
-0.0000

> <Gold.Chemscore.Lipo.Weighted>
-14.1489

> <Gold.Chemscore.Internal_Hbond.Weighted>
0.0000

> <Gold.Chemscore.DEClash.Weighted>
0.0580

> <Gold.Chemscore.DEInternal.Weighted>
1.3351

> <Gold.Chemscore.Rot.Weighted>
6.1397

> <Gold.Chemscore.Internal.Correction.Weighted>
   9.000000E+99

> <Gold.Protein.RotatedTorsions>
[ 6907 6896 6895 6894 ] final -174.22 input  -60.11 | X-H torsion
[ 7974 7965 7964 7962 ] final  165.24 input  175.53 | X-H torsion
[ 8008 7997 7996 7995 ] final -115.04 input   59.86 | X-H torsion
[ 10167 10162 10161 10158 ] final  -26.28 input  -65.29 | X-H torsion
[ 10718 10713 10712 10709 ] final   87.93 input   66.30 | X-H torsion
[ 10763 10752 10751 10750 ] final  -39.79 input  -60.55 | X-H torsion
[ 11005 11000 10999 10996 ] final   25.49 input  -57.11 | X-H torsion

> <Gold.Protein.ActiveResidues>
 VAL166  LYS551  ARG553  GLY616  TRP617  ASP618  TYR619  PRO620  LYS621  CYS622 
 ASP623  PHE694  ASN695  SER759  ASP760  ASP761  ALA762  ILE779  LEU786  VAL792 
 PHE793  MET794  SER795  GLU796  ALA797  LYS798  CYS799  TRP800  GLU811  SER814 

> <Gold.Protein.RotatedAtoms>
  151.5688  133.3393  159.2985 H   0  0  0  0  0  0  0  0  0  0  0  0  # atno 6907 bound_to 6896
  150.8380  134.7663  159.6920 H   0  0  0  0  0  0  0  0  0  0  0  0  # atno 6908 bound_to 6896
  152.4453  134.5515  159.9920 H   0  0  0  0  0  0  0  0  0  0  0  0  # atno 6909 bound_to 6896
  144.7511  139.8442  143.6366 H   0  0  0  0  0  0  0  0  0  0  0  0  # atno 7974 bound_to 7965
  155.0458  140.0392  157.2526 H   0  0  0  0  0  0  0  0  0  0  0  0  # atno 8008 bound_to 7997
  154.7178  140.2706  155.6545 H   0  0  0  0  0  0  0  0  0  0  0  0  # atno 8009 bound_to 7997
  156.2808  140.2709  156.1841 H   0  0  0  0  0  0  0  0  0  0  0  0  # atno 8010 bound_to 7997
  140.7283  143.4192  151.0979 H   0  0  0  0  0  0  0  0  0  0  0  0  # atno 10167 bound_to 10162
  157.6944  131.0275  150.3197 H   0  0  0  0  0  0  0  0  0  0  0  0  # atno 10718 bound_to 10713
  153.9352  135.6767  153.4745 H   0  0  0  0  0  0  0  0  0  0  0  0  # atno 10763 bound_to 10752
  153.0959  135.4851  154.8775 H   0  0  0  0  0  0  0  0  0  0  0  0  # atno 10764 bound_to 10752
  154.7407  135.3160  154.8691 H   0  0  0  0  0  0  0  0  0  0  0  0  # atno 10765 bound_to 10752
  140.3473  134.2268  155.7683 H   0  0  0  0  0  0  0  0  0  0  0  0  # atno 11005 bound_to 11000
  146.1461  139.4531  143.0078 LP  0  0  0  0  0  0  0  0  0  0  0  0  # atno 17320 bound_to 7965
  145.6942  141.0155  143.1539 LP  0  0  0  0  0  0  0  0  0  0  0  0  # atno 17321 bound_to 7965
  139.7835  143.8320  152.3141 LP  0  0  0  0  0  0  0  0  0  0  0  0  # atno 17342 bound_to 10162
  139.8280  144.7266  150.9487 LP  0  0  0  0  0  0  0  0  0  0  0  0  # atno 17343 bound_to 10162
  156.3686  130.3859  149.7193 LP  0  0  0  0  0  0  0  0  0  0  0  0  # atno 17370 bound_to 10713
  156.4615  130.7954  151.2974 LP  0  0  0  0  0  0  0  0  0  0  0  0  # atno 17371 bound_to 10713
  141.2022  133.7943  157.0402 LP  0  0  0  0  0  0  0  0  0  0  0  0  # atno 17394 bound_to 11000
  140.0732  134.9690  157.1502 LP  0  0  0  0  0  0  0  0  0  0  0  0  # atno 17395 bound_to 11000

$$$$
