AV-unprocessed.smi:2429|AV-procd|sdf|9582|dock4
  -GOLD-   2272013213D 1   1.00000     0.00000
 Structure written by MMmdl.
 34 35  0  0  0  0  0  0  0  0  1 V2000
  150.3059  132.4633  154.8397 C   0  0  0  0  0  0  0  0  0  0  0  0
  149.5801  133.8223  154.9401 C   0  0  0  0  0  0  0  0  0  0  0  0
  148.6988  134.0081  153.7772 N   0  0  0  0  0  0  0  0  0  0  0  0
  147.6709  133.2422  153.3742 C   0  0  0  0  0  0  0  0  0  0  0  0
  147.3014  132.2235  153.9572 O   0  0  0  0  0  0  0  0  0  0  0  0
  147.1002  133.7530  152.2700 N   0  0  0  0  0  0  0  0  0  0  0  0
  146.0024  133.2512  151.5190 C   0  0  0  0  0  0  0  0  0  0  0  0
  145.7353  131.8746  151.3221 C   0  0  0  0  0  0  0  0  0  0  0  0
  144.6216  131.5086  150.5396 C   0  0  0  0  0  0  0  0  0  0  0  0
  143.7951  132.4029  149.9568 N   0  0  0  0  0  0  0  0  0  0  0  0
  144.0616  133.7140  150.1345 C   0  0  0  0  0  0  0  0  0  0  0  0
  145.1483  134.1865  150.8974 C   0  0  0  0  0  0  0  0  0  0  0  0
  145.3619  135.5179  151.0313 F   0  0  0  0  0  0  0  0  0  0  0  0
  148.8015  133.9317  156.2739 C   0  0  0  0  0  0  0  0  0  0  0  0
  148.2530  135.3510  156.5061 C   0  0  0  0  0  0  0  0  0  0  0  0
  149.3208  136.2908  156.4822 O   0  0  0  0  0  0  0  0  0  0  0  0
  149.9970  136.3307  155.2311 C   0  0  0  0  0  0  0  0  0  0  0  0
  150.6261  134.9581  154.9249 C   0  0  0  0  0  0  0  0  0  0  0  0
  151.0301  132.3422  155.6458 H   0  0  0  0  0  0  0  0  0  0  0  0
  150.8479  132.3719  153.8977 H   0  0  0  0  0  0  0  0  0  0  0  0
  149.6147  131.6231  154.9059 H   0  0  0  0  0  0  0  0  0  0  0  0
  148.8976  134.8229  153.2153 H   0  0  0  0  0  0  0  0  0  0  0  0
  147.4618  134.6417  151.9557 H   0  0  0  0  0  0  0  0  0  0  0  0
  146.3598  131.0995  151.7386 H   0  0  0  0  0  0  0  0  0  0  0  0
  144.3924  130.4667  150.3717 H   0  0  0  0  0  0  0  0  0  0  0  0
  143.3896  134.4089  149.6527 H   0  0  0  0  0  0  0  0  0  0  0  0
  147.9901  133.2061  156.3240 H   0  0  0  0  0  0  0  0  0  0  0  0
  149.4684  133.6831  157.1007 H   0  0  0  0  0  0  0  0  0  0  0  0
  147.5030  135.6131  155.7584 H   0  0  0  0  0  0  0  0  0  0  0  0
  147.7618  135.4055  157.4776 H   0  0  0  0  0  0  0  0  0  0  0  0
  149.3069  136.6349  154.4428 H   0  0  0  0  0  0  0  0  0  0  0  0
  150.7744  137.0935  155.2782 H   0  0  0  0  0  0  0  0  0  0  0  0
  151.3954  134.7575  155.6721 H   0  0  0  0  0  0  0  0  0  0  0  0
  151.1404  134.9917  153.9635 H   0  0  0  0  0  0  0  0  0  0  0  0
  1  2  1  0  0  0  0
  1 19  1  0  0  0  0
  1 20  1  0  0  0  0
  1 21  1  0  0  0  0
  2 18  1  0  0  0  0
  2  3  1  0  0  0  0
  2 14  1  0  0  0  0
  3  4  1  0  0  0  0
  3 22  1  0  0  0  0
  4  5  2  0  0  0  0
  4  6  1  0  0  0  0
  6  7  1  0  0  0  0
  6 23  1  0  0  0  0
  7 12  1  0  0  0  0
  7  8  2  0  0  0  0
  8  9  1  0  0  0  0
  8 24  1  0  0  0  0
  9 10  2  0  0  0  0
  9 25  1  0  0  0  0
 10 11  1  0  0  0  0
 11 12  2  0  0  0  0
 11 26  1  0  0  0  0
 12 13  1  0  0  0  0
 14 15  1  0  0  0  0
 14 27  1  0  0  0  0
 14 28  1  0  0  0  0
 15 16  1  0  0  0  0
 15 29  1  0  0  0  0
 15 30  1  0  0  0  0
 16 17  1  0  0  0  0
 17 18  1  0  0  0  0
 17 31  1  0  0  0  0
 17 32  1  0  0  0  0
 18 33  1  0  0  0  0
 18 34  1  0  0  0  0
M  END
> <s_m_source_file>
AV-unprocessed.smi

> <i_m_source_file_index>
2429

> <i_lp_mmshare_version>
43012

> <i_f3d_flags>
0

> <s_epik_input>
W0NIMl0xW0NIMl1PW0NIMl1bQ0gyXUMxKFtDSDNdKVtOSF1DKD1PKVtOSF1jMltjSF1bY0hdbltjSF1jMkY=

> <s_epik_cmdline>
J2VwaWtfcHl0aG9uJywgJy1waCcsICc3LjAnLCAnLXRuJywgJzgnLCAnLW1hJywgJzIwMCcsICctbWV0YWxfYmluZGluZycsICctaW1hZScsICc8aW5maWxlLm1hZT4nLCAnLW9tYWUnLCAnPG91dGZpbGUubWFlPic=

> <r_epik_Ionization_Penalty>
0.00367474

> <r_epik_Ionization_Penalty_Charging>
0

> <r_epik_Ionization_Penalty_Neutral>
0.00367474

> <r_epik_State_Penalty>
0.00258877

> <r_epik_Charging_Adjusted_Penalty>
0.00258877

> <i_epik_Tot_Q>
0

> <i_epik_Tot_abs_Q>
0

> <r_epik_Metal_State_Penalty>
-0

> <b_epik_Metal_Only>
0

> <s_lp_Force_Field>
OPLS_2005

> <r_lp_Energy>
14.8008

> <b_lp_Chiralities_Consistent>
1

> <s_lp_Variant>
AV-unprocessed.smi:2429-1

> <Gold.Version>
5.8.1

> <Gold.Id.Protein>
6NUR|6NUR_protein|mol2

> <Gold.PLP.Fitness>
36.2610

> <Gold.PLP.PLP>
-27.7493

> <Gold.PLP.part.hbond>
-2.0000

> <Gold.PLP.part.metal>
0.0000

> <Gold.PLP.part.buried>
-5.4445

> <Gold.PLP.part.nonpolar>
-20.8556

> <Gold.PLP.part.repulsive>
0.2861

> <Gold.PLP.ligand.clash>
0.0000

> <Gold.PLP.ligand.torsion>
0.2446

> <Gold.PLP.Chemscore.Hbond>
2.0000

> <Gold.PLP.Chemscore.CHOScore>
0.9978

> <Gold.PLP.Chemscore.Metal>
0.0000

> <Gold.Chemscore.Hbonds>
donor molecule, donor type, donor heavy atom, donor atom, acceptor molecule, acceptor atom, score
      L1  H     3    22       P1  7948  0.95
      L1  H     6    23       P1  7948  0.75
      L1  C    11    26       P1 10186  1.00

> <Gold.PLP.Chemscore.Internal.Correction>
0.0074

> <Gold.Rescore>
     Score         DG    S(hbond)    S(metal)    S(lipo)     H(rot)  DE(clash)    DE(int)     intcor
     15.12     -15.39       1.62        0.00      60.36       1.00       0.00       0.27       ----

> <Gold.Chemscore.Fitness>
15.1161

> <Gold.Chemscore.DG>
-15.3868

> <Gold.Chemscore.ZeroCoef>
-5.4800

> <Gold.Chemscore.Hbond>
1.6182

> <Gold.Chemscore.Metal>
0.0000

> <Gold.Chemscore.Lipo>
60.3595

> <Gold.Chemscore.Internal_Hbond>
0.0000

> <Gold.Chemscore.DEClash>
0.0015

> <Gold.Chemscore.DEInternal>
0.2692

> <Gold.Chemscore.Rot>
1.0000

> <Gold.Chemscore.Internal.Correction>
   9.000000E+99

> <Gold.Chemscore.Hbonds>
donor molecule, donor type, donor heavy atom, donor atom, acceptor molecule, acceptor atom, score
      L1  H     3    22       P1  7948  0.21
      L1  H     6    23       P1  7948  0.46

> <Gold.Chemscore.Hbond.Weighted>
-5.4047

> <Gold.Chemscore.Metal.Weighted>
-0.0000

> <Gold.Chemscore.Lipo.Weighted>
-7.0621

> <Gold.Chemscore.Internal_Hbond.Weighted>
0.0000

> <Gold.Chemscore.DEClash.Weighted>
0.0015

> <Gold.Chemscore.DEInternal.Weighted>
0.2692

> <Gold.Chemscore.Rot.Weighted>
2.5600

> <Gold.Chemscore.Internal.Correction.Weighted>
   9.000000E+99

> <Gold.Protein.RotatedTorsions>
[ 6907 6896 6895 6894 ] final   27.50 input  -60.11 | X-H torsion
[ 7974 7965 7964 7962 ] final  139.91 input  175.53 | X-H torsion
[ 8008 7997 7996 7995 ] final  -18.44 input   59.86 | X-H torsion
[ 10167 10162 10161 10158 ] final  119.59 input  -65.29 | X-H torsion
[ 10718 10713 10712 10709 ] final  -11.16 input   66.30 | X-H torsion
[ 10763 10752 10751 10750 ] final  -83.66 input  -60.55 | X-H torsion
[ 11005 11000 10999 10996 ] final   17.05 input  -57.11 | X-H torsion

> <Gold.Protein.ActiveResidues>
 VAL166  LYS551  ARG553  GLY616  TRP617  ASP618  TYR619  PRO620  LYS621  CYS622 
 ASP623  PHE694  ASN695  SER759  ASP760  ASP761  ALA762  ILE779  LEU786  VAL792 
 PHE793  MET794  SER795  GLU796  ALA797  LYS798  CYS799  TRP800  GLU811  SER814 

> <Gold.Protein.RotatedAtoms>
  152.0031  134.9917  160.0565 H   0  0  0  0  0  0  0  0  0  0  0  0  # atno 6907 bound_to 6896
  152.1500  133.4511  159.4817 H   0  0  0  0  0  0  0  0  0  0  0  0  # atno 6908 bound_to 6896
  150.6874  134.2119  159.4405 H   0  0  0  0  0  0  0  0  0  0  0  0  # atno 6909 bound_to 6896
  144.9235  139.5137  143.5652 H   0  0  0  0  0  0  0  0  0  0  0  0  # atno 7974 bound_to 7965
  154.4906  140.2115  155.9557 H   0  0  0  0  0  0  0  0  0  0  0  0  # atno 8008 bound_to 7997
  156.1299  140.3198  155.8302 H   0  0  0  0  0  0  0  0  0  0  0  0  # atno 8009 bound_to 7997
  155.4315  140.0504  157.3009 H   0  0  0  0  0  0  0  0  0  0  0  0  # atno 8010 bound_to 7997
  139.6036  144.7064  151.3005 H   0  0  0  0  0  0  0  0  0  0  0  0  # atno 10167 bound_to 10162
  156.6631  130.4987  149.6024 H   0  0  0  0  0  0  0  0  0  0  0  0  # atno 10718 bound_to 10713
  154.5903  135.5548  153.7272 H   0  0  0  0  0  0  0  0  0  0  0  0  # atno 10763 bound_to 10752
  153.0114  135.6341  154.1858 H   0  0  0  0  0  0  0  0  0  0  0  0  # atno 10764 bound_to 10752
  154.1799  135.2887  155.3035 H   0  0  0  0  0  0  0  0  0  0  0  0  # atno 10765 bound_to 10752
  140.4403  134.1329  155.7689 H   0  0  0  0  0  0  0  0  0  0  0  0  # atno 11005 bound_to 11000
  146.3215  139.8133  142.8941 LP  0  0  0  0  0  0  0  0  0  0  0  0  # atno 17320 bound_to 7965
  145.3257  141.0254  143.3475 LP  0  0  0  0  0  0  0  0  0  0  0  0  # atno 17321 bound_to 7965
  140.7268  143.6980  150.7868 LP  0  0  0  0  0  0  0  0  0  0  0  0  # atno 17342 bound_to 10162
  140.0561  143.5201  152.2650 LP  0  0  0  0  0  0  0  0  0  0  0  0  # atno 17343 bound_to 10162
  156.1996  130.6611  151.1152 LP  0  0  0  0  0  0  0  0  0  0  0  0  # atno 17370 bound_to 10713
  157.7103  131.0737  150.6525 LP  0  0  0  0  0  0  0  0  0  0  0  0  # atno 17371 bound_to 10713
  141.1708  133.8612  157.1575 LP  0  0  0  0  0  0  0  0  0  0  0  0  # atno 17394 bound_to 11000
  140.0074  135.0002  157.0323 LP  0  0  0  0  0  0  0  0  0  0  0  0  # atno 17395 bound_to 11000

$$$$
