AV-unprocessed.smi:109|AV-procd|sdf|1034|dock9
  -GOLD-   2262018 43D 1   1.00000     0.00000
 Structure written by MMmdl.
 58 61  0  0  0  0  0  0  0  0  1 V2000
  149.7656  140.8759  153.5306 O   0  0  0  0  0  0  0  0  0  0  0  0
  149.2061  141.4874  154.6727 C   0  0  0  0  0  0  0  0  0  0  0  0
  150.1531  141.3205  155.8718 C   0  0  0  0  0  0  0  0  0  0  0  0
  149.8739  142.3342  157.0036 C   0  0  1  0  0  0  0  0  0  0  0  0
  148.8497  141.8020  157.9024 N   0  0  0  0  0  0  0  0  0  0  0  0
  147.6247  141.4478  157.4535 C   0  0  0  0  0  0  0  0  0  0  0  0
  147.4014  140.2308  156.8926 N   0  0  0  0  0  0  0  0  0  0  0  0
  146.1780  139.9059  156.4657 C   0  0  0  0  0  0  0  0  0  0  0  0
  145.0604  140.6338  156.5062 N   0  0  0  0  0  0  0  0  0  0  0  0
  145.2768  141.8587  157.0680 C   0  0  0  0  0  0  0  0  0  0  0  0
  146.5233  142.3360  157.5618 C   0  0  0  0  0  0  0  0  0  0  0  0
  146.3701  143.6211  158.0648 N   0  0  0  0  0  0  0  0  0  0  0  0
  145.1044  143.8833  157.8797 C   0  0  0  0  0  0  0  0  0  0  0  0
  144.3703  142.8779  157.2904 N   0  0  0  0  0  0  0  0  0  0  0  0
  142.9056  142.8974  156.9676 C   0  0  1  0  0  0  0  0  0  0  0  0
  142.3987  144.1832  157.1830 O   0  0  0  0  0  0  0  0  0  0  0  0
  141.7994  144.6726  155.9864 C   0  0  2  0  0  0  0  0  0  0  0  0
  140.6719  145.6694  156.3080 C   0  0  0  0  0  0  0  0  0  0  0  0
  139.7303  145.1326  157.2142 O   0  0  0  0  0  0  0  0  0  0  0  0
  141.4206  143.4156  155.1991 C   0  0  1  0  0  0  0  0  0  0  0  0
  141.2354  143.6497  153.8155 O   0  0  0  0  0  0  0  0  0  0  0  0
  142.5988  142.5007  155.5071 C   0  0  1  0  0  0  0  0  0  0  0  0
  143.6936  142.6968  154.6246 O   0  0  0  0  0  0  0  0  0  0  0  0
  151.1378  142.7633  157.7987 C   0  0  0  0  0  0  0  0  0  0  0  0
  151.6263  141.6726  158.7768 C   0  0  0  0  0  0  0  0  0  0  0  0
  152.9339  142.0857  159.4720 C   0  0  0  0  0  0  0  0  0  0  0  0
  152.7767  143.4311  160.1973 C   0  0  0  0  0  0  0  0  0  0  0  0
  152.2882  144.5255  159.2356 C   0  0  0  0  0  0  0  0  0  0  0  0
  150.9821  144.1124  158.5370 C   0  0  0  0  0  0  0  0  0  0  0  0
  142.4538  142.2178  157.6911 H   0  0  0  0  0  0  0  0  0  0  0  0
  142.5812  145.2052  155.4428 H   0  0  0  0  0  0  0  0  0  0  0  0
  140.5144  142.9662  155.6064 H   0  0  0  0  0  0  0  0  0  0  0  0
  142.3150  141.4487  155.4671 H   0  0  0  0  0  0  0  0  0  0  0  0
  149.1272  140.2825  153.1650 H   0  0  0  0  0  0  0  0  0  0  0  0
  149.0348  142.5435  154.4621 H   0  0  0  0  0  0  0  0  0  0  0  0
  148.2353  141.0330  154.8734 H   0  0  0  0  0  0  0  0  0  0  0  0
  150.0786  140.3016  156.2539 H   0  0  0  0  0  0  0  0  0  0  0  0
  151.1745  141.4365  155.5117 H   0  0  0  0  0  0  0  0  0  0  0  0
  149.4751  143.2271  156.5208 H   0  0  0  0  0  0  0  0  0  0  0  0
  149.1174  141.7276  158.8735 H   0  0  0  0  0  0  0  0  0  0  0  0
  146.0797  138.9219  156.0318 H   0  0  0  0  0  0  0  0  0  0  0  0
  144.6658  144.8252  158.1753 H   0  0  0  0  0  0  0  0  0  0  0  0
  141.0832  146.5949  156.7114 H   0  0  0  0  0  0  0  0  0  0  0  0
  140.1410  145.9302  155.3923 H   0  0  0  0  0  0  0  0  0  0  0  0
  139.7613  145.6372  158.0126 H   0  0  0  0  0  0  0  0  0  0  0  0
  141.9949  143.3300  153.3530 H   0  0  0  0  0  0  0  0  0  0  0  0
  143.3539  142.8917  153.7648 H   0  0  0  0  0  0  0  0  0  0  0  0
  151.9411  142.8920  157.0716 H   0  0  0  0  0  0  0  0  0  0  0  0
  150.8718  141.4748  159.5378 H   0  0  0  0  0  0  0  0  0  0  0  0
  151.7800  140.7345  158.2423 H   0  0  0  0  0  0  0  0  0  0  0  0
  153.2374  141.3148  160.1808 H   0  0  0  0  0  0  0  0  0  0  0  0
  153.7337  142.1588  158.7340 H   0  0  0  0  0  0  0  0  0  0  0  0
  152.0667  143.3224  161.0184 H   0  0  0  0  0  0  0  0  0  0  0  0
  153.7259  143.7257  160.6455 H   0  0  0  0  0  0  0  0  0  0  0  0
  152.1391  145.4584  159.7800 H   0  0  0  0  0  0  0  0  0  0  0  0
  153.0563  144.7242  158.4869 H   0  0  0  0  0  0  0  0  0  0  0  0
  150.6838  144.8939  157.8377 H   0  0  0  0  0  0  0  0  0  0  0  0
  150.1895  144.0443  159.2827 H   0  0  0  0  0  0  0  0  0  0  0  0
  1  2  1  0  0  0  0
  1 34  1  0  0  0  0
  2  3  1  0  0  0  0
  2 35  1  0  0  0  0
  2 36  1  0  0  0  0
  3  4  1  0  0  0  0
  3 37  1  0  0  0  0
  3 38  1  0  0  0  0
  4  5  1  0  0  0  0
  4 24  1  0  0  0  0
  4 39  1  0  0  0  0
  5  6  1  0  0  0  0
  5 40  1  0  0  0  0
  6 11  1  0  0  0  0
  6  7  2  0  0  0  0
  7  8  1  0  0  0  0
  8  9  2  0  0  0  0
  8 41  1  0  0  0  0
  9 10  1  0  0  0  0
 10 14  1  0  0  0  0
 10 11  2  0  0  0  0
 11 12  1  0  0  0  0
 12 13  2  0  0  0  0
 13 14  1  0  0  0  0
 13 42  1  0  0  0  0
 14 15  1  0  0  0  0
 15 30  1  0  0  0  0
 15 22  1  0  0  0  0
 15 16  1  0  0  0  0
 16 17  1  0  0  0  0
 17 31  1  0  0  0  0
 17 18  1  0  0  0  0
 17 20  1  0  0  0  0
 18 19  1  0  0  0  0
 18 43  1  0  0  0  0
 18 44  1  0  0  0  0
 19 45  1  0  0  0  0
 20 32  1  0  0  0  0
 20 21  1  0  0  0  0
 20 22  1  0  0  0  0
 21 46  1  0  0  0  0
 22 33  1  0  0  0  0
 22 23  1  0  0  0  0
 23 47  1  0  0  0  0
 24 29  1  0  0  0  0
 24 25  1  0  0  0  0
 24 48  1  0  0  0  0
 25 26  1  0  0  0  0
 25 49  1  0  0  0  0
 25 50  1  0  0  0  0
 26 27  1  0  0  0  0
 26 51  1  0  0  0  0
 26 52  1  0  0  0  0
 27 28  1  0  0  0  0
 27 53  1  0  0  0  0
 27 54  1  0  0  0  0
 28 29  1  0  0  0  0
 28 55  1  0  0  0  0
 28 56  1  0  0  0  0
 29 57  1  0  0  0  0
 29 58  1  0  0  0  0
M  END
> <s_m_source_file>
AV-unprocessed.smi

> <i_m_source_file_index>
109

> <i_lp_mmshare_version>
43012

> <i_f3d_flags>
0

> <s_epik_input>
W0NIMl0xW0NIMl1bQ0gyXVtDSDJdW0NIMl1bQ0hdMVtDQEhdKFtDSDJdW0NIMl1bT0hdKVtOSF1jKG5bY0hdbjIpYyhjMjMpbltjSF1uM1tDQEBIXTRPW0NASF0oW0NIMl1bT0hdKVtDQEBIXShbT0hdKVtDQEhdNFtPSF0=

> <s_epik_cmdline>
J2VwaWtfcHl0aG9uJywgJy1waCcsICc3LjAnLCAnLXRuJywgJzgnLCAnLW1hJywgJzIwMCcsICctbWV0YWxfYmluZGluZycsICctaW1hZScsICc8aW5maWxlLm1hZT4nLCAnLW9tYWUnLCAnPG91dGZpbGUubWFlPic=

> <r_lp_tautomer_probability>
1

> <r_epik_Ionization_Penalty>
0.000793976

> <r_epik_Ionization_Penalty_Charging>
0

> <r_epik_Ionization_Penalty_Neutral>
0.000793976

> <r_epik_State_Penalty>
-0

> <r_epik_Charging_Adjusted_Penalty>
0

> <i_epik_Tot_Q>
0

> <i_epik_Tot_abs_Q>
0

> <r_epik_Metal_State_Penalty>
-0

> <b_epik_Metal_Only>
0

> <s_epik_Chemistry_Notes>
This compound contains an acetal/aminal-like group ( X-CH(R)-Y where X, Y are N, S, or O) that may be acid/base labile, releasing an aldehyde.

> <s_lp_Force_Field>
OPLS_2005

> <r_lp_Energy>
63.9822

> <b_lp_Chiralities_Consistent>
1

> <s_lp_Variant>
AV-unprocessed.smi:109-4

> <Gold.Version>
5.8.1

> <Gold.Id.Protein>
6NUR|6NUR_protein|mol2

> <Gold.PLP.Fitness>
48.2553

> <Gold.PLP.PLP>
-38.7400

> <Gold.PLP.part.hbond>
-6.7121

> <Gold.PLP.part.metal>
0.0000

> <Gold.PLP.part.buried>
-3.0752

> <Gold.PLP.part.nonpolar>
-30.4756

> <Gold.PLP.part.repulsive>
1.6056

> <Gold.PLP.ligand.clash>
0.0000

> <Gold.PLP.ligand.torsion>
1.6424

> <Gold.PLP.Chemscore.Hbond>
4.2025

> <Gold.PLP.Chemscore.CHOScore>
0.0000

> <Gold.PLP.Chemscore.Metal>
0.0000

> <Gold.Chemscore.Hbonds>
donor molecule, donor type, donor heavy atom, donor atom, acceptor molecule, acceptor atom, score
      L1  H     1    34       P1  7957  0.11
      L1  H    21    46       P1 10174  0.99
      L1  H    23    47       P1 10174  1.00
      P1  H  7989  7998       L1     1  0.34
      P1  H  8011  8017       L1     1  1.00
      P1  H 10162 10167       L1    21  0.74

> <Gold.PLP.Chemscore.Internal.Correction>
0.1926

> <Gold.Rescore>
     Score         DG    S(hbond)    S(metal)    S(lipo)     H(rot)  DE(clash)    DE(int)     intcor
      8.12      -9.94       2.31        0.00      91.86       5.47       0.28       1.54       ----

> <Gold.Chemscore.Fitness>
8.1214

> <Gold.Chemscore.DG>
-9.9397

> <Gold.Chemscore.ZeroCoef>
-5.4800

> <Gold.Chemscore.Hbond>
2.3069

> <Gold.Chemscore.Metal>
0.0000

> <Gold.Chemscore.Lipo>
91.8645

> <Gold.Chemscore.Internal_Hbond>
0.0000

> <Gold.Chemscore.DEClash>
0.2810

> <Gold.Chemscore.DEInternal>
1.5372

> <Gold.Chemscore.Rot>
5.4662

> <Gold.Chemscore.Internal.Correction>
   9.000000E+99

> <Gold.Chemscore.Hbonds>
donor molecule, donor type, donor heavy atom, donor atom, acceptor molecule, acceptor atom, score
      L1  H     1    34       P1  7957  0.13
      L1  H    21    46       P1 10174  0.92
      L1  H    23    47       P1 10174  0.39
      P1  H  7989  7998       L1     1  0.29
      P1  H  8011  8017       L1     1  0.14
      P1  H 10162 10167       L1    21  0.16

> <Gold.Chemscore.Hbond.Weighted>
-7.7050

> <Gold.Chemscore.Metal.Weighted>
-0.0000

> <Gold.Chemscore.Lipo.Weighted>
-10.7481

> <Gold.Chemscore.Internal_Hbond.Weighted>
0.0000

> <Gold.Chemscore.DEClash.Weighted>
0.2810

> <Gold.Chemscore.DEInternal.Weighted>
1.5372

> <Gold.Chemscore.Rot.Weighted>
13.9935

> <Gold.Chemscore.Internal.Correction.Weighted>
   9.000000E+99

> <Gold.Protein.RotatedTorsions>
[ 6907 6896 6895 6894 ] final -168.31 input  -60.11 | X-H torsion
[ 7974 7965 7964 7962 ] final -141.57 input  175.53 | X-H torsion
[ 8008 7997 7996 7995 ] final   77.58 input   59.86 | X-H torsion
[ 10167 10162 10161 10158 ] final -134.03 input  -65.29 | X-H torsion
[ 10718 10713 10712 10709 ] final   -4.76 input   66.30 | X-H torsion
[ 10763 10752 10751 10750 ] final   90.99 input  -60.55 | X-H torsion
[ 11005 11000 10999 10996 ] final -163.63 input  -57.11 | X-H torsion

> <Gold.Protein.ActiveResidues>
 VAL166  LYS551  ARG553  GLY616  TRP617  ASP618  TYR619  PRO620  LYS621  CYS622 
 ASP623  PHE694  ASN695  SER759  ASP760  ASP761  ALA762  ILE779  LEU786  VAL792 
 PHE793  MET794  SER795  GLU796  ALA797  LYS798  CYS799  TRP800  GLU811  SER814 

> <Gold.Protein.RotatedAtoms>
  151.4736  133.3563  159.2827 H   0  0  0  0  0  0  0  0  0  0  0  0  # atno 6907 bound_to 6896
  150.8944  134.8353  159.7327 H   0  0  0  0  0  0  0  0  0  0  0  0  # atno 6908 bound_to 6896
  152.4842  134.4649  159.9669 H   0  0  0  0  0  0  0  0  0  0  0  0  # atno 6909 bound_to 6896
  144.8509  140.6063  143.5391 H   0  0  0  0  0  0  0  0  0  0  0  0  # atno 7974 bound_to 7965
  155.8436  140.3461  155.5648 H   0  0  0  0  0  0  0  0  0  0  0  0  # atno 8008 bound_to 7997
  155.8114  140.0899  157.1921 H   0  0  0  0  0  0  0  0  0  0  0  0  # atno 8009 bound_to 7997
  154.4005  140.1447  156.3378 H   0  0  0  0  0  0  0  0  0  0  0  0  # atno 8010 bound_to 7997
  139.8922  143.6709  152.2610 H   0  0  0  0  0  0  0  0  0  0  0  0  # atno 10167 bound_to 10162
  156.7565  130.5256  149.5793 H   0  0  0  0  0  0  0  0  0  0  0  0  # atno 10718 bound_to 10713
  153.2034  135.4414  155.0294 H   0  0  0  0  0  0  0  0  0  0  0  0  # atno 10763 bound_to 10752
  154.8160  135.3315  154.7178 H   0  0  0  0  0  0  0  0  0  0  0  0  # atno 10764 bound_to 10752
  153.7621  135.6991  153.4979 H   0  0  0  0  0  0  0  0  0  0  0  0  # atno 10765 bound_to 10752
  140.5959  134.4997  157.5199 H   0  0  0  0  0  0  0  0  0  0  0  0  # atno 11005 bound_to 11000
  145.4502  139.1524  143.3922 LP  0  0  0  0  0  0  0  0  0  0  0  0  # atno 17320 bound_to 7965
  146.2784  140.4628  142.8786 LP  0  0  0  0  0  0  0  0  0  0  0  0  # atno 17321 bound_to 7965
  139.7100  144.7622  151.1129 LP  0  0  0  0  0  0  0  0  0  0  0  0  # atno 17342 bound_to 10162
  140.7724  143.5344  150.9386 LP  0  0  0  0  0  0  0  0  0  0  0  0  # atno 17343 bound_to 10162
  156.1367  130.6216  151.0410 LP  0  0  0  0  0  0  0  0  0  0  0  0  # atno 17370 bound_to 10713
  157.6754  131.0851  150.7508 LP  0  0  0  0  0  0  0  0  0  0  0  0  # atno 17371 bound_to 10713
  139.9253  134.8067  156.1086 LP  0  0  0  0  0  0  0  0  0  0  0  0  # atno 17394 bound_to 11000
  141.0904  133.6716  156.2528 LP  0  0  0  0  0  0  0  0  0  0  0  0  # atno 17395 bound_to 11000

$$$$
