#       Name:                AV-unprocessed.smi:252
#       Creating user name   scv26
#       Creation time:       Thu Mar 26 21:05:52 2020


#       File generated by GOLD software.
#

@<TRIPOS>MOLECULE
AV-unprocessed.smi:252
    66    69     1
SMALL
NO_CHARGES


@<TRIPOS>ATOM
      1 ****        -6.8467   4.2632  -0.7963 C.3            1 S1                 0.0000
      2 ****        -5.3964   4.0437  -0.3380 C.3            1 S1                 0.0000
      3 ****        -5.0680   2.5788  -0.0321 C.2            1 S1                 0.0000
      4 ****        -5.7789   1.6689  -0.4601 O.2            1 S1                 0.0000
      5 ****        -3.9757   2.3673   0.7178 N.am           1 S1                 0.0000
      6 ****        -3.4794   1.0602   1.1358 C.3            1 S1                 0.0000
      7 ****        -4.2081   0.5838   2.4079 C.3            1 S1                 0.0000
      8 ****        -3.6079  -0.7391   2.9064 C.3            1 S1                 0.0000
      9 ****        -2.0900  -0.6131   3.1110 C.3            1 S1                 0.0000
     10 ****        -1.4406  -0.1251   1.8932 N.3            1 S1                 0.0000
     11 ****        -0.0933  -0.2605   1.7992 C.ar           1 S1                 0.0000
     12 ****         0.6579  -0.3802   2.9269 N.ar           1 S1                 0.0000
     13 ****         1.9865  -0.4959   2.8441 C.ar           1 S1                 0.0000
     14 ****         2.7560  -0.5159   1.7545 N.ar           1 S1                 0.0000
     15 ****         2.0085  -0.4089   0.6189 C.ar           1 S1                 0.0000
     16 ****         0.5924  -0.2779   0.5516 C.ar           1 S1                 0.0000
     17 ****         0.1882  -0.2017  -0.7763 N.2            1 S1                 0.0000
     18 ****         1.3014  -0.2716  -1.4534 C.2            1 S1                 0.0000
     19 ****         2.4428  -0.4035  -0.6954 N.pl3          1 S1                 0.0000
     20 ****         3.8094  -0.5016  -1.1860 C.3            1 S1                 0.0000
     21 ****         4.2628  -1.9570  -1.4752 C.3            1 S1                 0.0000
     22 ****         4.1933  -2.6887  -0.2628 O.3            1 S1                 0.0000
     23 ****         3.3905  -2.6746  -2.5026 C.3            1 S1                 0.0000
     24 ****         4.3549  -3.6595  -3.1454 C.3            1 S1                 0.0000
     25 ****         5.5458  -2.8992  -3.2405 O.3            1 S1                 0.0000
     26 ****         5.6977  -2.1306  -2.0501 C.3            1 S1                 0.0000
     27 ****         6.4588  -0.8471  -2.4175 C.3            1 S1                 0.0000
     28 ****        -1.9614   1.1416   1.3794 C.3            1 S1                 0.0000
     29 ****        -7.0435   5.3236  -0.9556 H              1 S1                 0.0000
     30 ****        -7.5584   3.9040  -0.0519 H              1 S1                 0.0000
     31 ****        -7.0508   3.7471  -1.7353 H              1 S1                 0.0000
     32 ****        -4.7095   4.4018  -1.1055 H              1 S1                 0.0000
     33 ****        -5.2084   4.6415   0.5551 H              1 S1                 0.0000
     34 ****        -3.4502   3.1729   1.0248 H              1 S1                 0.0000
     35 ****        -3.6531   0.3370   0.3363 H              1 S1                 0.0000
     36 ****        -4.1223   1.3390   3.1905 H              1 S1                 0.0000
     37 ****        -5.2733   0.4562   2.2120 H              1 S1                 0.0000
     38 ****        -4.0868  -1.0413   3.8380 H              1 S1                 0.0000
     39 ****        -3.8132  -1.5279   2.1815 H              1 S1                 0.0000
     40 ****        -1.8814   0.0749   3.9317 H              1 S1                 0.0000
     41 ****        -1.6813  -1.5848   3.3912 H              1 S1                 0.0000
     42 ****         2.5077  -0.5826   3.7861 H              1 S1                 0.0000
     43 ****         1.3192  -0.2314  -2.5328 H              1 S1                 0.0000
     44 ****         3.8757   0.1051  -2.0896 H              1 S1                 0.0000
     45 ****         4.4686  -0.0361  -0.4523 H              1 S1                 0.0000
     46 ****         4.4702  -3.5763  -0.4314 H              1 S1                 0.0000
     47 ****         2.5073  -3.1530  -2.0768 H              1 S1                 0.0000
     48 ****         3.0519  -1.9710  -3.2640 H              1 S1                 0.0000
     49 ****         4.5190  -4.5277  -2.5052 H              1 S1                 0.0000
     50 ****         4.0181  -4.0057  -4.1227 H              1 S1                 0.0000
     51 ****         6.3156  -2.7099  -1.3612 H              1 S1                 0.0000
     52 ****         6.6208  -0.2161  -1.5435 H              1 S1                 0.0000
     53 ****         5.9238  -0.2639  -3.1673 H              1 S1                 0.0000
     54 ****         7.4385  -1.0870  -2.8311 H              1 S1                 0.0000
     55 ****        -1.4633   1.4299   0.4541 H              1 S1                 0.0000
     56 ****        -1.7407   1.9240   2.1073 H              1 S1                 0.0000
     57 ****        -6.5829   1.8816  -1.0154 LP             1 S1                 0.0000
     58 ****        -5.5522   0.7174  -0.2523 LP             1 S1                 0.0000
     59 ****        -1.7481  -0.8148   1.2377 LP             1 S1                 0.0000
     60 ****         0.2134  -0.3816   3.8227 LP             1 S1                 0.0000
     61 ****         3.7525  -0.5986   1.7687 LP             1 S1                 0.0000
     62 ****        -0.7425  -0.1135  -1.1312 LP             1 S1                 0.0000
     63 ****         3.2532  -2.6877   0.0782 LP             1 S1                 0.0000
     64 ****         4.7952  -2.2712   0.4180 LP             1 S1                 0.0000
     65 ****         5.4920  -2.2881  -4.0302 LP             1 S1                 0.0000
     66 ****         6.3284  -3.5126  -3.3463 LP             1 S1                 0.0000
@<TRIPOS>BOND
    1    1    2 1     
    2    1   29 1     
    3    1   30 1     
    4    1   31 1     
    5    2    3 1     
    6    2   32 1     
    7    2   33 1     
    8    3    4 2     
    9    3    5 am    
   10    5    6 1     
   11    5   34 1     
   12    6   28 1     
   13    6    7 1     
   14    6   35 1     
   15    7    8 1     
   16    7   36 1     
   17    7   37 1     
   18    8    9 1     
   19    8   38 1     
   20    8   39 1     
   21    9   10 1     
   22    9   40 1     
   23    9   41 1     
   24   10   11 1     
   25   10   28 1     
   26   11   16 ar    
   27   11   12 ar    
   28   12   13 ar    
   29   13   14 ar    
   30   13   42 1     
   31   14   15 ar    
   32   15   19 1     
   33   15   16 ar    
   34   16   17 1     
   35   17   18 2     
   36   18   19 1     
   37   18   43 1     
   38   19   20 1     
   39   20   21 1     
   40   20   44 1     
   41   20   45 1     
   42   21   26 1     
   43   21   22 1     
   44   21   23 1     
   45   22   46 1     
   46   23   24 1     
   47   23   47 1     
   48   23   48 1     
   49   24   25 1     
   50   24   49 1     
   51   24   50 1     
   52   25   26 1     
   53   26   27 1     
   54   26   51 1     
   55   27   52 1     
   56   27   53 1     
   57   27   54 1     
   58   28   55 1     
   59   28   56 1     
   60    4   57 1     
   61    4   58 1     
   62   10   59 1     
   63   12   60 1     
   64   14   61 1     
   65   17   62 1     
   66   22   63 1     
   67   22   64 1     
   68   25   65 1     
   69   25   66 1     
@<TRIPOS>SUBSTRUCTURE
      1 S1             1
@<TRIPOS>SET
LONE_PAIRS      STATIC     ATOMS    <user>   **** ""
10 57 58 59 60 61 62 63 64 65 66
DONOR_HYDROGENS      STATIC     ATOMS    <user>   **** ""
2 34 46
ATOM$BLUE        STATIC     ATOMS    COLORGROUP SYSTEM
10 57 58 59 60 61 62 63 64 65 66
ATOM$RED        STATIC     ATOMS    COLORGROUP SYSTEM
2 34 46
