AV-unprocessed.smi:2368|AV-procd|sdf|9431|dock1
  -GOLD-   2272013 63D 1   1.00000     0.00000
 Structure written by MMmdl.
 36 37  0  0  0  0  0  0  0  0  2 V2000
  150.5431  141.0997  155.6797 C   0  0  0  0  0  0  0  0  0  0  0  0
  149.2829  140.9404  154.8513 C   0  0  0  0  0  0  0  0  0  0  0  0
  148.4472  141.9989  154.7705 N   0  3  0  0  0  0  0  0  0  0  0  0
  147.3018  141.9784  154.0583 C   0  0  0  0  0  0  0  0  0  0  0  0
  146.9297  140.8135  153.3599 C   0  0  0  0  0  0  0  0  0  0  0  0
  147.7615  139.6663  153.4224 C   0  0  0  0  0  0  0  0  0  0  0  0
  147.4730  138.4552  152.7319 N   0  0  0  0  0  0  0  0  0  0  0  0
  146.2800  137.9628  152.3575 C   0  0  0  0  0  0  0  0  0  0  0  0
  145.1895  138.4820  152.5935 O   0  0  0  0  0  0  0  0  0  0  0  0
  146.4191  136.8067  151.6936 N   0  0  0  0  0  0  0  0  0  0  0  0
  145.3188  136.0311  151.1322 C   0  0  2  0  0  0  0  0  0  0  0  0
  144.2128  135.8801  152.1404 C   0  0  0  0  0  0  0  0  0  0  0  0
  143.9714  134.6087  152.4525 C   0  0  0  0  0  0  0  0  0  0  0  0
  144.8842  133.6466  151.7384 C   0  0  1  0  0  0  0  0  0  0  0  0
  144.1071  132.5490  150.9936 C   0  0  0  0  0  0  0  0  0  0  0  0
  143.5439  133.0717  149.8089 O   0  0  0  0  0  0  0  0  0  0  0  0
  145.7201  134.5672  150.8111 C   0  0  0  0  0  0  0  0  0  0  0  0
  148.9621  139.7414  154.1720 C   0  0  0  0  0  0  0  0  0  0  0  0
  150.0289  138.3802  154.2640 Cl  0  0  0  0  0  0  0  0  0  0  0  0
  144.9191  136.5287  150.2468 H   0  0  0  0  0  0  0  0  0  0  0  0
  145.5296  133.1932  152.4921 H   0  0  0  0  0  0  0  0  0  0  0  0
  151.4269  140.9297  155.0643 H   0  0  0  0  0  0  0  0  0  0  0  0
  150.5500  140.3814  156.4997 H   0  0  0  0  0  0  0  0  0  0  0  0
  150.6152  142.1007  156.1067 H   0  0  0  0  0  0  0  0  0  0  0  0
  146.7240  142.8912  154.0621 H   0  0  0  0  0  0  0  0  0  0  0  0
  146.0200  140.8298  152.7799 H   0  0  0  0  0  0  0  0  0  0  0  0
  148.2719  137.8665  152.5444 H   0  0  0  0  0  0  0  0  0  0  0  0
  147.3502  136.4441  151.5493 H   0  0  0  0  0  0  0  0  0  0  0  0
  143.6819  136.7301  152.5436 H   0  0  0  0  0  0  0  0  0  0  0  0
  143.2221  134.2751  153.1552 H   0  0  0  0  0  0  0  0  0  0  0  0
  144.7714  131.7267  150.7260 H   0  0  0  0  0  0  0  0  0  0  0  0
  143.3156  132.1351  151.6194 H   0  0  0  0  0  0  0  0  0  0  0  0
  142.8033  133.6111  150.0399 H   0  0  0  0  0  0  0  0  0  0  0  0
  145.5081  134.3578  149.7619 H   0  0  0  0  0  0  0  0  0  0  0  0
  146.7867  134.3873  150.9521 H   0  0  0  0  0  0  0  0  0  0  0  0
  148.6968  142.8548  155.2665 H   0  0  0  0  0  0  0  0  0  0  0  0
  1  2  1  0  0  0  0
  1 22  1  0  0  0  0
  1 23  1  0  0  0  0
  1 24  1  0  0  0  0
  2 18  1  0  0  0  0
  2  3  2  0  0  0  0
  3  4  1  0  0  0  0
  3 36  1  0  0  0  0
  4  5  2  0  0  0  0
  4 25  1  0  0  0  0
  5  6  1  0  0  0  0
  5 26  1  0  0  0  0
  6  7  1  0  0  0  0
  6 18  2  0  0  0  0
  7  8  1  0  0  0  0
  7 27  1  0  0  0  0
  8  9  2  0  0  0  0
  8 10  1  0  0  0  0
 10 11  1  0  0  0  0
 10 28  1  0  0  0  0
 11 20  1  0  0  0  0
 11 17  1  0  0  0  0
 11 12  1  0  0  0  0
 12 13  2  0  0  0  0
 12 29  1  0  0  0  0
 13 14  1  0  0  0  0
 13 30  1  0  0  0  0
 14 21  1  0  0  0  0
 14 15  1  0  0  0  0
 14 17  1  0  0  0  0
 15 16  1  0  0  0  0
 15 31  1  0  0  0  0
 15 32  1  0  0  0  0
 16 33  1  0  0  0  0
 17 34  1  0  0  0  0
 17 35  1  0  0  0  0
 18 19  1  0  0  0  0
M  CHG  1   3   1
M  END
> <s_m_source_file>
AV-unprocessed.smi

> <i_m_source_file_index>
2368

> <i_lp_mmshare_version>
43012

> <i_f3d_flags>
0

> <s_epik_input>
W0NIM11jMW5bY0hdW2NIXWMoYzFDbClbTkhdQyg9TylbTkhdW0NAQEhdMltDSF09W0NIXVtDQEBIXShbQ0gyXTIpW0NIMl1bT0hd

> <s_epik_cmdline>
J2VwaWtfcHl0aG9uJywgJy1waCcsICc3LjAnLCAnLXRuJywgJzgnLCAnLW1hJywgJzIwMCcsICctbWV0YWxfYmluZGluZycsICctaW1hZScsICc8aW5maWxlLm1hZT4nLCAnLW9tYWUnLCAnPG91dGZpbGUubWFlPic=

> <r_epik_Ionization_Penalty>
2.4467

> <r_epik_Ionization_Penalty_Charging>
2.44668

> <r_epik_Ionization_Penalty_Neutral>
1.95078e-05

> <r_epik_State_Penalty>
2.60786

> <r_epik_Charging_Adjusted_Penalty>
5.05454

> <i_epik_Tot_Q>
1

> <i_epik_Tot_abs_Q>
1

> <r_epik_Metal_State_Penalty>
2.61736

> <b_epik_Metal_Only>
0

> <s_lp_Force_Field>
OPLS_2005

> <r_lp_Energy>
25.6865

> <b_lp_Chiralities_Consistent>
1

> <s_lp_Variant>
AV-unprocessed.smi:2368-7

> <Gold.Version>
5.8.1

> <Gold.Id.Protein>
6NUR|6NUR_protein|mol2

> <Gold.PLP.Fitness>
48.9901

> <Gold.PLP.PLP>
-34.9760

> <Gold.PLP.part.hbond>
-4.8488

> <Gold.PLP.part.metal>
0.0000

> <Gold.PLP.part.buried>
-3.3701

> <Gold.PLP.part.nonpolar>
-32.2264

> <Gold.PLP.part.repulsive>
4.8735

> <Gold.PLP.ligand.clash>
0.0000

> <Gold.PLP.ligand.torsion>
0.4766

> <Gold.PLP.Chemscore.Hbond>
4.9840

> <Gold.PLP.Chemscore.CHOScore>
0.0000

> <Gold.PLP.Chemscore.Metal>
0.0000

> <Gold.Chemscore.Hbonds>
donor molecule, donor type, donor heavy atom, donor atom, acceptor molecule, acceptor atom, score
      L1  H     3    36       P1  8028  2.00
      L1  H     7    27       P1  7948  0.98
      L1  H    10    28       P1  7948  1.00
      L1  H    16    33       P1 10186  0.99

> <Gold.PLP.Chemscore.Internal.Correction>
0.0152

> <Gold.Rescore>
     Score         DG    S(hbond)    S(metal)    S(lipo)     H(rot)  DE(clash)    DE(int)     intcor
     17.94     -22.38       3.70        0.00      78.44       1.81       1.60       2.84       ----

> <Gold.Chemscore.Fitness>
17.9387

> <Gold.Chemscore.DG>
-22.3779

> <Gold.Chemscore.ZeroCoef>
-5.4800

> <Gold.Chemscore.Hbond>
3.6957

> <Gold.Chemscore.Metal>
0.0000

> <Gold.Chemscore.Lipo>
78.4449

> <Gold.Chemscore.Internal_Hbond>
0.0000

> <Gold.Chemscore.DEClash>
1.6006

> <Gold.Chemscore.DEInternal>
2.8386

> <Gold.Chemscore.Rot>
1.8061

> <Gold.Chemscore.Internal.Correction>
   9.000000E+99

> <Gold.Chemscore.Hbonds>
donor molecule, donor type, donor heavy atom, donor atom, acceptor molecule, acceptor atom, score
      L1  H     3    36       P1  8028  0.99
      L1  H     7    27       P1  7948  0.93
      L1  H    10    28       P1  7948  0.98
      L1  H    16    33       P1 10186  0.88

> <Gold.Chemscore.Hbond.Weighted>
-12.3436

> <Gold.Chemscore.Metal.Weighted>
-0.0000

> <Gold.Chemscore.Lipo.Weighted>
-9.1780

> <Gold.Chemscore.Internal_Hbond.Weighted>
0.0000

> <Gold.Chemscore.DEClash.Weighted>
1.6006

> <Gold.Chemscore.DEInternal.Weighted>
2.8386

> <Gold.Chemscore.Rot.Weighted>
4.6237

> <Gold.Chemscore.Internal.Correction.Weighted>
   9.000000E+99

> <Gold.Protein.RotatedTorsions>
[ 6907 6896 6895 6894 ] final -168.06 input  -60.11 | X-H torsion
[ 7974 7965 7964 7962 ] final  145.11 input  175.53 | X-H torsion
[ 8008 7997 7996 7995 ] final -106.80 input   59.86 | X-H torsion
[ 10167 10162 10161 10158 ] final   49.66 input  -65.29 | X-H torsion
[ 10718 10713 10712 10709 ] final -137.21 input   66.30 | X-H torsion
[ 10763 10752 10751 10750 ] final  -29.35 input  -60.55 | X-H torsion
[ 11005 11000 10999 10996 ] final -136.26 input  -57.11 | X-H torsion

> <Gold.Protein.ActiveResidues>
 VAL166  LYS551  ARG553  GLY616  TRP617  ASP618  TYR619  PRO620  LYS621  CYS622 
 ASP623  PHE694  ASN695  SER759  ASP760  ASP761  ALA762  ILE779  LEU786  VAL792 
 PHE793  MET794  SER795  GLU796  ALA797  LYS798  CYS799  TRP800  GLU811  SER814 

> <Gold.Protein.RotatedAtoms>
  151.4695  133.3572  159.2821 H   0  0  0  0  0  0  0  0  0  0  0  0  # atno 6907 bound_to 6896
  150.8970  134.8381  159.7344 H   0  0  0  0  0  0  0  0  0  0  0  0  # atno 6908 bound_to 6896
  152.4857  134.4611  159.9657 H   0  0  0  0  0  0  0  0  0  0  0  0  # atno 6909 bound_to 6896
  144.8779  139.5744  143.5856 H   0  0  0  0  0  0  0  0  0  0  0  0  # atno 7974 bound_to 7965
  154.9198  140.0407  157.1992 H   0  0  0  0  0  0  0  0  0  0  0  0  # atno 8008 bound_to 7997
  154.8265  140.2892  155.5730 H   0  0  0  0  0  0  0  0  0  0  0  0  # atno 8009 bound_to 7997
  156.2984  140.2509  156.3182 H   0  0  0  0  0  0  0  0  0  0  0  0  # atno 8010 bound_to 7997
  140.2806  144.3161  150.6265 H   0  0  0  0  0  0  0  0  0  0  0  0  # atno 10167 bound_to 10162
  156.2856  130.7345  151.1356 H   0  0  0  0  0  0  0  0  0  0  0  0  # atno 10718 bound_to 10713
  153.7632  135.6918  153.4921 H   0  0  0  0  0  0  0  0  0  0  0  0  # atno 10763 bound_to 10752
  153.1924  135.4466  155.0165 H   0  0  0  0  0  0  0  0  0  0  0  0  # atno 10764 bound_to 10752
  154.8145  135.3392  154.7146 H   0  0  0  0  0  0  0  0  0  0  0  0  # atno 10765 bound_to 10752
  140.8822  134.1917  157.4584 H   0  0  0  0  0  0  0  0  0  0  0  0  # atno 11005 bound_to 11000
  146.2975  139.7323  142.9116 LP  0  0  0  0  0  0  0  0  0  0  0  0  # atno 17320 bound_to 7965
  145.4008  141.0385  143.3072 LP  0  0  0  0  0  0  0  0  0  0  0  0  # atno 17321 bound_to 7965
  140.5815  143.2172  151.7420 LP  0  0  0  0  0  0  0  0  0  0  0  0  # atno 17342 bound_to 10162
  139.4964  144.4073  152.0118 LP  0  0  0  0  0  0  0  0  0  0  0  0  # atno 17343 bound_to 10162
  157.7327  131.0597  150.5612 LP  0  0  0  0  0  0  0  0  0  0  0  0  # atno 17370 bound_to 10713
  156.5723  130.4283  149.6014 LP  0  0  0  0  0  0  0  0  0  0  0  0  # atno 17371 bound_to 10713
  139.8721  134.9822  156.5147 LP  0  0  0  0  0  0  0  0  0  0  0  0  # atno 17394 bound_to 11000
  140.8448  133.8177  155.9110 LP  0  0  0  0  0  0  0  0  0  0  0  0  # atno 17395 bound_to 11000

$$$$
