AV-unprocessed.smi:3211|AV-procd|sdf|12276|dock4
  -GOLD-   2272018113D 1   1.00000     0.00000
 Structure written by MMmdl.
 34 35  0  0  0  0  0  0  0  0  1 V2000
  153.3798  142.6260  162.7953 C   0  0  0  0  0  0  0  0  0  0  0  0
  153.3690  141.9102  161.4402 C   0  0  0  0  0  0  0  0  0  0  0  0
  152.6508  142.6858  160.3872 C   0  0  0  0  0  0  0  0  0  0  0  0
  152.2766  142.1662  159.2147 N   0  0  0  0  0  0  0  0  0  0  0  0
  151.5970  143.0861  158.4099 C   0  0  0  0  0  0  0  0  0  0  0  0
  151.1196  142.6820  157.0480 C   0  0  0  0  0  0  0  0  0  0  0  0
  150.0301  141.5995  157.1148 C   0  0  0  0  0  0  0  0  0  0  0  0
  149.1239  141.6769  155.9745 N   0  0  0  0  0  0  0  0  0  0  0  0
  149.3540  141.1340  154.7692 C   0  0  0  0  0  0  0  0  0  0  0  0
  150.3802  140.5050  154.5078 O   0  0  0  0  0  0  0  0  0  0  0  0
  148.2463  141.3571  153.7863 C   0  0  2  0  0  0  0  0  0  0  0  0
  147.1030  142.2626  154.2008 C   0  0  0  0  0  0  0  0  0  0  0  0
  146.8599  140.7805  154.0450 C   0  0  2  0  0  0  0  0  0  0  0  0
  146.4959  139.9239  155.2451 C   0  0  0  0  0  0  0  0  0  0  0  0
  151.4464  144.3152  159.0021 C   0  0  0  0  0  0  0  0  0  0  0  0
  152.1539  144.3614  160.5932 S   0  0  0  0  0  0  0  0  0  0  0  0
  153.9075  142.0339  163.5434 H   0  0  0  0  0  0  0  0  0  0  0  0
  152.3658  142.7952  163.1586 H   0  0  0  0  0  0  0  0  0  0  0  0
  153.8766  143.5943  162.7246 H   0  0  0  0  0  0  0  0  0  0  0  0
  154.3914  141.7319  161.1056 H   0  0  0  0  0  0  0  0  0  0  0  0
  152.8985  140.9313  161.5402 H   0  0  0  0  0  0  0  0  0  0  0  0
  150.7347  143.5529  156.5158 H   0  0  0  0  0  0  0  0  0  0  0  0
  151.9613  142.3194  156.4564 H   0  0  0  0  0  0  0  0  0  0  0  0
  150.4814  140.6072  157.1692 H   0  0  0  0  0  0  0  0  0  0  0  0
  149.4404  141.7207  158.0239 H   0  0  0  0  0  0  0  0  0  0  0  0
  148.2568  142.1752  156.1136 H   0  0  0  0  0  0  0  0  0  0  0  0
  148.5473  141.3983  152.7404 H   0  0  0  0  0  0  0  0  0  0  0  0
  147.1021  142.6718  155.2096 H   0  0  0  0  0  0  0  0  0  0  0  0
  146.6991  142.9271  153.4397 H   0  0  0  0  0  0  0  0  0  0  0  0
  146.3370  140.4673  153.1433 H   0  0  0  0  0  0  0  0  0  0  0  0
  146.8392  140.3701  156.1777 H   0  0  0  0  0  0  0  0  0  0  0  0
  146.9365  138.9319  155.1453 H   0  0  0  0  0  0  0  0  0  0  0  0
  145.4130  139.8165  155.3066 H   0  0  0  0  0  0  0  0  0  0  0  0
  150.9626  145.1931  158.6001 H   0  0  0  0  0  0  0  0  0  0  0  0
  1  2  1  0  0  0  0
  1 17  1  0  0  0  0
  1 18  1  0  0  0  0
  1 19  1  0  0  0  0
  2  3  1  0  0  0  0
  2 20  1  0  0  0  0
  2 21  1  0  0  0  0
  3 16  1  0  0  0  0
  3  4  2  0  0  0  0
  4  5  1  0  0  0  0
  5  6  1  0  0  0  0
  5 15  2  0  0  0  0
  6  7  1  0  0  0  0
  6 22  1  0  0  0  0
  6 23  1  0  0  0  0
  7  8  1  0  0  0  0
  7 24  1  0  0  0  0
  7 25  1  0  0  0  0
  8  9  1  0  0  0  0
  8 26  1  0  0  0  0
  9 10  2  0  0  0  0
  9 11  1  0  0  0  0
 11 13  1  0  0  0  0
 11 12  1  0  0  0  0
 11 27  1  0  0  0  0
 12 13  1  0  0  0  0
 12 28  1  0  0  0  0
 12 29  1  0  0  0  0
 13 14  1  0  0  0  0
 13 30  1  0  0  0  0
 14 31  1  0  0  0  0
 14 32  1  0  0  0  0
 14 33  1  0  0  0  0
 15 16  1  0  0  0  0
 15 34  1  0  0  0  0
M  END
> <s_m_source_file>
AV-unprocessed.smi

> <i_m_source_file_index>
3211

> <i_lp_mmshare_version>
43012

> <i_f3d_flags>
0

> <s_epik_input>
W0NIM11bQ0gyXWMxbmMoW2NIXXMxKVtDSDJdW0NIMl1bTkhdQyg9TylbQ0BASF0yW0NIMl1bQ0BIXTJbQ0gzXQ==

> <s_epik_cmdline>
J2VwaWtfcHl0aG9uJywgJy1waCcsICc3LjAnLCAnLXRuJywgJzgnLCAnLW1hJywgJzIwMCcsICctbWV0YWxfYmluZGluZycsICctaW1hZScsICc8aW5maWxlLm1hZT4nLCAnLW9tYWUnLCAnPG91dGZpbGUubWFlPic=

> <r_epik_Ionization_Penalty>
0.00109667

> <r_epik_Ionization_Penalty_Charging>
0

> <r_epik_Ionization_Penalty_Neutral>
0.00109667

> <r_epik_State_Penalty>
0.000719322

> <r_epik_Charging_Adjusted_Penalty>
0.000719322

> <i_epik_Tot_Q>
0

> <i_epik_Tot_abs_Q>
0

> <r_epik_Metal_State_Penalty>
-0

> <b_epik_Metal_Only>
0

> <s_lp_Force_Field>
OPLS_2005

> <r_lp_Energy>
-0.716075

> <b_lp_Chiralities_Consistent>
1

> <s_lp_Variant>
AV-unprocessed.smi:3211-3

> <Gold.Version>
5.8.1

> <Gold.Id.Protein>
6NUR|6NUR_protein|mol2

> <Gold.PLP.Fitness>
43.2557

> <Gold.PLP.PLP>
-41.3401

> <Gold.PLP.part.hbond>
-1.9129

> <Gold.PLP.part.metal>
0.0000

> <Gold.PLP.part.buried>
-4.9897

> <Gold.PLP.part.nonpolar>
-34.7074

> <Gold.PLP.part.repulsive>
0.1803

> <Gold.PLP.ligand.clash>
0.0000

> <Gold.PLP.ligand.torsion>
0.5579

> <Gold.PLP.Chemscore.Hbond>
0.9760

> <Gold.PLP.Chemscore.CHOScore>
0.0000

> <Gold.PLP.Chemscore.Metal>
0.0000

> <Gold.Chemscore.Hbonds>
donor molecule, donor type, donor heavy atom, donor atom, acceptor molecule, acceptor atom, score
      P1  H  7989  7998       L1    10  0.96

> <Gold.PLP.Chemscore.Internal.Correction>
0.1035

> <Gold.Rescore>
     Score         DG    S(hbond)    S(metal)    S(lipo)     H(rot)  DE(clash)    DE(int)     intcor
     16.84     -17.29       0.96        0.00     106.50       1.51       0.02       0.43       ----

> <Gold.Chemscore.Fitness>
16.8425

> <Gold.Chemscore.DG>
-17.2938

> <Gold.Chemscore.ZeroCoef>
-5.4800

> <Gold.Chemscore.Hbond>
0.9633

> <Gold.Chemscore.Metal>
0.0000

> <Gold.Chemscore.Lipo>
106.5046

> <Gold.Chemscore.Internal_Hbond>
0.0000

> <Gold.Chemscore.DEClash>
0.0222

> <Gold.Chemscore.DEInternal>
0.4291

> <Gold.Chemscore.Rot>
1.5096

> <Gold.Chemscore.Internal.Correction>
   9.000000E+99

> <Gold.Chemscore.Hbonds>
donor molecule, donor type, donor heavy atom, donor atom, acceptor molecule, acceptor atom, score
      P1  H  7989  7998       L1    10  0.92

> <Gold.Chemscore.Hbond.Weighted>
-3.2173

> <Gold.Chemscore.Metal.Weighted>
-0.0000

> <Gold.Chemscore.Lipo.Weighted>
-12.4610

> <Gold.Chemscore.Internal_Hbond.Weighted>
0.0000

> <Gold.Chemscore.DEClash.Weighted>
0.0222

> <Gold.Chemscore.DEInternal.Weighted>
0.4291

> <Gold.Chemscore.Rot.Weighted>
3.8646

> <Gold.Chemscore.Internal.Correction.Weighted>
   9.000000E+99

> <Gold.Protein.RotatedTorsions>
[ 6907 6896 6895 6894 ] final    4.36 input  -60.11 | X-H torsion
[ 7974 7965 7964 7962 ] final  136.18 input  175.53 | X-H torsion
[ 8008 7997 7996 7995 ] final -115.38 input   59.86 | X-H torsion
[ 10167 10162 10161 10158 ] final  137.00 input  -65.29 | X-H torsion
[ 10718 10713 10712 10709 ] final  -50.34 input   66.30 | X-H torsion
[ 10763 10752 10751 10750 ] final   -4.44 input  -60.55 | X-H torsion
[ 11005 11000 10999 10996 ] final    1.34 input  -57.11 | X-H torsion

> <Gold.Protein.ActiveResidues>
 VAL166  LYS551  ARG553  GLY616  TRP617  ASP618  TYR619  PRO620  LYS621  CYS622 
 ASP623  PHE694  ASN695  SER759  ASP760  ASP761  ALA762  ILE779  LEU786  VAL792 
 PHE793  MET794  SER795  GLU796  ALA797  LYS798  CYS799  TRP800  GLU811  SER814 

> <Gold.Protein.RotatedAtoms>
  151.6400  135.1014  160.0139 H   0  0  0  0  0  0  0  0  0  0  0  0  # atno 6907 bound_to 6896
  152.4059  133.6885  159.6365 H   0  0  0  0  0  0  0  0  0  0  0  0  # atno 6908 bound_to 6896
  150.7954  133.8626  159.3277 H   0  0  0  0  0  0  0  0  0  0  0  0  # atno 6909 bound_to 6896
  144.9590  139.4732  143.5489 H   0  0  0  0  0  0  0  0  0  0  0  0  # atno 7974 bound_to 7965
  155.0511  140.0393  157.2544 H   0  0  0  0  0  0  0  0  0  0  0  0  # atno 8008 bound_to 7997
  154.7137  140.2698  155.6581 H   0  0  0  0  0  0  0  0  0  0  0  0  # atno 8009 bound_to 7997
  156.2797  140.2716  156.1786 H   0  0  0  0  0  0  0  0  0  0  0  0  # atno 8010 bound_to 7997
  139.5160  144.6434  151.5507 H   0  0  0  0  0  0  0  0  0  0  0  0  # atno 10167 bound_to 10162
  156.1810  130.4150  149.9507 H   0  0  0  0  0  0  0  0  0  0  0  0  # atno 10718 bound_to 10713
  153.3849  135.7000  153.6537 H   0  0  0  0  0  0  0  0  0  0  0  0  # atno 10763 bound_to 10752
  153.5133  135.3627  155.2598 H   0  0  0  0  0  0  0  0  0  0  0  0  # atno 10764 bound_to 10752
  154.8696  135.4140  154.3155 H   0  0  0  0  0  0  0  0  0  0  0  0  # atno 10765 bound_to 10752
  140.6166  133.9700  155.8203 H   0  0  0  0  0  0  0  0  0  0  0  0  # atno 11005 bound_to 11000
  146.3347  139.8727  142.8837 LP  0  0  0  0  0  0  0  0  0  0  0  0  # atno 17320 bound_to 7965
  145.2729  141.0114  143.3762 LP  0  0  0  0  0  0  0  0  0  0  0  0  # atno 17321 bound_to 7965
  140.6209  143.9260  150.6525 LP  0  0  0  0  0  0  0  0  0  0  0  0  # atno 17342 bound_to 10162
  140.2533  143.3577  152.1387 LP  0  0  0  0  0  0  0  0  0  0  0  0  # atno 17343 bound_to 10162
  156.7278  130.9031  151.3623 LP  0  0  0  0  0  0  0  0  0  0  0  0  # atno 17370 bound_to 10713
  157.6868  130.9193  150.0407 LP  0  0  0  0  0  0  0  0  0  0  0  0  # atno 17371 bound_to 10713
  141.0771  134.0118  157.3441 LP  0  0  0  0  0  0  0  0  0  0  0  0  # atno 17394 bound_to 11000
  139.9170  135.0197  156.7921 LP  0  0  0  0  0  0  0  0  0  0  0  0  # atno 17395 bound_to 11000

$$$$
