AV-unprocessed.smi:817|AV-procd|sdf|3831|dock1
  -GOLD-   22720 1273D 1   1.00000     0.00000
 Structure written by MMmdl.
 48 49  0  0  0  0  0  0  0  0  2 V2000
  144.3550  140.5841  156.8755 C   0  0  0  0  0  0  0  0  0  0  0  0
  144.9898  141.0521  155.5583 C   0  0  1  0  0  0  0  0  0  0  0  0
  144.7117  142.5449  155.3038 C   0  0  0  0  0  0  0  0  0  0  0  0
  145.3950  143.0401  154.0209 C   0  0  0  0  0  0  0  0  0  0  0  0
  146.9016  142.7246  154.0392 C   0  0  0  0  0  0  0  0  0  0  0  0
  147.1970  141.2026  154.2039 C   0  0  2  0  0  0  0  0  0  0  0  0
  148.7360  140.9704  154.3045 C   0  0  0  0  0  0  0  0  0  0  0  0
  149.4072  141.9280  155.1858 N   0  0  0  0  0  0  0  0  0  0  0  0
  150.1551  141.6616  156.2703 C   0  0  0  0  0  0  0  0  0  0  0  0
  150.3343  140.5063  156.6475 O   0  0  0  0  0  0  0  0  0  0  0  0
  150.6449  142.7577  156.8829 N   0  0  0  0  0  0  0  0  0  0  0  0
  151.4653  142.8391  158.0407 C   0  0  0  0  0  0  0  0  0  0  0  0
  152.0342  141.7216  158.6989 C   0  0  0  0  0  0  0  0  0  0  0  0
  152.8433  141.9393  159.8308 C   0  0  0  0  0  0  0  0  0  0  0  0
  153.0618  143.2633  160.2580 C   0  0  0  0  0  0  0  0  0  0  0  0
  152.5377  144.3382  159.6322 N   0  0  0  0  0  0  0  0  0  0  0  0
  151.7625  144.1217  158.5485 C   0  0  0  0  0  0  0  0  0  0  0  0
  146.6224  140.4251  153.0420 N   0  3  0  0  0  0  0  0  0  0  0  0
  147.0092  140.8991  151.6865 C   0  0  0  0  0  0  0  0  0  0  0  0
  146.7478  138.9455  153.1245 C   0  0  0  0  0  0  0  0  0  0  0  0
  146.5106  140.7796  155.5400 C   0  0  0  0  0  0  0  0  0  0  0  0
  144.7783  141.1134  157.7298 H   0  0  0  0  0  0  0  0  0  0  0  0
  144.5159  139.5171  157.0319 H   0  0  0  0  0  0  0  0  0  0  0  0
  143.2785  140.7577  156.8769 H   0  0  0  0  0  0  0  0  0  0  0  0
  144.5220  140.4797  154.7568 H   0  0  0  0  0  0  0  0  0  0  0  0
  143.6374  142.7208  155.2392 H   0  0  0  0  0  0  0  0  0  0  0  0
  145.0685  143.1339  156.1501 H   0  0  0  0  0  0  0  0  0  0  0  0
  144.9229  142.5856  153.1494 H   0  0  0  0  0  0  0  0  0  0  0  0
  145.2450  144.1153  153.9196 H   0  0  0  0  0  0  0  0  0  0  0  0
  147.3871  143.1390  153.1568 H   0  0  0  0  0  0  0  0  0  0  0  0
  147.3373  143.2774  154.8723 H   0  0  0  0  0  0  0  0  0  0  0  0
  148.9466  139.9688  154.6792 H   0  0  0  0  0  0  0  0  0  0  0  0
  149.1992  141.0484  153.3207 H   0  0  0  0  0  0  0  0  0  0  0  0
  149.2835  142.9035  154.9548 H   0  0  0  0  0  0  0  0  0  0  0  0
  150.3488  143.6446  156.5030 H   0  0  0  0  0  0  0  0  0  0  0  0
  151.8803  140.7105  158.3559 H   0  0  0  0  0  0  0  0  0  0  0  0
  153.2906  141.1091  160.3571 H   0  0  0  0  0  0  0  0  0  0  0  0
  153.6781  143.4643  161.1219 H   0  0  0  0  0  0  0  0  0  0  0  0
  151.3624  145.0051  158.0726 H   0  0  0  0  0  0  0  0  0  0  0  0
  148.0736  140.7648  151.4957 H   0  0  0  0  0  0  0  0  0  0  0  0
  146.7523  141.9426  151.5164 H   0  0  0  0  0  0  0  0  0  0  0  0
  146.4719  140.3336  150.9243 H   0  0  0  0  0  0  0  0  0  0  0  0
  147.7883  138.6224  153.1136 H   0  0  0  0  0  0  0  0  0  0  0  0
  146.2556  138.4772  152.2715 H   0  0  0  0  0  0  0  0  0  0  0  0
  146.2630  138.5339  154.0076 H   0  0  0  0  0  0  0  0  0  0  0  0
  146.9505  141.3347  156.3695 H   0  0  0  0  0  0  0  0  0  0  0  0
  146.7153  139.7362  155.7775 H   0  0  0  0  0  0  0  0  0  0  0  0
  145.6283  140.5974  153.0957 H   0  0  0  0  0  0  0  0  0  0  0  0
  1  2  1  0  0  0  0
  1 22  1  0  0  0  0
  1 23  1  0  0  0  0
  1 24  1  0  0  0  0
  2 21  1  0  0  0  0
  2  3  1  0  0  0  0
  2 25  1  0  0  0  0
  3  4  1  0  0  0  0
  3 26  1  0  0  0  0
  3 27  1  0  0  0  0
  4  5  1  0  0  0  0
  4 28  1  0  0  0  0
  4 29  1  0  0  0  0
  5  6  1  0  0  0  0
  5 30  1  0  0  0  0
  5 31  1  0  0  0  0
  6  7  1  0  0  0  0
  6 18  1  0  0  0  0
  6 21  1  0  0  0  0
  7  8  1  0  0  0  0
  7 32  1  0  0  0  0
  7 33  1  0  0  0  0
  8  9  1  0  0  0  0
  8 34  1  0  0  0  0
  9 10  2  0  0  0  0
  9 11  1  0  0  0  0
 11 12  1  0  0  0  0
 11 35  1  0  0  0  0
 12 17  1  0  0  0  0
 12 13  2  0  0  0  0
 13 14  1  0  0  0  0
 13 36  1  0  0  0  0
 14 15  2  0  0  0  0
 14 37  1  0  0  0  0
 15 16  1  0  0  0  0
 15 38  1  0  0  0  0
 16 17  2  0  0  0  0
 17 39  1  0  0  0  0
 18 19  1  0  0  0  0
 18 20  1  0  0  0  0
 18 48  1  0  0  0  0
 19 40  1  0  0  0  0
 19 41  1  0  0  0  0
 19 42  1  0  0  0  0
 20 43  1  0  0  0  0
 20 44  1  0  0  0  0
 20 45  1  0  0  0  0
 21 46  1  0  0  0  0
 21 47  1  0  0  0  0
M  CHG  1  18   1
M  END
> <s_m_source_file>
AV-unprocessed.smi

> <i_m_source_file_index>
817

> <i_lp_mmshare_version>
43012

> <i_f3d_flags>
0

> <s_epik_input>
W0NIM11bQ0BASF0oW0NIMl0xKVtDSDJdW0NIMl1bQ0gyXVtDQF0xKE4oW0NIM10pW0NIM10pW0NIMl1bTkhdQyg9TylbTkhdYzJbY0hdW2NIXVtjSF1uW2NIXTI=

> <s_epik_cmdline>
J2VwaWtfcHl0aG9uJywgJy1waCcsICc3LjAnLCAnLXRuJywgJzgnLCAnLW1hJywgJzIwMCcsICctbWV0YWxfYmluZGluZycsICctaW1hZScsICc8aW5maWxlLm1hZT4nLCAnLW9tYWUnLCAnPG91dGZpbGUubWFlPic=

> <r_lp_tautomer_probability>
1

> <r_epik_Ionization_Penalty>
0.00584939

> <r_epik_Ionization_Penalty_Charging>
0.00160539

> <r_epik_Ionization_Penalty_Neutral>
0.004244

> <r_epik_State_Penalty>
-0

> <r_epik_Charging_Adjusted_Penalty>
0.00160539

> <i_epik_Tot_Q>
1

> <i_epik_Tot_abs_Q>
1

> <r_epik_Metal_State_Penalty>
-0

> <b_epik_Metal_Only>
0

> <s_lp_Force_Field>
OPLS_2005

> <r_lp_Energy>
44.0482

> <b_lp_Chiralities_Consistent>
1

> <s_lp_Variant>
AV-unprocessed.smi:817-4

> <Gold.Version>
5.8.1

> <Gold.Id.Protein>
6NUR|6NUR_protein|mol2

> <Gold.PLP.Fitness>
46.8643

> <Gold.PLP.PLP>
-35.1852

> <Gold.PLP.part.hbond>
-3.0000

> <Gold.PLP.part.metal>
0.0000

> <Gold.PLP.part.buried>
-4.7744

> <Gold.PLP.part.nonpolar>
-29.8177

> <Gold.PLP.part.repulsive>
0.2843

> <Gold.PLP.ligand.clash>
0.0000

> <Gold.PLP.ligand.torsion>
0.2260

> <Gold.PLP.Chemscore.Hbond>
3.9920

> <Gold.PLP.Chemscore.CHOScore>
0.0000

> <Gold.PLP.Chemscore.Metal>
0.0000

> <Gold.Chemscore.Hbonds>
donor molecule, donor type, donor heavy atom, donor atom, acceptor molecule, acceptor atom, score
      L1  H     8    34       P1  8028  0.93
      L1  H    11    35       P1  8028  0.98
      L1  H    18    48       P1 10175  1.95

> <Gold.PLP.Chemscore.Internal.Correction>
0.1551

> <Gold.Rescore>
     Score         DG    S(hbond)    S(metal)    S(lipo)     H(rot)  DE(clash)    DE(int)     intcor
     19.80     -23.71       2.84        0.00     106.13       1.44       2.41       1.50       ----

> <Gold.Chemscore.Fitness>
19.7973

> <Gold.Chemscore.DG>
-23.7102

> <Gold.Chemscore.ZeroCoef>
-5.4800

> <Gold.Chemscore.Hbond>
2.8446

> <Gold.Chemscore.Metal>
0.0000

> <Gold.Chemscore.Lipo>
106.1275

> <Gold.Chemscore.Internal_Hbond>
0.0000

> <Gold.Chemscore.DEClash>
2.4148

> <Gold.Chemscore.DEInternal>
1.4981

> <Gold.Chemscore.Rot>
1.4405

> <Gold.Chemscore.Internal.Correction>
   9.000000E+99

> <Gold.Chemscore.Hbonds>
donor molecule, donor type, donor heavy atom, donor atom, acceptor molecule, acceptor atom, score
      L1  H     8    34       P1  8028  0.89
      L1  H    11    35       P1  8028  0.90
      L1  H    18    48       P1 10175  0.74

> <Gold.Chemscore.Hbond.Weighted>
-9.5010

> <Gold.Chemscore.Metal.Weighted>
-0.0000

> <Gold.Chemscore.Lipo.Weighted>
-12.4169

> <Gold.Chemscore.Internal_Hbond.Weighted>
0.0000

> <Gold.Chemscore.DEClash.Weighted>
2.4148

> <Gold.Chemscore.DEInternal.Weighted>
1.4981

> <Gold.Chemscore.Rot.Weighted>
3.6878

> <Gold.Chemscore.Internal.Correction.Weighted>
   9.000000E+99

> <Gold.Protein.RotatedTorsions>
[ 6907 6896 6895 6894 ] final  -46.16 input  -60.11 | X-H torsion
[ 7974 7965 7964 7962 ] final -120.17 input  175.53 | X-H torsion
[ 8008 7997 7996 7995 ] final  -18.97 input   59.86 | X-H torsion
[ 10167 10162 10161 10158 ] final  -88.05 input  -65.29 | X-H torsion
[ 10718 10713 10712 10709 ] final  104.27 input   66.30 | X-H torsion
[ 10763 10752 10751 10750 ] final -107.23 input  -60.55 | X-H torsion
[ 11005 11000 10999 10996 ] final  127.53 input  -57.11 | X-H torsion

> <Gold.Protein.ActiveResidues>
 VAL166  LYS551  ARG553  GLY616  TRP617  ASP618  TYR619  PRO620  LYS621  CYS622 
 ASP623  PHE694  ASN695  SER759  ASP760  ASP761  ALA762  ILE779  LEU786  VAL792 
 PHE793  MET794  SER795  GLU796  ALA797  LYS798  CYS799  TRP800  GLU811  SER814 

> <Gold.Protein.RotatedAtoms>
  150.9142  134.8559  159.7445 H   0  0  0  0  0  0  0  0  0  0  0  0  # atno 6907 bound_to 6896
  152.4960  134.4314  159.9523 H   0  0  0  0  0  0  0  0  0  0  0  0  # atno 6908 bound_to 6896
  151.4353  133.3619  159.2809 H   0  0  0  0  0  0  0  0  0  0  0  0  # atno 6909 bound_to 6896
  145.0543  140.8242  143.4190 H   0  0  0  0  0  0  0  0  0  0  0  0  # atno 7974 bound_to 7965
  154.4869  140.2101  155.9635 H   0  0  0  0  0  0  0  0  0  0  0  0  # atno 8008 bound_to 7997
  156.1249  140.3207  155.8231 H   0  0  0  0  0  0  0  0  0  0  0  0  # atno 8009 bound_to 7997
  155.4401  140.0509  157.3002 H   0  0  0  0  0  0  0  0  0  0  0  0  # atno 8010 bound_to 7997
  140.3785  143.2760  151.9413 H   0  0  0  0  0  0  0  0  0  0  0  0  # atno 10167 bound_to 10162
  157.6746  131.0799  150.5680 H   0  0  0  0  0  0  0  0  0  0  0  0  # atno 10718 bound_to 10713
  154.8062  135.4683  154.0398 H   0  0  0  0  0  0  0  0  0  0  0  0  # atno 10763 bound_to 10752
  153.1865  135.6848  153.8415 H   0  0  0  0  0  0  0  0  0  0  0  0  # atno 10764 bound_to 10752
  153.7948  135.3238  155.3360 H   0  0  0  0  0  0  0  0  0  0  0  0  # atno 10765 bound_to 10752
  139.9512  134.9621  156.8868 H   0  0  0  0  0  0  0  0  0  0  0  0  # atno 11005 bound_to 11000
  145.1488  139.2527  143.5452 LP  0  0  0  0  0  0  0  0  0  0  0  0  # atno 17320 bound_to 7965
  146.3520  140.1185  142.8601 LP  0  0  0  0  0  0  0  0  0  0  0  0  # atno 17321 bound_to 7965
  139.4797  144.5841  151.7883 LP  0  0  0  0  0  0  0  0  0  0  0  0  # atno 17342 bound_to 10162
  140.4962  144.1237  150.5960 LP  0  0  0  0  0  0  0  0  0  0  0  0  # atno 17343 bound_to 10162
  156.5982  130.4347  149.5908 LP  0  0  0  0  0  0  0  0  0  0  0  0  # atno 17370 bound_to 10713
  156.2528  130.6917  151.1660 LP  0  0  0  0  0  0  0  0  0  0  0  0  # atno 17371 bound_to 10713
  140.5714  134.0439  155.7432 LP  0  0  0  0  0  0  0  0  0  0  0  0  # atno 17394 bound_to 11000
  141.1175  133.9516  157.2794 LP  0  0  0  0  0  0  0  0  0  0  0  0  # atno 17395 bound_to 11000

$$$$
