AV-unprocessed.smi:1230|AV-procd|sdf|5158|dock4
  -GOLD-   22720 4233D 1   1.00000     0.00000
 Structure written by MMmdl.
 39 40  0  0  0  0  0  0  0  0  1 V2000
  153.5608  141.4856  160.7107 C   0  0  0  0  0  0  0  0  0  0  0  0
  153.1745  142.8575  160.1369 C   0  0  2  0  0  0  0  0  0  0  0  0
  152.3211  143.6673  161.1335 C   0  0  0  0  0  0  0  0  0  0  0  0
  151.9772  145.0592  160.5798 C   0  0  0  0  0  0  0  0  0  0  0  0
  151.2767  144.9601  159.2165 C   0  0  0  0  0  0  0  0  0  0  0  0
  152.1161  144.1492  158.2146 C   0  0  0  0  0  0  0  0  0  0  0  0
  152.4754  142.7545  158.7602 C   0  0  2  0  0  0  0  0  0  0  0  0
  151.2680  142.0159  158.8929 O   0  0  0  0  0  0  0  0  0  0  0  0
  150.4357  142.0237  157.7432 C   0  0  0  0  0  0  0  0  0  0  0  0
  151.2657  141.5324  156.5476 C   0  0  0  0  0  0  0  0  0  0  0  0
  151.4255  140.0992  156.5501 N   0  0  0  0  0  0  0  0  0  0  0  0
  151.9030  139.4127  157.6558 C   0  0  0  0  0  0  0  0  0  0  0  0
  152.1234  138.0771  157.6505 C   0  0  0  0  0  0  0  0  0  0  0  0
  152.6246  137.3872  158.7925 C   0  0  0  0  0  0  0  0  0  0  0  0
  153.0227  136.8053  159.7102 N   0  0  0  0  0  0  0  0  0  0  0  0
  151.8619  137.2818  156.4522 C   0  0  0  0  0  0  0  0  0  0  0  0
  152.0256  136.0678  156.3473 O   0  0  0  0  0  0  0  0  0  0  0  0
  151.3897  138.0202  155.3620 N   0  0  0  0  0  0  0  0  0  0  0  0
  151.1641  139.3980  155.3492 C   0  0  0  0  0  0  0  0  0  0  0  0
  150.7677  139.9445  154.3197 O   0  0  0  0  0  0  0  0  0  0  0  0
  151.2024  137.5143  154.5085 H   0  0  0  0  0  0  0  0  0  0  0  0
  152.6791  140.8933  160.9536 H   0  0  0  0  0  0  0  0  0  0  0  0
  154.1441  141.5945  161.6252 H   0  0  0  0  0  0  0  0  0  0  0  0
  154.1625  140.9166  160.0019 H   0  0  0  0  0  0  0  0  0  0  0  0
  154.1050  143.4063  159.9840 H   0  0  0  0  0  0  0  0  0  0  0  0
  151.4013  143.1260  161.3599 H   0  0  0  0  0  0  0  0  0  0  0  0
  152.8541  143.7748  162.0788 H   0  0  0  0  0  0  0  0  0  0  0  0
  151.3422  145.5943  161.2864 H   0  0  0  0  0  0  0  0  0  0  0  0
  152.8903  145.6473  160.4783 H   0  0  0  0  0  0  0  0  0  0  0  0
  150.2991  144.4923  159.3412 H   0  0  0  0  0  0  0  0  0  0  0  0
  151.0908  145.9591  158.8213 H   0  0  0  0  0  0  0  0  0  0  0  0
  151.5787  144.0530  157.2707 H   0  0  0  0  0  0  0  0  0  0  0  0
  153.0331  144.6954  157.9903 H   0  0  0  0  0  0  0  0  0  0  0  0
  153.1495  142.2761  158.0467 H   0  0  0  0  0  0  0  0  0  0  0  0
  149.5816  141.3665  157.9098 H   0  0  0  0  0  0  0  0  0  0  0  0
  150.0450  143.0234  157.5479 H   0  0  0  0  0  0  0  0  0  0  0  0
  150.7830  141.7867  155.6027 H   0  0  0  0  0  0  0  0  0  0  0  0
  152.2598  141.9827  156.5145 H   0  0  0  0  0  0  0  0  0  0  0  0
  152.1203  139.9654  158.5594 H   0  0  0  0  0  0  0  0  0  0  0  0
  1  2  1  0  0  0  0
  1 22  1  0  0  0  0
  1 23  1  0  0  0  0
  1 24  1  0  0  0  0
  2  7  1  0  0  0  0
  2  3  1  0  0  0  0
  2 25  1  0  0  0  0
  3  4  1  0  0  0  0
  3 26  1  0  0  0  0
  3 27  1  0  0  0  0
  4  5  1  0  0  0  0
  4 28  1  0  0  0  0
  4 29  1  0  0  0  0
  5  6  1  0  0  0  0
  5 30  1  0  0  0  0
  5 31  1  0  0  0  0
  6  7  1  0  0  0  0
  6 32  1  0  0  0  0
  6 33  1  0  0  0  0
  7  8  1  0  0  0  0
  7 34  1  0  0  0  0
  8  9  1  0  0  0  0
  9 10  1  0  0  0  0
  9 35  1  0  0  0  0
  9 36  1  0  0  0  0
 10 11  1  0  0  0  0
 10 37  1  0  0  0  0
 10 38  1  0  0  0  0
 11 19  1  0  0  0  0
 11 12  1  0  0  0  0
 12 13  2  0  0  0  0
 12 39  1  0  0  0  0
 13 14  1  0  0  0  0
 13 16  1  0  0  0  0
 14 15  3  0  0  0  0
 16 17  2  0  0  0  0
 16 18  1  0  0  0  0
 18 21  1  0  0  0  0
 18 19  1  0  0  0  0
 19 20  2  0  0  0  0
M  END
> <s_m_source_file>
AV-unprocessed.smi

> <i_m_source_file_index>
1230

> <i_lp_mmshare_version>
43012

> <i_f3d_flags>
0

> <s_epik_input>
W0NIM11bQ0BASF0xW0NIMl1bQ0gyXVtDSDJdW0NIMl1bQ0BIXTFPW0NIMl1bQ0gyXW4yW2NIXWMoQyNOKWMoPU8pW25IXWMyPU8=

> <s_epik_cmdline>
J2VwaWtfcHl0aG9uJywgJy1waCcsICc3LjAnLCAnLXRuJywgJzgnLCAnLW1hJywgJzIwMCcsICctbWV0YWxfYmluZGluZycsICctaW1hZScsICc8aW5maWxlLm1hZT4nLCAnLW9tYWUnLCAnPG91dGZpbGUubWFlPic=

> <r_epik_Ionization_Penalty>
0.421541

> <r_epik_Ionization_Penalty_Charging>
0.421541

> <r_epik_Ionization_Penalty_Neutral>
2.29267e-11

> <r_epik_State_Penalty>
0.422277

> <r_epik_Charging_Adjusted_Penalty>
0.843818

> <i_epik_Tot_Q>
0

> <i_epik_Tot_abs_Q>
0

> <r_epik_Metal_State_Penalty>
4.11629

> <b_epik_Metal_Only>
0

> <s_lp_Force_Field>
OPLS_2005

> <r_lp_Energy>
14.6453

> <b_lp_Chiralities_Consistent>
1

> <s_lp_Variant>
AV-unprocessed.smi:1230-7

> <Gold.Version>
5.8.1

> <Gold.Id.Protein>
6NUR|6NUR_protein|mol2

> <Gold.PLP.Fitness>
53.1565

> <Gold.PLP.PLP>
-44.6401

> <Gold.PLP.part.hbond>
-2.9711

> <Gold.PLP.part.metal>
0.0000

> <Gold.PLP.part.buried>
-6.7444

> <Gold.PLP.part.nonpolar>
-35.9601

> <Gold.PLP.part.repulsive>
0.2334

> <Gold.PLP.ligand.clash>
0.0000

> <Gold.PLP.ligand.torsion>
0.2131

> <Gold.PLP.Chemscore.Hbond>
2.9750

> <Gold.PLP.Chemscore.CHOScore>
0.0000

> <Gold.PLP.Chemscore.Metal>
0.0000

> <Gold.Chemscore.Hbonds>
donor molecule, donor type, donor heavy atom, donor atom, acceptor molecule, acceptor atom, score
      P1  H  6896  6907       L1    15  0.94
      P1  H  7989  7998       L1    20  0.94
      P1  H 10752 10765       L1    17  1.00

> <Gold.PLP.Chemscore.Internal.Correction>
0.0176

> <Gold.Rescore>
     Score         DG    S(hbond)    S(metal)    S(lipo)     H(rot)  DE(clash)    DE(int)     intcor
     21.03     -22.37       2.87        0.00     104.93       1.94       0.03       1.31       ----

> <Gold.Chemscore.Fitness>
21.0260

> <Gold.Chemscore.DG>
-22.3738

> <Gold.Chemscore.ZeroCoef>
-5.4800

> <Gold.Chemscore.Hbond>
2.8682

> <Gold.Chemscore.Metal>
0.0000

> <Gold.Chemscore.Lipo>
104.9274

> <Gold.Chemscore.Internal_Hbond>
0.0000

> <Gold.Chemscore.DEClash>
0.0339

> <Gold.Chemscore.DEInternal>
1.3139

> <Gold.Chemscore.Rot>
1.9385

> <Gold.Chemscore.Internal.Correction>
   9.000000E+99

> <Gold.Chemscore.Hbonds>
donor molecule, donor type, donor heavy atom, donor atom, acceptor molecule, acceptor atom, score
      P1  H  6896  6907       L1    15  0.70
      P1  H  7989  7998       L1    20  0.89
      P1  H 10752 10765       L1    17  0.94

> <Gold.Chemscore.Hbond.Weighted>
-9.5798

> <Gold.Chemscore.Metal.Weighted>
-0.0000

> <Gold.Chemscore.Lipo.Weighted>
-12.2765

> <Gold.Chemscore.Internal_Hbond.Weighted>
0.0000

> <Gold.Chemscore.DEClash.Weighted>
0.0339

> <Gold.Chemscore.DEInternal.Weighted>
1.3139

> <Gold.Chemscore.Rot.Weighted>
4.9625

> <Gold.Chemscore.Internal.Correction.Weighted>
   9.000000E+99

> <Gold.Protein.RotatedTorsions>
[ 6907 6896 6895 6894 ] final   19.97 input  -60.11 | X-H torsion
[ 7974 7965 7964 7962 ] final -168.62 input  175.53 | X-H torsion
[ 8008 7997 7996 7995 ] final  -54.34 input   59.86 | X-H torsion
[ 10167 10162 10161 10158 ] final  -15.09 input  -65.29 | X-H torsion
[ 10718 10713 10712 10709 ] final -155.13 input   66.30 | X-H torsion
[ 10763 10752 10751 10750 ] final -152.47 input  -60.55 | X-H torsion
[ 11005 11000 10999 10996 ] final  154.24 input  -57.11 | X-H torsion

> <Gold.Protein.ActiveResidues>
 VAL166  LYS551  ARG553  GLY616  TRP617  ASP618  TYR619  PRO620  LYS621  CYS622 
 ASP623  PHE694  ASN695  SER759  ASP760  ASP761  ALA762  ILE779  LEU786  VAL792 
 PHE793  MET794  SER795  GLU796  ALA797  LYS798  CYS799  TRP800  GLU811  SER814 

> <Gold.Protein.RotatedAtoms>
  151.8892  135.0423  160.0495 H   0  0  0  0  0  0  0  0  0  0  0  0  # atno 6907 bound_to 6896
  152.2450  133.5162  159.5300 H   0  0  0  0  0  0  0  0  0  0  0  0  # atno 6908 bound_to 6896
  150.7065  134.0954  159.3989 H   0  0  0  0  0  0  0  0  0  0  0  0  # atno 6909 bound_to 6896
  144.7200  140.2343  143.6300 H   0  0  0  0  0  0  0  0  0  0  0  0  # atno 7974 bound_to 7965
  154.4160  140.1178  156.5299 H   0  0  0  0  0  0  0  0  0  0  0  0  # atno 8008 bound_to 7997
  155.6616  140.3496  155.4765 H   0  0  0  0  0  0  0  0  0  0  0  0  # atno 8009 bound_to 7997
  155.9708  140.1141  157.0803 H   0  0  0  0  0  0  0  0  0  0  0  0  # atno 8010 bound_to 7997
  140.7212  143.5254  150.9583 H   0  0  0  0  0  0  0  0  0  0  0  0  # atno 10167 bound_to 10162
  156.5086  130.8424  151.2637 H   0  0  0  0  0  0  0  0  0  0  0  0  # atno 10718 bound_to 10713
  154.7992  135.3235  154.7593 H   0  0  0  0  0  0  0  0  0  0  0  0  # atno 10763 bound_to 10752
  153.8264  135.6883  153.4824 H   0  0  0  0  0  0  0  0  0  0  0  0  # atno 10764 bound_to 10752
  153.1699  135.4627  154.9831 H   0  0  0  0  0  0  0  0  0  0  0  0  # atno 10765 bound_to 10752
  140.1471  134.8700  157.2407 H   0  0  0  0  0  0  0  0  0  0  0  0  # atno 11005 bound_to 11000
  145.8380  139.2116  143.1844 LP  0  0  0  0  0  0  0  0  0  0  0  0  # atno 17320 bound_to 7965
  146.0371  140.8201  142.9847 LP  0  0  0  0  0  0  0  0  0  0  0  0  # atno 17321 bound_to 7965
  139.8973  143.6879  152.3136 LP  0  0  0  0  0  0  0  0  0  0  0  0  # atno 17342 bound_to 10162
  139.7216  144.7601  151.0946 LP  0  0  0  0  0  0  0  0  0  0  0  0  # atno 17343 bound_to 10162
  157.7453  130.9957  150.2754 LP  0  0  0  0  0  0  0  0  0  0  0  0  # atno 17370 bound_to 10713
  156.3262  130.3793  149.7531 LP  0  0  0  0  0  0  0  0  0  0  0  0  # atno 17371 bound_to 10713
  140.2650  134.3526  155.7393 LP  0  0  0  0  0  0  0  0  0  0  0  0  # atno 17394 bound_to 11000
  141.2194  133.7391  156.9137 LP  0  0  0  0  0  0  0  0  0  0  0  0  # atno 17395 bound_to 11000

$$$$
