AV-unprocessed.smi:3335|AV-procd|sdf|12844|dock10
  -GOLD-   2272019233D 1   1.00000     0.00000
 Structure written by MMmdl.
 47 48  0  0  0  0  0  0  0  0  2 V2000
  143.8488  132.5529  148.1114 C   0  0  0  0  0  0  0  0  0  0  0  0
  144.0406  132.9941  149.5339 C   0  0  0  0  0  0  0  0  0  0  0  0
  143.5076  132.3994  150.7123 C   0  0  0  0  0  0  0  0  0  0  0  0
  143.8683  133.0331  151.8158 N   0  0  0  0  0  0  0  0  0  0  0  0
  144.6440  134.0528  151.3847 N   0  0  0  0  0  0  0  0  0  0  0  0
  145.2303  134.9835  152.3408 C   0  0  1  0  0  0  0  0  0  0  0  0
  144.1243  135.8414  152.9853 C   0  0  0  0  0  0  0  0  0  0  0  0
  146.1140  134.2639  153.3942 C   0  0  1  0  0  0  0  0  0  0  0  0
  146.6879  132.9268  152.8806 C   0  0  0  0  0  0  0  0  0  0  0  0
  147.2192  135.1588  153.8155 N   0  3  0  0  0  0  0  0  0  0  0  0
  148.1247  134.6301  154.8641 C   0  0  1  0  0  0  0  0  0  0  0  0
  149.2528  133.8244  154.2008 C   0  0  0  0  0  0  0  0  0  0  0  0
  148.7236  135.7678  155.7161 C   0  0  0  0  0  0  0  0  0  0  0  0
  149.3553  136.6624  155.1516 O   0  0  0  0  0  0  0  0  0  0  0  0
  148.5555  135.7505  157.0561 N   0  0  0  0  0  0  0  0  0  0  0  0
  147.8399  134.7345  157.8284 C   0  0  0  0  0  0  0  0  0  0  0  0
  148.1590  135.0262  159.2946 C   0  0  0  0  0  0  0  0  0  0  0  0
  148.4767  136.5143  159.3164 C   0  0  0  0  0  0  0  0  0  0  0  0
  149.0890  136.7845  157.9419 C   0  0  0  0  0  0  0  0  0  0  0  0
  144.7613  134.0525  150.0103 C   0  0  0  0  0  0  0  0  0  0  0  0
  142.9144  132.0066  147.9804 H   0  0  0  0  0  0  0  0  0  0  0  0
  144.6541  131.8958  147.7829 H   0  0  0  0  0  0  0  0  0  0  0  0
  143.8235  133.3995  147.4252 H   0  0  0  0  0  0  0  0  0  0  0  0
  142.8725  131.5300  150.7974 H   0  0  0  0  0  0  0  0  0  0  0  0
  145.8719  135.6538  151.7663 H   0  0  0  0  0  0  0  0  0  0  0  0
  144.5408  136.6403  153.5986 H   0  0  0  0  0  0  0  0  0  0  0  0
  143.4726  135.2421  153.6224 H   0  0  0  0  0  0  0  0  0  0  0  0
  143.5013  136.3116  152.2237 H   0  0  0  0  0  0  0  0  0  0  0  0
  145.4865  134.0505  154.2611 H   0  0  0  0  0  0  0  0  0  0  0  0
  145.8999  132.2156  152.6330 H   0  0  0  0  0  0  0  0  0  0  0  0
  147.3183  132.4433  153.6264 H   0  0  0  0  0  0  0  0  0  0  0  0
  147.2919  133.0763  151.9851 H   0  0  0  0  0  0  0  0  0  0  0  0
  147.7629  135.3894  152.9967 H   0  0  0  0  0  0  0  0  0  0  0  0
  147.5481  133.9513  155.4904 H   0  0  0  0  0  0  0  0  0  0  0  0
  149.9354  133.4042  154.9401 H   0  0  0  0  0  0  0  0  0  0  0  0
  149.8416  134.4430  153.5220 H   0  0  0  0  0  0  0  0  0  0  0  0
  148.8495  132.9923  153.6228 H   0  0  0  0  0  0  0  0  0  0  0  0
  146.7694  134.8386  157.6465 H   0  0  0  0  0  0  0  0  0  0  0  0
  148.1353  133.7193  157.5617 H   0  0  0  0  0  0  0  0  0  0  0  0
  147.3443  134.7569  159.9673 H   0  0  0  0  0  0  0  0  0  0  0  0
  149.0417  134.4607  159.5962 H   0  0  0  0  0  0  0  0  0  0  0  0
  147.5520  137.0830  159.4239 H   0  0  0  0  0  0  0  0  0  0  0  0
  149.1380  136.7944  160.1369 H   0  0  0  0  0  0  0  0  0  0  0  0
  150.1752  136.6909  157.9824 H   0  0  0  0  0  0  0  0  0  0  0  0
  148.8482  137.7899  157.5931 H   0  0  0  0  0  0  0  0  0  0  0  0
  145.3438  134.7975  149.4881 H   0  0  0  0  0  0  0  0  0  0  0  0
  146.8137  136.0095  154.1801 H   0  0  0  0  0  0  0  0  0  0  0  0
  1  2  1  0  0  0  0
  1 21  1  0  0  0  0
  1 22  1  0  0  0  0
  1 23  1  0  0  0  0
  2 20  2  0  0  0  0
  2  3  1  0  0  0  0
  3  4  2  0  0  0  0
  3 24  1  0  0  0  0
  4  5  1  0  0  0  0
  5  6  1  0  0  0  0
  5 20  1  0  0  0  0
  6  7  1  0  0  0  0
  6  8  1  0  0  0  0
  6 25  1  0  0  0  0
  7 26  1  0  0  0  0
  7 27  1  0  0  0  0
  7 28  1  0  0  0  0
  8  9  1  0  0  0  0
  8 10  1  0  0  0  0
  8 29  1  0  0  0  0
  9 30  1  0  0  0  0
  9 31  1  0  0  0  0
  9 32  1  0  0  0  0
 10 11  1  0  0  0  0
 10 33  1  0  0  0  0
 10 47  1  0  0  0  0
 11 12  1  0  0  0  0
 11 13  1  0  0  0  0
 11 34  1  0  0  0  0
 12 35  1  0  0  0  0
 12 36  1  0  0  0  0
 12 37  1  0  0  0  0
 13 14  2  0  0  0  0
 13 15  1  0  0  0  0
 15 19  1  0  0  0  0
 15 16  1  0  0  0  0
 16 17  1  0  0  0  0
 16 38  1  0  0  0  0
 16 39  1  0  0  0  0
 17 18  1  0  0  0  0
 17 40  1  0  0  0  0
 17 41  1  0  0  0  0
 18 19  1  0  0  0  0
 18 42  1  0  0  0  0
 18 43  1  0  0  0  0
 19 44  1  0  0  0  0
 19 45  1  0  0  0  0
 20 46  1  0  0  0  0
M  CHG  1  10   1
M  END
> <s_m_source_file>
AV-unprocessed.smi

> <i_m_source_file_index>
3335

> <i_lp_mmshare_version>
43012

> <i_f3d_flags>
0

> <s_epik_input>
W0NIM11jMVtjSF1ubihbY0hdMSlbQ0BIXShbQ0gzXSlbQ0BIXShbQ0gzXSlbTkhdW0NASF0oW0NIM10pQyg9TylOMltDSDJdW0NIMl1bQ0gyXVtDSDJdMg==

> <s_epik_cmdline>
J2VwaWtfcHl0aG9uJywgJy1waCcsICc3LjAnLCAnLXRuJywgJzgnLCAnLW1hJywgJzIwMCcsICctbWV0YWxfYmluZGluZycsICctaW1hZScsICc8aW5maWxlLm1hZT4nLCAnLW9tYWUnLCAnPG91dGZpbGUubWFlPic=

> <r_lp_tautomer_probability>
1

> <r_epik_Ionization_Penalty>
0.14175

> <r_epik_Ionization_Penalty_Charging>
0.141731

> <r_epik_Ionization_Penalty_Neutral>
1.91261e-05

> <r_epik_State_Penalty>
0.131043

> <r_epik_Charging_Adjusted_Penalty>
0.272773

> <i_epik_Tot_Q>
1

> <i_epik_Tot_abs_Q>
1

> <r_epik_Metal_State_Penalty>
0.131408

> <b_epik_Metal_Only>
0

> <s_lp_Force_Field>
OPLS_2005

> <r_lp_Energy>
36.0865

> <b_lp_Chiralities_Consistent>
1

> <s_lp_Variant>
AV-unprocessed.smi:3335-8

> <Gold.Version>
5.8.1

> <Gold.Id.Protein>
6NUR|6NUR_protein|mol2

> <Gold.PLP.Fitness>
36.2974

> <Gold.PLP.PLP>
-27.6104

> <Gold.PLP.part.hbond>
-1.0000

> <Gold.PLP.part.metal>
0.0000

> <Gold.PLP.part.buried>
-0.9518

> <Gold.PLP.part.nonpolar>
-24.7886

> <Gold.PLP.part.repulsive>
0.3147

> <Gold.PLP.ligand.clash>
0.0000

> <Gold.PLP.ligand.torsion>
1.2222

> <Gold.PLP.Chemscore.Hbond>
2.0000

> <Gold.PLP.Chemscore.CHOScore>
1.6871

> <Gold.PLP.Chemscore.Metal>
0.0000

> <Gold.Chemscore.Hbonds>
donor molecule, donor type, donor heavy atom, donor atom, acceptor molecule, acceptor atom, score
      L1  H    10    33       P1  7948  2.00
      L1  C     3    24       P1 10952  0.67
      L1  C    20    46       P1  7921  0.96

> <Gold.PLP.Chemscore.Internal.Correction>
0.0700

> <Gold.Rescore>
     Score         DG    S(hbond)    S(metal)    S(lipo)     H(rot)  DE(clash)    DE(int)     intcor
     12.11     -13.40       1.00        0.00      75.88       1.68       0.16       1.13       ----

> <Gold.Chemscore.Fitness>
12.1095

> <Gold.Chemscore.DG>
-13.4007

> <Gold.Chemscore.ZeroCoef>
-5.4800

> <Gold.Chemscore.Hbond>
0.9994

> <Gold.Chemscore.Metal>
0.0000

> <Gold.Chemscore.Lipo>
75.8782

> <Gold.Chemscore.Internal_Hbond>
0.0000

> <Gold.Chemscore.DEClash>
0.1617

> <Gold.Chemscore.DEInternal>
1.1294

> <Gold.Chemscore.Rot>
1.6778

> <Gold.Chemscore.Internal.Correction>
   9.000000E+99

> <Gold.Chemscore.Hbonds>
donor molecule, donor type, donor heavy atom, donor atom, acceptor molecule, acceptor atom, score
      L1  H    10    33       P1  7948  1.00

> <Gold.Chemscore.Hbond.Weighted>
-3.3381

> <Gold.Chemscore.Metal.Weighted>
-0.0000

> <Gold.Chemscore.Lipo.Weighted>
-8.8777

> <Gold.Chemscore.Internal_Hbond.Weighted>
0.0000

> <Gold.Chemscore.DEClash.Weighted>
0.1617

> <Gold.Chemscore.DEInternal.Weighted>
1.1294

> <Gold.Chemscore.Rot.Weighted>
4.2952

> <Gold.Chemscore.Internal.Correction.Weighted>
   9.000000E+99

> <Gold.Protein.RotatedTorsions>
[ 6907 6896 6895 6894 ] final  -91.31 input  -60.11 | X-H torsion
[ 7974 7965 7964 7962 ] final  149.73 input  175.53 | X-H torsion
[ 8008 7997 7996 7995 ] final  110.40 input   59.86 | X-H torsion
[ 10167 10162 10161 10158 ] final -169.78 input  -65.29 | X-H torsion
[ 10718 10713 10712 10709 ] final -142.15 input   66.30 | X-H torsion
[ 10763 10752 10751 10750 ] final -171.10 input  -60.55 | X-H torsion
[ 11005 11000 10999 10996 ] final  156.98 input  -57.11 | X-H torsion

> <Gold.Protein.ActiveResidues>
 VAL166  LYS551  ARG553  GLY616  TRP617  ASP618  TYR619  PRO620  LYS621  CYS622 
 ASP623  PHE694  ASN695  SER759  ASP760  ASP761  ALA762  ILE779  LEU786  VAL792 
 PHE793  MET794  SER795  GLU796  ALA797  LYS798  CYS799  TRP800  GLU811  SER814 

> <Gold.Protein.RotatedAtoms>
  150.6891  134.2297  159.4429 H   0  0  0  0  0  0  0  0  0  0  0  0  # atno 6907 bound_to 6896
  152.0248  134.9799  160.0580 H   0  0  0  0  0  0  0  0  0  0  0  0  # atno 6908 bound_to 6896
  152.1362  133.4402  159.4781 H   0  0  0  0  0  0  0  0  0  0  0  0  # atno 6909 bound_to 6896
  144.8416  139.6318  143.6014 H   0  0  0  0  0  0  0  0  0  0  0  0  # atno 7974 bound_to 7965
  156.2050  140.3039  155.9607 H   0  0  0  0  0  0  0  0  0  0  0  0  # atno 8008 bound_to 7997
  155.2863  140.0440  157.3036 H   0  0  0  0  0  0  0  0  0  0  0  0  # atno 8009 bound_to 7997
  154.5621  140.2323  155.8329 H   0  0  0  0  0  0  0  0  0  0  0  0  # atno 8010 bound_to 7997
  139.5902  144.1231  152.1624 H   0  0  0  0  0  0  0  0  0  0  0  0  # atno 10167 bound_to 10162
  156.3425  130.7645  151.1784 H   0  0  0  0  0  0  0  0  0  0  0  0  # atno 10718 bound_to 10713
  154.6342  135.2890  155.0180 H   0  0  0  0  0  0  0  0  0  0  0  0  # atno 10763 bound_to 10752
  154.1330  135.6530  153.4930 H   0  0  0  0  0  0  0  0  0  0  0  0  # atno 10764 bound_to 10752
  153.0294  135.5315  154.7182 H   0  0  0  0  0  0  0  0  0  0  0  0  # atno 10765 bound_to 10752
  140.1727  134.8532  157.2709 H   0  0  0  0  0  0  0  0  0  0  0  0  # atno 11005 bound_to 11000
  146.2707  139.6629  142.9298 LP  0  0  0  0  0  0  0  0  0  0  0  0  # atno 17320 bound_to 7965
  145.4682  141.0435  143.2713 LP  0  0  0  0  0  0  0  0  0  0  0  0  # atno 17321 bound_to 7965
  140.0803  144.5706  150.7127 LP  0  0  0  0  0  0  0  0  0  0  0  0  # atno 17342 bound_to 10162
  140.7166  143.2550  151.4414 LP  0  0  0  0  0  0  0  0  0  0  0  0  # atno 17343 bound_to 10162
  157.7449  131.0450  150.4823 LP  0  0  0  0  0  0  0  0  0  0  0  0  # atno 17370 bound_to 10713
  156.5005  130.4116  149.6355 LP  0  0  0  0  0  0  0  0  0  0  0  0  # atno 17371 bound_to 10713
  140.2359  134.3853  155.7501 LP  0  0  0  0  0  0  0  0  0  0  0  0  # atno 17394 bound_to 11000
  141.2218  133.7239  156.8713 LP  0  0  0  0  0  0  0  0  0  0  0  0  # atno 17395 bound_to 11000

$$$$
