AV-unprocessed.smi:679|AV-procd|sdf|3322|dock6
  -GOLD-   22720 0293D 1   1.00000     0.00000
 Structure written by MMmdl.
 41 43  0  0  0  0  0  0  0  0  1 V2000
  147.1206  143.9212  160.1720 C   0  0  0  0  0  0  0  0  0  0  0  0
  147.7720  143.0241  159.1173 C   0  0  0  0  0  0  0  0  0  0  0  0
  149.1493  143.3474  159.0321 O   0  0  0  0  0  0  0  0  0  0  0  0
  149.9448  142.2688  158.5661 C   0  0  1  0  0  0  0  0  0  0  0  0
  149.6552  141.8294  157.1274 C   0  0  0  0  0  0  0  0  0  0  0  0
  151.1704  141.6908  156.9380 C   0  0  2  0  0  0  0  0  0  0  0  0
  151.6191  140.3344  157.2566 N   0  0  0  0  0  0  0  0  0  0  0  0
  151.7264  139.3369  156.3671 C   0  0  0  0  0  0  0  0  0  0  0  0
  151.4496  139.4656  155.1738 O   0  0  0  0  0  0  0  0  0  0  0  0
  152.2366  138.0001  156.9141 C   0  0  0  0  0  0  0  0  0  0  0  0
  151.4628  137.5424  158.0548 N   0  0  0  0  0  0  0  0  0  0  0  0
  151.2770  138.0795  159.2626 C   0  0  0  0  0  0  0  0  0  0  0  0
  150.4948  137.3245  160.0186 N   0  0  0  0  0  0  0  0  0  0  0  0
  150.1955  136.2548  159.1915 N   0  0  0  0  0  0  0  0  0  0  0  0
  150.7690  136.3774  158.0260 N   0  0  0  0  0  0  0  0  0  0  0  0
  151.3593  142.6970  158.1049 C   0  0  0  0  0  0  0  0  0  0  0  0
  151.5448  144.1654  157.7137 C   0  0  0  0  0  0  0  0  0  0  0  0
  152.0525  144.9051  158.9558 C   0  0  0  0  0  0  0  0  0  0  0  0
  152.6335  143.8258  159.8747 C   0  0  0  0  0  0  0  0  0  0  0  0
  152.5029  142.5125  159.1008 C   0  0  0  0  0  0  0  0  0  0  0  0
  146.0586  143.6964  160.2735 H   0  0  0  0  0  0  0  0  0  0  0  0
  147.2164  144.9736  159.9035 H   0  0  0  0  0  0  0  0  0  0  0  0
  147.5875  143.7798  161.1469 H   0  0  0  0  0  0  0  0  0  0  0  0
  147.6479  141.9759  159.3933 H   0  0  0  0  0  0  0  0  0  0  0  0
  147.2864  143.1722  158.1518 H   0  0  0  0  0  0  0  0  0  0  0  0
  149.9763  141.4292  159.2640 H   0  0  0  0  0  0  0  0  0  0  0  0
  149.0837  140.9046  157.0381 H   0  0  0  0  0  0  0  0  0  0  0  0
  149.2256  142.6261  156.5179 H   0  0  0  0  0  0  0  0  0  0  0  0
  151.5127  142.0608  155.9699 H   0  0  0  0  0  0  0  0  0  0  0  0
  151.8702  140.1482  158.2166 H   0  0  0  0  0  0  0  0  0  0  0  0
  152.1965  137.2501  156.1227 H   0  0  0  0  0  0  0  0  0  0  0  0
  153.2791  138.0901  157.2227 H   0  0  0  0  0  0  0  0  0  0  0  0
  151.7102  139.0151  159.5842 H   0  0  0  0  0  0  0  0  0  0  0  0
  152.2911  144.2439  156.9218 H   0  0  0  0  0  0  0  0  0  0  0  0
  150.6333  144.6205  157.3245 H   0  0  0  0  0  0  0  0  0  0  0  0
  152.7945  145.6592  158.6921 H   0  0  0  0  0  0  0  0  0  0  0  0
  151.2292  145.4153  159.4575 H   0  0  0  0  0  0  0  0  0  0  0  0
  153.6686  144.0303  160.1495 H   0  0  0  0  0  0  0  0  0  0  0  0
  152.0518  143.7755  160.7960 H   0  0  0  0  0  0  0  0  0  0  0  0
  152.3430  141.6698  159.7740 H   0  0  0  0  0  0  0  0  0  0  0  0
  153.4341  142.3189  158.5667 H   0  0  0  0  0  0  0  0  0  0  0  0
  1  2  1  0  0  0  0
  1 21  1  0  0  0  0
  1 22  1  0  0  0  0
  1 23  1  0  0  0  0
  2  3  1  0  0  0  0
  2 24  1  0  0  0  0
  2 25  1  0  0  0  0
  3  4  1  0  0  0  0
  4 16  1  0  0  0  0
  4  5  1  0  0  0  0
  4 26  1  0  0  0  0
  5  6  1  0  0  0  0
  5 27  1  0  0  0  0
  5 28  1  0  0  0  0
  6  7  1  0  0  0  0
  6 16  1  0  0  0  0
  6 29  1  0  0  0  0
  7  8  1  0  0  0  0
  7 30  1  0  0  0  0
  8  9  2  0  0  0  0
  8 10  1  0  0  0  0
 10 11  1  0  0  0  0
 10 31  1  0  0  0  0
 10 32  1  0  0  0  0
 11 15  1  0  0  0  0
 11 12  1  0  0  0  0
 12 13  2  0  0  0  0
 12 33  1  0  0  0  0
 13 14  1  0  0  0  0
 14 15  2  0  0  0  0
 16 20  1  0  0  0  0
 16 17  1  0  0  0  0
 17 18  1  0  0  0  0
 17 34  1  0  0  0  0
 17 35  1  0  0  0  0
 18 19  1  0  0  0  0
 18 36  1  0  0  0  0
 18 37  1  0  0  0  0
 19 20  1  0  0  0  0
 19 38  1  0  0  0  0
 19 39  1  0  0  0  0
 20 40  1  0  0  0  0
 20 41  1  0  0  0  0
M  END
> <s_m_source_file>
AV-unprocessed.smi

> <i_m_source_file_index>
679

> <i_lp_mmshare_version>
43012

> <i_f3d_flags>
0

> <s_epik_input>
W0NIMl0xW0NIMl1bQ0gyXVtDSDJdQzEyW0NASF0oT1tDSDJdW0NIM10pW0NIMl1bQ0BIXTJbTkhdQyg9TylbQ0gyXW4zW2NIXW5ubjM=

> <s_epik_cmdline>
J2VwaWtfcHl0aG9uJywgJy1waCcsICc3LjAnLCAnLXRuJywgJzgnLCAnLW1hJywgJzIwMCcsICctbWV0YWxfYmluZGluZycsICctaW1hZScsICc8aW5maWxlLm1hZT4nLCAnLW9tYWUnLCAnPG91dGZpbGUubWFlPic=

> <r_lp_tautomer_probability>
1

> <r_epik_Ionization_Penalty>
7.96741e-07

> <r_epik_Ionization_Penalty_Charging>
0

> <r_epik_Ionization_Penalty_Neutral>
7.96741e-07

> <r_epik_State_Penalty>
-0

> <r_epik_Charging_Adjusted_Penalty>
0

> <i_epik_Tot_Q>
0

> <i_epik_Tot_abs_Q>
0

> <r_epik_Metal_State_Penalty>
-0

> <b_epik_Metal_Only>
0

> <s_lp_Force_Field>
OPLS_2005

> <r_lp_Energy>
39.7046

> <b_lp_Chiralities_Consistent>
1

> <s_lp_Variant>
AV-unprocessed.smi:679-4

> <Gold.Version>
5.8.1

> <Gold.Id.Protein>
6NUR|6NUR_protein|mol2

> <Gold.PLP.Fitness>
42.2954

> <Gold.PLP.PLP>
-36.9184

> <Gold.PLP.part.hbond>
-3.1886

> <Gold.PLP.part.metal>
0.0000

> <Gold.PLP.part.buried>
-6.5952

> <Gold.PLP.part.nonpolar>
-27.6687

> <Gold.PLP.part.repulsive>
0.3065

> <Gold.PLP.ligand.clash>
0.0000

> <Gold.PLP.ligand.torsion>
0.4880

> <Gold.PLP.Chemscore.Hbond>
2.0000

> <Gold.PLP.Chemscore.CHOScore>
0.0000

> <Gold.PLP.Chemscore.Metal>
0.0000

> <Gold.Chemscore.Hbonds>
donor molecule, donor type, donor heavy atom, donor atom, acceptor molecule, acceptor atom, score
      P1  H  6896  6909       L1    14  1.00
      P1  H  7989  7998       L1     9  0.60

> <Gold.PLP.Chemscore.Internal.Correction>
0.3530

> <Gold.Rescore>
     Score         DG    S(hbond)    S(metal)    S(lipo)     H(rot)  DE(clash)    DE(int)     intcor
     14.55     -15.08       1.57        0.00      90.00       2.41       0.06       0.46       ----

> <Gold.Chemscore.Fitness>
14.5541

> <Gold.Chemscore.DG>
-15.0760

> <Gold.Chemscore.ZeroCoef>
-5.4800

> <Gold.Chemscore.Hbond>
1.5667

> <Gold.Chemscore.Metal>
0.0000

> <Gold.Chemscore.Lipo>
90.0020

> <Gold.Chemscore.Internal_Hbond>
0.0000

> <Gold.Chemscore.DEClash>
0.0588

> <Gold.Chemscore.DEInternal>
0.4631

> <Gold.Chemscore.Rot>
2.4089

> <Gold.Chemscore.Internal.Correction>
   9.000000E+99

> <Gold.Chemscore.Hbonds>
donor molecule, donor type, donor heavy atom, donor atom, acceptor molecule, acceptor atom, score
      P1  H  6896  6909       L1    14  0.23
      P1  H  7989  7998       L1     9  0.60

> <Gold.Chemscore.Hbond.Weighted>
-5.2326

> <Gold.Chemscore.Metal.Weighted>
-0.0000

> <Gold.Chemscore.Lipo.Weighted>
-10.5302

> <Gold.Chemscore.Internal_Hbond.Weighted>
0.0000

> <Gold.Chemscore.DEClash.Weighted>
0.0588

> <Gold.Chemscore.DEInternal.Weighted>
0.4631

> <Gold.Chemscore.Rot.Weighted>
6.1668

> <Gold.Chemscore.Internal.Correction.Weighted>
   9.000000E+99

> <Gold.Protein.RotatedTorsions>
[ 6907 6896 6895 6894 ] final   61.69 input  -60.11 | X-H torsion
[ 7974 7965 7964 7962 ] final   47.82 input  175.53 | X-H torsion
[ 8008 7997 7996 7995 ] final   91.81 input   59.86 | X-H torsion
[ 10167 10162 10161 10158 ] final -103.16 input  -65.29 | X-H torsion
[ 10718 10713 10712 10709 ] final  151.16 input   66.30 | X-H torsion
[ 10763 10752 10751 10750 ] final   73.78 input  -60.55 | X-H torsion
[ 11005 11000 10999 10996 ] final   29.31 input  -57.11 | X-H torsion

> <Gold.Protein.ActiveResidues>
 VAL166  LYS551  ARG553  GLY616  TRP617  ASP618  TYR619  PRO620  LYS621  CYS622 
 ASP623  PHE694  ASN695  SER759  ASP760  ASP761  ALA762  ILE779  LEU786  VAL792 
 PHE793  MET794  SER795  GLU796  ALA797  LYS798  CYS799  TRP800  GLU811  SER814 

> <Gold.Protein.RotatedAtoms>
  152.4110  134.6124  160.0028 H   0  0  0  0  0  0  0  0  0  0  0  0  # atno 6907 bound_to 6896
  151.6301  133.3327  159.3115 H   0  0  0  0  0  0  0  0  0  0  0  0  # atno 6908 bound_to 6896
  150.8001  134.7129  159.6659 H   0  0  0  0  0  0  0  0  0  0  0  0  # atno 6909 bound_to 6896
  146.0262  139.4709  142.9866 H   0  0  0  0  0  0  0  0  0  0  0  0  # atno 7974 bound_to 7965
  156.0281  140.3333  155.7110 H   0  0  0  0  0  0  0  0  0  0  0  0  # atno 8008 bound_to 7997
  155.5925  140.0647  157.2772 H   0  0  0  0  0  0  0  0  0  0  0  0  # atno 8009 bound_to 7997
  154.4342  140.1824  156.1077 H   0  0  0  0  0  0  0  0  0  0  0  0  # atno 8010 bound_to 7997
  140.2229  143.3662  152.0953 H   0  0  0  0  0  0  0  0  0  0  0  0  # atno 10167 bound_to 10162
  157.2743  131.0823  151.1577 H   0  0  0  0  0  0  0  0  0  0  0  0  # atno 10718 bound_to 10713
  153.0544  135.5050  154.7945 H   0  0  0  0  0  0  0  0  0  0  0  0  # atno 10763 bound_to 10752
  154.6782  135.2964  154.9651 H   0  0  0  0  0  0  0  0  0  0  0  0  # atno 10764 bound_to 10752
  154.0446  135.6712  153.4846 H   0  0  0  0  0  0  0  0  0  0  0  0  # atno 10765 bound_to 10752
  140.3063  134.2699  155.7743 H   0  0  0  0  0  0  0  0  0  0  0  0  # atno 11005 bound_to 11000
  145.7114  141.0105  143.1451 LP  0  0  0  0  0  0  0  0  0  0  0  0  # atno 17320 bound_to 7965
  144.7010  139.8762  143.7444 LP  0  0  0  0  0  0  0  0  0  0  0  0  # atno 17321 bound_to 7965
  139.5137  144.6937  151.5689 LP  0  0  0  0  0  0  0  0  0  0  0  0  # atno 17342 bound_to 10162
  140.6241  143.9201  150.6550 LP  0  0  0  0  0  0  0  0  0  0  0  0  # atno 17343 bound_to 10162
  157.3037  130.6855  149.6178 LP  0  0  0  0  0  0  0  0  0  0  0  0  # atno 17370 bound_to 10713
  155.9663  130.4384  150.5217 LP  0  0  0  0  0  0  0  0  0  0  0  0  # atno 17371 bound_to 10713
  141.2117  133.7679  156.9842 LP  0  0  0  0  0  0  0  0  0  0  0  0  # atno 17394 bound_to 11000
  140.1064  134.9504  157.2000 LP  0  0  0  0  0  0  0  0  0  0  0  0  # atno 17395 bound_to 11000

$$$$
