AV-unprocessed.smi:167|AV-procd|sdf|1394|dock5
  -GOLD-   2262019133D 1   1.00000     0.00000
 Structure written by MMmdl.
 51 55  0  0  0  0  0  0  0  0  1 V2000
  151.9552  137.1443  155.1176 O   0  0  0  0  0  0  0  0  0  0  0  0
  151.5649  138.4377  154.7084 C   0  0  0  0  0  0  0  0  0  0  0  0
  150.0512  138.4726  154.4285 C   0  0  2  0  0  0  0  0  0  0  0  0
  149.4930  139.8603  154.0625 C   0  0  0  0  0  0  0  0  0  0  0  0
  148.2813  139.9649  155.0145 C   0  0  2  0  0  0  0  0  0  0  0  0
  148.7920  140.2835  156.4289 C   0  0  0  0  0  0  0  0  0  0  0  0
  149.3609  138.9216  156.8522 C   0  0  0  0  0  0  0  0  0  0  0  0
  149.1039  138.0753  155.5898 C   0  0  1  0  0  0  0  0  0  0  0  0
  147.8139  138.5911  155.1544 N   0  0  0  0  0  0  0  0  0  0  0  0
  147.1239  137.9899  154.1451 C   0  0  0  0  0  0  0  0  0  0  0  0
  146.8535  138.7075  153.0220 N   0  0  0  0  0  0  0  0  0  0  0  0
  146.1837  138.1561  152.0068 C   0  0  0  0  0  0  0  0  0  0  0  0
  145.6882  136.9223  151.9077 N   0  0  0  0  0  0  0  0  0  0  0  0
  145.9348  136.2001  153.0373 C   0  0  0  0  0  0  0  0  0  0  0  0
  146.6386  136.6494  154.1922 C   0  0  0  0  0  0  0  0  0  0  0  0
  146.6852  135.6264  155.1326 N   0  0  0  0  0  0  0  0  0  0  0  0
  146.0659  134.6301  154.5620 C   0  0  0  0  0  0  0  0  0  0  0  0
  145.5603  134.8965  153.3104 N   0  0  0  0  0  0  0  0  0  0  0  0
  144.8669  133.9888  152.4438 C   0  0  0  0  0  0  0  0  0  0  0  0
  145.4079  132.5782  152.1944 C   0  0  0  0  0  0  0  0  0  0  0  0
  144.8256  132.6217  150.7620 C   0  0  0  0  0  0  0  0  0  0  0  0
  145.6790  132.0123  149.6319 C   0  0  0  0  0  0  0  0  0  0  0  0
  146.9869  132.5465  149.5890 O   0  0  0  0  0  0  0  0  0  0  0  0
  143.4006  132.0562  150.6095 C   0  0  0  0  0  0  0  0  0  0  0  0
  142.9542  132.1282  149.2706 O   0  0  0  0  0  0  0  0  0  0  0  0
  144.8817  134.1589  150.9205 C   0  0  0  0  0  0  0  0  0  0  0  0
  151.6206  136.9906  155.9880 H   0  0  0  0  0  0  0  0  0  0  0  0
  151.8606  139.1670  155.4615 H   0  0  0  0  0  0  0  0  0  0  0  0
  152.1141  138.6902  153.8011 H   0  0  0  0  0  0  0  0  0  0  0  0
  149.8590  137.7993  153.5911 H   0  0  0  0  0  0  0  0  0  0  0  0
  150.2094  140.6687  154.2140 H   0  0  0  0  0  0  0  0  0  0  0  0
  149.1805  139.8835  153.0178 H   0  0  0  0  0  0  0  0  0  0  0  0
  147.5270  140.6774  154.6785 H   0  0  0  0  0  0  0  0  0  0  0  0
  149.5379  141.0789  156.4404 H   0  0  0  0  0  0  0  0  0  0  0  0
  147.9714  140.5766  157.0850 H   0  0  0  0  0  0  0  0  0  0  0  0
  150.4055  138.9630  157.1563 H   0  0  0  0  0  0  0  0  0  0  0  0
  148.7932  138.5248  157.6949 H   0  0  0  0  0  0  0  0  0  0  0  0
  149.1289  137.0108  155.8140 H   0  0  0  0  0  0  0  0  0  0  0  0
  146.0193  138.7960  151.1523 H   0  0  0  0  0  0  0  0  0  0  0  0
  145.9563  133.6716  155.0481 H   0  0  0  0  0  0  0  0  0  0  0  0
  143.8422  133.9454  152.8163 H   0  0  0  0  0  0  0  0  0  0  0  0
  146.4983  132.5453  152.2231 H   0  0  0  0  0  0  0  0  0  0  0  0
  144.9828  131.8144  152.8461 H   0  0  0  0  0  0  0  0  0  0  0  0
  145.7712  130.9323  149.7483 H   0  0  0  0  0  0  0  0  0  0  0  0
  145.2160  132.1851  148.6598 H   0  0  0  0  0  0  0  0  0  0  0  0
  147.6040  131.8378  149.6901 H   0  0  0  0  0  0  0  0  0  0  0  0
  143.3508  131.0127  150.9211 H   0  0  0  0  0  0  0  0  0  0  0  0
  142.6952  132.5961  151.2420 H   0  0  0  0  0  0  0  0  0  0  0  0
  142.2932  132.8013  149.2109 H   0  0  0  0  0  0  0  0  0  0  0  0
  144.0189  134.6927  150.5208 H   0  0  0  0  0  0  0  0  0  0  0  0
  145.8110  134.6033  150.5607 H   0  0  0  0  0  0  0  0  0  0  0  0
  1  2  1  0  0  0  0
  1 27  1  0  0  0  0
  2  3  1  0  0  0  0
  2 28  1  0  0  0  0
  2 29  1  0  0  0  0
  3  8  1  0  0  0  0
  3  4  1  0  0  0  0
  3 30  1  0  0  0  0
  4  5  1  0  0  0  0
  4 31  1  0  0  0  0
  4 32  1  0  0  0  0
  5  9  1  0  0  0  0
  5  6  1  0  0  0  0
  5 33  1  0  0  0  0
  6  7  1  0  0  0  0
  6 34  1  0  0  0  0
  6 35  1  0  0  0  0
  7  8  1  0  0  0  0
  7 36  1  0  0  0  0
  7 37  1  0  0  0  0
  8  9  1  0  0  0  0
  8 38  1  0  0  0  0
  9 10  1  0  0  0  0
 10 15  1  0  0  0  0
 10 11  2  0  0  0  0
 11 12  1  0  0  0  0
 12 13  2  0  0  0  0
 12 39  1  0  0  0  0
 13 14  1  0  0  0  0
 14 18  1  0  0  0  0
 14 15  2  0  0  0  0
 15 16  1  0  0  0  0
 16 17  2  0  0  0  0
 17 18  1  0  0  0  0
 17 40  1  0  0  0  0
 18 19  1  0  0  0  0
 19 26  1  0  0  0  0
 19 20  1  0  0  0  0
 19 41  1  0  0  0  0
 20 21  1  0  0  0  0
 20 42  1  0  0  0  0
 20 43  1  0  0  0  0
 21 22  1  0  0  0  0
 21 24  1  0  0  0  0
 21 26  1  0  0  0  0
 22 23  1  0  0  0  0
 22 44  1  0  0  0  0
 22 45  1  0  0  0  0
 23 46  1  0  0  0  0
 24 25  1  0  0  0  0
 24 47  1  0  0  0  0
 24 48  1  0  0  0  0
 25 49  1  0  0  0  0
 26 50  1  0  0  0  0
 26 51  1  0  0  0  0
M  END
> <s_m_source_file>
AV-unprocessed.smi

> <i_m_source_file_index>
167

> <i_lp_mmshare_version>
43012

> <i_f3d_flags>
0

> <s_epik_input>
W09IXVtDSDJdW0NASF0oW0NIMl1bQ0BASF0xMilbQ0BIXShbQ0gyXVtDSDJdMSlOMmMobltjSF1uMyljKGMzNCluW2NIXW40W0NIXShbQ0gyXTUpW0NIMl1DNShbQ0gyXVtPSF0pW0NIMl1bT0hd

> <s_epik_cmdline>
J2VwaWtfcHl0aG9uJywgJy1waCcsICc3LjAnLCAnLXRuJywgJzgnLCAnLW1hJywgJzIwMCcsICctbWV0YWxfYmluZGluZycsICctaW1hZScsICc8aW5maWxlLm1hZT4nLCAnLW9tYWUnLCAnPG91dGZpbGUubWFlPic=

> <r_lp_tautomer_probability>
1

> <r_epik_Ionization_Penalty>
0.0047903

> <r_epik_Ionization_Penalty_Charging>
0

> <r_epik_Ionization_Penalty_Neutral>
0.0047903

> <r_epik_State_Penalty>
0.00341021

> <r_epik_Charging_Adjusted_Penalty>
0.00341021

> <i_epik_Tot_Q>
0

> <i_epik_Tot_abs_Q>
0

> <r_epik_Metal_State_Penalty>
-0

> <b_epik_Metal_Only>
0

> <s_lp_Force_Field>
OPLS_2005

> <r_lp_Energy>
89.3367

> <b_lp_Chiralities_Consistent>
1

> <s_lp_Variant>
AV-unprocessed.smi:167-3

> <Gold.Version>
5.8.1

> <Gold.Id.Protein>
6NUR|6NUR_protein|mol2

> <Gold.PLP.Fitness>
47.3378

> <Gold.PLP.PLP>
-34.5791

> <Gold.PLP.part.hbond>
-6.7613

> <Gold.PLP.part.metal>
0.0000

> <Gold.PLP.part.buried>
-2.9039

> <Gold.PLP.part.nonpolar>
-27.3685

> <Gold.PLP.part.repulsive>
0.6093

> <Gold.PLP.ligand.clash>
0.0000

> <Gold.PLP.ligand.torsion>
0.7051

> <Gold.PLP.Chemscore.Hbond>
3.7473

> <Gold.PLP.Chemscore.CHOScore>
0.8131

> <Gold.PLP.Chemscore.Metal>
0.0000

> <Gold.Chemscore.Hbonds>
donor molecule, donor type, donor heavy atom, donor atom, acceptor molecule, acceptor atom, score
      L1  H    23    46       P1 10747  1.00
      L1  H    25    49       P1 10186  0.86
      P1  H 10752 10765       L1     1  0.96
      P1  H 10785 10796       L1    25  0.86
      L1  C    12    39       P1 10171  0.82

> <Gold.PLP.Chemscore.Internal.Correction>
0.4879

> <Gold.Rescore>
     Score         DG    S(hbond)    S(metal)    S(lipo)     H(rot)  DE(clash)    DE(int)     intcor
     13.01     -14.90       3.46        0.00      73.77       4.20       0.26       1.63       ----

> <Gold.Chemscore.Fitness>
13.0063

> <Gold.Chemscore.DG>
-14.9000

> <Gold.Chemscore.ZeroCoef>
-5.4800

> <Gold.Chemscore.Hbond>
3.4583

> <Gold.Chemscore.Metal>
0.0000

> <Gold.Chemscore.Lipo>
73.7702

> <Gold.Chemscore.Internal_Hbond>
0.0000

> <Gold.Chemscore.DEClash>
0.2608

> <Gold.Chemscore.DEInternal>
1.6329

> <Gold.Chemscore.Rot>
4.2038

> <Gold.Chemscore.Internal.Correction>
   9.000000E+99

> <Gold.Chemscore.Hbonds>
donor molecule, donor type, donor heavy atom, donor atom, acceptor molecule, acceptor atom, score
      L1  H    23    46       P1 10747  1.00
      L1  H    25    49       P1 10186  0.84
      P1  H 10752 10765       L1     1  0.56
      P1  H 10785 10796       L1    25  0.19

> <Gold.Chemscore.Hbond.Weighted>
-11.5506

> <Gold.Chemscore.Metal.Weighted>
-0.0000

> <Gold.Chemscore.Lipo.Weighted>
-8.6311

> <Gold.Chemscore.Internal_Hbond.Weighted>
0.0000

> <Gold.Chemscore.DEClash.Weighted>
0.2608

> <Gold.Chemscore.DEInternal.Weighted>
1.6329

> <Gold.Chemscore.Rot.Weighted>
10.7617

> <Gold.Chemscore.Internal.Correction.Weighted>
   9.000000E+99

> <Gold.Protein.RotatedTorsions>
[ 6907 6896 6895 6894 ] final   96.62 input  -60.11 | X-H torsion
[ 7974 7965 7964 7962 ] final  -17.35 input  175.53 | X-H torsion
[ 8008 7997 7996 7995 ] final   66.32 input   59.86 | X-H torsion
[ 10167 10162 10161 10158 ] final -116.78 input  -65.29 | X-H torsion
[ 10718 10713 10712 10709 ] final   62.98 input   66.30 | X-H torsion
[ 10763 10752 10751 10750 ] final -177.33 input  -60.55 | X-H torsion
[ 11005 11000 10999 10996 ] final  157.04 input  -57.11 | X-H torsion

> <Gold.Protein.ActiveResidues>
 VAL166  LYS551  ARG553  GLY616  TRP617  ASP618  TYR619  PRO620  LYS621  CYS622 
 ASP623  PHE694  ASN695  SER759  ASP760  ASP761  ALA762  ILE779  LEU786  VAL792 
 PHE793  MET794  SER795  GLU796  ALA797  LYS798  CYS799  TRP800  GLU811  SER814 

> <Gold.Protein.RotatedAtoms>
  152.5433  134.0858  159.8255 H   0  0  0  0  0  0  0  0  0  0  0  0  # atno 6907 bound_to 6896
  151.0954  133.5276  159.2620 H   0  0  0  0  0  0  0  0  0  0  0  0  # atno 6908 bound_to 6896
  151.2051  135.0467  159.8942 H   0  0  0  0  0  0  0  0  0  0  0  0  # atno 6909 bound_to 6896
  146.1945  140.3767  142.8446 H   0  0  0  0  0  0  0  0  0  0  0  0  # atno 7974 bound_to 7965
  155.6756  140.3497  155.4835 H   0  0  0  0  0  0  0  0  0  0  0  0  # atno 8008 bound_to 7997
  155.9651  140.1145  157.0884 H   0  0  0  0  0  0  0  0  0  0  0  0  # atno 8009 bound_to 7997
  154.4152  140.1168  156.5217 H   0  0  0  0  0  0  0  0  0  0  0  0  # atno 8010 bound_to 7997
  140.0755  143.4837  152.1956 H   0  0  0  0  0  0  0  0  0  0  0  0  # atno 10167 bound_to 10162
  157.5939  130.9080  149.9657 H   0  0  0  0  0  0  0  0  0  0  0  0  # atno 10718 bound_to 10713
  154.5614  135.2820  155.0915 H   0  0  0  0  0  0  0  0  0  0  0  0  # atno 10763 bound_to 10752
  154.2323  135.6372  153.5183 H   0  0  0  0  0  0  0  0  0  0  0  0  # atno 10764 bound_to 10752
  153.0030  135.5540  154.6209 H   0  0  0  0  0  0  0  0  0  0  0  0  # atno 10765 bound_to 10752
  140.1732  134.8528  157.2715 H   0  0  0  0  0  0  0  0  0  0  0  0  # atno 11005 bound_to 11000
  144.8552  140.7060  143.6142 LP  0  0  0  0  0  0  0  0  0  0  0  0  # atno 17320 bound_to 7965
  145.3688  139.1663  143.4343 LP  0  0  0  0  0  0  0  0  0  0  0  0  # atno 17321 bound_to 7965
  139.5810  144.7510  151.3639 LP  0  0  0  0  0  0  0  0  0  0  0  0  # atno 17342 bound_to 10162
  140.7104  143.7405  150.7557 LP  0  0  0  0  0  0  0  0  0  0  0  0  # atno 17343 bound_to 10162
  156.0998  130.3656  150.0239 LP  0  0  0  0  0  0  0  0  0  0  0  0  # atno 17370 bound_to 10713
  156.8356  130.9408  151.3635 LP  0  0  0  0  0  0  0  0  0  0  0  0  # atno 17371 bound_to 10713
  140.2353  134.3860  155.7504 LP  0  0  0  0  0  0  0  0  0  0  0  0  # atno 17394 bound_to 11000
  141.2219  133.7236  156.8704 LP  0  0  0  0  0  0  0  0  0  0  0  0  # atno 17395 bound_to 11000

$$$$
