AV-unprocessed.smi:193|AV-procd|sdf|1505|dock3
  -GOLD-   2262019333D 1   1.00000     0.00000
 Structure written by MMmdl.
 62 66  0  0  0  0  0  0  0  0  2 V2000
  148.0355  141.1313  154.7000 C   0  0  0  0  0  0  0  0  0  0  0  0
  149.3147  140.5942  155.3606 C   0  0  1  0  0  0  0  0  0  0  0  0
  149.9077  139.4739  154.4753 C   0  0  0  0  0  0  0  0  0  0  0  0
  150.9728  138.7075  155.1208 N   0  0  0  0  0  0  0  0  0  0  0  0
  150.6442  137.5627  155.7785 C   0  0  0  0  0  0  0  0  0  0  0  0
  151.5698  136.5745  155.9054 N   0  0  0  0  0  0  0  0  0  0  0  0
  151.2613  135.4316  156.5242 C   0  0  0  0  0  0  0  0  0  0  0  0
  150.1039  135.0715  157.0801 N   0  0  0  0  0  0  0  0  0  0  0  0
  149.1714  136.0594  156.9651 C   0  0  0  0  0  0  0  0  0  0  0  0
  149.3567  137.3258  156.3407 C   0  0  0  0  0  0  0  0  0  0  0  0
  148.1890  138.0738  156.4407 N   0  0  0  0  0  0  0  0  0  0  0  0
  147.3594  137.2913  157.0745 C   0  0  0  0  0  0  0  0  0  0  0  0
  147.8626  136.0564  157.4148 N   0  0  0  0  0  0  0  0  0  0  0  0
  147.1593  134.9914  158.1133 C   0  0  0  0  0  0  0  0  0  0  0  0
  146.8661  135.3009  159.6029 C   0  0  0  0  0  0  0  0  0  0  0  0
  146.3275  134.1301  160.1924 O   0  0  0  0  0  0  0  0  0  0  0  0
  148.1712  135.6623  160.3407 C   0  0  0  0  0  0  0  0  0  0  0  0
  147.9115  136.1445  161.7789 C   0  0  0  0  0  0  0  0  0  0  0  0
  147.0046  137.2402  161.7675 O   0  0  0  0  0  0  0  0  0  0  0  0
  145.7258  136.8893  161.2530 C   0  0  0  0  0  0  0  0  0  0  0  0
  145.8477  136.4479  159.7836 C   0  0  0  0  0  0  0  0  0  0  0  0
  152.1321  139.4399  155.6264 C   0  0  0  0  0  0  0  0  0  0  0  0
  151.8020  140.1965  156.9262 C   0  0  0  0  0  0  0  0  0  0  0  0
  151.2624  141.5669  156.7206 N   0  3  2  0  0  0  0  0  0  0  0  0
  150.7151  142.1255  157.9810 C   0  0  2  0  0  0  0  0  0  0  0  0
  151.2423  143.5010  158.3253 C   0  0  0  0  0  0  0  0  0  0  0  0
  151.7155  142.2990  159.1116 C   0  0  2  0  0  0  0  0  0  0  0  0
  153.1689  141.8688  159.0331 C   0  0  0  0  0  0  0  0  0  0  0  0
  150.3288  141.7442  155.5717 C   0  0  0  0  0  0  0  0  0  0  0  0
  148.2461  141.5693  153.7236 H   0  0  0  0  0  0  0  0  0  0  0  0
  147.5642  141.8982  155.3154 H   0  0  0  0  0  0  0  0  0  0  0  0
  147.3033  140.3360  154.5568 H   0  0  0  0  0  0  0  0  0  0  0  0
  149.0157  140.1872  156.3274 H   0  0  0  0  0  0  0  0  0  0  0  0
  149.1180  138.7931  154.1537 H   0  0  0  0  0  0  0  0  0  0  0  0
  150.3058  139.9016  153.5545 H   0  0  0  0  0  0  0  0  0  0  0  0
  152.0539  134.7000  156.5799 H   0  0  0  0  0  0  0  0  0  0  0  0
  146.3478  137.5921  157.3058 H   0  0  0  0  0  0  0  0  0  0  0  0
  146.2310  134.7855  157.5787 H   0  0  0  0  0  0  0  0  0  0  0  0
  147.7614  134.0855  158.0328 H   0  0  0  0  0  0  0  0  0  0  0  0
  146.4559  133.4072  159.5976 H   0  0  0  0  0  0  0  0  0  0  0  0
  148.8554  134.8129  160.3481 H   0  0  0  0  0  0  0  0  0  0  0  0
  148.6822  136.4596  159.7992 H   0  0  0  0  0  0  0  0  0  0  0  0
  147.5193  135.3384  162.4009 H   0  0  0  0  0  0  0  0  0  0  0  0
  148.8464  136.4686  162.2365 H   0  0  0  0  0  0  0  0  0  0  0  0
  145.2785  136.1039  161.8638 H   0  0  0  0  0  0  0  0  0  0  0  0
  145.0695  137.7564  161.3267 H   0  0  0  0  0  0  0  0  0  0  0  0
  146.1644  137.3057  159.1890 H   0  0  0  0  0  0  0  0  0  0  0  0
  144.8651  136.1598  159.4082 H   0  0  0  0  0  0  0  0  0  0  0  0
  152.9503  138.7496  155.8222 H   0  0  0  0  0  0  0  0  0  0  0  0
  152.5090  140.1197  154.8618 H   0  0  0  0  0  0  0  0  0  0  0  0
  151.1242  139.6111  157.5496 H   0  0  0  0  0  0  0  0  0  0  0  0
  152.7186  140.2952  157.5065 H   0  0  0  0  0  0  0  0  0  0  0  0
  149.6763  141.8792  158.1946 H   0  0  0  0  0  0  0  0  0  0  0  0
  151.9502  143.9680  157.6429 H   0  0  0  0  0  0  0  0  0  0  0  0
  150.5652  144.1875  158.8295 H   0  0  0  0  0  0  0  0  0  0  0  0
  151.2993  142.1985  160.1122 H   0  0  0  0  0  0  0  0  0  0  0  0
  153.5803  142.0303  158.0366 H   0  0  0  0  0  0  0  0  0  0  0  0
  153.2625  140.8128  159.2861 H   0  0  0  0  0  0  0  0  0  0  0  0
  153.7633  142.4443  159.7432 H   0  0  0  0  0  0  0  0  0  0  0  0
  150.9194  141.8836  154.6656 H   0  0  0  0  0  0  0  0  0  0  0  0
  149.7994  142.6889  155.7007 H   0  0  0  0  0  0  0  0  0  0  0  0
  152.0594  142.1451  156.4962 H   0  0  0  0  0  0  0  0  0  0  0  0
  1  2  1  0  0  0  0
  1 30  1  0  0  0  0
  1 31  1  0  0  0  0
  1 32  1  0  0  0  0
  2 29  1  0  0  0  0
  2  3  1  0  0  0  0
  2 33  1  0  0  0  0
  3  4  1  0  0  0  0
  3 34  1  0  0  0  0
  3 35  1  0  0  0  0
  4  5  1  0  0  0  0
  4 22  1  0  0  0  0
  5 10  1  0  0  0  0
  5  6  2  0  0  0  0
  6  7  1  0  0  0  0
  7  8  2  0  0  0  0
  7 36  1  0  0  0  0
  8  9  1  0  0  0  0
  9 13  1  0  0  0  0
  9 10  2  0  0  0  0
 10 11  1  0  0  0  0
 11 12  2  0  0  0  0
 12 13  1  0  0  0  0
 12 37  1  0  0  0  0
 13 14  1  0  0  0  0
 14 15  1  0  0  0  0
 14 38  1  0  0  0  0
 14 39  1  0  0  0  0
 15 21  1  0  0  0  0
 15 16  1  0  0  0  0
 15 17  1  0  0  0  0
 16 40  1  0  0  0  0
 17 18  1  0  0  0  0
 17 41  1  0  0  0  0
 17 42  1  0  0  0  0
 18 19  1  0  0  0  0
 18 43  1  0  0  0  0
 18 44  1  0  0  0  0
 19 20  1  0  0  0  0
 20 21  1  0  0  0  0
 20 45  1  0  0  0  0
 20 46  1  0  0  0  0
 21 47  1  0  0  0  0
 21 48  1  0  0  0  0
 22 23  1  0  0  0  0
 22 49  1  0  0  0  0
 22 50  1  0  0  0  0
 23 24  1  0  0  0  0
 23 51  1  0  0  0  0
 23 52  1  0  0  0  0
 24 25  1  0  0  0  0
 24 29  1  0  0  0  0
 24 62  1  0  0  0  0
 25 27  1  0  0  0  0
 25 26  1  0  0  0  0
 25 53  1  0  0  0  0
 26 27  1  0  0  0  0
 26 54  1  0  0  0  0
 26 55  1  0  0  0  0
 27 28  1  0  0  0  0
 27 56  1  0  0  0  0
 28 57  1  0  0  0  0
 28 58  1  0  0  0  0
 28 59  1  0  0  0  0
 29 60  1  0  0  0  0
 29 61  1  0  0  0  0
M  CHG  1  24   1
M  END
> <s_m_source_file>
AV-unprocessed.smi

> <i_m_source_file_index>
193

> <i_lp_mmshare_version>
43012

> <i_f3d_flags>
0

> <s_epik_input>
W0NIM11bQ0BASF0xW0NIMl1bQ0BIXTFOKFtDSDJdMilbQ0gyXVtDSDJdTihbQ0gyXVtDQEhdMltDSDNdKWMobltjSF1uMyljKGMzNCluW2NIXW40W0NIMl1DNShbT0hdKVtDSDJdW0NIMl1PW0NIMl1bQ0gyXTU=

> <s_epik_cmdline>
J2VwaWtfcHl0aG9uJywgJy1waCcsICc3LjAnLCAnLXRuJywgJzgnLCAnLW1hJywgJzIwMCcsICctbWV0YWxfYmluZGluZycsICctaW1hZScsICc8aW5maWxlLm1hZT4nLCAnLW9tYWUnLCAnPG91dGZpbGUubWFlPic=

> <r_lp_tautomer_probability>
1

> <r_epik_Ionization_Penalty>
0.0540825

> <r_epik_Ionization_Penalty_Charging>
0.0538476

> <r_epik_Ionization_Penalty_Neutral>
0.000234891

> <r_epik_State_Penalty>
0.0200719

> <r_epik_Charging_Adjusted_Penalty>
0.0739194

> <i_epik_Tot_Q>
1

> <i_epik_Tot_abs_Q>
1

> <r_epik_Metal_State_Penalty>
0.0199414

> <b_epik_Metal_Only>
0

> <s_lp_Force_Field>
OPLS_2005

> <r_lp_Energy>
56.796

> <b_lp_Chiralities_Consistent>
1

> <s_lp_Variant>
AV-unprocessed.smi:193-10

> <Gold.Version>
5.8.1

> <Gold.Id.Protein>
6NUR|6NUR_protein|mol2

> <Gold.PLP.Fitness>
41.4611

> <Gold.PLP.PLP>
-36.9885

> <Gold.PLP.part.hbond>
-3.6533

> <Gold.PLP.part.metal>
0.0000

> <Gold.PLP.part.buried>
-4.3709

> <Gold.PLP.part.nonpolar>
-29.5767

> <Gold.PLP.part.repulsive>
0.1041

> <Gold.PLP.ligand.clash>
0.0000

> <Gold.PLP.ligand.torsion>
1.4745

> <Gold.PLP.Chemscore.Hbond>
1.9782

> <Gold.PLP.Chemscore.CHOScore>
0.0000

> <Gold.PLP.Chemscore.Metal>
0.0000

> <Gold.Chemscore.Hbonds>
donor molecule, donor type, donor heavy atom, donor atom, acceptor molecule, acceptor atom, score
      P1  H  6934  6947       L1    19  0.87
      P1  H 10752 10764       L1     6  0.36

> <Gold.PLP.Chemscore.Internal.Correction>
1.4869

> <Gold.Rescore>
     Score         DG    S(hbond)    S(metal)    S(lipo)     H(rot)  DE(clash)    DE(int)     intcor
     13.19     -16.77       1.24        0.00     103.26       1.93       0.00       3.58       ----

> <Gold.Chemscore.Fitness>
13.1878

> <Gold.Chemscore.DG>
-16.7688

> <Gold.Chemscore.ZeroCoef>
-5.4800

> <Gold.Chemscore.Hbond>
1.2412

> <Gold.Chemscore.Metal>
0.0000

> <Gold.Chemscore.Lipo>
103.2613

> <Gold.Chemscore.Internal_Hbond>
0.0000

> <Gold.Chemscore.DEClash>
0.0000

> <Gold.Chemscore.DEInternal>
3.5811

> <Gold.Chemscore.Rot>
1.9290

> <Gold.Chemscore.Internal.Correction>
   9.000000E+99

> <Gold.Chemscore.Hbonds>
donor molecule, donor type, donor heavy atom, donor atom, acceptor molecule, acceptor atom, score
      P1  H  6934  6947       L1    19  0.19
      P1  H 10752 10764       L1     6  0.01

> <Gold.Chemscore.Hbond.Weighted>
-4.1456

> <Gold.Chemscore.Metal.Weighted>
-0.0000

> <Gold.Chemscore.Lipo.Weighted>
-12.0816

> <Gold.Chemscore.Internal_Hbond.Weighted>
0.0000

> <Gold.Chemscore.DEClash.Weighted>
0.0000

> <Gold.Chemscore.DEInternal.Weighted>
3.5811

> <Gold.Chemscore.Rot.Weighted>
4.9383

> <Gold.Chemscore.Internal.Correction.Weighted>
   9.000000E+99

> <Gold.Protein.RotatedTorsions>
[ 6907 6896 6895 6894 ] final  149.19 input  -60.11 | X-H torsion
[ 7974 7965 7964 7962 ] final    1.32 input  175.53 | X-H torsion
[ 8008 7997 7996 7995 ] final    7.78 input   59.86 | X-H torsion
[ 10167 10162 10161 10158 ] final  -56.60 input  -65.29 | X-H torsion
[ 10718 10713 10712 10709 ] final    2.54 input   66.30 | X-H torsion
[ 10763 10752 10751 10750 ] final  -42.87 input  -60.55 | X-H torsion
[ 11005 11000 10999 10996 ] final  138.09 input  -57.11 | X-H torsion

> <Gold.Protein.ActiveResidues>
 VAL166  LYS551  ARG553  GLY616  TRP617  ASP618  TYR619  PRO620  LYS621  CYS622 
 ASP623  PHE694  ASN695  SER759  ASP760  ASP761  ALA762  ILE779  LEU786  VAL792 
 PHE793  MET794  SER795  GLU796  ALA797  LYS798  CYS799  TRP800  GLU811  SER814 

> <Gold.Protein.RotatedAtoms>
  152.1314  133.4410  159.4722 H   0  0  0  0  0  0  0  0  0  0  0  0  # atno 6907 bound_to 6896
  150.6878  134.2416  159.4484 H   0  0  0  0  0  0  0  0  0  0  0  0  # atno 6908 bound_to 6896
  152.0300  134.9773  160.0623 H   0  0  0  0  0  0  0  0  0  0  0  0  # atno 6909 bound_to 6896
  146.2439  140.1005  142.8348 H   0  0  0  0  0  0  0  0  0  0  0  0  # atno 7974 bound_to 7965
  154.7583  140.2780  155.6235 H   0  0  0  0  0  0  0  0  0  0  0  0  # atno 8008 bound_to 7997
  156.2910  140.2665  156.2281 H   0  0  0  0  0  0  0  0  0  0  0  0  # atno 8009 bound_to 7997
  155.0050  140.0372  157.2365 H   0  0  0  0  0  0  0  0  0  0  0  0  # atno 8010 bound_to 7997
  140.6307  143.2458  151.5247 H   0  0  0  0  0  0  0  0  0  0  0  0  # atno 10167 bound_to 10162
  156.8646  130.5598  149.5661 H   0  0  0  0  0  0  0  0  0  0  0  0  # atno 10718 bound_to 10713
  153.9861  135.6711  153.4752 H   0  0  0  0  0  0  0  0  0  0  0  0  # atno 10763 bound_to 10752
  153.0726  135.4966  154.8333 H   0  0  0  0  0  0  0  0  0  0  0  0  # atno 10764 bound_to 10752
  154.7136  135.3102  154.9121 H   0  0  0  0  0  0  0  0  0  0  0  0  # atno 10765 bound_to 10752
  140.0159  134.9418  157.0375 H   0  0  0  0  0  0  0  0  0  0  0  0  # atno 11005 bound_to 11000
  145.0572  140.9061  143.4960 LP  0  0  0  0  0  0  0  0  0  0  0  0  # atno 17320 bound_to 7965
  145.1114  139.2755  143.5635 LP  0  0  0  0  0  0  0  0  0  0  0  0  # atno 17321 bound_to 7965
  139.5522  144.2366  152.1550 LP  0  0  0  0  0  0  0  0  0  0  0  0  # atno 17342 bound_to 10162
  140.1610  144.5026  150.6633 LP  0  0  0  0  0  0  0  0  0  0  0  0  # atno 17343 bound_to 10162
  156.0758  130.5781  150.9471 LP  0  0  0  0  0  0  0  0  0  0  0  0  # atno 17370 bound_to 10713
  157.6231  131.0928  150.8586 LP  0  0  0  0  0  0  0  0  0  0  0  0  # atno 17371 bound_to 10713
  140.4471  134.1620  155.7178 LP  0  0  0  0  0  0  0  0  0  0  0  0  # atno 17394 bound_to 11000
  141.1742  133.8547  157.1473 LP  0  0  0  0  0  0  0  0  0  0  0  0  # atno 17395 bound_to 11000

$$$$
