#       Name:                AV-unprocessed.smi:2547
#       Creating user name   scv26
#       Creation time:       Fri Mar 27 14:05:02 2020


#       File generated by GOLD software.
#

@<TRIPOS>MOLECULE
AV-unprocessed.smi:2547
    47    48     1
SMALL
NO_CHARGES


@<TRIPOS>ATOM
      1 ****        -6.3327   1.5463  -0.1411 C.3            1 S1                 0.0000
      2 ****        -5.0762   0.7680  -0.1847 N.4            1 S1                 1.0000
      3 ****        -4.0443   1.3093   0.7343 C.3            1 S1                 0.0000
      4 ****        -2.7997   0.4065   0.7609 C.3            1 S1                 0.0000
      5 ****        -2.2240   0.2113  -0.6546 C.3            1 S1                 0.0000
      6 ****        -1.1009  -0.7217  -0.6375 N.am           1 S1                 0.0000
      7 ****         0.1569  -0.4059  -0.2950 C.2            1 S1                 0.0000
      8 ****         0.4989   0.7245   0.0543 O.2            1 S1                 0.0000
      9 ****         0.9685  -1.4750  -0.3799 N.am           1 S1                 0.0000
     10 ****         2.3638  -1.5378  -0.1212 C.ar           1 S1                 0.0000
     11 ****         2.9445  -2.8154  -0.2623 C.ar           1 S1                 0.0000
     12 ****         4.3224  -2.9722  -0.0290 C.ar           1 S1                 0.0000
     13 ****         5.0844  -1.8488   0.3384 C.ar           1 S1                 0.0000
     14 ****         4.4397  -0.5945   0.4615 C.ar           1 S1                 0.0000
     15 ****         5.1522   0.5711   0.8241 N.pl3          1 S1                 0.0000
     16 ****         4.4553   1.8511   0.9049 C.3            1 S1                 0.0000
     17 ****         6.5578   0.4840   1.2003 C.3            1 S1                 0.0000
     18 ****         3.1103  -0.4637   0.2326 N.ar           1 S1                 0.0000
     19 ****        -3.3253  -0.3123  -1.5914 C.3            1 S1                 0.0000
     20 ****        -4.5592   0.6058  -1.5665 C.3            1 S1                 0.0000
     21 ****        -6.1740   2.5669  -0.4924 H              1 S1                 0.0000
     22 ****        -6.7233   1.5913   0.8761 H              1 S1                 0.0000
     23 ****        -7.0945   1.0825  -0.7685 H              1 S1                 0.0000
     24 ****        -3.7694   2.3186   0.4234 H              1 S1                 0.0000
     25 ****        -4.4567   1.3888   1.7408 H              1 S1                 0.0000
     26 ****        -2.0474   0.8426   1.4193 H              1 S1                 0.0000
     27 ****        -3.0628  -0.5609   1.1915 H              1 S1                 0.0000
     28 ****        -1.8806   1.1751  -1.0361 H              1 S1                 0.0000
     29 ****        -1.2934  -1.6737  -0.9134 H              1 S1                 0.0000
     30 ****         0.5418  -2.3431  -0.6671 H              1 S1                 0.0000
     31 ****         2.3459  -3.6689  -0.5459 H              1 S1                 0.0000
     32 ****         4.7886  -3.9409  -0.1319 H              1 S1                 0.0000
     33 ****         6.1428  -1.9703   0.5137 H              1 S1                 0.0000
     34 ****         3.9563   2.0789  -0.0378 H              1 S1                 0.0000
     35 ****         5.1460   2.6670   1.1184 H              1 S1                 0.0000
     36 ****         3.7059   1.8287   1.6968 H              1 S1                 0.0000
     37 ****         7.1609   0.1512   0.3550 H              1 S1                 0.0000
     38 ****         6.6920  -0.2169   2.0251 H              1 S1                 0.0000
     39 ****         6.9418   1.4517   1.5228 H              1 S1                 0.0000
     40 ****        -2.9446  -0.3889  -2.6107 H              1 S1                 0.0000
     41 ****        -3.6188  -1.3204  -1.2942 H              1 S1                 0.0000
     42 ****        -5.3391   0.1838  -2.2017 H              1 S1                 0.0000
     43 ****        -4.3077   1.5840  -1.9799 H              1 S1                 0.0000
     44 ****        -5.3018  -0.1582   0.1497 H              1 S1                 0.0000
     45 ****        -0.1759   1.4615   0.0928 LP             1 S1                 0.0000
     46 ****         1.4514   0.9054   0.2993 LP             1 S1                 0.0000
     47 ****         2.6768   0.4327   0.3255 LP             1 S1                 0.0000
@<TRIPOS>BOND
    1    1    2 1     
    2    1   21 1     
    3    1   22 1     
    4    1   23 1     
    5    2   20 1     
    6    2    3 1     
    7    2   44 1     
    8    3    4 1     
    9    3   24 1     
   10    3   25 1     
   11    4    5 1     
   12    4   26 1     
   13    4   27 1     
   14    5    6 1     
   15    5   19 1     
   16    5   28 1     
   17    6    7 am    
   18    6   29 1     
   19    7    8 2     
   20    7    9 am    
   21    9   10 1     
   22    9   30 1     
   23   10   18 ar    
   24   10   11 ar    
   25   11   12 ar    
   26   11   31 1     
   27   12   13 ar    
   28   12   32 1     
   29   13   14 ar    
   30   13   33 1     
   31   14   15 1     
   32   14   18 ar    
   33   15   16 1     
   34   15   17 1     
   35   16   34 1     
   36   16   35 1     
   37   16   36 1     
   38   17   37 1     
   39   17   38 1     
   40   17   39 1     
   41   19   20 1     
   42   19   40 1     
   43   19   41 1     
   44   20   42 1     
   45   20   43 1     
   46    8   45 1     
   47    8   46 1     
   48   18   47 1     
@<TRIPOS>SUBSTRUCTURE
      1 S1             1
@<TRIPOS>SET
LONE_PAIRS      STATIC     ATOMS    <user>   **** ""
3 45 46 47
DONOR_HYDROGENS      STATIC     ATOMS    <user>   **** ""
3 44 29 30
ATOM$BLUE        STATIC     ATOMS    COLORGROUP SYSTEM
3 45 46 47
ATOM$RED        STATIC     ATOMS    COLORGROUP SYSTEM
3 44 29 30
