AV-unprocessed.smi:1712|AV-procd|sdf|6903|dock5
  -GOLD-   22720 8103D 1   1.00000     0.00000
 Structure written by MMmdl.
 38 39  0  0  0  0  0  0  0  0  2 V2000
  146.5863  139.5488  151.5275 C   0  0  0  0  0  0  0  0  0  0  0  0
  146.7290  139.2920  153.0483 C   0  0  2  0  0  0  0  0  0  0  0  0
  146.0411  137.9559  153.4490 C   0  0  0  0  0  0  0  0  0  0  0  0
  146.3800  136.8381  152.5703 N   0  0  0  0  0  0  0  0  0  0  0  0
  145.5438  135.8531  152.2097 C   0  0  0  0  0  0  0  0  0  0  0  0
  144.3651  135.7993  152.5608 O   0  0  0  0  0  0  0  0  0  0  0  0
  146.1570  134.9540  151.4226 N   0  0  0  0  0  0  0  0  0  0  0  0
  145.5881  133.7953  150.8355 C   0  0  0  0  0  0  0  0  0  0  0  0
  144.1987  133.6031  150.6058 C   0  0  0  0  0  0  0  0  0  0  0  0
  143.9592  132.4257  150.0463 N   0  0  0  0  0  0  0  0  0  0  0  0
  145.1825  131.8646  149.9164 N   0  0  0  0  0  0  0  0  0  0  0  0
  146.2039  132.6618  150.3835 C   0  0  0  0  0  0  0  0  0  0  0  0
  146.2204  140.4541  153.8544 N   0  3  0  0  0  0  0  0  0  0  0  0
  146.2596  140.2335  155.3286 C   0  0  0  0  0  0  0  0  0  0  0  0
  145.7364  141.4550  156.1029 C   0  0  0  0  0  0  0  0  0  0  0  0
  146.4860  142.6051  155.7487 O   0  0  0  0  0  0  0  0  0  0  0  0
  146.3382  142.9053  154.3708 C   0  0  0  0  0  0  0  0  0  0  0  0
  146.8888  141.7454  153.5246 C   0  0  0  0  0  0  0  0  0  0  0  0
  145.3028  130.9468  149.5118 H   0  0  0  0  0  0  0  0  0  0  0  0
  146.9287  138.7013  150.9360 H   0  0  0  0  0  0  0  0  0  0  0  0
  147.1913  140.3860  151.1841 H   0  0  0  0  0  0  0  0  0  0  0  0
  145.5487  139.7422  151.2539 H   0  0  0  0  0  0  0  0  0  0  0  0
  147.7936  139.1878  153.2650 H   0  0  0  0  0  0  0  0  0  0  0  0
  146.3697  137.6319  154.4351 H   0  0  0  0  0  0  0  0  0  0  0  0
  144.9600  138.0922  153.5135 H   0  0  0  0  0  0  0  0  0  0  0  0
  147.3294  136.8011  152.2283 H   0  0  0  0  0  0  0  0  0  0  0  0
  147.1318  135.1159  151.2168 H   0  0  0  0  0  0  0  0  0  0  0  0
  143.3724  134.2640  150.8227 H   0  0  0  0  0  0  0  0  0  0  0  0
  147.2384  132.3540  150.3504 H   0  0  0  0  0  0  0  0  0  0  0  0
  145.6352  139.3892  155.6150 H   0  0  0  0  0  0  0  0  0  0  0  0
  147.2811  140.0058  155.6377 H   0  0  0  0  0  0  0  0  0  0  0  0
  144.6756  141.6182  155.9053 H   0  0  0  0  0  0  0  0  0  0  0  0
  145.8359  141.2880  157.1757 H   0  0  0  0  0  0  0  0  0  0  0  0
  145.2905  143.0989  154.1345 H   0  0  0  0  0  0  0  0  0  0  0  0
  146.8866  143.8216  154.1510 H   0  0  0  0  0  0  0  0  0  0  0  0
  147.9647  141.6498  153.6790 H   0  0  0  0  0  0  0  0  0  0  0  0
  146.7333  142.0129  152.4814 H   0  0  0  0  0  0  0  0  0  0  0  0
  145.2463  140.5670  153.6113 H   0  0  0  0  0  0  0  0  0  0  0  0
  1  2  1  0  0  0  0
  1 20  1  0  0  0  0
  1 21  1  0  0  0  0
  1 22  1  0  0  0  0
  2  3  1  0  0  0  0
  2 13  1  0  0  0  0
  2 23  1  0  0  0  0
  3  4  1  0  0  0  0
  3 24  1  0  0  0  0
  3 25  1  0  0  0  0
  4  5  1  0  0  0  0
  4 26  1  0  0  0  0
  5  6  2  0  0  0  0
  5  7  1  0  0  0  0
  7  8  1  0  0  0  0
  7 27  1  0  0  0  0
  8 12  2  0  0  0  0
  8  9  1  0  0  0  0
  9 10  2  0  0  0  0
  9 28  1  0  0  0  0
 10 11  1  0  0  0  0
 11 19  1  0  0  0  0
 11 12  1  0  0  0  0
 12 29  1  0  0  0  0
 13 18  1  0  0  0  0
 13 14  1  0  0  0  0
 13 38  1  0  0  0  0
 14 15  1  0  0  0  0
 14 30  1  0  0  0  0
 14 31  1  0  0  0  0
 15 16  1  0  0  0  0
 15 32  1  0  0  0  0
 15 33  1  0  0  0  0
 16 17  1  0  0  0  0
 17 18  1  0  0  0  0
 17 34  1  0  0  0  0
 17 35  1  0  0  0  0
 18 36  1  0  0  0  0
 18 37  1  0  0  0  0
M  CHG  1  13   1
M  END
> <s_m_source_file>
AV-unprocessed.smi

> <i_m_source_file_index>
1712

> <i_lp_mmshare_version>
43012

> <i_f3d_flags>
0

> <s_epik_input>
W0NIMl0xW0NIMl1PW0NIMl1bQ0gyXU4xW0NASF0oW0NIM10pW0NIMl1bTkhdQyg9TylbTkhdYzJbY0hdbltuSF1bY0hdMg==

> <s_epik_cmdline>
J2VwaWtfcHl0aG9uJywgJy1waCcsICc3LjAnLCAnLXRuJywgJzgnLCAnLW1hJywgJzIwMCcsICctbWV0YWxfYmluZGluZycsICctaW1hZScsICc8aW5maWxlLm1hZT4nLCAnLW9tYWUnLCAnPG91dGZpbGUubWFlPic=

> <r_lp_tautomer_probability>
0.5

> <r_epik_Ionization_Penalty>
0.646007

> <r_epik_Ionization_Penalty_Charging>
0.645968

> <r_epik_Ionization_Penalty_Neutral>
3.91929e-05

> <r_epik_State_Penalty>
0.664063

> <r_epik_Charging_Adjusted_Penalty>
1.31003

> <i_epik_Tot_Q>
1

> <i_epik_Tot_abs_Q>
1

> <r_epik_Metal_State_Penalty>
0.664064

> <b_epik_Metal_Only>
0

> <s_lp_Force_Field>
OPLS_2005

> <r_lp_Energy>
23.9653

> <b_lp_Chiralities_Consistent>
1

> <s_lp_Variant>
AV-unprocessed.smi:1712-3

> <Gold.Version>
5.8.1

> <Gold.Id.Protein>
6NUR|6NUR_protein|mol2

> <Gold.PLP.Fitness>
42.7211

> <Gold.PLP.PLP>
-26.4503

> <Gold.PLP.part.hbond>
-2.8995

> <Gold.PLP.part.metal>
0.0000

> <Gold.PLP.part.buried>
-3.4470

> <Gold.PLP.part.nonpolar>
-21.8633

> <Gold.PLP.part.repulsive>
0.7931

> <Gold.PLP.ligand.clash>
0.0000

> <Gold.PLP.ligand.torsion>
0.3547

> <Gold.PLP.Chemscore.Hbond>
3.7093

> <Gold.PLP.Chemscore.CHOScore>
1.9342

> <Gold.PLP.Chemscore.Metal>
0.0000

> <Gold.Chemscore.Hbonds>
donor molecule, donor type, donor heavy atom, donor atom, acceptor molecule, acceptor atom, score
      L1  H     4    26       P1  7948  1.00
      L1  H     7    27       P1  7948  0.58
      L1  H    13    38       P1 10175  2.00
      L1  C     9    28       P1 10186  0.60
      L1  C    12    29       P1 10747  1.00

> <Gold.PLP.Chemscore.Internal.Correction>
0.0497

> <Gold.Rescore>
     Score         DG    S(hbond)    S(metal)    S(lipo)     H(rot)  DE(clash)    DE(int)     intcor
     15.49     -17.46       2.83        0.00      58.18       1.68       0.48       1.49       ----

> <Gold.Chemscore.Fitness>
15.4919

> <Gold.Chemscore.DG>
-17.4610

> <Gold.Chemscore.ZeroCoef>
-5.4800

> <Gold.Chemscore.Hbond>
2.8345

> <Gold.Chemscore.Metal>
0.0000

> <Gold.Chemscore.Lipo>
58.1829

> <Gold.Chemscore.Internal_Hbond>
0.0000

> <Gold.Chemscore.DEClash>
0.4771

> <Gold.Chemscore.DEInternal>
1.4919

> <Gold.Chemscore.Rot>
1.6771

> <Gold.Chemscore.Internal.Correction>
   9.000000E+99

> <Gold.Chemscore.Hbonds>
donor molecule, donor type, donor heavy atom, donor atom, acceptor molecule, acceptor atom, score
      L1  H     4    26       P1  7948  1.00
      L1  H     7    27       P1  7948  0.41
      L1  H    13    38       P1 10175  0.96

> <Gold.Chemscore.Hbond.Weighted>
-9.4671

> <Gold.Chemscore.Metal.Weighted>
-0.0000

> <Gold.Chemscore.Lipo.Weighted>
-6.8074

> <Gold.Chemscore.Internal_Hbond.Weighted>
0.0000

> <Gold.Chemscore.DEClash.Weighted>
0.4771

> <Gold.Chemscore.DEInternal.Weighted>
1.4919

> <Gold.Chemscore.Rot.Weighted>
4.2935

> <Gold.Chemscore.Internal.Correction.Weighted>
   9.000000E+99

> <Gold.Protein.RotatedTorsions>
[ 6907 6896 6895 6894 ] final -105.68 input  -60.11 | X-H torsion
[ 7974 7965 7964 7962 ] final  145.51 input  175.53 | X-H torsion
[ 8008 7997 7996 7995 ] final  116.29 input   59.86 | X-H torsion
[ 10167 10162 10161 10158 ] final -125.73 input  -65.29 | X-H torsion
[ 10718 10713 10712 10709 ] final -143.14 input   66.30 | X-H torsion
[ 10763 10752 10751 10750 ] final   44.98 input  -60.55 | X-H torsion
[ 11005 11000 10999 10996 ] final  -35.57 input  -57.11 | X-H torsion

> <Gold.Protein.ActiveResidues>
 VAL166  LYS551  ARG553  GLY616  TRP617  ASP618  TYR619  PRO620  LYS621  CYS622 
 ASP623  PHE694  ASN695  SER759  ASP760  ASP761  ALA762  ILE779  LEU786  VAL792 
 PHE793  MET794  SER795  GLU796  ALA797  LYS798  CYS799  TRP800  GLU811  SER814 

> <Gold.Protein.RotatedAtoms>
  150.7349  134.0089  159.3662 H   0  0  0  0  0  0  0  0  0  0  0  0  # atno 6907 bound_to 6896
  151.8048  135.0696  160.0414 H   0  0  0  0  0  0  0  0  0  0  0  0  # atno 6908 bound_to 6896
  152.3115  133.5721  159.5720 H   0  0  0  0  0  0  0  0  0  0  0  0  # atno 6909 bound_to 6896
  144.8746  139.5792  143.5871 H   0  0  0  0  0  0  0  0  0  0  0  0  # atno 7974 bound_to 7965
  156.2430  140.2920  156.0500 H   0  0  0  0  0  0  0  0  0  0  0  0  # atno 8008 bound_to 7997
  155.1892  140.0406  157.2914 H   0  0  0  0  0  0  0  0  0  0  0  0  # atno 8009 bound_to 7997
  154.6206  140.2475  155.7561 H   0  0  0  0  0  0  0  0  0  0  0  0  # atno 8010 bound_to 7997
  139.9790  143.5763  152.2385 H   0  0  0  0  0  0  0  0  0  0  0  0  # atno 10167 bound_to 10162
  156.3543  130.7705  151.1862 H   0  0  0  0  0  0  0  0  0  0  0  0  # atno 10718 bound_to 10713
  152.9832  135.6053  154.3363 H   0  0  0  0  0  0  0  0  0  0  0  0  # atno 10763 bound_to 10752
  154.3063  135.2772  155.2589 H   0  0  0  0  0  0  0  0  0  0  0  0  # atno 10764 bound_to 10752
  154.4819  135.5915  153.6451 H   0  0  0  0  0  0  0  0  0  0  0  0  # atno 10765 bound_to 10752
  140.9807  133.7058  156.1679 H   0  0  0  0  0  0  0  0  0  0  0  0  # atno 11005 bound_to 11000
  146.2954  139.7262  142.9130 LP  0  0  0  0  0  0  0  0  0  0  0  0  # atno 17320 bound_to 7965
  145.4066  141.0391  143.3040 LP  0  0  0  0  0  0  0  0  0  0  0  0  # atno 17321 bound_to 7965
  139.6424  144.7655  151.2312 LP  0  0  0  0  0  0  0  0  0  0  0  0  # atno 17342 bound_to 10162
  140.7496  143.6295  150.8437 LP  0  0  0  0  0  0  0  0  0  0  0  0  # atno 17343 bound_to 10162
  157.7465  131.0418  150.4665 LP  0  0  0  0  0  0  0  0  0  0  0  0  # atno 17370 bound_to 10713
  156.4866  130.4085  149.6431 LP  0  0  0  0  0  0  0  0  0  0  0  0  # atno 17371 bound_to 10713
  140.7191  134.4378  157.5576 LP  0  0  0  0  0  0  0  0  0  0  0  0  # atno 17394 bound_to 11000
  139.8949  134.8696  156.2156 LP  0  0  0  0  0  0  0  0  0  0  0  0  # atno 17395 bound_to 11000

$$$$
