AV-unprocessed.smi:1717|AV-procd|sdf|6919|dock6
  -GOLD-   22720 8123D 1   1.00000     0.00000
 Structure written by MMmdl.
 41 42  0  0  0  0  0  0  0  0  2 V2000
  142.3322  137.6787  153.9327 C   0  0  0  0  0  0  0  0  0  0  0  0
  142.9071  138.9420  154.3695 N   0  0  0  0  0  0  0  0  0  0  0  0
  143.4115  139.1566  155.5925 C   0  0  0  0  0  0  0  0  0  0  0  0
  143.4301  138.2980  156.4753 O   0  0  0  0  0  0  0  0  0  0  0  0
  143.9627  140.5602  155.8629 C   0  0  0  0  0  0  0  0  0  0  0  0
  144.9718  140.9890  154.8603 N   0  3  2  0  0  0  0  0  0  0  0  0
  146.1935  140.1451  154.8884 C   0  0  0  0  0  0  0  0  0  0  0  0
  147.1561  140.5179  153.7457 C   0  0  0  0  0  0  0  0  0  0  0  0
  147.5237  142.0118  153.7621 C   0  0  2  0  0  0  0  0  0  0  0  0
  148.4118  142.3073  154.8864 N   0  0  0  0  0  0  0  0  0  0  0  0
  149.4143  141.5234  155.3088 C   0  0  0  0  0  0  0  0  0  0  0  0
  149.7122  140.4551  154.7756 O   0  0  0  0  0  0  0  0  0  0  0  0
  150.0379  142.0582  156.3709 N   0  0  0  0  0  0  0  0  0  0  0  0
  151.1384  141.5164  157.0811 C   0  0  0  0  0  0  0  0  0  0  0  0
  151.9021  140.3440  156.8054 C   0  0  0  0  0  0  0  0  0  0  0  0
  152.8562  140.1700  157.7090 N   0  0  0  0  0  0  0  0  0  0  0  0
  152.7092  141.2139  158.5555 N   0  0  0  0  0  0  0  0  0  0  0  0
  151.6756  142.0567  158.2112 C   0  0  0  0  0  0  0  0  0  0  0  0
  146.2378  142.8616  153.8040 C   0  0  0  0  0  0  0  0  0  0  0  0
  145.3039  142.4360  154.9499 C   0  0  0  0  0  0  0  0  0  0  0  0
  153.3151  141.3352  159.3547 H   0  0  0  0  0  0  0  0  0  0  0  0
  142.0054  137.7572  152.8958 H   0  0  0  0  0  0  0  0  0  0  0  0
  141.4683  137.4131  154.5433 H   0  0  0  0  0  0  0  0  0  0  0  0
  143.0657  136.8738  153.9982 H   0  0  0  0  0  0  0  0  0  0  0  0
  142.9200  139.6980  153.6998 H   0  0  0  0  0  0  0  0  0  0  0  0
  143.1524  141.2895  155.9143 H   0  0  0  0  0  0  0  0  0  0  0  0
  144.4188  140.5286  156.8532 H   0  0  0  0  0  0  0  0  0  0  0  0
  146.6887  140.2516  155.8548 H   0  0  0  0  0  0  0  0  0  0  0  0
  145.9168  139.0947  154.7900 H   0  0  0  0  0  0  0  0  0  0  0  0
  148.0571  139.9052  153.7981 H   0  0  0  0  0  0  0  0  0  0  0  0
  146.6832  140.2783  152.7922 H   0  0  0  0  0  0  0  0  0  0  0  0
  148.0647  142.2369  152.8410 H   0  0  0  0  0  0  0  0  0  0  0  0
  148.2379  143.1630  155.3927 H   0  0  0  0  0  0  0  0  0  0  0  0
  149.6917  142.9448  156.7067 H   0  0  0  0  0  0  0  0  0  0  0  0
  151.8064  139.6258  156.0046 H   0  0  0  0  0  0  0  0  0  0  0  0
  151.4234  142.9375  158.7833 H   0  0  0  0  0  0  0  0  0  0  0  0
  146.4777  143.9219  153.8908 H   0  0  0  0  0  0  0  0  0  0  0  0
  145.7076  142.7524  152.8568 H   0  0  0  0  0  0  0  0  0  0  0  0
  144.3933  143.0340  154.9054 H   0  0  0  0  0  0  0  0  0  0  0  0
  145.7689  142.6467  155.9143 H   0  0  0  0  0  0  0  0  0  0  0  0
  144.5454  140.8409  153.9561 H   0  0  0  0  0  0  0  0  0  0  0  0
  1  2  1  0  0  0  0
  1 22  1  0  0  0  0
  1 23  1  0  0  0  0
  1 24  1  0  0  0  0
  2  3  1  0  0  0  0
  2 25  1  0  0  0  0
  3  4  2  0  0  0  0
  3  5  1  0  0  0  0
  5  6  1  0  0  0  0
  5 26  1  0  0  0  0
  5 27  1  0  0  0  0
  6 20  1  0  0  0  0
  6  7  1  0  0  0  0
  6 41  1  0  0  0  0
  7  8  1  0  0  0  0
  7 28  1  0  0  0  0
  7 29  1  0  0  0  0
  8  9  1  0  0  0  0
  8 30  1  0  0  0  0
  8 31  1  0  0  0  0
  9 10  1  0  0  0  0
  9 19  1  0  0  0  0
  9 32  1  0  0  0  0
 10 11  1  0  0  0  0
 10 33  1  0  0  0  0
 11 12  2  0  0  0  0
 11 13  1  0  0  0  0
 13 14  1  0  0  0  0
 13 34  1  0  0  0  0
 14 18  2  0  0  0  0
 14 15  1  0  0  0  0
 15 16  2  0  0  0  0
 15 35  1  0  0  0  0
 16 17  1  0  0  0  0
 17 21  1  0  0  0  0
 17 18  1  0  0  0  0
 18 36  1  0  0  0  0
 19 20  1  0  0  0  0
 19 37  1  0  0  0  0
 19 38  1  0  0  0  0
 20 39  1  0  0  0  0
 20 40  1  0  0  0  0
M  CHG  1   6   1
M  END
> <s_m_source_file>
AV-unprocessed.smi

> <i_m_source_file_index>
1717

> <i_lp_mmshare_version>
43012

> <i_f3d_flags>
0

> <s_epik_input>
W0NIM11bTkhdQyg9TylbQ0gyXU4xW0NIMl1bQ0gyXVtDSF0oW0NIMl1bQ0gyXTEpW05IXUMoPU8pW05IXWMyW2NIXW5bbkhdW2NIXTI=

> <s_epik_cmdline>
J2VwaWtfcHl0aG9uJywgJy1waCcsICc3LjAnLCAnLXRuJywgJzgnLCAnLW1hJywgJzIwMCcsICctbWV0YWxfYmluZGluZycsICctaW1hZScsICc8aW5maWxlLm1hZT4nLCAnLW9tYWUnLCAnPG91dGZpbGUubWFlPic=

> <r_lp_tautomer_probability>
0.5

> <r_epik_Ionization_Penalty>
0.838906

> <r_epik_Ionization_Penalty_Charging>
0.838844

> <r_epik_Ionization_Penalty_Neutral>
6.24243e-05

> <r_epik_State_Penalty>
0.8734

> <r_epik_Charging_Adjusted_Penalty>
1.71224

> <i_epik_Tot_Q>
1

> <i_epik_Tot_abs_Q>
1

> <r_epik_Metal_State_Penalty>
0.877921

> <b_epik_Metal_Only>
0

> <s_lp_Force_Field>
OPLS_2005

> <r_lp_Energy>
16.7427

> <b_lp_Chiralities_Consistent>
1

> <s_lp_Variant>
AV-unprocessed.smi:1717-3

> <Gold.Version>
5.8.1

> <Gold.Id.Protein>
6NUR|6NUR_protein|mol2

> <Gold.PLP.Fitness>
44.1242

> <Gold.PLP.PLP>
-28.4943

> <Gold.PLP.part.hbond>
-5.2899

> <Gold.PLP.part.metal>
0.0000

> <Gold.PLP.part.buried>
-4.4495

> <Gold.PLP.part.nonpolar>
-18.2684

> <Gold.PLP.part.repulsive>
0.4814

> <Gold.PLP.ligand.clash>
0.0000

> <Gold.PLP.ligand.torsion>
0.3495

> <Gold.PLP.Chemscore.Hbond>
5.4338

> <Gold.PLP.Chemscore.CHOScore>
0.0000

> <Gold.PLP.Chemscore.Metal>
0.0000

> <Gold.Chemscore.Hbonds>
donor molecule, donor type, donor heavy atom, donor atom, acceptor molecule, acceptor atom, score
      L1  H     2    25       P1 10175  1.00
      L1  H     6    41       P1 10175  2.00
      L1  H    10    33       P1  8028  0.85
      L1  H    13    34       P1  8028  0.36
      P1  H  7989  7998       L1    12  0.21
      P1  H  7997  8009       L1    16  0.99

> <Gold.PLP.Chemscore.Internal.Correction>
0.0274

> <Gold.Rescore>
     Score         DG    S(hbond)    S(metal)    S(lipo)     H(rot)  DE(clash)    DE(int)     intcor
     18.02     -21.94       4.42        0.00      54.25       1.81       1.03       2.89       ----

> <Gold.Chemscore.Fitness>
18.0165

> <Gold.Chemscore.DG>
-21.9410

> <Gold.Chemscore.ZeroCoef>
-5.4800

> <Gold.Chemscore.Hbond>
4.4151

> <Gold.Chemscore.Metal>
0.0000

> <Gold.Chemscore.Lipo>
54.2482

> <Gold.Chemscore.Internal_Hbond>
0.0000

> <Gold.Chemscore.DEClash>
1.0313

> <Gold.Chemscore.DEInternal>
2.8931

> <Gold.Chemscore.Rot>
1.8096

> <Gold.Chemscore.Internal.Correction>
   9.000000E+99

> <Gold.Chemscore.Hbonds>
donor molecule, donor type, donor heavy atom, donor atom, acceptor molecule, acceptor atom, score
      L1  H     2    25       P1 10175  0.93
      L1  H     6    41       P1 10175  0.94
      L1  H    10    33       P1  8028  0.80
      L1  H    13    34       P1  8028  0.36
      P1  H  7989  7998       L1    12  0.12
      P1  H  7997  8009       L1    16  0.45

> <Gold.Chemscore.Hbond.Weighted>
-14.7464

> <Gold.Chemscore.Metal.Weighted>
-0.0000

> <Gold.Chemscore.Lipo.Weighted>
-6.3470

> <Gold.Chemscore.Internal_Hbond.Weighted>
0.0000

> <Gold.Chemscore.DEClash.Weighted>
1.0313

> <Gold.Chemscore.DEInternal.Weighted>
2.8931

> <Gold.Chemscore.Rot.Weighted>
4.6325

> <Gold.Chemscore.Internal.Correction.Weighted>
   9.000000E+99

> <Gold.Protein.RotatedTorsions>
[ 6907 6896 6895 6894 ] final -134.63 input  -60.11 | X-H torsion
[ 7974 7965 7964 7962 ] final  121.23 input  175.53 | X-H torsion
[ 8008 7997 7996 7995 ] final  173.64 input   59.86 | X-H torsion
[ 10167 10162 10161 10158 ] final  -42.56 input  -65.29 | X-H torsion
[ 10718 10713 10712 10709 ] final -163.39 input   66.30 | X-H torsion
[ 10763 10752 10751 10750 ] final -169.40 input  -60.55 | X-H torsion
[ 11005 11000 10999 10996 ] final   -4.11 input  -57.11 | X-H torsion

> <Gold.Protein.ActiveResidues>
 VAL166  LYS551  ARG553  GLY616  TRP617  ASP618  TYR619  PRO620  LYS621  CYS622 
 ASP623  PHE694  ASN695  SER759  ASP760  ASP761  ALA762  ILE779  LEU786  VAL792 
 PHE793  MET794  SER795  GLU796  ALA797  LYS798  CYS799  TRP800  GLU811  SER814 

> <Gold.Protein.RotatedAtoms>
  150.9881  133.6177  159.2712 H   0  0  0  0  0  0  0  0  0  0  0  0  # atno 6907 bound_to 6896
  151.3408  135.0862  159.9380 H   0  0  0  0  0  0  0  0  0  0  0  0  # atno 6908 bound_to 6896
  152.5237  133.9493  159.7718 H   0  0  0  0  0  0  0  0  0  0  0  0  # atno 6909 bound_to 6896
  145.1217  139.3384  143.4710 H   0  0  0  0  0  0  0  0  0  0  0  0  # atno 7974 bound_to 7965
  156.1055  140.1455  156.9409 H   0  0  0  0  0  0  0  0  0  0  0  0  # atno 8008 bound_to 7997
  154.4731  140.0903  156.7239 H   0  0  0  0  0  0  0  0  0  0  0  0  # atno 8009 bound_to 7997
  155.4686  140.3441  155.4325 H   0  0  0  0  0  0  0  0  0  0  0  0  # atno 8010 bound_to 7997
  140.6965  143.3031  151.3226 H   0  0  0  0  0  0  0  0  0  0  0  0  # atno 10167 bound_to 10162
  156.6240  130.8902  151.2964 H   0  0  0  0  0  0  0  0  0  0  0  0  # atno 10718 bound_to 10713
  154.6527  135.2913  154.9966 H   0  0  0  0  0  0  0  0  0  0  0  0  # atno 10763 bound_to 10752
  154.1054  135.6570  153.4879 H   0  0  0  0  0  0  0  0  0  0  0  0  # atno 10764 bound_to 10752
  153.0385  135.5252  154.7442 H   0  0  0  0  0  0  0  0  0  0  0  0  # atno 10765 bound_to 10752
  140.6766  133.9190  155.8528 H   0  0  0  0  0  0  0  0  0  0  0  0  # atno 11005 bound_to 11000
  146.3520  140.1180  142.8601 LP  0  0  0  0  0  0  0  0  0  0  0  0  # atno 17320 bound_to 7965
  145.0732  140.9170  143.4869 LP  0  0  0  0  0  0  0  0  0  0  0  0  # atno 17321 bound_to 7965
  139.6427  144.0510  152.2567 LP  0  0  0  0  0  0  0  0  0  0  0  0  # atno 17342 bound_to 10162
  140.0020  144.6286  150.7721 LP  0  0  0  0  0  0  0  0  0  0  0  0  # atno 17343 bound_to 10162
  157.7219  130.9570  150.1474 LP  0  0  0  0  0  0  0  0  0  0  0  0  # atno 17370 bound_to 10713
  156.2288  130.3680  149.8469 LP  0  0  0  0  0  0  0  0  0  0  0  0  # atno 17371 bound_to 10713
  141.0350  134.0702  157.3970 LP  0  0  0  0  0  0  0  0  0  0  0  0  # atno 17394 bound_to 11000
  139.8964  135.0146  156.7052 LP  0  0  0  0  0  0  0  0  0  0  0  0  # atno 17395 bound_to 11000

$$$$
