AV-unprocessed.smi:2893|AV-procd|sdf|11124|dock7
  -GOLD-   2272015593D 1   1.00000     0.00000
 Structure written by MMmdl.
 37 39  0  0  0  0  0  0  0  0  1 V2000
  153.5861  129.8893  155.3573 C   0  0  0  0  0  0  0  0  0  0  0  0
  152.8124  130.8370  156.2838 C   0  0  0  0  0  0  0  0  0  0  0  0
  151.6294  131.3829  155.6292 N   0  0  0  0  0  0  0  0  0  0  0  0
  150.7954  132.2917  156.1640 C   0  0  0  0  0  0  0  0  0  0  0  0
  150.9567  132.7781  157.2842 O   0  0  0  0  0  0  0  0  0  0  0  0
  149.6516  132.7299  155.2886 C   0  0  0  0  0  0  0  0  0  0  0  0
  149.4881  132.1695  154.0030 C   0  0  0  0  0  0  0  0  0  0  0  0
  148.4127  132.6236  153.2204 C   0  0  0  0  0  0  0  0  0  0  0  0
  147.5728  133.6104  153.7706 C   0  0  0  0  0  0  0  0  0  0  0  0
  146.4910  134.0787  153.0119 N   0  0  0  0  0  0  0  0  0  0  0  0
  146.4114  133.8372  151.5743 C   0  0  2  0  0  0  0  0  0  0  0  0
  145.2056  134.5149  150.9188 C   0  0  0  0  0  0  0  0  0  0  0  0
  144.5423  133.3398  150.1863 C   0  0  2  0  0  0  0  0  0  0  0  0
  143.8072  132.4111  151.1610 C   0  0  0  0  0  0  0  0  0  0  0  0
  144.9713  131.7148  151.8629 C   0  0  0  0  0  0  0  0  0  0  0  0
  146.1886  132.3628  151.1815 C   0  0  1  0  0  0  0  0  0  0  0  0
  145.6720  132.5421  149.8735 O   0  0  0  0  0  0  0  0  0  0  0  0
  147.7805  134.1121  155.0125 N   0  0  0  0  0  0  0  0  0  0  0  0
  148.8051  133.6822  155.7563 N   0  0  0  0  0  0  0  0  0  0  0  0
  154.4457  129.4607  155.8727 H   0  0  0  0  0  0  0  0  0  0  0  0
  153.9573  130.4103  154.4741 H   0  0  0  0  0  0  0  0  0  0  0  0
  152.9561  129.0654  155.0209 H   0  0  0  0  0  0  0  0  0  0  0  0
  152.4888  130.2968  157.1737 H   0  0  0  0  0  0  0  0  0  0  0  0
  153.4599  131.6448  156.6286 H   0  0  0  0  0  0  0  0  0  0  0  0
  151.4222  131.0458  154.6998 H   0  0  0  0  0  0  0  0  0  0  0  0
  150.1601  131.4137  153.6227 H   0  0  0  0  0  0  0  0  0  0  0  0
  148.2415  132.2263  152.2307 H   0  0  0  0  0  0  0  0  0  0  0  0
  145.6750  134.4396  153.4846 H   0  0  0  0  0  0  0  0  0  0  0  0
  147.3188  134.2081  151.0956 H   0  0  0  0  0  0  0  0  0  0  0  0
  144.5255  134.9875  151.6291 H   0  0  0  0  0  0  0  0  0  0  0  0
  145.5385  135.2761  150.2127 H   0  0  0  0  0  0  0  0  0  0  0  0
  143.9461  133.6360  149.3228 H   0  0  0  0  0  0  0  0  0  0  0  0
  143.1614  132.9569  151.8496 H   0  0  0  0  0  0  0  0  0  0  0  0
  143.1975  131.6854  150.6214 H   0  0  0  0  0  0  0  0  0  0  0  0
  144.9611  131.8529  152.9441 H   0  0  0  0  0  0  0  0  0  0  0  0
  144.9468  130.6434  151.6615 H   0  0  0  0  0  0  0  0  0  0  0  0
  147.0909  131.7521  151.2201 H   0  0  0  0  0  0  0  0  0  0  0  0
  1  2  1  0  0  0  0
  1 20  1  0  0  0  0
  1 21  1  0  0  0  0
  1 22  1  0  0  0  0
  2  3  1  0  0  0  0
  2 23  1  0  0  0  0
  2 24  1  0  0  0  0
  3  4  1  0  0  0  0
  3 25  1  0  0  0  0
  4  5  2  0  0  0  0
  4  6  1  0  0  0  0
  6 19  1  0  0  0  0
  6  7  2  0  0  0  0
  7  8  1  0  0  0  0
  7 26  1  0  0  0  0
  8  9  2  0  0  0  0
  8 27  1  0  0  0  0
  9 10  1  0  0  0  0
  9 18  1  0  0  0  0
 10 11  1  0  0  0  0
 10 28  1  0  0  0  0
 11 16  1  0  0  0  0
 11 12  1  0  0  0  0
 11 29  1  0  0  0  0
 12 13  1  0  0  0  0
 12 30  1  0  0  0  0
 12 31  1  0  0  0  0
 13 17  1  0  0  0  0
 13 14  1  0  0  0  0
 13 32  1  0  0  0  0
 14 15  1  0  0  0  0
 14 33  1  0  0  0  0
 14 34  1  0  0  0  0
 15 16  1  0  0  0  0
 15 35  1  0  0  0  0
 15 36  1  0  0  0  0
 16 17  1  0  0  0  0
 16 37  1  0  0  0  0
 18 19  2  0  0  0  0
M  END
> <s_m_source_file>
AV-unprocessed.smi

> <i_m_source_file_index>
2893

> <i_lp_mmshare_version>
43012

> <i_f3d_flags>
0

> <s_epik_input>
W0NIM11bQ0gyXVtOSF1DKD1PKWMxW2NIXVtjSF1jKG5uMSlbTkhdW0NASF0oW0NIMl1bQ0BASF0yMylbQ0BASF0oTzMpW0NIMl1bQ0gyXTI=

> <s_epik_cmdline>
J2VwaWtfcHl0aG9uJywgJy1waCcsICc3LjAnLCAnLXRuJywgJzgnLCAnLW1hJywgJzIwMCcsICctbWV0YWxfYmluZGluZycsICctaW1hZScsICc8aW5maWxlLm1hZT4nLCAnLW9tYWUnLCAnPG91dGZpbGUubWFlPic=

> <r_lp_tautomer_probability>
1

> <r_epik_Ionization_Penalty>
0.00432031

> <r_epik_Ionization_Penalty_Charging>
0

> <r_epik_Ionization_Penalty_Neutral>
0.00432031

> <r_epik_State_Penalty>
-0

> <r_epik_Charging_Adjusted_Penalty>
0

> <i_epik_Tot_Q>
0

> <i_epik_Tot_abs_Q>
0

> <r_epik_Metal_State_Penalty>
-0

> <b_epik_Metal_Only>
0

> <s_lp_Force_Field>
OPLS_2005

> <r_lp_Energy>
51.9869

> <b_lp_Chiralities_Consistent>
1

> <s_lp_Variant>
AV-unprocessed.smi:2893-3

> <Gold.Version>
5.8.1

> <Gold.Id.Protein>
6NUR|6NUR_protein|mol2

> <Gold.PLP.Fitness>
34.4903

> <Gold.PLP.PLP>
-31.6816

> <Gold.PLP.part.hbond>
-1.0000

> <Gold.PLP.part.metal>
0.0000

> <Gold.PLP.part.buried>
-4.7352

> <Gold.PLP.part.nonpolar>
-26.1636

> <Gold.PLP.part.repulsive>
0.3342

> <Gold.PLP.ligand.clash>
0.0000

> <Gold.PLP.ligand.torsion>
0.1053

> <Gold.PLP.Chemscore.Hbond>
1.0000

> <Gold.PLP.Chemscore.CHOScore>
0.0000

> <Gold.PLP.Chemscore.Metal>
0.0000

> <Gold.Chemscore.Hbonds>
donor molecule, donor type, donor heavy atom, donor atom, acceptor molecule, acceptor atom, score
      P1  H  6896  6909       L1     5  0.96

> <Gold.PLP.Chemscore.Internal.Correction>
0.0193

> <Gold.Rescore>
     Score         DG    S(hbond)    S(metal)    S(lipo)     H(rot)  DE(clash)    DE(int)     intcor
     14.12     -14.28       0.98        0.00      73.50       1.21       0.05       0.11       ----

> <Gold.Chemscore.Fitness>
14.1217

> <Gold.Chemscore.DG>
-14.2817

> <Gold.Chemscore.ZeroCoef>
-5.4800

> <Gold.Chemscore.Hbond>
0.9850

> <Gold.Chemscore.Metal>
0.0000

> <Gold.Chemscore.Lipo>
73.4997

> <Gold.Chemscore.Internal_Hbond>
0.0000

> <Gold.Chemscore.DEClash>
0.0515

> <Gold.Chemscore.DEInternal>
0.1085

> <Gold.Chemscore.Rot>
1.2061

> <Gold.Chemscore.Internal.Correction>
   9.000000E+99

> <Gold.Chemscore.Hbonds>
donor molecule, donor type, donor heavy atom, donor atom, acceptor molecule, acceptor atom, score
      P1  H  6896  6909       L1     5  0.88

> <Gold.Chemscore.Hbond.Weighted>
-3.2899

> <Gold.Chemscore.Metal.Weighted>
-0.0000

> <Gold.Chemscore.Lipo.Weighted>
-8.5995

> <Gold.Chemscore.Internal_Hbond.Weighted>
0.0000

> <Gold.Chemscore.DEClash.Weighted>
0.0515

> <Gold.Chemscore.DEInternal.Weighted>
0.1085

> <Gold.Chemscore.Rot.Weighted>
3.0876

> <Gold.Chemscore.Internal.Correction.Weighted>
   9.000000E+99

> <Gold.Protein.RotatedTorsions>
[ 6907 6896 6895 6894 ] final  -40.04 input  -60.11 | X-H torsion
[ 7974 7965 7964 7962 ] final  104.00 input  175.53 | X-H torsion
[ 8008 7997 7996 7995 ] final   32.23 input   59.86 | X-H torsion
[ 10167 10162 10161 10158 ] final -142.42 input  -65.29 | X-H torsion
[ 10718 10713 10712 10709 ] final -167.52 input   66.30 | X-H torsion
[ 10763 10752 10751 10750 ] final  -85.78 input  -60.55 | X-H torsion
[ 11005 11000 10999 10996 ] final  100.18 input  -57.11 | X-H torsion

> <Gold.Protein.ActiveResidues>
 VAL166  LYS551  ARG553  GLY616  TRP617  ASP618  TYR619  PRO620  LYS621  CYS622 
 ASP623  PHE694  ASN695  SER759  ASP760  ASP761  ALA762  ILE779  LEU786  VAL792 
 PHE793  MET794  SER795  GLU796  ALA797  LYS798  CYS799  TRP800  GLU811  SER814 

> <Gold.Protein.RotatedAtoms>
  150.9831  134.9182  159.7855 H   0  0  0  0  0  0  0  0  0  0  0  0  # atno 6907 bound_to 6896
  152.5228  134.3383  159.9218 H   0  0  0  0  0  0  0  0  0  0  0  0  # atno 6908 bound_to 6896
  151.3390  133.3929  159.2704 H   0  0  0  0  0  0  0  0  0  0  0  0  # atno 6909 bound_to 6896
  145.3386  139.2468  143.3622 H   0  0  0  0  0  0  0  0  0  0  0  0  # atno 7974 bound_to 7965
  155.1191  140.3246  155.4502 H   0  0  0  0  0  0  0  0  0  0  0  0  # atno 8008 bound_to 7997
  156.2668  140.2030  156.6261 H   0  0  0  0  0  0  0  0  0  0  0  0  # atno 8009 bound_to 7997
  154.6697  140.0538  157.0139 H   0  0  0  0  0  0  0  0  0  0  0  0  # atno 8010 bound_to 7997
  139.8090  143.7729  152.2662 H   0  0  0  0  0  0  0  0  0  0  0  0  # atno 10167 bound_to 10162
  156.6836  130.9131  151.3060 H   0  0  0  0  0  0  0  0  0  0  0  0  # atno 10718 bound_to 10713
  154.6150  135.5473  153.7513 H   0  0  0  0  0  0  0  0  0  0  0  0  # atno 10763 bound_to 10752
  153.0212  135.6398  154.1524 H   0  0  0  0  0  0  0  0  0  0  0  0  # atno 10764 bound_to 10752
  154.1460  135.2905  155.3128 H   0  0  0  0  0  0  0  0  0  0  0  0  # atno 10765 bound_to 10752
  139.8771  134.9129  156.4718 H   0  0  0  0  0  0  0  0  0  0  0  0  # atno 11005 bound_to 11000
  146.3017  140.3978  142.8702 LP  0  0  0  0  0  0  0  0  0  0  0  0  # atno 17320 bound_to 7965
  144.8808  140.7398  143.5988 LP  0  0  0  0  0  0  0  0  0  0  0  0  # atno 17321 bound_to 7965
  139.7872  144.7423  151.0005 LP  0  0  0  0  0  0  0  0  0  0  0  0  # atno 17342 bound_to 10162
  140.7818  143.4480  151.0454 LP  0  0  0  0  0  0  0  0  0  0  0  0  # atno 17343 bound_to 10162
  157.7034  130.9358  150.0856 LP  0  0  0  0  0  0  0  0  0  0  0  0  # atno 17370 bound_to 10713
  156.1849  130.3652  149.8986 LP  0  0  0  0  0  0  0  0  0  0  0  0  # atno 17371 bound_to 10713
  140.8790  133.7931  155.9446 LP  0  0  0  0  0  0  0  0  0  0  0  0  # atno 17394 bound_to 11000
  140.8873  134.2538  157.5113 LP  0  0  0  0  0  0  0  0  0  0  0  0  # atno 17395 bound_to 11000

$$$$
