#       Name:                AV-unprocessed.smi:3274
#       Creating user name   scv26
#       Creation time:       Fri Mar 27 18:44:30 2020


#       File generated by GOLD software.
#

@<TRIPOS>MOLECULE
AV-unprocessed.smi:3274
    45    46     1
SMALL
NO_CHARGES


@<TRIPOS>ATOM
      1 ****         0.8798   2.9000   0.3449 C.3            1 S1                 0.0000
      2 ****        -0.5334   2.3876   0.5701 C.2            1 S1                 0.0000
      3 ****        -1.1956   2.6704   1.7094 C.2            1 S1                 0.0000
      4 ****        -2.6236   2.2489   2.0100 C.3            1 S1                 0.0000
      5 ****        -3.2070   1.2941   0.9552 C.3            1 S1                 0.0000
      6 ****        -2.7290   1.6599  -0.4604 C.3            1 S1                 0.0000
      7 ****        -3.4824   0.8741  -1.5475 C.3            1 S1                 0.0000
      8 ****        -1.1795   1.5789  -0.5631 C.3            1 S1                 0.0000
      9 ****        -0.6483   0.1225  -0.6095 C.3            1 S1                 0.0000
     10 ****         0.7860   0.0512  -0.9597 N.4            1 S1                 1.0000
     11 ****         1.3954  -1.2938  -0.8726 C.3            1 S1                 0.0000
     12 ****         2.6306  -1.3499  -1.7874 C.3            1 S1                 0.0000
     13 ****         1.7243  -1.6480   0.5960 C.3            1 S1                 0.0000
     14 ****         2.3769  -2.9370   0.7359 N.pl3          1 S1                 0.0000
     15 ****         1.8787  -4.1730   0.6743 C.2            1 S1                 0.0000
     16 ****         2.7842  -5.1243   0.8536 N.2            1 S1                 0.0000
     17 ****         3.8952  -4.3507   1.0390 C.2            1 S1                 0.0000
     18 ****         3.7051  -3.0324   0.9781 N.2            1 S1                 0.0000
     19 ****         0.9650   3.3723  -0.6339 H              1 S1                 0.0000
     20 ****         1.6117   2.0969   0.4115 H              1 S1                 0.0000
     21 ****         1.1499   3.6441   1.0951 H              1 S1                 0.0000
     22 ****        -0.7139   3.2624   2.4742 H              1 S1                 0.0000
     23 ****        -2.6673   1.7895   2.9978 H              1 S1                 0.0000
     24 ****        -3.2277   3.1555   2.0577 H              1 S1                 0.0000
     25 ****        -2.9183   0.2690   1.1884 H              1 S1                 0.0000
     26 ****        -4.2960   1.3188   1.0101 H              1 S1                 0.0000
     27 ****        -2.9955   2.7063  -0.6207 H              1 S1                 0.0000
     28 ****        -3.4117  -0.2031  -1.3980 H              1 S1                 0.0000
     29 ****        -3.0982   1.1064  -2.5409 H              1 S1                 0.0000
     30 ****        -4.5428   1.1280  -1.5399 H              1 S1                 0.0000
     31 ****        -0.9067   2.0646  -1.5014 H              1 S1                 0.0000
     32 ****        -0.8206  -0.3605   0.3517 H              1 S1                 0.0000
     33 ****        -1.1804  -0.4641  -1.3569 H              1 S1                 0.0000
     34 ****         0.8772   0.3748  -1.9122 H              1 S1                 0.0000
     35 ****         0.6753  -2.0170  -1.2589 H              1 S1                 0.0000
     36 ****         3.0486  -2.3557  -1.8373 H              1 S1                 0.0000
     37 ****         3.4161  -0.6804  -1.4353 H              1 S1                 0.0000
     38 ****         2.3771  -1.0583  -2.8072 H              1 S1                 0.0000
     39 ****         2.3686  -0.8818   1.0309 H              1 S1                 0.0000
     40 ****         0.8200  -1.6703   1.2040 H              1 S1                 0.0000
     41 ****         0.8345  -4.3814   0.4925 H              1 S1                 0.0000
     42 ****         4.8727  -4.7711   1.2239 H              1 S1                 0.0000
     43 ****         1.3043   0.6776  -0.3603 H              1 S1                 0.0000
     44 ****         2.6835  -6.1192   0.8533 LP             1 S1                 0.0000
     45 ****         4.3757  -2.2983   1.0846 LP             1 S1                 0.0000
@<TRIPOS>BOND
    1    1    2 1     
    2    1   19 1     
    3    1   20 1     
    4    1   21 1     
    5    2    8 1     
    6    2    3 2     
    7    3    4 1     
    8    3   22 1     
    9    4    5 1     
   10    4   23 1     
   11    4   24 1     
   12    5    6 1     
   13    5   25 1     
   14    5   26 1     
   15    6    7 1     
   16    6    8 1     
   17    6   27 1     
   18    7   28 1     
   19    7   29 1     
   20    7   30 1     
   21    8    9 1     
   22    8   31 1     
   23    9   10 1     
   24    9   32 1     
   25    9   33 1     
   26   10   11 1     
   27   10   34 1     
   28   10   43 1     
   29   11   12 1     
   30   11   13 1     
   31   11   35 1     
   32   12   36 1     
   33   12   37 1     
   34   12   38 1     
   35   13   14 1     
   36   13   39 1     
   37   13   40 1     
   38   14   18 1     
   39   14   15 1     
   40   15   16 2     
   41   15   41 1     
   42   16   17 1     
   43   17   18 2     
   44   17   42 1     
   45   16   44 1     
   46   18   45 1     
@<TRIPOS>SUBSTRUCTURE
      1 S1             1
@<TRIPOS>SET
LONE_PAIRS      STATIC     ATOMS    <user>   **** ""
2 44 45
DONOR_HYDROGENS      STATIC     ATOMS    <user>   **** ""
2 34 43
ATOM$BLUE        STATIC     ATOMS    COLORGROUP SYSTEM
2 44 45
ATOM$RED        STATIC     ATOMS    COLORGROUP SYSTEM
2 34 43
