AV-unprocessed.smi:1144|AV-procd|sdf|4879|dock7
  -GOLD-   22720 3453D 1   1.00000     0.00000
 Structure written by MMmdl.
 35 36  0  0  0  0  0  0  0  0  2 V2000
  146.7816  137.5263  153.9793 C   0  0  0  0  0  0  0  0  0  0  0  0
  147.0649  138.9717  154.1060 N   0  3  2  0  0  0  0  0  0  0  0  0
  146.8421  139.7094  152.8418 C   0  0  0  0  0  0  0  0  0  0  0  0
  147.1232  141.2073  153.0425 C   0  0  0  0  0  0  0  0  0  0  0  0
  148.4480  141.3787  153.5310 O   0  0  0  0  0  0  0  0  0  0  0  0
  148.6446  140.7605  154.7996 C   0  0  2  0  0  0  0  0  0  0  0  0
  150.0712  141.0733  155.2712 C   0  0  0  0  0  0  0  0  0  0  0  0
  150.0936  142.1749  156.2216 N   0  0  0  0  0  0  0  0  0  0  0  0
  150.8594  142.1859  157.3716 C   0  0  0  0  0  0  0  0  0  0  0  0
  151.5990  141.0946  157.5789 N   0  0  0  0  0  0  0  0  0  0  0  0
  152.3550  141.0694  158.6980 C   0  0  0  0  0  0  0  0  0  0  0  0
  152.3694  142.1439  159.6091 C   0  0  0  0  0  0  0  0  0  0  0  0
  151.5496  143.2488  159.2874 C   0  0  0  0  0  0  0  0  0  0  0  0
  151.4666  144.4815  160.1751 C   0  0  0  0  0  0  0  0  0  0  0  0
  152.1485  144.3156  161.3092 F   0  0  0  0  0  0  0  0  0  0  0  0
  151.9690  145.5337  159.5292 F   0  0  0  0  0  0  0  0  0  0  0  0
  150.1928  144.7315  160.4793 F   0  0  0  0  0  0  0  0  0  0  0  0
  150.7951  143.2616  158.1639 N   0  0  0  0  0  0  0  0  0  0  0  0
  148.4175  139.2435  154.6452 C   0  0  0  0  0  0  0  0  0  0  0  0
  147.4561  137.0556  153.2626 H   0  0  0  0  0  0  0  0  0  0  0  0
  145.7571  137.3636  153.6428 H   0  0  0  0  0  0  0  0  0  0  0  0
  146.9003  137.0255  154.9407 H   0  0  0  0  0  0  0  0  0  0  0  0
  147.4937  139.3092  152.0632 H   0  0  0  0  0  0  0  0  0  0  0  0
  145.8145  139.5655  152.5060 H   0  0  0  0  0  0  0  0  0  0  0  0
  147.0235  141.7385  152.0959 H   0  0  0  0  0  0  0  0  0  0  0  0
  146.4053  141.6516  153.7340 H   0  0  0  0  0  0  0  0  0  0  0  0
  147.9311  141.1634  155.5216 H   0  0  0  0  0  0  0  0  0  0  0  0
  150.4994  140.1946  155.7549 H   0  0  0  0  0  0  0  0  0  0  0  0
  150.7075  141.3128  154.4182 H   0  0  0  0  0  0  0  0  0  0  0  0
  149.6226  143.0331  155.9740 H   0  0  0  0  0  0  0  0  0  0  0  0
  152.9521  140.1857  158.8678 H   0  0  0  0  0  0  0  0  0  0  0  0
  152.9773  142.1140  160.5010 H   0  0  0  0  0  0  0  0  0  0  0  0
  148.5299  138.7505  155.6117 H   0  0  0  0  0  0  0  0  0  0  0  0
  149.1685  138.8164  153.9782 H   0  0  0  0  0  0  0  0  0  0  0  0
  146.4051  139.3391  154.7768 H   0  0  0  0  0  0  0  0  0  0  0  0
  1  2  1  0  0  0  0
  1 20  1  0  0  0  0
  1 21  1  0  0  0  0
  1 22  1  0  0  0  0
  2 19  1  0  0  0  0
  2  3  1  0  0  0  0
  2 35  1  0  0  0  0
  3  4  1  0  0  0  0
  3 23  1  0  0  0  0
  3 24  1  0  0  0  0
  4  5  1  0  0  0  0
  4 25  1  0  0  0  0
  4 26  1  0  0  0  0
  5  6  1  0  0  0  0
  6  7  1  0  0  0  0
  6 19  1  0  0  0  0
  6 27  1  0  0  0  0
  7  8  1  0  0  0  0
  7 28  1  0  0  0  0
  7 29  1  0  0  0  0
  8  9  1  0  0  0  0
  8 30  1  0  0  0  0
  9 18  1  0  0  0  0
  9 10  2  0  0  0  0
 10 11  1  0  0  0  0
 11 12  2  0  0  0  0
 11 31  1  0  0  0  0
 12 13  1  0  0  0  0
 12 32  1  0  0  0  0
 13 14  1  0  0  0  0
 13 18  2  0  0  0  0
 14 15  1  0  0  0  0
 14 16  1  0  0  0  0
 14 17  1  0  0  0  0
 19 33  1  0  0  0  0
 19 34  1  0  0  0  0
M  CHG  1   2   1
M  END
> <s_m_source_file>
AV-unprocessed.smi

> <i_m_source_file_index>
1144

> <i_lp_mmshare_version>
43012

> <i_f3d_flags>
0

> <s_epik_input>
W0NIM11OMVtDSDJdW0NIMl1PW0NASF0oW0NIMl0xKVtDSDJdW05IXWMybltjSF1bY0hdYyhuMilDKEYpKEYpRg==

> <s_epik_cmdline>
J2VwaWtfcHl0aG9uJywgJy1waCcsICc3LjAnLCAnLXRuJywgJzgnLCAnLW1hJywgJzIwMCcsICctbWV0YWxfYmluZGluZycsICctaW1hZScsICc8aW5maWxlLm1hZT4nLCAnLW9tYWUnLCAnPG91dGZpbGUubWFlPic=

> <r_lp_tautomer_probability>
1

> <r_epik_Ionization_Penalty>
0.178506

> <r_epik_Ionization_Penalty_Charging>
0.178504

> <r_epik_Ionization_Penalty_Neutral>
2.47225e-06

> <r_epik_State_Penalty>
0.167974

> <r_epik_Charging_Adjusted_Penalty>
0.346478

> <i_epik_Tot_Q>
1

> <i_epik_Tot_abs_Q>
1

> <r_epik_Metal_State_Penalty>
0.167974

> <b_epik_Metal_Only>
0

> <s_lp_Force_Field>
OPLS_2005

> <r_lp_Energy>
9.23753

> <b_lp_Chiralities_Consistent>
1

> <s_lp_Variant>
AV-unprocessed.smi:1144-4

> <Gold.Version>
5.8.1

> <Gold.Id.Protein>
6NUR|6NUR_protein|mol2

> <Gold.PLP.Fitness>
39.2136

> <Gold.PLP.PLP>
-35.5061

> <Gold.PLP.part.hbond>
-2.0000

> <Gold.PLP.part.metal>
0.0000

> <Gold.PLP.part.buried>
-3.9614

> <Gold.PLP.part.nonpolar>
-29.8866

> <Gold.PLP.part.repulsive>
1.6097

> <Gold.PLP.ligand.clash>
0.0000

> <Gold.PLP.ligand.torsion>
0.7553

> <Gold.PLP.Chemscore.Hbond>
1.7389

> <Gold.PLP.Chemscore.CHOScore>
0.0000

> <Gold.PLP.Chemscore.Metal>
0.0000

> <Gold.Chemscore.Hbonds>
donor molecule, donor type, donor heavy atom, donor atom, acceptor molecule, acceptor atom, score
      L1  H     8    30       P1  8028  1.00
      P1  H  8011  8017       L1     5  0.69

> <Gold.PLP.Chemscore.Internal.Correction>
0.0013

> <Gold.Rescore>
     Score         DG    S(hbond)    S(metal)    S(lipo)     H(rot)  DE(clash)    DE(int)     intcor
     14.61     -16.04       1.58        0.00      74.31       1.34       0.77       0.66       ----

> <Gold.Chemscore.Fitness>
14.6059

> <Gold.Chemscore.DG>
-16.0387

> <Gold.Chemscore.ZeroCoef>
-5.4800

> <Gold.Chemscore.Hbond>
1.5838

> <Gold.Chemscore.Metal>
0.0000

> <Gold.Chemscore.Lipo>
74.3061

> <Gold.Chemscore.Internal_Hbond>
0.0000

> <Gold.Chemscore.DEClash>
0.7698

> <Gold.Chemscore.DEInternal>
0.6629

> <Gold.Chemscore.Rot>
1.3379

> <Gold.Chemscore.Internal.Correction>
   9.000000E+99

> <Gold.Chemscore.Hbonds>
donor molecule, donor type, donor heavy atom, donor atom, acceptor molecule, acceptor atom, score
      L1  H     8    30       P1  8028  1.00
      P1  H  8011  8017       L1     5  0.63

> <Gold.Chemscore.Hbond.Weighted>
-5.2899

> <Gold.Chemscore.Metal.Weighted>
-0.0000

> <Gold.Chemscore.Lipo.Weighted>
-8.6938

> <Gold.Chemscore.Internal_Hbond.Weighted>
0.0000

> <Gold.Chemscore.DEClash.Weighted>
0.7698

> <Gold.Chemscore.DEInternal.Weighted>
0.6629

> <Gold.Chemscore.Rot.Weighted>
3.4250

> <Gold.Chemscore.Internal.Correction.Weighted>
   9.000000E+99

> <Gold.Protein.RotatedTorsions>
[ 6907 6896 6895 6894 ] final  -44.45 input  -60.11 | X-H torsion
[ 7974 7965 7964 7962 ] final   44.02 input  175.53 | X-H torsion
[ 8008 7997 7996 7995 ] final   72.88 input   59.86 | X-H torsion
[ 10167 10162 10161 10158 ] final -165.05 input  -65.29 | X-H torsion
[ 10718 10713 10712 10709 ] final  145.40 input   66.30 | X-H torsion
[ 10763 10752 10751 10750 ] final   79.64 input  -60.55 | X-H torsion
[ 11005 11000 10999 10996 ] final    9.15 input  -57.11 | X-H torsion

> <Gold.Protein.ActiveResidues>
 VAL166  LYS551  ARG553  GLY616  TRP617  ASP618  TYR619  PRO620  LYS621  CYS622 
 ASP623  PHE694  ASN695  SER759  ASP760  ASP761  ALA762  ILE779  LEU786  VAL792 
 PHE793  MET794  SER795  GLU796  ALA797  LYS798  CYS799  TRP800  GLU811  SER814 

> <Gold.Protein.RotatedAtoms>
  150.9327  134.8741  159.7561 H   0  0  0  0  0  0  0  0  0  0  0  0  # atno 6907 bound_to 6896
  152.5045  134.4055  159.9441 H   0  0  0  0  0  0  0  0  0  0  0  0  # atno 6908 bound_to 6896
  151.4081  133.3696  159.2775 H   0  0  0  0  0  0  0  0  0  0  0  0  # atno 6909 bound_to 6896
  146.0605  139.5121  142.9661 H   0  0  0  0  0  0  0  0  0  0  0  0  # atno 7974 bound_to 7965
  155.7755  140.3483  155.5269 H   0  0  0  0  0  0  0  0  0  0  0  0  # atno 8008 bound_to 7997
  155.8780  140.0997  157.1525 H   0  0  0  0  0  0  0  0  0  0  0  0  # atno 8009 bound_to 7997
  154.4022  140.1328  156.4148 H   0  0  0  0  0  0  0  0  0  0  0  0  # atno 8010 bound_to 7997
  139.6209  144.0627  152.1931 H   0  0  0  0  0  0  0  0  0  0  0  0  # atno 10167 bound_to 10162
  157.3457  131.0943  151.1044 H   0  0  0  0  0  0  0  0  0  0  0  0  # atno 10718 bound_to 10713
  153.0969  135.4832  154.8795 H   0  0  0  0  0  0  0  0  0  0  0  0  # atno 10763 bound_to 10752
  154.7334  135.3065  154.8854 H   0  0  0  0  0  0  0  0  0  0  0  0  # atno 10764 bound_to 10752
  153.9483  135.6826  153.4797 H   0  0  0  0  0  0  0  0  0  0  0  0  # atno 10765 bound_to 10752
  140.5290  134.0485  155.7867 H   0  0  0  0  0  0  0  0  0  0  0  0  # atno 11005 bound_to 11000
  145.6569  141.0250  143.1730 LP  0  0  0  0  0  0  0  0  0  0  0  0  # atno 17320 bound_to 7965
  144.7172  139.8156  143.7394 LP  0  0  0  0  0  0  0  0  0  0  0  0  # atno 17321 bound_to 7965
  140.0269  144.6111  150.7520 LP  0  0  0  0  0  0  0  0  0  0  0  0  # atno 17342 bound_to 10162
  140.7381  143.2774  151.3701 LP  0  0  0  0  0  0  0  0  0  0  0  0  # atno 17343 bound_to 10162
  157.2238  130.6494  149.5822 LP  0  0  0  0  0  0  0  0  0  0  0  0  # atno 17370 bound_to 10713
  155.9714  130.4620  150.6131 LP  0  0  0  0  0  0  0  0  0  0  0  0  # atno 17371 bound_to 10713
  141.1292  133.9331  157.2571 LP  0  0  0  0  0  0  0  0  0  0  0  0  # atno 17394 bound_to 11000
  139.9565  135.0164  156.9141 LP  0  0  0  0  0  0  0  0  0  0  0  0  # atno 17395 bound_to 11000

$$$$
