AV-unprocessed.smi:203|AV-procd|sdf|1583|dock1
  -GOLD-   2262019473D 1   1.00000     0.00000
 Structure written by MMmdl.
 57 61  0  0  0  0  0  0  0  0  1 V2000
  149.0903  134.1205  156.0310 O   0  0  0  0  0  0  0  0  0  0  0  0
  148.2368  134.0748  156.9136 C   0  0  0  0  0  0  0  0  0  0  0  0
  147.8004  135.2849  157.7213 C   0  0  0  0  0  0  0  0  0  0  0  0
  146.9141  134.6831  158.8296 C   0  0  2  0  0  0  0  0  0  0  0  0
  147.5322  134.7851  160.2603 C   0  0  2  0  0  0  0  0  0  0  0  0
  146.9526  133.7318  161.2416 C   0  0  0  0  0  0  0  0  0  0  0  0
  147.5765  133.8512  162.6384 C   0  0  0  0  0  0  0  0  0  0  0  0
  147.3956  135.2766  163.1704 C   0  0  0  0  0  0  0  0  0  0  0  0
  147.9849  136.2928  162.1835 C   0  0  0  0  0  0  0  0  0  0  0  0
  147.4119  136.1321  160.8473 N   0  0  0  0  0  0  0  0  0  0  0  0
  147.7743  137.1679  160.0582 C   0  0  0  0  0  0  0  0  0  0  0  0
  146.8048  138.0484  159.7089 N   0  0  0  0  0  0  0  0  0  0  0  0
  147.1021  139.0919  158.9285 C   0  0  0  0  0  0  0  0  0  0  0  0
  148.2814  139.4349  158.4054 N   0  0  0  0  0  0  0  0  0  0  0  0
  149.2592  138.5544  158.7647 C   0  0  0  0  0  0  0  0  0  0  0  0
  149.0945  137.4001  159.5799 C   0  0  0  0  0  0  0  0  0  0  0  0
  150.3101  136.7430  159.7250 N   0  0  0  0  0  0  0  0  0  0  0  0
  151.1472  137.4694  159.0364 C   0  0  0  0  0  0  0  0  0  0  0  0
  150.6046  138.5870  158.4428 N   0  0  0  0  0  0  0  0  0  0  0  0
  151.3059  139.5712  157.6372 C   0  0  0  0  0  0  0  0  0  0  0  0
  151.4954  140.9312  158.3489 C   0  0  2  0  0  0  0  0  0  0  0  0
  151.0808  141.9579  157.4715 O   0  0  0  0  0  0  0  0  0  0  0  0
  152.9149  141.2632  158.8676 C   0  0  2  0  0  0  0  0  0  0  0  0
  153.6251  140.1752  159.6765 C   0  0  0  0  0  0  0  0  0  0  0  0
  154.6553  140.9899  160.4262 C   0  0  0  0  0  0  0  0  0  0  0  0
  153.8840  142.2699  160.7409 C   0  0  0  0  0  0  0  0  0  0  0  0
  152.9249  142.4219  159.6974 O   0  0  0  0  0  0  0  0  0  0  0  0
  146.6289  133.2352  158.3704 C   0  0  0  0  0  0  0  0  0  0  0  0
  147.5686  132.9880  157.2942 N   0  0  0  0  0  0  0  0  0  0  0  0
  148.6538  135.8450  158.1035 H   0  0  0  0  0  0  0  0  0  0  0  0
  147.2248  135.9504  157.0769 H   0  0  0  0  0  0  0  0  0  0  0  0
  145.9763  135.2389  158.8089 H   0  0  0  0  0  0  0  0  0  0  0  0
  148.5981  134.5752  160.1671 H   0  0  0  0  0  0  0  0  0  0  0  0
  145.8724  133.8496  161.3302 H   0  0  0  0  0  0  0  0  0  0  0  0
  147.1185  132.7213  160.8701 H   0  0  0  0  0  0  0  0  0  0  0  0
  147.1169  133.1340  163.3190 H   0  0  0  0  0  0  0  0  0  0  0  0
  148.6378  133.6046  162.5914 H   0  0  0  0  0  0  0  0  0  0  0  0
  146.3352  135.4828  163.3212 H   0  0  0  0  0  0  0  0  0  0  0  0
  147.8758  135.3788  164.1440 H   0  0  0  0  0  0  0  0  0  0  0  0
  147.7995  137.3036  162.5503 H   0  0  0  0  0  0  0  0  0  0  0  0
  149.0675  136.1682  162.1308 H   0  0  0  0  0  0  0  0  0  0  0  0
  146.2772  139.7473  158.6905 H   0  0  0  0  0  0  0  0  0  0  0  0
  152.1937  137.2140  158.9551 H   0  0  0  0  0  0  0  0  0  0  0  0
  152.2716  139.1546  157.3484 H   0  0  0  0  0  0  0  0  0  0  0  0
  150.7456  139.7103  156.7119 H   0  0  0  0  0  0  0  0  0  0  0  0
  150.8166  140.9702  159.2014 H   0  0  0  0  0  0  0  0  0  0  0  0
  150.5215  141.5798  156.8105 H   0  0  0  0  0  0  0  0  0  0  0  0
  153.5463  141.5152  158.0135 H   0  0  0  0  0  0  0  0  0  0  0  0
  152.9531  139.6960  160.3871 H   0  0  0  0  0  0  0  0  0  0  0  0
  154.0676  139.4006  159.0497 H   0  0  0  0  0  0  0  0  0  0  0  0
  155.0330  140.4898  161.3183 H   0  0  0  0  0  0  0  0  0  0  0  0
  155.5014  141.2121  159.7747 H   0  0  0  0  0  0  0  0  0  0  0  0
  153.3523  142.1721  161.6878 H   0  0  0  0  0  0  0  0  0  0  0  0
  154.5366  143.1404  160.8102 H   0  0  0  0  0  0  0  0  0  0  0  0
  146.7433  132.4990  159.1661 H   0  0  0  0  0  0  0  0  0  0  0  0
  145.6137  133.1446  157.9822 H   0  0  0  0  0  0  0  0  0  0  0  0
  147.7006  132.0729  156.8882 H   0  0  0  0  0  0  0  0  0  0  0  0
  1  2  2  0  0  0  0
  2 29  1  0  0  0  0
  2  3  1  0  0  0  0
  3  4  1  0  0  0  0
  3 30  1  0  0  0  0
  3 31  1  0  0  0  0
  4  5  1  0  0  0  0
  4 28  1  0  0  0  0
  4 32  1  0  0  0  0
  5 10  1  0  0  0  0
  5  6  1  0  0  0  0
  5 33  1  0  0  0  0
  6  7  1  0  0  0  0
  6 34  1  0  0  0  0
  6 35  1  0  0  0  0
  7  8  1  0  0  0  0
  7 36  1  0  0  0  0
  7 37  1  0  0  0  0
  8  9  1  0  0  0  0
  8 38  1  0  0  0  0
  8 39  1  0  0  0  0
  9 10  1  0  0  0  0
  9 40  1  0  0  0  0
  9 41  1  0  0  0  0
 10 11  1  0  0  0  0
 11 16  1  0  0  0  0
 11 12  2  0  0  0  0
 12 13  1  0  0  0  0
 13 14  2  0  0  0  0
 13 42  1  0  0  0  0
 14 15  1  0  0  0  0
 15 19  1  0  0  0  0
 15 16  2  0  0  0  0
 16 17  1  0  0  0  0
 17 18  2  0  0  0  0
 18 19  1  0  0  0  0
 18 43  1  0  0  0  0
 19 20  1  0  0  0  0
 20 21  1  0  0  0  0
 20 44  1  0  0  0  0
 20 45  1  0  0  0  0
 21 22  1  0  0  0  0
 21 23  1  0  0  0  0
 21 46  1  0  0  0  0
 22 47  1  0  0  0  0
 23 27  1  0  0  0  0
 23 24  1  0  0  0  0
 23 48  1  0  0  0  0
 24 25  1  0  0  0  0
 24 49  1  0  0  0  0
 24 50  1  0  0  0  0
 25 26  1  0  0  0  0
 25 51  1  0  0  0  0
 25 52  1  0  0  0  0
 26 27  1  0  0  0  0
 26 53  1  0  0  0  0
 26 54  1  0  0  0  0
 28 29  1  0  0  0  0
 28 55  1  0  0  0  0
 28 56  1  0  0  0  0
 29 57  1  0  0  0  0
M  END
> <s_m_source_file>
AV-unprocessed.smi

> <i_m_source_file_index>
203

> <i_lp_mmshare_version>
43012

> <i_f3d_flags>
0

> <s_epik_input>
Tz1DMVtDSDJdW0NASF0oW0NIMl1bTkhdMSlbQ0BASF0yW0NIMl1bQ0gyXVtDSDJdW0NIMl1OMmMobltjSF1uMyljKGMzNCluW2NIXW40W0NIMl1bQ0BIXShbT0hdKVtDQEBIXTVbQ0gyXVtDSDJdW0NIMl1PNQ==

> <s_epik_cmdline>
J2VwaWtfcHl0aG9uJywgJy1waCcsICc3LjAnLCAnLXRuJywgJzgnLCAnLW1hJywgJzIwMCcsICctbWV0YWxfYmluZGluZycsICctaW1hZScsICc8aW5maWxlLm1hZT4nLCAnLW9tYWUnLCAnPG91dGZpbGUubWFlPic=

> <r_lp_tautomer_probability>
1

> <r_epik_Ionization_Penalty>
0.00175146

> <r_epik_Ionization_Penalty_Charging>
0

> <r_epik_Ionization_Penalty_Neutral>
0.00175146

> <r_epik_State_Penalty>
0.00109045

> <r_epik_Charging_Adjusted_Penalty>
0.00109045

> <i_epik_Tot_Q>
0

> <i_epik_Tot_abs_Q>
0

> <r_epik_Metal_State_Penalty>
-0

> <b_epik_Metal_Only>
0

> <s_lp_Force_Field>
OPLS_2005

> <r_lp_Energy>
56.3505

> <b_lp_Chiralities_Consistent>
1

> <s_lp_Variant>
AV-unprocessed.smi:203-2

> <Gold.Version>
5.8.1

> <Gold.Id.Protein>
6NUR|6NUR_protein|mol2

> <Gold.PLP.Fitness>
44.1743

> <Gold.PLP.PLP>
-43.6337

> <Gold.PLP.part.hbond>
-1.0587

> <Gold.PLP.part.metal>
0.0000

> <Gold.PLP.part.buried>
-8.0363

> <Gold.PLP.part.nonpolar>
-35.5375

> <Gold.PLP.part.repulsive>
0.0624

> <Gold.PLP.ligand.clash>
0.0000

> <Gold.PLP.ligand.torsion>
1.3924

> <Gold.PLP.Chemscore.Hbond>
1.0000

> <Gold.PLP.Chemscore.CHOScore>
0.0000

> <Gold.PLP.Chemscore.Metal>
0.0000

> <Gold.Chemscore.Hbonds>
donor molecule, donor type, donor heavy atom, donor atom, acceptor molecule, acceptor atom, score
      P1  H  6896  6908       L1    17  1.00
      P1  H  6934  6947       L1    12  0.10

> <Gold.PLP.Chemscore.Internal.Correction>
0.3255

> <Gold.Rescore>
     Score         DG    S(hbond)    S(metal)    S(lipo)     H(rot)  DE(clash)    DE(int)     intcor
     11.02     -12.69       0.94        0.00      94.38       2.72       0.01       1.67       ----

> <Gold.Chemscore.Fitness>
11.0156

> <Gold.Chemscore.DG>
-12.6894

> <Gold.Chemscore.ZeroCoef>
-5.4800

> <Gold.Chemscore.Hbond>
0.9351

> <Gold.Chemscore.Metal>
0.0000

> <Gold.Chemscore.Lipo>
94.3752

> <Gold.Chemscore.Internal_Hbond>
0.0000

> <Gold.Chemscore.DEClash>
0.0060

> <Gold.Chemscore.DEInternal>
1.6678

> <Gold.Chemscore.Rot>
2.7171

> <Gold.Chemscore.Internal.Correction>
   9.000000E+99

> <Gold.Chemscore.Hbonds>
donor molecule, donor type, donor heavy atom, donor atom, acceptor molecule, acceptor atom, score
      P1  H  6896  6908       L1    17  0.69

> <Gold.Chemscore.Hbond.Weighted>
-3.1232

> <Gold.Chemscore.Metal.Weighted>
-0.0000

> <Gold.Chemscore.Lipo.Weighted>
-11.0419

> <Gold.Chemscore.Internal_Hbond.Weighted>
0.0000

> <Gold.Chemscore.DEClash.Weighted>
0.0060

> <Gold.Chemscore.DEInternal.Weighted>
1.6678

> <Gold.Chemscore.Rot.Weighted>
6.9557

> <Gold.Chemscore.Internal.Correction.Weighted>
   9.000000E+99

> <Gold.Protein.RotatedTorsions>
[ 6907 6896 6895 6894 ] final -164.52 input  -60.11 | X-H torsion
[ 7974 7965 7964 7962 ] final  -56.10 input  175.53 | X-H torsion
[ 8008 7997 7996 7995 ] final  -34.72 input   59.86 | X-H torsion
[ 10167 10162 10161 10158 ] final  104.24 input  -65.29 | X-H torsion
[ 10718 10713 10712 10709 ] final   38.72 input   66.30 | X-H torsion
[ 10763 10752 10751 10750 ] final   50.92 input  -60.55 | X-H torsion
[ 11005 11000 10999 10996 ] final -116.85 input  -57.11 | X-H torsion

> <Gold.Protein.ActiveResidues>
 VAL166  LYS551  ARG553  GLY616  TRP617  ASP618  TYR619  PRO620  LYS621  CYS622 
 ASP623  PHE694  ASN695  SER759  ASP760  ASP761  ALA762  ILE779  LEU786  VAL792 
 PHE793  MET794  SER795  GLU796  ALA797  LYS798  CYS799  TRP800  GLU811  SER814 

> <Gold.Protein.RotatedAtoms>
  151.4132  133.3721  159.2746 H   0  0  0  0  0  0  0  0  0  0  0  0  # atno 6907 bound_to 6896
  150.9348  134.8762  159.7585 H   0  0  0  0  0  0  0  0  0  0  0  0  # atno 6908 bound_to 6896
  152.5045  134.4078  159.9490 H   0  0  0  0  0  0  0  0  0  0  0  0  # atno 6909 bound_to 6896
  145.8666  140.8247  142.9910 H   0  0  0  0  0  0  0  0  0  0  0  0  # atno 7974 bound_to 7965
  154.4113  140.1676  156.2095 H   0  0  0  0  0  0  0  0  0  0  0  0  # atno 8008 bound_to 7997
  155.9456  140.3405  155.6341 H   0  0  0  0  0  0  0  0  0  0  0  0  # atno 8009 bound_to 7997
  155.6934  140.0736  157.2430 H   0  0  0  0  0  0  0  0  0  0  0  0  # atno 8010 bound_to 7997
  139.7194  144.7061  151.0897 H   0  0  0  0  0  0  0  0  0  0  0  0  # atno 10167 bound_to 10162
  157.3621  130.7655  149.7055 H   0  0  0  0  0  0  0  0  0  0  0  0  # atno 10718 bound_to 10713
  152.9784  135.5863  154.4331 H   0  0  0  0  0  0  0  0  0  0  0  0  # atno 10763 bound_to 10752
  154.3941  135.2768  155.2138 H   0  0  0  0  0  0  0  0  0  0  0  0  # atno 10764 bound_to 10752
  154.3998  135.6106  153.5945 H   0  0  0  0  0  0  0  0  0  0  0  0  # atno 10765 bound_to 10752
  141.0394  133.9859  157.3019 H   0  0  0  0  0  0  0  0  0  0  0  0  # atno 11005 bound_to 11000
  144.6726  140.1175  143.7452 LP  0  0  0  0  0  0  0  0  0  0  0  0  # atno 17320 bound_to 7965
  145.9186  139.2531  143.1395 LP  0  0  0  0  0  0  0  0  0  0  0  0  # atno 17321 bound_to 7965
  140.7750  143.5186  150.9564 LP  0  0  0  0  0  0  0  0  0  0  0  0  # atno 17342 bound_to 10162
  139.8873  143.6997  152.3150 LP  0  0  0  0  0  0  0  0  0  0  0  0  # atno 17343 bound_to 10162
  155.9739  130.4111  150.3963 LP  0  0  0  0  0  0  0  0  0  0  0  0  # atno 17370 bound_to 10713
  157.2041  131.0445  151.2634 LP  0  0  0  0  0  0  0  0  0  0  0  0  # atno 17371 bound_to 10713
  139.9264  135.0201  156.8251 LP  0  0  0  0  0  0  0  0  0  0  0  0  # atno 17394 bound_to 11000
  140.6262  133.9948  155.7641 LP  0  0  0  0  0  0  0  0  0  0  0  0  # atno 17395 bound_to 11000

$$$$
