AV-unprocessed.smi:2705|AV-procd|sdf|10443|dock2
  -GOLD-   2272014483D 1   1.00000     0.00000
 Structure written by MMmdl.
 36 37  0  0  0  0  0  0  0  0  1 V2000
  151.4821  141.9660  156.7395 C   0  0  0  0  0  0  0  0  0  0  0  0
  151.3287  141.9616  158.2783 C   0  0  0  0  0  0  0  0  0  0  0  0
  151.1875  140.5773  158.7512 N   0  0  0  0  0  0  0  0  0  0  0  0
  152.0315  139.5418  158.5897 C   0  0  0  0  0  0  0  0  0  0  0  0
  153.1223  139.6201  158.0262 O   0  0  0  0  0  0  0  0  0  0  0  0
  151.5558  138.1978  159.1391 C   0  0  0  0  0  0  0  0  0  0  0  0
  151.5101  137.2005  158.0858 N   0  0  0  0  0  0  0  0  0  0  0  0
  152.0716  137.1756  156.8748 C   0  0  0  0  0  0  0  0  0  0  0  0
  151.7824  136.0593  156.2240 N   0  0  0  0  0  0  0  0  0  0  0  0
  150.9850  135.3698  157.1222 N   0  0  0  0  0  0  0  0  0  0  0  0
  150.8202  136.0418  158.2286 N   0  0  0  0  0  0  0  0  0  0  0  0
  152.6457  142.5058  158.8886 C   0  0  0  0  0  0  0  0  0  0  0  0
  152.5790  142.9266  160.3681 C   0  0  0  0  0  0  0  0  0  0  0  0
  152.1987  144.4073  160.5422 C   0  0  0  0  0  0  0  0  0  0  0  0
  150.7342  144.7397  160.2184 C   0  0  0  0  0  0  0  0  0  0  0  0
  150.2665  144.3072  158.8170 C   0  0  0  0  0  0  0  0  0  0  0  0
  150.0763  142.7839  158.6997 C   0  0  0  0  0  0  0  0  0  0  0  0
  151.6480  142.9751  156.3616 H   0  0  0  0  0  0  0  0  0  0  0  0
  150.5970  141.5813  156.2329 H   0  0  0  0  0  0  0  0  0  0  0  0
  152.3299  141.3567  156.4239 H   0  0  0  0  0  0  0  0  0  0  0  0
  150.3259  140.3791  159.2388 H   0  0  0  0  0  0  0  0  0  0  0  0
  152.2248  137.8597  159.9321 H   0  0  0  0  0  0  0  0  0  0  0  0
  150.5609  138.2964  159.5753 H   0  0  0  0  0  0  0  0  0  0  0  0
  152.6918  137.9654  156.4768 H   0  0  0  0  0  0  0  0  0  0  0  0
  153.4207  141.7452  158.7789 H   0  0  0  0  0  0  0  0  0  0  0  0
  153.0115  143.3492  158.3013 H   0  0  0  0  0  0  0  0  0  0  0  0
  151.9129  142.2777  160.9380 H   0  0  0  0  0  0  0  0  0  0  0  0
  153.5700  142.7889  160.8021 H   0  0  0  0  0  0  0  0  0  0  0  0
  152.3951  144.7002  161.5740 H   0  0  0  0  0  0  0  0  0  0  0  0
  152.8566  145.0279  159.9325 H   0  0  0  0  0  0  0  0  0  0  0  0
  150.0840  144.2988  160.9748 H   0  0  0  0  0  0  0  0  0  0  0  0
  150.6022  145.8180  160.3130 H   0  0  0  0  0  0  0  0  0  0  0  0
  149.3003  144.7793  158.6357 H   0  0  0  0  0  0  0  0  0  0  0  0
  150.9308  144.6890  158.0414 H   0  0  0  0  0  0  0  0  0  0  0  0
  149.2766  142.5978  157.9815 H   0  0  0  0  0  0  0  0  0  0  0  0
  149.6843  142.4126  159.6481 H   0  0  0  0  0  0  0  0  0  0  0  0
  1  2  1  0  0  0  0
  1 18  1  0  0  0  0
  1 19  1  0  0  0  0
  1 20  1  0  0  0  0
  2 17  1  0  0  0  0
  2  3  1  0  0  0  0
  2 12  1  0  0  0  0
  3  4  1  0  0  0  0
  3 21  1  0  0  0  0
  4  5  2  0  0  0  0
  4  6  1  0  0  0  0
  6  7  1  0  0  0  0
  6 22  1  0  0  0  0
  6 23  1  0  0  0  0
  7 11  1  0  0  0  0
  7  8  1  0  0  0  0
  8  9  2  0  0  0  0
  8 24  1  0  0  0  0
  9 10  1  0  0  0  0
 10 11  2  0  0  0  0
 12 13  1  0  0  0  0
 12 25  1  0  0  0  0
 12 26  1  0  0  0  0
 13 14  1  0  0  0  0
 13 27  1  0  0  0  0
 13 28  1  0  0  0  0
 14 15  1  0  0  0  0
 14 29  1  0  0  0  0
 14 30  1  0  0  0  0
 15 16  1  0  0  0  0
 15 31  1  0  0  0  0
 15 32  1  0  0  0  0
 16 17  1  0  0  0  0
 16 33  1  0  0  0  0
 16 34  1  0  0  0  0
 17 35  1  0  0  0  0
 17 36  1  0  0  0  0
M  END
> <s_m_source_file>
AV-unprocessed.smi

> <i_m_source_file_index>
2705

> <i_lp_mmshare_version>
43012

> <i_f3d_flags>
0

> <s_epik_input>
W0NIMl0xW0NIMl1bQ0gyXVtDSDJdW0NIMl1bQ0gyXUMxKFtDSDNdKVtOSF1DKD1PKVtDSDJdbjJbY0hdbm5uMg==

> <s_epik_cmdline>
J2VwaWtfcHl0aG9uJywgJy1waCcsICc3LjAnLCAnLXRuJywgJzgnLCAnLW1hJywgJzIwMCcsICctbWV0YWxfYmluZGluZycsICctaW1hZScsICc8aW5maWxlLm1hZT4nLCAnLW9tYWUnLCAnPG91dGZpbGUubWFlPic=

> <r_lp_tautomer_probability>
1

> <r_epik_Ionization_Penalty>
4.39395e-07

> <r_epik_Ionization_Penalty_Charging>
0

> <r_epik_Ionization_Penalty_Neutral>
4.39395e-07

> <r_epik_State_Penalty>
-0

> <r_epik_Charging_Adjusted_Penalty>
0

> <i_epik_Tot_Q>
0

> <i_epik_Tot_abs_Q>
0

> <r_epik_Metal_State_Penalty>
-0

> <b_epik_Metal_Only>
0

> <s_lp_Force_Field>
OPLS_2005

> <r_lp_Energy>
20.5987

> <b_lp_Chiralities_Consistent>
1

> <s_lp_Variant>
AV-unprocessed.smi:2705-1

> <Gold.Version>
5.8.1

> <Gold.Id.Protein>
6NUR|6NUR_protein|mol2

> <Gold.PLP.Fitness>
35.9930

> <Gold.PLP.PLP>
-28.5305

> <Gold.PLP.part.hbond>
-3.7825

> <Gold.PLP.part.metal>
0.0000

> <Gold.PLP.part.buried>
-5.5229

> <Gold.PLP.part.nonpolar>
-19.4193

> <Gold.PLP.part.repulsive>
0.1820

> <Gold.PLP.ligand.clash>
0.0000

> <Gold.PLP.ligand.torsion>
0.2331

> <Gold.PLP.Chemscore.Hbond>
2.6400

> <Gold.PLP.Chemscore.CHOScore>
0.0000

> <Gold.PLP.Chemscore.Metal>
0.0000

> <Gold.Chemscore.Hbonds>
donor molecule, donor type, donor heavy atom, donor atom, acceptor molecule, acceptor atom, score
      P1  H  6896  6908       L1    11  0.64
      P1  H  7997  8010       L1     5  1.00
      P1  H 10752 10764       L1     9  1.00

> <Gold.PLP.Chemscore.Internal.Correction>
0.0088

> <Gold.Rescore>
     Score         DG    S(hbond)    S(metal)    S(lipo)     H(rot)  DE(clash)    DE(int)     intcor
     15.19     -17.74       2.40        0.00      78.04       1.91       0.35       2.20       ----

> <Gold.Chemscore.Fitness>
15.1860

> <Gold.Chemscore.DG>
-17.7351

> <Gold.Chemscore.ZeroCoef>
-5.4800

> <Gold.Chemscore.Hbond>
2.3960

> <Gold.Chemscore.Metal>
0.0000

> <Gold.Chemscore.Lipo>
78.0447

> <Gold.Chemscore.Internal_Hbond>
0.0000

> <Gold.Chemscore.DEClash>
0.3476

> <Gold.Chemscore.DEInternal>
2.2014

> <Gold.Chemscore.Rot>
1.9058

> <Gold.Chemscore.Internal.Correction>
   9.000000E+99

> <Gold.Chemscore.Hbonds>
donor molecule, donor type, donor heavy atom, donor atom, acceptor molecule, acceptor atom, score
      P1  H  6896  6908       L1    11  0.47
      P1  H  7997  8010       L1     5  0.99
      P1  H 10752 10764       L1     9  0.76

> <Gold.Chemscore.Hbond.Weighted>
-8.0027

> <Gold.Chemscore.Metal.Weighted>
-0.0000

> <Gold.Chemscore.Lipo.Weighted>
-9.1312

> <Gold.Chemscore.Internal_Hbond.Weighted>
0.0000

> <Gold.Chemscore.DEClash.Weighted>
0.3476

> <Gold.Chemscore.DEInternal.Weighted>
2.2014

> <Gold.Chemscore.Rot.Weighted>
4.8788

> <Gold.Chemscore.Internal.Correction.Weighted>
   9.000000E+99

> <Gold.Protein.RotatedTorsions>
[ 6907 6896 6895 6894 ] final -165.83 input  -60.11 | X-H torsion
[ 7974 7965 7964 7962 ] final -129.67 input  175.53 | X-H torsion
[ 8008 7997 7996 7995 ] final   51.15 input   59.86 | X-H torsion
[ 10167 10162 10161 10158 ] final    9.43 input  -65.29 | X-H torsion
[ 10718 10713 10712 10709 ] final  -53.12 input   66.30 | X-H torsion
[ 10763 10752 10751 10750 ] final  -13.43 input  -60.55 | X-H torsion
[ 11005 11000 10999 10996 ] final  -43.61 input  -57.11 | X-H torsion

> <Gold.Protein.ActiveResidues>
 VAL166  LYS551  ARG553  GLY616  TRP617  ASP618  TYR619  PRO620  LYS621  CYS622 
 ASP623  PHE694  ASN695  SER759  ASP760  ASP761  ALA762  ILE779  LEU786  VAL792 
 PHE793  MET794  SER795  GLU796  ALA797  LYS798  CYS799  TRP800  GLU811  SER814 

> <Gold.Protein.RotatedAtoms>
  151.4339  133.3662  159.2772 H   0  0  0  0  0  0  0  0  0  0  0  0  # atno 6907 bound_to 6896
  150.9205  134.8624  159.7496 H   0  0  0  0  0  0  0  0  0  0  0  0  # atno 6908 bound_to 6896
  152.4979  134.4276  159.9553 H   0  0  0  0  0  0  0  0  0  0  0  0  # atno 6909 bound_to 6896
  144.9549  140.7384  143.4765 H   0  0  0  0  0  0  0  0  0  0  0  0  # atno 7974 bound_to 7965
  155.4305  140.3450  155.4279 H   0  0  0  0  0  0  0  0  0  0  0  0  # atno 8008 bound_to 7997
  156.1339  140.1522  156.9054 H   0  0  0  0  0  0  0  0  0  0  0  0  # atno 8009 bound_to 7997
  154.4916  140.0839  156.7588 H   0  0  0  0  0  0  0  0  0  0  0  0  # atno 8010 bound_to 7997
  140.6255  143.8110  150.7228 H   0  0  0  0  0  0  0  0  0  0  0  0  # atno 10167 bound_to 10162
  156.1562  130.4150  149.9865 H   0  0  0  0  0  0  0  0  0  0  0  0  # atno 10718 bound_to 10713
  153.5133  135.7016  153.5769 H   0  0  0  0  0  0  0  0  0  0  0  0  # atno 10763 bound_to 10752
  153.3850  135.3910  155.1884 H   0  0  0  0  0  0  0  0  0  0  0  0  # atno 10764 bound_to 10752
  154.8701  135.3844  154.4615 H   0  0  0  0  0  0  0  0  0  0  0  0  # atno 10765 bound_to 10752
  141.0395  133.6786  156.2757 H   0  0  0  0  0  0  0  0  0  0  0  0  # atno 11005 bound_to 11000
  145.2788  139.1926  143.4802 LP  0  0  0  0  0  0  0  0  0  0  0  0  # atno 17320 bound_to 7965
  146.3334  140.2746  142.8607 LP  0  0  0  0  0  0  0  0  0  0  0  0  # atno 17321 bound_to 7965
  140.1710  143.4194  152.2001 LP  0  0  0  0  0  0  0  0  0  0  0  0  # atno 17342 bound_to 10162
  139.5476  144.7311  151.4534 LP  0  0  0  0  0  0  0  0  0  0  0  0  # atno 17343 bound_to 10162
  156.7708  130.9185  151.3644 LP  0  0  0  0  0  0  0  0  0  0  0  0  # atno 17370 bound_to 10713
  157.6697  130.9039  150.0011 LP  0  0  0  0  0  0  0  0  0  0  0  0  # atno 17371 bound_to 10713
  140.6260  134.5313  157.5554 LP  0  0  0  0  0  0  0  0  0  0  0  0  # atno 17394 bound_to 11000
  139.9265  134.8045  156.1053 LP  0  0  0  0  0  0  0  0  0  0  0  0  # atno 17395 bound_to 11000

$$$$
