AV-unprocessed.smi:1406|AV-procd|sdf|5720|dock10
  -GOLD-   22720 5353D 1   1.00000     0.00000
 Structure written by MMmdl.
 41 43  0  0  0  0  0  0  0  0  2 V2000
  150.1225  138.5095  154.3548 C   0  0  0  0  0  0  0  0  0  0  0  0
  149.6261  139.5614  155.3675 C   0  0  1  0  0  0  0  0  0  0  0  0
  150.7497  140.4798  155.8748 C   0  0  0  0  0  0  0  0  0  0  0  0
  151.8095  140.5810  155.2558 O   0  0  0  0  0  0  0  0  0  0  0  0
  150.5030  141.1463  157.0139 N   0  0  0  0  0  0  0  0  0  0  0  0
  151.4183  142.0852  157.6550 C   0  0  1  0  0  0  0  0  0  0  0  0
  150.7336  143.3998  158.0684 C   0  0  0  0  0  0  0  0  0  0  0  0
  151.3796  143.7922  159.4121 C   0  0  0  0  0  0  0  0  0  0  0  0
  152.4283  142.7826  159.6515 N   0  3  1  0  0  0  0  0  0  0  0  0
  152.8376  142.5552  161.0545 C   0  0  0  0  0  0  0  0  0  0  0  0
  153.9957  141.5379  161.0867 C   0  0  0  0  0  0  0  0  0  0  0  0
  153.6394  140.2417  160.3308 C   0  0  0  0  0  0  0  0  0  0  0  0
  153.1301  140.5478  158.9091 C   0  0  0  0  0  0  0  0  0  0  0  0
  151.9702  141.5559  158.9816 C   0  0  2  0  0  0  0  0  0  0  0  0
  148.5248  140.3549  154.8360 N   0  0  0  0  0  0  0  0  0  0  0  0
  148.3859  141.6796  154.7466 C   0  0  0  0  0  0  0  0  0  0  0  0
  147.2612  142.0652  154.1607 N   0  0  0  0  0  0  0  0  0  0  0  0
  146.7160  140.8429  153.8868 C   0  0  0  0  0  0  0  0  0  0  0  0
  147.4361  139.7854  154.2610 N   0  0  0  0  0  0  0  0  0  0  0  0
  150.9084  137.8883  154.7859 H   0  0  0  0  0  0  0  0  0  0  0  0
  150.5231  138.9685  153.4499 H   0  0  0  0  0  0  0  0  0  0  0  0
  149.3106  137.8460  154.0554 H   0  0  0  0  0  0  0  0  0  0  0  0
  149.2410  139.0183  156.2324 H   0  0  0  0  0  0  0  0  0  0  0  0
  149.6070  141.0060  157.4580 H   0  0  0  0  0  0  0  0  0  0  0  0
  152.2477  142.3282  156.9872 H   0  0  0  0  0  0  0  0  0  0  0  0
  150.8736  144.1704  157.3095 H   0  0  0  0  0  0  0  0  0  0  0  0
  149.6592  143.2652  158.2030 H   0  0  0  0  0  0  0  0  0  0  0  0
  151.8071  144.7950  159.3916 H   0  0  0  0  0  0  0  0  0  0  0  0
  150.6354  143.7572  160.2092 H   0  0  0  0  0  0  0  0  0  0  0  0
  153.1527  143.4985  161.5020 H   0  0  0  0  0  0  0  0  0  0  0  0
  151.9897  142.1888  161.6352 H   0  0  0  0  0  0  0  0  0  0  0  0
  154.8809  141.9857  160.6327 H   0  0  0  0  0  0  0  0  0  0  0  0
  154.2630  141.3076  162.1185 H   0  0  0  0  0  0  0  0  0  0  0  0
  154.5069  139.5824  160.2850 H   0  0  0  0  0  0  0  0  0  0  0  0
  152.8694  139.7009  160.8829 H   0  0  0  0  0  0  0  0  0  0  0  0
  153.9417  140.9502  158.3011 H   0  0  0  0  0  0  0  0  0  0  0  0
  152.8044  139.6258  158.4271 H   0  0  0  0  0  0  0  0  0  0  0  0
  151.1516  141.1262  159.5643 H   0  0  0  0  0  0  0  0  0  0  0  0
  149.1248  142.3767  155.1140 H   0  0  0  0  0  0  0  0  0  0  0  0
  145.7634  140.7290  153.3909 H   0  0  0  0  0  0  0  0  0  0  0  0
  153.2460  143.0937  159.1465 H   0  0  0  0  0  0  0  0  0  0  0  0
  1  2  1  0  0  0  0
  1 20  1  0  0  0  0
  1 21  1  0  0  0  0
  1 22  1  0  0  0  0
  2  3  1  0  0  0  0
  2 15  1  0  0  0  0
  2 23  1  0  0  0  0
  3  4  2  0  0  0  0
  3  5  1  0  0  0  0
  5  6  1  0  0  0  0
  5 24  1  0  0  0  0
  6 14  1  0  0  0  0
  6  7  1  0  0  0  0
  6 25  1  0  0  0  0
  7  8  1  0  0  0  0
  7 26  1  0  0  0  0
  7 27  1  0  0  0  0
  8  9  1  0  0  0  0
  8 28  1  0  0  0  0
  8 29  1  0  0  0  0
  9 14  1  0  0  0  0
  9 10  1  0  0  0  0
  9 41  1  0  0  0  0
 10 11  1  0  0  0  0
 10 30  1  0  0  0  0
 10 31  1  0  0  0  0
 11 12  1  0  0  0  0
 11 32  1  0  0  0  0
 11 33  1  0  0  0  0
 12 13  1  0  0  0  0
 12 34  1  0  0  0  0
 12 35  1  0  0  0  0
 13 14  1  0  0  0  0
 13 36  1  0  0  0  0
 13 37  1  0  0  0  0
 14 38  1  0  0  0  0
 15 19  1  0  0  0  0
 15 16  1  0  0  0  0
 16 17  2  0  0  0  0
 16 39  1  0  0  0  0
 17 18  1  0  0  0  0
 18 19  2  0  0  0  0
 18 40  1  0  0  0  0
M  CHG  1   9   1
M  END
> <s_m_source_file>
AV-unprocessed.smi

> <i_m_source_file_index>
1406

> <i_lp_mmshare_version>
43012

> <i_f3d_flags>
0

> <s_epik_input>
bjFbY0hdbltjSF1uMVtDQEhdKFtDSDNdKUMoPU8pW05IXVtDQEhdKFtDSDJdW0NIMl0yKVtDQEBIXShOMjMpW0NIMl1bQ0gyXVtDSDJdW0NIMl0z

> <s_epik_cmdline>
J2VwaWtfcHl0aG9uJywgJy1waCcsICc3LjAnLCAnLXRuJywgJzgnLCAnLW1hJywgJzIwMCcsICctbWV0YWxfYmluZGluZycsICctaW1hZScsICc8aW5maWxlLm1hZT4nLCAnLW9tYWUnLCAnPG91dGZpbGUubWFlPic=

> <r_lp_tautomer_probability>
1

> <r_epik_Ionization_Penalty>
0.00197066

> <r_epik_Ionization_Penalty_Charging>
0.00196223

> <r_epik_Ionization_Penalty_Neutral>
8.43107e-06

> <r_epik_State_Penalty>
0.00133866

> <r_epik_Charging_Adjusted_Penalty>
0.00330089

> <i_epik_Tot_Q>
1

> <i_epik_Tot_abs_Q>
1

> <r_epik_Metal_State_Penalty>
-0

> <b_epik_Metal_Only>
0

> <s_lp_Force_Field>
OPLS_2005

> <r_lp_Energy>
39.8871

> <b_lp_Chiralities_Consistent>
1

> <s_lp_Variant>
AV-unprocessed.smi:1406-12

> <Gold.Version>
5.8.1

> <Gold.Id.Protein>
6NUR|6NUR_protein|mol2

> <Gold.PLP.Fitness>
41.2426

> <Gold.PLP.PLP>
-34.3699

> <Gold.PLP.part.hbond>
-1.0000

> <Gold.PLP.part.metal>
0.0000

> <Gold.PLP.part.buried>
-4.2841

> <Gold.PLP.part.nonpolar>
-29.9986

> <Gold.PLP.part.repulsive>
0.4057

> <Gold.PLP.ligand.clash>
0.0000

> <Gold.PLP.ligand.torsion>
0.5796

> <Gold.PLP.Chemscore.Hbond>
0.7040

> <Gold.PLP.Chemscore.CHOScore>
1.9387

> <Gold.PLP.Chemscore.Metal>
0.0000

> <Gold.Chemscore.Hbonds>
donor molecule, donor type, donor heavy atom, donor atom, acceptor molecule, acceptor atom, score
      P1  H  7989  7998       L1     4  0.69
      L1  C    16    39       P1  8028  0.98
      L1  C    18    40       P1 10175  1.00

> <Gold.PLP.Chemscore.Internal.Correction>
0.1039

> <Gold.Rescore>
     Score         DG    S(hbond)    S(metal)    S(lipo)     H(rot)  DE(clash)    DE(int)     intcor
     13.19     -13.74       0.92        0.00      85.58       1.89       0.10       0.46       ----

> <Gold.Chemscore.Fitness>
13.1900

> <Gold.Chemscore.DG>
-13.7421

> <Gold.Chemscore.ZeroCoef>
-5.4800

> <Gold.Chemscore.Hbond>
0.9218

> <Gold.Chemscore.Metal>
0.0000

> <Gold.Chemscore.Lipo>
85.5799

> <Gold.Chemscore.Internal_Hbond>
0.0000

> <Gold.Chemscore.DEClash>
0.0963

> <Gold.Chemscore.DEInternal>
0.4558

> <Gold.Chemscore.Rot>
1.8865

> <Gold.Chemscore.Internal.Correction>
   9.000000E+99

> <Gold.Chemscore.Hbonds>
donor molecule, donor type, donor heavy atom, donor atom, acceptor molecule, acceptor atom, score
      P1  H  7989  7998       L1     4  0.65

> <Gold.Chemscore.Hbond.Weighted>
-3.0788

> <Gold.Chemscore.Metal.Weighted>
-0.0000

> <Gold.Chemscore.Lipo.Weighted>
-10.0128

> <Gold.Chemscore.Internal_Hbond.Weighted>
0.0000

> <Gold.Chemscore.DEClash.Weighted>
0.0963

> <Gold.Chemscore.DEInternal.Weighted>
0.4558

> <Gold.Chemscore.Rot.Weighted>
4.8295

> <Gold.Chemscore.Internal.Correction.Weighted>
   9.000000E+99

> <Gold.Protein.RotatedTorsions>
[ 6907 6896 6895 6894 ] final -153.78 input  -60.11 | X-H torsion
[ 7974 7965 7964 7962 ] final   64.25 input  175.53 | X-H torsion
[ 8008 7997 7996 7995 ] final   56.56 input   59.86 | X-H torsion
[ 10167 10162 10161 10158 ] final -112.46 input  -65.29 | X-H torsion
[ 10718 10713 10712 10709 ] final  129.49 input   66.30 | X-H torsion
[ 10763 10752 10751 10750 ] final -146.27 input  -60.55 | X-H torsion
[ 11005 11000 10999 10996 ] final   94.20 input  -57.11 | X-H torsion

> <Gold.Protein.ActiveResidues>
 VAL166  LYS551  ARG553  GLY616  TRP617  ASP618  TYR619  PRO620  LYS621  CYS622 
 ASP623  PHE694  ASN695  SER759  ASP760  ASP761  ALA762  ILE779  LEU786  VAL792 
 PHE793  MET794  SER795  GLU796  ALA797  LYS798  CYS799  TRP800  GLU811  SER814 

> <Gold.Protein.RotatedAtoms>
  151.2476  133.4366  159.2609 H   0  0  0  0  0  0  0  0  0  0  0  0  # atno 6907 bound_to 6896
  151.0647  134.9760  159.8288 H   0  0  0  0  0  0  0  0  0  0  0  0  # atno 6908 bound_to 6896
  152.5403  134.2425  159.8920 H   0  0  0  0  0  0  0  0  0  0  0  0  # atno 6909 bound_to 6896
  145.8523  139.3262  143.0868 H   0  0  0  0  0  0  0  0  0  0  0  0  # atno 7974 bound_to 7965
  155.5195  140.3479  155.4404 H   0  0  0  0  0  0  0  0  0  0  0  0  # atno 8008 bound_to 7997
  156.0794  140.1383  156.9758 H   0  0  0  0  0  0  0  0  0  0  0  0  # atno 8009 bound_to 7997
  154.4571  140.0949  156.6765 H   0  0  0  0  0  0  0  0  0  0  0  0  # atno 8010 bound_to 7997
  140.1225  143.4431  152.1681 H   0  0  0  0  0  0  0  0  0  0  0  0  # atno 10167 bound_to 10162
  157.5150  131.1097  150.9238 H   0  0  0  0  0  0  0  0  0  0  0  0  # atno 10718 bound_to 10713
  154.8344  135.3391  154.6635 H   0  0  0  0  0  0  0  0  0  0  0  0  # atno 10763 bound_to 10752
  153.7251  135.6955  153.5007 H   0  0  0  0  0  0  0  0  0  0  0  0  # atno 10764 bound_to 10752
  153.2353  135.4403  155.0592 H   0  0  0  0  0  0  0  0  0  0  0  0  # atno 10765 bound_to 10752
  139.8801  134.8832  156.3829 H   0  0  0  0  0  0  0  0  0  0  0  0  # atno 11005 bound_to 11000
  145.9343  140.9026  143.0340 LP  0  0  0  0  0  0  0  0  0  0  0  0  # atno 17320 bound_to 7965
  144.6729  140.1461  143.7433 LP  0  0  0  0  0  0  0  0  0  0  0  0  # atno 17321 bound_to 7965
  139.5561  144.7374  151.4290 LP  0  0  0  0  0  0  0  0  0  0  0  0  # atno 17342 bound_to 10162
  140.6864  143.7964  150.7192 LP  0  0  0  0  0  0  0  0  0  0  0  0  # atno 17343 bound_to 10162
  156.9867  130.5547  149.5300 LP  0  0  0  0  0  0  0  0  0  0  0  0  # atno 17370 bound_to 10713
  156.0314  130.5405  150.8543 LP  0  0  0  0  0  0  0  0  0  0  0  0  # atno 17371 bound_to 10713
  140.9386  133.7530  156.0117 LP  0  0  0  0  0  0  0  0  0  0  0  0  # atno 17394 bound_to 11000
  140.8246  134.3250  157.5370 LP  0  0  0  0  0  0  0  0  0  0  0  0  # atno 17395 bound_to 11000

$$$$
