AV-unprocessed.smi:751|AV-procd|sdf|3594|dock5
  -GOLD-   22720 0583D 1   1.00000     0.00000
 Structure written by MMmdl.
 32 33  0  0  0  0  0  0  0  0  1 V2000
  153.7080  137.8458  160.3120 N   0  0  0  0  0  0  0  0  0  0  0  0
  153.3866  138.9373  160.1021 C   0  0  0  0  0  0  0  0  0  0  0  0
  152.9818  140.3120  159.8379 C   0  0  0  0  0  0  0  0  0  0  0  0
  153.3763  141.3170  160.7449 C   0  0  0  0  0  0  0  0  0  0  0  0
  152.9934  142.6466  160.5053 C   0  0  0  0  0  0  0  0  0  0  0  0
  152.2240  142.9172  159.3578 C   0  0  0  0  0  0  0  0  0  0  0  0
  151.7648  144.3277  159.0162 C   0  0  0  0  0  0  0  0  0  0  0  0
  152.0791  145.1962  159.9781 F   0  0  0  0  0  0  0  0  0  0  0  0
  152.3437  144.7254  157.8828 F   0  0  0  0  0  0  0  0  0  0  0  0
  150.4419  144.3418  158.8509 F   0  0  0  0  0  0  0  0  0  0  0  0
  151.8485  141.9503  158.4924 N   0  0  0  0  0  0  0  0  0  0  0  0
  152.2051  140.6549  158.6970 C   0  0  0  0  0  0  0  0  0  0  0  0
  151.7786  139.6718  157.7542 N   0  0  0  0  0  0  0  0  0  0  0  0
  150.5247  139.9798  157.0739 C   0  0  0  0  0  0  0  0  0  0  0  0
  151.1650  139.3826  155.8231 C   0  0  0  0  0  0  0  0  0  0  0  0
  150.9322  140.1784  154.6736 O   0  0  0  0  0  0  0  0  0  0  0  0
  149.5523  140.4023  154.4292 C   0  0  0  0  0  0  0  0  0  0  0  0
  148.8660  139.0611  154.1736 C   0  0  0  0  0  0  0  0  0  0  0  0
  148.4744  138.8045  152.9224 N   0  0  0  0  0  0  0  0  0  0  0  0
  148.7048  138.2590  155.0906 O   0  0  0  0  0  0  0  0  0  0  0  0
  152.5152  139.6386  156.4937 C   0  0  0  0  0  0  0  0  0  0  0  0
  153.9668  141.0759  161.6174 H   0  0  0  0  0  0  0  0  0  0  0  0
  153.2864  143.4299  161.1886 H   0  0  0  0  0  0  0  0  0  0  0  0
  149.6715  139.4167  157.4522 H   0  0  0  0  0  0  0  0  0  0  0  0
  150.3102  141.0457  156.9819 H   0  0  0  0  0  0  0  0  0  0  0  0
  150.9295  138.3238  155.6929 H   0  0  0  0  0  0  0  0  0  0  0  0
  149.0784  140.8836  155.2860 H   0  0  0  0  0  0  0  0  0  0  0  0
  149.4242  141.0554  153.5645 H   0  0  0  0  0  0  0  0  0  0  0  0
  148.0226  137.9268  152.7087 H   0  0  0  0  0  0  0  0  0  0  0  0
  148.6371  139.4853  152.1950 H   0  0  0  0  0  0  0  0  0  0  0  0
  152.9677  140.5864  156.1984 H   0  0  0  0  0  0  0  0  0  0  0  0
  153.2148  138.8059  156.4178 H   0  0  0  0  0  0  0  0  0  0  0  0
  1  2  3  0  0  0  0
  2  3  1  0  0  0  0
  3 12  1  0  0  0  0
  3  4  2  0  0  0  0
  4  5  1  0  0  0  0
  4 22  1  0  0  0  0
  5  6  2  0  0  0  0
  5 23  1  0  0  0  0
  6  7  1  0  0  0  0
  6 11  1  0  0  0  0
  7  8  1  0  0  0  0
  7  9  1  0  0  0  0
  7 10  1  0  0  0  0
 11 12  2  0  0  0  0
 12 13  1  0  0  0  0
 13 21  1  0  0  0  0
 13 14  1  0  0  0  0
 14 15  1  0  0  0  0
 14 24  1  0  0  0  0
 14 25  1  0  0  0  0
 15 16  1  0  0  0  0
 15 21  1  0  0  0  0
 15 26  1  0  0  0  0
 16 17  1  0  0  0  0
 17 18  1  0  0  0  0
 17 27  1  0  0  0  0
 17 28  1  0  0  0  0
 18 19  1  0  0  0  0
 18 20  2  0  0  0  0
 19 29  1  0  0  0  0
 19 30  1  0  0  0  0
 21 31  1  0  0  0  0
 21 32  1  0  0  0  0
M  END
> <s_m_source_file>
AV-unprocessed.smi

> <i_m_source_file_index>
751

> <i_lp_mmshare_version>
43012

> <i_f3d_flags>
0

> <s_epik_input>
TiNDYzFbY0hdW2NIXWMoQyhGKShGKUYpbmMxTjJbQ0gyXVtDSF0oW0NIMl0yKU9bQ0gyXUMoPU8pW05IMl0=

> <s_epik_cmdline>
J2VwaWtfcHl0aG9uJywgJy1waCcsICc3LjAnLCAnLXRuJywgJzgnLCAnLW1hJywgJzIwMCcsICctbWV0YWxfYmluZGluZycsICctaW1hZScsICc8aW5maWxlLm1hZT4nLCAnLW9tYWUnLCAnPG91dGZpbGUubWFlPic=

> <r_lp_tautomer_probability>
1

> <r_epik_Ionization_Penalty>
6.47511e-08

> <r_epik_Ionization_Penalty_Charging>
0

> <r_epik_Ionization_Penalty_Neutral>
6.47511e-08

> <r_epik_State_Penalty>
-0

> <r_epik_Charging_Adjusted_Penalty>
0

> <i_epik_Tot_Q>
0

> <i_epik_Tot_abs_Q>
0

> <r_epik_Metal_State_Penalty>
-0

> <b_epik_Metal_Only>
0

> <s_lp_Force_Field>
OPLS_2005

> <r_lp_Energy>
25.0077

> <b_lp_Chiralities_Consistent>
1

> <s_lp_Variant>
AV-unprocessed.smi:751-1

> <Gold.Version>
5.8.1

> <Gold.Id.Protein>
6NUR|6NUR_protein|mol2

> <Gold.PLP.Fitness>
50.6363

> <Gold.PLP.PLP>
-44.7518

> <Gold.PLP.part.hbond>
-2.8200

> <Gold.PLP.part.metal>
0.0000

> <Gold.PLP.part.buried>
-3.6925

> <Gold.PLP.part.nonpolar>
-38.2090

> <Gold.PLP.part.repulsive>
0.2588

> <Gold.PLP.ligand.clash>
0.0000

> <Gold.PLP.ligand.torsion>
0.9530

> <Gold.PLP.Chemscore.Hbond>
2.4720

> <Gold.PLP.Chemscore.CHOScore>
0.0000

> <Gold.PLP.Chemscore.Metal>
0.0000

> <Gold.Chemscore.Hbonds>
donor molecule, donor type, donor heavy atom, donor atom, acceptor molecule, acceptor atom, score
      L1  H    19    29       P1  7948  0.42
      L1  H    19    30       P1  7957  0.91
      P1  H  7989  7998       L1    16  1.00

> <Gold.PLP.Chemscore.Internal.Correction>
0.3744

> <Gold.Rescore>
     Score         DG    S(hbond)    S(metal)    S(lipo)     H(rot)  DE(clash)    DE(int)     intcor
     13.39     -15.56       2.45        0.00      72.74       2.59       0.01       2.16       ----

> <Gold.Chemscore.Fitness>
13.3904

> <Gold.Chemscore.DG>
-15.5555

> <Gold.Chemscore.ZeroCoef>
-5.4800

> <Gold.Chemscore.Hbond>
2.4527

> <Gold.Chemscore.Metal>
0.0000

> <Gold.Chemscore.Lipo>
72.7409

> <Gold.Chemscore.Internal_Hbond>
0.0000

> <Gold.Chemscore.DEClash>
0.0060

> <Gold.Chemscore.DEInternal>
2.1591

> <Gold.Chemscore.Rot>
2.5888

> <Gold.Chemscore.Internal.Correction>
   9.000000E+99

> <Gold.Chemscore.Hbonds>
donor molecule, donor type, donor heavy atom, donor atom, acceptor molecule, acceptor atom, score
      L1  H    19    29       P1  7948  0.41
      L1  H    19    30       P1  7957  0.82
      P1  H  7989  7998       L1    16  0.42

> <Gold.Chemscore.Hbond.Weighted>
-8.1921

> <Gold.Chemscore.Metal.Weighted>
-0.0000

> <Gold.Chemscore.Lipo.Weighted>
-8.5107

> <Gold.Chemscore.Internal_Hbond.Weighted>
0.0000

> <Gold.Chemscore.DEClash.Weighted>
0.0060

> <Gold.Chemscore.DEInternal.Weighted>
2.1591

> <Gold.Chemscore.Rot.Weighted>
6.6272

> <Gold.Chemscore.Internal.Correction.Weighted>
   9.000000E+99

> <Gold.Protein.RotatedTorsions>
[ 6907 6896 6895 6894 ] final   46.06 input  -60.11 | X-H torsion
[ 7974 7965 7964 7962 ] final  179.31 input  175.53 | X-H torsion
[ 8008 7997 7996 7995 ] final -150.47 input   59.86 | X-H torsion
[ 10167 10162 10161 10158 ] final  -75.19 input  -65.29 | X-H torsion
[ 10718 10713 10712 10709 ] final -172.53 input   66.30 | X-H torsion
[ 10763 10752 10751 10750 ] final  -41.24 input  -60.55 | X-H torsion
[ 11005 11000 10999 10996 ] final  117.88 input  -57.11 | X-H torsion

> <Gold.Protein.ActiveResidues>
 VAL166  LYS551  ARG553  GLY616  TRP617  ASP618  TYR619  PRO620  LYS621  CYS622 
 ASP623  PHE694  ASN695  SER759  ASP760  ASP761  ALA762  ILE779  LEU786  VAL792 
 PHE793  MET794  SER795  GLU796  ALA797  LYS798  CYS799  TRP800  GLU811  SER814 

> <Gold.Protein.RotatedAtoms>
  152.2519  134.8124  160.0444 H   0  0  0  0  0  0  0  0  0  0  0  0  # atno 6907 bound_to 6896
  151.8801  133.3488  159.3771 H   0  0  0  0  0  0  0  0  0  0  0  0  # atno 6908 bound_to 6896
  150.7087  134.4954  159.5580 H   0  0  0  0  0  0  0  0  0  0  0  0  # atno 6909 bound_to 6896
  144.7147  140.0529  143.6435 H   0  0  0  0  0  0  0  0  0  0  0  0  # atno 7974 bound_to 7965
  155.6240  140.0684  157.2669 H   0  0  0  0  0  0  0  0  0  0  0  0  # atno 8008 bound_to 7997
  154.4222  140.1779  156.1450 H   0  0  0  0  0  0  0  0  0  0  0  0  # atno 8009 bound_to 7997
  155.9986  140.3338  155.6827 H   0  0  0  0  0  0  0  0  0  0  0  0  # atno 8010 bound_to 7997
  140.4964  143.2370  151.7824 H   0  0  0  0  0  0  0  0  0  0  0  0  # atno 10167 bound_to 10162
  156.7569  130.9399  151.3116 H   0  0  0  0  0  0  0  0  0  0  0  0  # atno 10718 bound_to 10713
  153.9592  135.6741  153.4745 H   0  0  0  0  0  0  0  0  0  0  0  0  # atno 10763 bound_to 10752
  153.0846  135.4905  154.8568 H   0  0  0  0  0  0  0  0  0  0  0  0  # atno 10764 bound_to 10752
  154.7282  135.3132  154.8896 H   0  0  0  0  0  0  0  0  0  0  0  0  # atno 10765 bound_to 10752
  139.9090  134.9615  156.7418 H   0  0  0  0  0  0  0  0  0  0  0  0  # atno 11005 bound_to 11000
  145.9929  139.3029  143.0974 LP  0  0  0  0  0  0  0  0  0  0  0  0  # atno 17320 bound_to 7965
  145.8882  140.9320  143.0566 LP  0  0  0  0  0  0  0  0  0  0  0  0  # atno 17321 bound_to 7965
  139.4862  144.4581  151.9574 LP  0  0  0  0  0  0  0  0  0  0  0  0  # atno 17342 bound_to 10162
  140.3669  144.2904  150.5925 LP  0  0  0  0  0  0  0  0  0  0  0  0  # atno 17343 bound_to 10162
  157.6752  130.9088  150.0134 LP  0  0  0  0  0  0  0  0  0  0  0  0  # atno 17370 bound_to 10713
  156.1365  130.3642  149.9650 LP  0  0  0  0  0  0  0  0  0  0  0  0  # atno 17371 bound_to 10713
  140.6843  133.9446  155.7929 LP  0  0  0  0  0  0  0  0  0  0  0  0  # atno 17394 bound_to 11000
  141.0487  134.0516  157.3811 LP  0  0  0  0  0  0  0  0  0  0  0  0  # atno 17395 bound_to 11000

$$$$
