AV-unprocessed.smi:1271|AV-procd|sdf|5333|dock8
  -GOLD-   22720 4463D 1   1.00000     0.00000
 Structure written by MMmdl.
 35 36  0  0  0  0  0  0  0  0  1 V2000
  147.6219  141.9902  156.3528 C   0  0  0  0  0  0  0  0  0  0  0  0
  149.0206  141.3540  156.3611 C   0  0  1  0  0  0  0  0  0  0  0  0
  149.4659  140.9491  154.9425 C   0  0  0  0  0  0  0  0  0  0  0  0
  150.2740  139.7418  154.9427 N   0  0  0  0  0  0  0  0  0  0  0  0
  149.8640  138.4381  155.1262 C   0  0  0  0  0  0  0  0  0  0  0  0
  150.9767  137.6495  155.0613 C   0  0  0  0  0  0  0  0  0  0  0  0
  152.0337  138.5741  154.8318 C   0  0  0  0  0  0  0  0  0  0  0  0
  151.6101  139.8255  154.7590 N   0  0  0  0  0  0  0  0  0  0  0  0
  149.9900  142.2819  156.9377 N   0  0  0  0  0  0  0  0  0  0  0  0
  150.8604  142.0059  157.9230 C   0  0  0  0  0  0  0  0  0  0  0  0
  150.8834  140.9129  158.4907 O   0  0  0  0  0  0  0  0  0  0  0  0
  151.7048  143.0229  158.2311 N   0  0  0  0  0  0  0  0  0  0  0  0
  151.6094  144.4072  157.7382 C   0  0  0  0  0  0  0  0  0  0  0  0
  150.9142  145.2709  158.8031 C   0  0  0  0  0  0  0  0  0  0  0  0
  151.8930  145.3233  160.3371 S   0  0  0  0  0  0  0  0  0  0  0  0
  152.1919  143.5428  160.5739 C   0  0  0  0  0  0  0  0  0  0  0  0
  152.7196  142.8926  159.2834 C   0  0  0  0  0  0  0  0  0  0  0  0
  146.8844  141.3083  155.9286 H   0  0  0  0  0  0  0  0  0  0  0  0
  147.6057  142.9068  155.7625 H   0  0  0  0  0  0  0  0  0  0  0  0
  147.2940  142.2383  157.3627 H   0  0  0  0  0  0  0  0  0  0  0  0
  148.9819  140.4511  156.9736 H   0  0  0  0  0  0  0  0  0  0  0  0
  148.5936  140.7676  154.3135 H   0  0  0  0  0  0  0  0  0  0  0  0
  150.0281  141.7560  154.4686 H   0  0  0  0  0  0  0  0  0  0  0  0
  148.8271  138.1841  155.2900 H   0  0  0  0  0  0  0  0  0  0  0  0
  151.0283  136.5757  155.1644 H   0  0  0  0  0  0  0  0  0  0  0  0
  153.0890  138.3745  154.7176 H   0  0  0  0  0  0  0  0  0  0  0  0
  150.0358  143.2003  156.5203 H   0  0  0  0  0  0  0  0  0  0  0  0
  152.6076  144.7986  157.5363 H   0  0  0  0  0  0  0  0  0  0  0  0
  151.0828  144.4889  156.7871 H   0  0  0  0  0  0  0  0  0  0  0  0
  150.7799  146.2896  158.4393 H   0  0  0  0  0  0  0  0  0  0  0  0
  149.9218  144.8765  159.0249 H   0  0  0  0  0  0  0  0  0  0  0  0
  152.9079  143.4132  161.3857 H   0  0  0  0  0  0  0  0  0  0  0  0
  151.2633  143.0648  160.8880 H   0  0  0  0  0  0  0  0  0  0  0  0
  152.9815  141.8507  159.4728 H   0  0  0  0  0  0  0  0  0  0  0  0
  153.6490  143.3714  158.9720 H   0  0  0  0  0  0  0  0  0  0  0  0
  1  2  1  0  0  0  0
  1 18  1  0  0  0  0
  1 19  1  0  0  0  0
  1 20  1  0  0  0  0
  2  3  1  0  0  0  0
  2  9  1  0  0  0  0
  2 21  1  0  0  0  0
  3  4  1  0  0  0  0
  3 22  1  0  0  0  0
  3 23  1  0  0  0  0
  4  8  1  0  0  0  0
  4  5  1  0  0  0  0
  5  6  2  0  0  0  0
  5 24  1  0  0  0  0
  6  7  1  0  0  0  0
  6 25  1  0  0  0  0
  7  8  2  0  0  0  0
  7 26  1  0  0  0  0
  9 10  1  0  0  0  0
  9 27  1  0  0  0  0
 10 11  2  0  0  0  0
 10 12  1  0  0  0  0
 12 17  1  0  0  0  0
 12 13  1  0  0  0  0
 13 14  1  0  0  0  0
 13 28  1  0  0  0  0
 13 29  1  0  0  0  0
 14 15  1  0  0  0  0
 14 30  1  0  0  0  0
 14 31  1  0  0  0  0
 15 16  1  0  0  0  0
 16 17  1  0  0  0  0
 16 32  1  0  0  0  0
 16 33  1  0  0  0  0
 17 34  1  0  0  0  0
 17 35  1  0  0  0  0
M  END
> <s_m_source_file>
AV-unprocessed.smi

> <i_m_source_file_index>
1271

> <i_lp_mmshare_version>
43012

> <i_f3d_flags>
0

> <s_epik_input>
bjFbY0hdW2NIXVtjSF1uMVtDSDJdW0NAQEhdKFtDSDNdKVtOSF1DKD1PKU4yW0NIMl1bQ0gyXVNbQ0gyXVtDSDJdMg==

> <s_epik_cmdline>
J2VwaWtfcHl0aG9uJywgJy1waCcsICc3LjAnLCAnLXRuJywgJzgnLCAnLW1hJywgJzIwMCcsICctbWV0YWxfYmluZGluZycsICctaW1hZScsICc8aW5maWxlLm1hZT4nLCAnLW9tYWUnLCAnPG91dGZpbGUubWFlPic=

> <r_lp_tautomer_probability>
1

> <r_epik_Ionization_Penalty>
5.86346e-05

> <r_epik_Ionization_Penalty_Charging>
0

> <r_epik_Ionization_Penalty_Neutral>
5.86346e-05

> <r_epik_State_Penalty>
-0

> <r_epik_Charging_Adjusted_Penalty>
0

> <i_epik_Tot_Q>
0

> <i_epik_Tot_abs_Q>
0

> <r_epik_Metal_State_Penalty>
-0

> <b_epik_Metal_Only>
0

> <s_lp_Force_Field>
OPLS_2005

> <r_lp_Energy>
23.1202

> <b_lp_Chiralities_Consistent>
1

> <s_lp_Variant>
AV-unprocessed.smi:1271-2

> <Gold.Version>
5.8.1

> <Gold.Id.Protein>
6NUR|6NUR_protein|mol2

> <Gold.PLP.Fitness>
45.0731

> <Gold.PLP.PLP>
-41.1660

> <Gold.PLP.part.hbond>
-1.9147

> <Gold.PLP.part.metal>
0.0000

> <Gold.PLP.part.buried>
-3.9922

> <Gold.PLP.part.nonpolar>
-35.1363

> <Gold.PLP.part.repulsive>
0.0908

> <Gold.PLP.ligand.clash>
0.0000

> <Gold.PLP.ligand.torsion>
0.7428

> <Gold.PLP.Chemscore.Hbond>
1.7865

> <Gold.PLP.Chemscore.CHOScore>
0.0000

> <Gold.PLP.Chemscore.Metal>
0.0000

> <Gold.Chemscore.Hbonds>
donor molecule, donor type, donor heavy atom, donor atom, acceptor molecule, acceptor atom, score
      L1  H     9    27       P1  8028  0.76
      P1  H  7989  7998       L1     8  1.00

> <Gold.PLP.Chemscore.Internal.Correction>
0.0330

> <Gold.Rescore>
     Score         DG    S(hbond)    S(metal)    S(lipo)     H(rot)  DE(clash)    DE(int)     intcor
     18.25     -19.00       1.93        0.00      91.21       1.41       0.14       0.61       ----

> <Gold.Chemscore.Fitness>
18.2509

> <Gold.Chemscore.DG>
-19.0008

> <Gold.Chemscore.ZeroCoef>
-5.4800

> <Gold.Chemscore.Hbond>
1.9314

> <Gold.Chemscore.Metal>
0.0000

> <Gold.Chemscore.Lipo>
91.2109

> <Gold.Chemscore.Internal_Hbond>
0.0000

> <Gold.Chemscore.DEClash>
0.1426

> <Gold.Chemscore.DEInternal>
0.6073

> <Gold.Chemscore.Rot>
1.4069

> <Gold.Chemscore.Internal.Correction>
   9.000000E+99

> <Gold.Chemscore.Hbonds>
donor molecule, donor type, donor heavy atom, donor atom, acceptor molecule, acceptor atom, score
      L1  H     9    27       P1  8028  0.73
      P1  H  7989  7998       L1     8  0.25

> <Gold.Chemscore.Hbond.Weighted>
-6.4508

> <Gold.Chemscore.Metal.Weighted>
-0.0000

> <Gold.Chemscore.Lipo.Weighted>
-10.6717

> <Gold.Chemscore.Internal_Hbond.Weighted>
0.0000

> <Gold.Chemscore.DEClash.Weighted>
0.1426

> <Gold.Chemscore.DEInternal.Weighted>
0.6073

> <Gold.Chemscore.Rot.Weighted>
3.6017

> <Gold.Chemscore.Internal.Correction.Weighted>
   9.000000E+99

> <Gold.Protein.RotatedTorsions>
[ 6907 6896 6895 6894 ] final   80.04 input  -60.11 | X-H torsion
[ 7974 7965 7964 7962 ] final  -29.84 input  175.53 | X-H torsion
[ 8008 7997 7996 7995 ] final    5.22 input   59.86 | X-H torsion
[ 10167 10162 10161 10158 ] final -105.13 input  -65.29 | X-H torsion
[ 10718 10713 10712 10709 ] final  128.15 input   66.30 | X-H torsion
[ 10763 10752 10751 10750 ] final  -31.32 input  -60.55 | X-H torsion
[ 11005 11000 10999 10996 ] final  -20.35 input  -57.11 | X-H torsion

> <Gold.Protein.ActiveResidues>
 VAL166  LYS551  ARG553  GLY616  TRP617  ASP618  TYR619  PRO620  LYS621  CYS622 
 ASP623  PHE694  ASN695  SER759  ASP760  ASP761  ALA762  ILE779  LEU786  VAL792 
 PHE793  MET794  SER795  GLU796  ALA797  LYS798  CYS799  TRP800  GLU811  SER814 

> <Gold.Protein.RotatedAtoms>
  152.5220  134.3419  159.9219 H   0  0  0  0  0  0  0  0  0  0  0  0  # atno 6907 bound_to 6896
  151.3369  133.3972  159.2675 H   0  0  0  0  0  0  0  0  0  0  0  0  # atno 6908 bound_to 6896
  150.9835  134.9203  159.7916 H   0  0  0  0  0  0  0  0  0  0  0  0  # atno 6909 bound_to 6896
  146.1187  140.5464  142.8745 H   0  0  0  0  0  0  0  0  0  0  0  0  # atno 7974 bound_to 7965
  154.7256  140.2720  155.6502 H   0  0  0  0  0  0  0  0  0  0  0  0  # atno 8008 bound_to 7997
  156.2836  140.2726  156.1866 H   0  0  0  0  0  0  0  0  0  0  0  0  # atno 8009 bound_to 7997
  155.0449  140.0371  157.2513 H   0  0  0  0  0  0  0  0  0  0  0  0  # atno 8010 bound_to 7997
  140.2019  143.3812  152.1122 H   0  0  0  0  0  0  0  0  0  0  0  0  # atno 10167 bound_to 10162
  157.5270  131.1098  150.9067 H   0  0  0  0  0  0  0  0  0  0  0  0  # atno 10718 bound_to 10713
  153.7954  135.6894  153.4864 H   0  0  0  0  0  0  0  0  0  0  0  0  # atno 10763 bound_to 10752
  153.1722  135.4538  154.9917 H   0  0  0  0  0  0  0  0  0  0  0  0  # atno 10764 bound_to 10752
  154.8028  135.3344  154.7447 H   0  0  0  0  0  0  0  0  0  0  0  0  # atno 10765 bound_to 10752
  140.8455  133.7894  155.9908 H   0  0  0  0  0  0  0  0  0  0  0  0  # atno 11005 bound_to 11000
  144.7576  140.5346  143.6758 LP  0  0  0  0  0  0  0  0  0  0  0  0  # atno 17320 bound_to 7965
  145.5513  139.1477  143.3393 LP  0  0  0  0  0  0  0  0  0  0  0  0  # atno 17321 bound_to 7965
  139.5214  144.7045  151.5395 LP  0  0  0  0  0  0  0  0  0  0  0  0  # atno 17342 bound_to 10162
  140.6384  143.8937  150.6669 LP  0  0  0  0  0  0  0  0  0  0  0  0  # atno 17343 bound_to 10162
  156.9660  130.5473  149.5288 LP  0  0  0  0  0  0  0  0  0  0  0  0  # atno 17370 bound_to 10713
  156.0394  130.5478  150.8735 LP  0  0  0  0  0  0  0  0  0  0  0  0  # atno 17371 bound_to 10713
  140.8848  134.2568  157.5126 LP  0  0  0  0  0  0  0  0  0  0  0  0  # atno 17394 bound_to 11000
  139.8703  134.9632  156.4456 LP  0  0  0  0  0  0  0  0  0  0  0  0  # atno 17395 bound_to 11000

$$$$
