AV-unprocessed.smi:2568|AV-procd|sdf|10097|dock2
  -GOLD-   2272014113D 1   1.00000     0.00000
 Structure written by MMmdl.
 24 25  0  0  0  0  0  0  0  0  1 V2000
  146.5483  142.7194  155.2687 C   0  0  0  0  0  0  0  0  0  0  0  0
  147.5152  141.7078  154.7547 C   0  0  0  0  0  0  0  0  0  0  0  0
  147.5584  141.3849  153.4633 N   0  0  0  0  0  0  0  0  0  0  0  0
  148.5425  140.4615  153.4390 N   0  0  0  0  0  0  0  0  0  0  0  0
  149.0160  140.2847  154.6745 C   0  0  0  0  0  0  0  0  0  0  0  0
  150.1266  139.3259  154.9674 C   0  0  1  0  0  0  0  0  0  0  0  0
  150.4198  138.3857  153.7818 C   0  0  0  0  0  0  0  0  0  0  0  0
  151.5639  137.5287  154.0877 N   0  0  0  0  0  0  0  0  0  0  0  0
  152.7332  138.3233  154.4610 C   0  0  0  0  0  0  0  0  0  0  0  0
  152.3873  139.2734  155.6220 C   0  0  0  0  0  0  0  0  0  0  0  0
  151.2886  140.1001  155.2529 O   0  0  0  0  0  0  0  0  0  0  0  0
  148.4023  141.0578  155.5664 N   0  0  0  0  0  0  0  0  0  0  0  0
  148.8433  139.9970  152.5941 H   0  0  0  0  0  0  0  0  0  0  0  0
  146.0823  143.2654  154.4476 H   0  0  0  0  0  0  0  0  0  0  0  0
  147.0579  143.4365  155.9127 H   0  0  0  0  0  0  0  0  0  0  0  0
  145.7647  142.2298  155.8470 H   0  0  0  0  0  0  0  0  0  0  0  0
  149.8550  138.7432  155.8500 H   0  0  0  0  0  0  0  0  0  0  0  0
  149.5438  137.7755  153.5597 H   0  0  0  0  0  0  0  0  0  0  0  0
  150.6286  138.9737  152.8871 H   0  0  0  0  0  0  0  0  0  0  0  0
  151.7861  136.9566  153.2791 H   0  0  0  0  0  0  0  0  0  0  0  0
  153.5564  137.6672  154.7448 H   0  0  0  0  0  0  0  0  0  0  0  0
  153.0763  138.9038  153.6040 H   0  0  0  0  0  0  0  0  0  0  0  0
  152.1511  138.7140  156.5288 H   0  0  0  0  0  0  0  0  0  0  0  0
  153.2428  139.9077  155.8542 H   0  0  0  0  0  0  0  0  0  0  0  0
  1  2  1  0  0  0  0
  1 14  1  0  0  0  0
  1 15  1  0  0  0  0
  1 16  1  0  0  0  0
  2 12  1  0  0  0  0
  2  3  2  0  0  0  0
  3  4  1  0  0  0  0
  4 13  1  0  0  0  0
  4  5  1  0  0  0  0
  5  6  1  0  0  0  0
  5 12  2  0  0  0  0
  6 11  1  0  0  0  0
  6  7  1  0  0  0  0
  6 17  1  0  0  0  0
  7  8  1  0  0  0  0
  7 18  1  0  0  0  0
  7 19  1  0  0  0  0
  8  9  1  0  0  0  0
  8 20  1  0  0  0  0
  9 10  1  0  0  0  0
  9 21  1  0  0  0  0
  9 22  1  0  0  0  0
 10 11  1  0  0  0  0
 10 23  1  0  0  0  0
 10 24  1  0  0  0  0
M  END
> <s_m_source_file>
AV-unprocessed.smi

> <i_m_source_file_index>
2568

> <i_lp_mmshare_version>
43012

> <i_f3d_flags>
0

> <s_epik_input>
W0NIM11jMW5bbkhdYyhuMSlbQ0BASF0yW0NIMl1bTkhdW0NIMl1bQ0gyXU8y

> <s_epik_cmdline>
J2VwaWtfcHl0aG9uJywgJy1waCcsICc3LjAnLCAnLXRuJywgJzgnLCAnLW1hJywgJzIwMCcsICctbWV0YWxfYmluZGluZycsICctaW1hZScsICc8aW5maWxlLm1hZT4nLCAnLW9tYWUnLCAnPG91dGZpbGUubWFlPic=

> <r_lp_tautomer_probability>
0.948284

> <r_epik_Ionization_Penalty>
0.982563

> <r_epik_Ionization_Penalty_Charging>
0

> <r_epik_Ionization_Penalty_Neutral>
0.982563

> <r_epik_State_Penalty>
2.21233

> <r_epik_Charging_Adjusted_Penalty>
2.21233

> <i_epik_Tot_Q>
0

> <i_epik_Tot_abs_Q>
0

> <r_epik_Metal_State_Penalty>
2.51138

> <b_epik_Metal_Only>
0

> <s_lp_Force_Field>
OPLS_2005

> <r_lp_Energy>
12.795

> <b_lp_Chiralities_Consistent>
1

> <s_lp_Variant>
AV-unprocessed.smi:2568-10

> <Gold.Version>
5.8.1

> <Gold.Id.Protein>
6NUR|6NUR_protein|mol2

> <Gold.PLP.Fitness>
28.9114

> <Gold.PLP.PLP>
-21.3002

> <Gold.PLP.part.hbond>
-3.1688

> <Gold.PLP.part.metal>
0.0000

> <Gold.PLP.part.buried>
-1.9066

> <Gold.PLP.part.nonpolar>
-15.6975

> <Gold.PLP.part.repulsive>
0.4237

> <Gold.PLP.ligand.clash>
0.0000

> <Gold.PLP.ligand.torsion>
0.2565

> <Gold.PLP.Chemscore.Hbond>
2.7078

> <Gold.PLP.Chemscore.CHOScore>
0.0000

> <Gold.PLP.Chemscore.Metal>
0.0000

> <Gold.Chemscore.Hbonds>
donor molecule, donor type, donor heavy atom, donor atom, acceptor molecule, acceptor atom, score
      L1  H     4    13       P1  7957  1.00
      L1  H     8    20       P1  7949  0.76
      P1  H  7989  7998       L1    11  1.00

> <Gold.PLP.Chemscore.Internal.Correction>
0.0008

> <Gold.Rescore>
     Score         DG    S(hbond)    S(metal)    S(lipo)     H(rot)  DE(clash)    DE(int)     intcor
     14.43     -15.63       2.46        0.00      38.34       1.00       0.64       0.56       ----

> <Gold.Chemscore.Fitness>
14.4295

> <Gold.Chemscore.DG>
-15.6307

> <Gold.Chemscore.ZeroCoef>
-5.4800

> <Gold.Chemscore.Hbond>
2.4624

> <Gold.Chemscore.Metal>
0.0000

> <Gold.Chemscore.Lipo>
38.3436

> <Gold.Chemscore.Internal_Hbond>
0.0000

> <Gold.Chemscore.DEClash>
0.6414

> <Gold.Chemscore.DEInternal>
0.5598

> <Gold.Chemscore.Rot>
1.0000

> <Gold.Chemscore.Internal.Correction>
   9.000000E+99

> <Gold.Chemscore.Hbonds>
donor molecule, donor type, donor heavy atom, donor atom, acceptor molecule, acceptor atom, score
      L1  H     4    13       P1  7957  0.94
      L1  H     8    20       P1  7949  0.72
      P1  H  7989  7998       L1    11  0.20

> <Gold.Chemscore.Hbond.Weighted>
-8.2245

> <Gold.Chemscore.Metal.Weighted>
-0.0000

> <Gold.Chemscore.Lipo.Weighted>
-4.4862

> <Gold.Chemscore.Internal_Hbond.Weighted>
0.0000

> <Gold.Chemscore.DEClash.Weighted>
0.6414

> <Gold.Chemscore.DEInternal.Weighted>
0.5598

> <Gold.Chemscore.Rot.Weighted>
2.5600

> <Gold.Chemscore.Internal.Correction.Weighted>
   9.000000E+99

> <Gold.Protein.RotatedTorsions>
[ 6907 6896 6895 6894 ] final  -81.66 input  -60.11 | X-H torsion
[ 7974 7965 7964 7962 ] final   38.50 input  175.53 | X-H torsion
[ 8008 7997 7996 7995 ] final   84.18 input   59.86 | X-H torsion
[ 10167 10162 10161 10158 ] final  132.88 input  -65.29 | X-H torsion
[ 10718 10713 10712 10709 ] final  -80.65 input   66.30 | X-H torsion
[ 10763 10752 10751 10750 ] final   74.96 input  -60.55 | X-H torsion
[ 11005 11000 10999 10996 ] final  -84.01 input  -57.11 | X-H torsion

> <Gold.Protein.ActiveResidues>
 VAL166  LYS551  ARG553  GLY616  TRP617  ASP618  TYR619  PRO620  LYS621  CYS622 
 ASP623  PHE694  ASN695  SER759  ASP760  ASP761  ALA762  ILE779  LEU786  VAL792 
 PHE793  MET794  SER795  GLU796  ALA797  LYS798  CYS799  TRP800  GLU811  SER814 

> <Gold.Protein.RotatedAtoms>
  150.6908  134.3784  159.5022 H   0  0  0  0  0  0  0  0  0  0  0  0  # atno 6907 bound_to 6896
  152.1590  134.8925  160.0552 H   0  0  0  0  0  0  0  0  0  0  0  0  # atno 6908 bound_to 6896
  151.9994  133.3785  159.4212 H   0  0  0  0  0  0  0  0  0  0  0  0  # atno 6909 bound_to 6896
  146.1057  139.5764  142.9385 H   0  0  0  0  0  0  0  0  0  0  0  0  # atno 7974 bound_to 7965
  155.9337  140.3413  155.6270 H   0  0  0  0  0  0  0  0  0  0  0  0  # atno 8008 bound_to 7997
  155.7126  140.0773  157.2383 H   0  0  0  0  0  0  0  0  0  0  0  0  # atno 8009 bound_to 7997
  154.4089  140.1620  156.2300 H   0  0  0  0  0  0  0  0  0  0  0  0  # atno 8010 bound_to 7997
  139.5321  144.6642  151.4915 H   0  0  0  0  0  0  0  0  0  0  0  0  # atno 10167 bound_to 10162
  156.0066  130.4580  150.3832 H   0  0  0  0  0  0  0  0  0  0  0  0  # atno 10718 bound_to 10713
  153.0622  135.5006  154.8119 H   0  0  0  0  0  0  0  0  0  0  0  0  # atno 10763 bound_to 10752
  154.6900  135.2983  154.9495 H   0  0  0  0  0  0  0  0  0  0  0  0  # atno 10764 bound_to 10752
  154.0253  135.6736  153.4829 H   0  0  0  0  0  0  0  0  0  0  0  0  # atno 10765 bound_to 10752
  141.1654  133.7324  156.8805 H   0  0  0  0  0  0  0  0  0  0  0  0  # atno 11005 bound_to 11000
  145.5766  141.0388  143.2145 LP  0  0  0  0  0  0  0  0  0  0  0  0  # atno 17320 bound_to 7965
  144.7469  139.7297  143.7289 LP  0  0  0  0  0  0  0  0  0  0  0  0  # atno 17321 bound_to 7965
  140.6505  143.8706  150.6781 LP  0  0  0  0  0  0  0  0  0  0  0  0  # atno 17342 bound_to 10162
  140.2069  143.3914  152.1748 LP  0  0  0  0  0  0  0  0  0  0  0  0  # atno 17343 bound_to 10162
  157.1911  131.0415  151.2699 LP  0  0  0  0  0  0  0  0  0  0  0  0  # atno 17370 bound_to 10713
  157.4060  130.7359  149.6803 LP  0  0  0  0  0  0  0  0  0  0  0  0  # atno 17371 bound_to 10713
  140.1718  134.9094  157.2842 LP  0  0  0  0  0  0  0  0  0  0  0  0  # atno 17394 bound_to 11000
  140.2493  134.3702  155.7448 LP  0  0  0  0  0  0  0  0  0  0  0  0  # atno 17395 bound_to 11000

$$$$
