AV-unprocessed.smi:3274|AV-procd|sdf|12524|dock6
  -GOLD-   2272018443D 1   1.00000     0.00000
 Structure written by MMmdl.
 43 44  0  0  0  0  0  0  0  0  2 V2000
  153.7815  140.6518  160.3600 C   0  0  0  0  0  0  0  0  0  0  0  0
  153.0300  141.9727  160.3856 C   0  0  0  0  0  0  0  0  0  0  0  0
  152.9536  142.6750  161.5323 C   0  0  0  0  0  0  0  0  0  0  0  0
  152.2996  144.0316  161.6597 C   0  0  0  0  0  0  0  0  0  0  0  0
  152.1822  144.7165  160.2961 C   0  0  0  0  0  0  0  0  0  0  0  0
  151.5668  143.7756  159.2479 C   0  0  1  0  0  0  0  0  0  0  0  0
  151.3691  144.5411  157.9246 C   0  0  0  0  0  0  0  0  0  0  0  0
  152.3998  142.4686  159.0679 C   0  0  2  0  0  0  0  0  0  0  0  0
  151.5450  141.3841  158.3615 C   0  0  0  0  0  0  0  0  0  0  0  0
  151.2919  141.6884  156.9361 N   0  3  0  0  0  0  0  0  0  0  0  0
  150.3693  140.7555  156.2507 C   0  0  2  0  0  0  0  0  0  0  0  0
  151.1728  139.5918  155.6555 C   0  0  0  0  0  0  0  0  0  0  0  0
  149.5597  141.4803  155.1551 C   0  0  0  0  0  0  0  0  0  0  0  0
  148.5455  140.6356  154.5508 N   0  0  0  0  0  0  0  0  0  0  0  0
  147.2979  140.9123  154.1687 C   0  0  0  0  0  0  0  0  0  0  0  0
  146.6619  139.8796  153.6340 N   0  0  0  0  0  0  0  0  0  0  0  0
  147.6396  138.9305  153.7334 C   0  0  0  0  0  0  0  0  0  0  0  0
  148.7914  139.3341  154.2696 N   0  0  0  0  0  0  0  0  0  0  0  0
  154.5083  140.6413  159.5473 H   0  0  0  0  0  0  0  0  0  0  0  0
  153.0949  139.8146  160.2349 H   0  0  0  0  0  0  0  0  0  0  0  0
  154.3260  140.4877  161.2904 H   0  0  0  0  0  0  0  0  0  0  0  0
  153.3909  142.2791  162.4376 H   0  0  0  0  0  0  0  0  0  0  0  0
  151.3176  143.9050  162.1167 H   0  0  0  0  0  0  0  0  0  0  0  0
  152.8901  144.6521  162.3343 H   0  0  0  0  0  0  0  0  0  0  0  0
  151.5819  145.6214  160.3984 H   0  0  0  0  0  0  0  0  0  0  0  0
  153.1701  145.0378  159.9627 H   0  0  0  0  0  0  0  0  0  0  0  0
  150.5782  143.4980  159.6176 H   0  0  0  0  0  0  0  0  0  0  0  0
  152.3253  144.8045  157.4714 H   0  0  0  0  0  0  0  0  0  0  0  0
  150.8183  145.4678  158.0889 H   0  0  0  0  0  0  0  0  0  0  0  0
  150.8016  143.9682  157.1938 H   0  0  0  0  0  0  0  0  0  0  0  0
  153.2420  142.7124  158.4181 H   0  0  0  0  0  0  0  0  0  0  0  0
  152.0322  140.4117  158.4455 H   0  0  0  0  0  0  0  0  0  0  0  0
  150.5776  141.2792  158.8478 H   0  0  0  0  0  0  0  0  0  0  0  0
  150.9126  142.6220  156.8630 H   0  0  0  0  0  0  0  0  0  0  0  0
  149.6767  140.3313  156.9798 H   0  0  0  0  0  0  0  0  0  0  0  0
  150.5160  138.8681  155.1719 H   0  0  0  0  0  0  0  0  0  0  0  0
  151.7303  139.0628  156.4293 H   0  0  0  0  0  0  0  0  0  0  0  0
  151.8880  139.9415  154.9100 H   0  0  0  0  0  0  0  0  0  0  0  0
  149.0801  142.3736  155.5589 H   0  0  0  0  0  0  0  0  0  0  0  0
  150.2267  141.8193  154.3614 H   0  0  0  0  0  0  0  0  0  0  0  0
  146.8482  141.8887  154.2772 H   0  0  0  0  0  0  0  0  0  0  0  0
  147.5017  137.9151  153.3920 H   0  0  0  0  0  0  0  0  0  0  0  0
  152.1806  141.6662  156.4568 H   0  0  0  0  0  0  0  0  0  0  0  0
  1  2  1  0  0  0  0
  1 19  1  0  0  0  0
  1 20  1  0  0  0  0
  1 21  1  0  0  0  0
  2  8  1  0  0  0  0
  2  3  2  0  0  0  0
  3  4  1  0  0  0  0
  3 22  1  0  0  0  0
  4  5  1  0  0  0  0
  4 23  1  0  0  0  0
  4 24  1  0  0  0  0
  5  6  1  0  0  0  0
  5 25  1  0  0  0  0
  5 26  1  0  0  0  0
  6  7  1  0  0  0  0
  6  8  1  0  0  0  0
  6 27  1  0  0  0  0
  7 28  1  0  0  0  0
  7 29  1  0  0  0  0
  7 30  1  0  0  0  0
  8  9  1  0  0  0  0
  8 31  1  0  0  0  0
  9 10  1  0  0  0  0
  9 32  1  0  0  0  0
  9 33  1  0  0  0  0
 10 11  1  0  0  0  0
 10 34  1  0  0  0  0
 10 43  1  0  0  0  0
 11 12  1  0  0  0  0
 11 13  1  0  0  0  0
 11 35  1  0  0  0  0
 12 36  1  0  0  0  0
 12 37  1  0  0  0  0
 12 38  1  0  0  0  0
 13 14  1  0  0  0  0
 13 39  1  0  0  0  0
 13 40  1  0  0  0  0
 14 18  1  0  0  0  0
 14 15  1  0  0  0  0
 15 16  2  0  0  0  0
 15 41  1  0  0  0  0
 16 17  1  0  0  0  0
 17 18  2  0  0  0  0
 17 42  1  0  0  0  0
M  CHG  1  10   1
M  END
> <s_m_source_file>
AV-unprocessed.smi

> <i_m_source_file_index>
3274

> <i_lp_mmshare_version>
43012

> <i_f3d_flags>
0

> <s_epik_input>
W0NIM11DMT1bQ0hdW0NIMl1bQ0gyXVtDQEBIXShbQ0gzXSlbQ0BIXTFbQ0gyXVtOSF1bQ0BIXShbQ0gzXSlbQ0gyXW4yW2NIXW5bY0hdbjI=

> <s_epik_cmdline>
J2VwaWtfcHl0aG9uJywgJy1waCcsICc3LjAnLCAnLXRuJywgJzgnLCAnLW1hJywgJzIwMCcsICctbWV0YWxfYmluZGluZycsICctaW1hZScsICc8aW5maWxlLm1hZT4nLCAnLW9tYWUnLCAnPG91dGZpbGUubWFlPic=

> <r_lp_tautomer_probability>
1

> <r_epik_Ionization_Penalty>
0.0017527

> <r_epik_Ionization_Penalty_Charging>
0.00175191

> <r_epik_Ionization_Penalty_Neutral>
7.94565e-07

> <r_epik_State_Penalty>
0.00118605

> <r_epik_Charging_Adjusted_Penalty>
0.00293796

> <i_epik_Tot_Q>
1

> <i_epik_Tot_abs_Q>
1

> <r_epik_Metal_State_Penalty>
-0

> <b_epik_Metal_Only>
0

> <s_lp_Force_Field>
OPLS_2005

> <r_lp_Energy>
18.1094

> <b_lp_Chiralities_Consistent>
1

> <s_lp_Variant>
AV-unprocessed.smi:3274-3

> <Gold.Version>
5.8.1

> <Gold.Id.Protein>
6NUR|6NUR_protein|mol2

> <Gold.PLP.Fitness>
46.9526

> <Gold.PLP.PLP>
-45.4557

> <Gold.PLP.part.hbond>
0.0000

> <Gold.PLP.part.metal>
0.0000

> <Gold.PLP.part.buried>
-3.4440

> <Gold.PLP.part.nonpolar>
-41.7625

> <Gold.PLP.part.repulsive>
0.7423

> <Gold.PLP.ligand.clash>
0.0000

> <Gold.PLP.ligand.torsion>
0.7939

> <Gold.PLP.Chemscore.Hbond>
0.0000

> <Gold.PLP.Chemscore.CHOScore>
0.9987

> <Gold.PLP.Chemscore.Metal>
0.0000

> <Gold.Chemscore.Hbonds>
donor molecule, donor type, donor heavy atom, donor atom, acceptor molecule, acceptor atom, score
      L1  C    17    42       P1  7948  0.60

> <Gold.PLP.Chemscore.Internal.Correction>
0.0887

> <Gold.Rescore>
     Score         DG    S(hbond)    S(metal)    S(lipo)     H(rot)  DE(clash)    DE(int)     intcor
     11.16     -13.49       0.00        0.00     120.09       2.36       0.21       2.12       ----

> <Gold.Chemscore.Fitness>
11.1568

> <Gold.Chemscore.DG>
-13.4853

> <Gold.Chemscore.ZeroCoef>
-5.4800

> <Gold.Chemscore.Hbond>
0.0000

> <Gold.Chemscore.Metal>
0.0000

> <Gold.Chemscore.Lipo>
120.0914

> <Gold.Chemscore.Internal_Hbond>
0.0000

> <Gold.Chemscore.DEClash>
0.2061

> <Gold.Chemscore.DEInternal>
2.1224

> <Gold.Chemscore.Rot>
2.3615

> <Gold.Chemscore.Internal.Correction>
   9.000000E+99

> <Gold.Chemscore.Hbond.Weighted>
-0.0000

> <Gold.Chemscore.Metal.Weighted>
-0.0000

> <Gold.Chemscore.Lipo.Weighted>
-14.0507

> <Gold.Chemscore.Internal_Hbond.Weighted>
0.0000

> <Gold.Chemscore.DEClash.Weighted>
0.2061

> <Gold.Chemscore.DEInternal.Weighted>
2.1224

> <Gold.Chemscore.Rot.Weighted>
6.0454

> <Gold.Chemscore.Internal.Correction.Weighted>
   9.000000E+99

> <Gold.Protein.RotatedTorsions>
[ 6907 6896 6895 6894 ] final  160.82 input  -60.11 | X-H torsion
[ 7974 7965 7964 7962 ] final   80.14 input  175.53 | X-H torsion
[ 8008 7997 7996 7995 ] final  -63.48 input   59.86 | X-H torsion
[ 10167 10162 10161 10158 ] final   50.65 input  -65.29 | X-H torsion
[ 10718 10713 10712 10709 ] final  -91.56 input   66.30 | X-H torsion
[ 10763 10752 10751 10750 ] final  -14.91 input  -60.55 | X-H torsion
[ 11005 11000 10999 10996 ] final   75.87 input  -57.11 | X-H torsion

> <Gold.Protein.ActiveResidues>
 VAL166  LYS551  ARG553  GLY616  TRP617  ASP618  TYR619  PRO620  LYS621  CYS622 
 ASP623  PHE694  ASN695  SER759  ASP760  ASP761  ALA762  ILE779  LEU786  VAL792 
 PHE793  MET794  SER795  GLU796  ALA797  LYS798  CYS799  TRP800  GLU811  SER814 

> <Gold.Protein.RotatedAtoms>
  151.9648  133.3707  159.4048 H   0  0  0  0  0  0  0  0  0  0  0  0  # atno 6907 bound_to 6896
  150.6958  134.4202  159.5211 H   0  0  0  0  0  0  0  0  0  0  0  0  # atno 6908 bound_to 6896
  152.1897  134.8683  160.0569 H   0  0  0  0  0  0  0  0  0  0  0  0  # atno 6909 bound_to 6896
  145.6551  139.2457  143.1954 H   0  0  0  0  0  0  0  0  0  0  0  0  # atno 7974 bound_to 7965
  154.4556  140.0974  156.6748 H   0  0  0  0  0  0  0  0  0  0  0  0  # atno 8008 bound_to 7997
  155.5148  140.3477  155.4377 H   0  0  0  0  0  0  0  0  0  0  0  0  # atno 8009 bound_to 7997
  156.0771  140.1364  156.9747 H   0  0  0  0  0  0  0  0  0  0  0  0  # atno 8010 bound_to 7997
  140.2702  144.3274  150.6292 H   0  0  0  0  0  0  0  0  0  0  0  0  # atno 10167 bound_to 10162
  155.9995  130.4953  150.5493 H   0  0  0  0  0  0  0  0  0  0  0  0  # atno 10718 bound_to 10713
  153.5354  135.7014  153.5662 H   0  0  0  0  0  0  0  0  0  0  0  0  # atno 10763 bound_to 10752
  153.3651  135.3959  155.1747 H   0  0  0  0  0  0  0  0  0  0  0  0  # atno 10764 bound_to 10752
  154.8680  135.3798  154.4855 H   0  0  0  0  0  0  0  0  0  0  0  0  # atno 10765 bound_to 10752
  139.9324  134.7554  156.1325 H   0  0  0  0  0  0  0  0  0  0  0  0  # atno 11005 bound_to 11000
  146.1171  140.7355  142.9475 LP  0  0  0  0  0  0  0  0  0  0  0  0  # atno 17320 bound_to 7965
  144.7109  140.4033  143.7081 LP  0  0  0  0  0  0  0  0  0  0  0  0  # atno 17321 bound_to 7965
  140.5896  143.2168  151.7278 LP  0  0  0  0  0  0  0  0  0  0  0  0  # atno 17342 bound_to 10162
  139.4991  144.3960  152.0231 LP  0  0  0  0  0  0  0  0  0  0  0  0  # atno 17343 bound_to 10162
  157.3418  131.0718  151.1782 LP  0  0  0  0  0  0  0  0  0  0  0  0  # atno 17370 bound_to 10713
  157.2628  130.6667  149.5982 LP  0  0  0  0  0  0  0  0  0  0  0  0  # atno 17371 bound_to 10713
  141.0919  133.6711  156.2560 LP  0  0  0  0  0  0  0  0  0  0  0  0  # atno 17394 bound_to 11000
  140.6167  134.5403  157.5541 LP  0  0  0  0  0  0  0  0  0  0  0  0  # atno 17395 bound_to 11000

$$$$
