#       Name:                AV-unprocessed.smi:1540
#       Creating user name   scv26
#       Creation time:       Fri Mar 27 06:36:58 2020


#       File generated by GOLD software.
#

@<TRIPOS>MOLECULE
AV-unprocessed.smi:1540
    39    39     1
SMALL
NO_CHARGES


@<TRIPOS>ATOM
      1 ****        -4.6387  -0.2683  -0.9443 C.2            1 S1                 0.0000
      2 ****        -3.7781  -0.6294  -1.9080 C.2            1 S1                 0.0000
      3 ****        -2.2888  -0.3669  -1.8696 C.3            1 S1                 0.0000
      4 ****        -1.5714  -1.5931  -1.9402 O.3            1 S1                 0.0000
      5 ****        -0.1519  -1.4691  -1.9854 C.3            1 S1                 0.0000
      6 ****         0.4207  -2.8394  -2.3761 C.3            1 S1                 0.0000
      7 ****         0.3887  -1.0101  -0.6214 C.2            1 S1                 0.0000
      8 ****         0.2221  -1.7258   0.3662 O.2            1 S1                 0.0000
      9 ****         1.0245   0.1778  -0.6230 N.am           1 S1                 0.0000
     10 ****         1.5891   0.8888   0.4492 C.2            1 S1                 0.0000
     11 ****         1.2865   0.6839   1.7611 C.2            1 S1                 0.0000
     12 ****         1.8949   1.4626   2.8325 C.2            1 S1                 0.0000
     13 ****         1.5274   1.3118   4.2982 C.3            1 S1                 0.0000
     14 ****         2.3911   0.4960   4.9009 F              1 S1                 0.0000
     15 ****         1.5610   2.4884   4.9246 F              1 S1                 0.0000
     16 ****         0.3049   0.7976   4.4347 F              1 S1                 0.0000
     17 ****         2.7622   2.4252   2.3533 C.2            1 S1                 0.0000
     18 ****         3.1198   2.6893   1.0774 N.pl3          1 S1                -1.0000
     19 ****         2.5515   1.9489   0.0841 C.2            1 S1                 0.0000
     20 ****         2.8231   2.1441  -1.1011 O.2            1 S1                 0.0000
     21 ****        -4.3033   0.2479  -0.0566 H              1 S1                 0.0000
     22 ****        -5.6930  -0.4861  -1.0318 H              1 S1                 0.0000
     23 ****        -4.1497  -1.1449  -2.7816 H              1 S1                 0.0000
     24 ****        -2.0283   0.2674  -2.7179 H              1 S1                 0.0000
     25 ****        -2.0433   0.1832  -0.9602 H              1 S1                 0.0000
     26 ****         0.1233  -0.7491  -2.7587 H              1 S1                 0.0000
     27 ****         1.5104  -2.8158  -2.4167 H              1 S1                 0.0000
     28 ****         0.0616  -3.1413  -3.3601 H              1 S1                 0.0000
     29 ****         0.1281  -3.6146  -1.6668 H              1 S1                 0.0000
     30 ****         1.1537   0.6145  -1.5243 H              1 S1                 0.0000
     31 ****         0.5635  -0.0604   2.0513 H              1 S1                 0.0000
     32 ****         3.2375   3.0860   3.1094 H              1 S1                 0.0000
     33 ****        -1.8654  -2.0755  -2.7653 LP             1 S1                 0.0000
     34 ****        -1.8082  -2.1359  -1.1344 LP             1 S1                 0.0000
     35 ****        -0.2610  -2.5967   0.2768 LP             1 S1                 0.0000
     36 ****         0.5699  -1.4362   1.2580 LP             1 S1                 0.0000
     37 ****         3.7829   3.4079   0.8677 LP             1 S1                 0.0000
     38 ****         2.3930   1.5865  -1.8110 LP             1 S1                 0.0000
     39 ****         3.4738   2.8603  -1.3535 LP             1 S1                 0.0000
@<TRIPOS>BOND
    1    1    2 2     
    2    1   21 1     
    3    1   22 1     
    4    2    3 1     
    5    2   23 1     
    6    3    4 1     
    7    3   24 1     
    8    3   25 1     
    9    4    5 1     
   10    5    6 1     
   11    5    7 1     
   12    5   26 1     
   13    6   27 1     
   14    6   28 1     
   15    6   29 1     
   16    7    8 2     
   17    7    9 am    
   18    9   10 1     
   19    9   30 1     
   20   10   19 1     
   21   10   11 2     
   22   11   12 1     
   23   11   31 1     
   24   12   13 1     
   25   12   17 2     
   26   13   14 1     
   27   13   15 1     
   28   13   16 1     
   29   17   18 1     
   30   17   32 1     
   31   18   19 1     
   32   19   20 2     
   33    4   33 1     
   34    4   34 1     
   35    8   35 1     
   36    8   36 1     
   37   18   37 1     
   38   20   38 1     
   39   20   39 1     
@<TRIPOS>SUBSTRUCTURE
      1 S1             1
@<TRIPOS>SET
LONE_PAIRS      STATIC     ATOMS    <user>   **** ""
7 33 34 35 36 37 38 39
DONOR_HYDROGENS      STATIC     ATOMS    <user>   **** ""
1 30
ATOM$BLUE        STATIC     ATOMS    COLORGROUP SYSTEM
7 33 34 35 36 37 38 39
ATOM$RED        STATIC     ATOMS    COLORGROUP SYSTEM
1 30
