AV-unprocessed.smi:1265|AV-procd|sdf|5318|dock4
  -GOLD-   22720 4443D 1   1.00000     0.00000
 Structure written by MMmdl.
 45 47  0  0  0  0  0  0  0  0  2 V2000
  145.6861  134.2674  154.4198 O   0  0  0  0  0  0  0  0  0  0  0  0
  146.5432  134.7483  153.6786 C   0  0  0  0  0  0  0  0  0  0  0  0
  147.5365  135.5397  154.1071 N   0  0  0  0  0  0  0  0  0  0  0  0
  147.7663  135.9511  155.4919 C   0  0  0  0  0  0  0  0  0  0  0  0
  149.2859  136.1003  155.8347 C   0  0  2  0  0  0  0  0  0  0  0  0
  149.7298  137.5124  155.6192 N   0  0  0  0  0  0  0  0  0  0  0  0
  149.2900  138.1446  154.3670 C   0  0  0  0  0  0  0  0  0  0  0  0
  149.7244  139.6171  154.2683 C   0  0  0  0  0  0  0  0  0  0  0  0
  151.1356  139.7140  154.4044 O   0  0  0  0  0  0  0  0  0  0  0  0
  151.5916  139.1838  155.6412 C   0  0  0  0  0  0  0  0  0  0  0  0
  151.1801  137.7066  155.7545 C   0  0  0  0  0  0  0  0  0  0  0  0
  150.0765  135.0661  154.9812 C   0  0  0  0  0  0  0  0  0  0  0  0
  149.7819  133.6536  155.4977 C   0  0  0  0  0  0  0  0  0  0  0  0
  149.5187  133.7786  157.2820 S   0  0  0  0  0  0  0  0  0  0  0  0
  149.5068  135.5931  157.2830 C   0  0  0  0  0  0  0  0  0  0  0  0
  146.6297  134.5362  152.3541 N   0  0  0  0  0  0  0  0  0  0  0  0
  145.7645  133.7751  151.5221 C   0  0  0  0  0  0  0  0  0  0  0  0
  144.3805  133.8218  151.8012 C   0  0  0  0  0  0  0  0  0  0  0  0
  143.4860  133.0691  151.0132 C   0  0  0  0  0  0  0  0  0  0  0  0
  143.9578  132.3021  150.0072 N   0  3  0  0  0  0  0  0  0  0  0  0
  145.2726  132.2129  149.7122 C   0  0  0  0  0  0  0  0  0  0  0  0
  146.2147  132.9436  150.4648 C   0  0  0  0  0  0  0  0  0  0  0  0
  148.2031  135.8744  153.4269 H   0  0  0  0  0  0  0  0  0  0  0  0
  147.2381  136.8913  155.6445 H   0  0  0  0  0  0  0  0  0  0  0  0
  147.2613  135.2692  156.1757 H   0  0  0  0  0  0  0  0  0  0  0  0
  149.6829  137.6060  153.5054 H   0  0  0  0  0  0  0  0  0  0  0  0
  148.2058  138.1382  154.2852 H   0  0  0  0  0  0  0  0  0  0  0  0
  149.4304  140.0337  153.3048 H   0  0  0  0  0  0  0  0  0  0  0  0
  149.2352  140.2163  155.0378 H   0  0  0  0  0  0  0  0  0  0  0  0
  152.6764  139.2789  155.6898 H   0  0  0  0  0  0  0  0  0  0  0  0
  151.1819  139.7640  156.4695 H   0  0  0  0  0  0  0  0  0  0  0  0
  151.5365  137.3474  156.7172 H   0  0  0  0  0  0  0  0  0  0  0  0
  151.7063  137.1329  154.9907 H   0  0  0  0  0  0  0  0  0  0  0  0
  149.8803  135.1557  153.9133 H   0  0  0  0  0  0  0  0  0  0  0  0
  151.1498  135.1922  155.1047 H   0  0  0  0  0  0  0  0  0  0  0  0
  148.8808  133.2500  155.0355 H   0  0  0  0  0  0  0  0  0  0  0  0
  150.5961  132.9635  155.2757 H   0  0  0  0  0  0  0  0  0  0  0  0
  150.4750  135.9046  157.6713 H   0  0  0  0  0  0  0  0  0  0  0  0
  148.7530  135.9644  157.9780 H   0  0  0  0  0  0  0  0  0  0  0  0
  147.4423  134.9231  151.8965 H   0  0  0  0  0  0  0  0  0  0  0  0
  144.0028  134.4328  152.6084 H   0  0  0  0  0  0  0  0  0  0  0  0
  142.4157  133.0558  151.1589 H   0  0  0  0  0  0  0  0  0  0  0  0
  145.5315  131.5580  148.8929 H   0  0  0  0  0  0  0  0  0  0  0  0
  147.2621  132.8413  150.2251 H   0  0  0  0  0  0  0  0  0  0  0  0
  143.2940  131.7637  149.4498 H   0  0  0  0  0  0  0  0  0  0  0  0
  1  2  2  0  0  0  0
  2  3  1  0  0  0  0
  2 16  1  0  0  0  0
  3  4  1  0  0  0  0
  3 23  1  0  0  0  0
  4  5  1  0  0  0  0
  4 24  1  0  0  0  0
  4 25  1  0  0  0  0
  5 15  1  0  0  0  0
  5  6  1  0  0  0  0
  5 12  1  0  0  0  0
  6 11  1  0  0  0  0
  6  7  1  0  0  0  0
  7  8  1  0  0  0  0
  7 26  1  0  0  0  0
  7 27  1  0  0  0  0
  8  9  1  0  0  0  0
  8 28  1  0  0  0  0
  8 29  1  0  0  0  0
  9 10  1  0  0  0  0
 10 11  1  0  0  0  0
 10 30  1  0  0  0  0
 10 31  1  0  0  0  0
 11 32  1  0  0  0  0
 11 33  1  0  0  0  0
 12 13  1  0  0  0  0
 12 34  1  0  0  0  0
 12 35  1  0  0  0  0
 13 14  1  0  0  0  0
 13 36  1  0  0  0  0
 13 37  1  0  0  0  0
 14 15  1  0  0  0  0
 15 38  1  0  0  0  0
 15 39  1  0  0  0  0
 16 17  1  0  0  0  0
 16 40  1  0  0  0  0
 17 22  1  0  0  0  0
 17 18  2  0  0  0  0
 18 19  1  0  0  0  0
 18 41  1  0  0  0  0
 19 20  2  0  0  0  0
 19 42  1  0  0  0  0
 20 21  1  0  0  0  0
 20 45  1  0  0  0  0
 21 22  2  0  0  0  0
 21 43  1  0  0  0  0
 22 44  1  0  0  0  0
M  CHG  1  20   1
M  END
> <s_m_source_file>
AV-unprocessed.smi

> <i_m_source_file_index>
1265

> <i_lp_mmshare_version>
43012

> <i_f3d_flags>
0

> <s_epik_input>
W2NIXTFbY0hdbltjSF1bY0hdYzFbTkhdQyg9TylbTkhdW0NIMl1bQ0BdMihbQ0gyXVtDSDJdU1tDSDJdMilOM1tDSDJdW0NIMl1PW0NIMl1bQ0gyXTM=

> <s_epik_cmdline>
J2VwaWtfcHl0aG9uJywgJy1waCcsICc3LjAnLCAnLXRuJywgJzgnLCAnLW1hJywgJzIwMCcsICctbWV0YWxfYmluZGluZycsICctaW1hZScsICc8aW5maWxlLm1hZT4nLCAnLW9tYWUnLCAnPG91dGZpbGUubWFlPic=

> <r_epik_Ionization_Penalty>
1.06168

> <r_epik_Ionization_Penalty_Charging>
1.04215

> <r_epik_Ionization_Penalty_Neutral>
0.019527

> <r_epik_State_Penalty>
1.12733

> <r_epik_Charging_Adjusted_Penalty>
2.16948

> <i_epik_Tot_Q>
1

> <i_epik_Tot_abs_Q>
1

> <r_epik_Metal_State_Penalty>
1.22116

> <b_epik_Metal_Only>
0

> <s_lp_Force_Field>
OPLS_2005

> <r_lp_Energy>
64.854

> <b_lp_Chiralities_Consistent>
1

> <s_lp_Variant>
AV-unprocessed.smi:1265-4

> <Gold.Version>
5.8.1

> <Gold.Id.Protein>
6NUR|6NUR_protein|mol2

> <Gold.PLP.Fitness>
38.4961

> <Gold.PLP.PLP>
-32.8480

> <Gold.PLP.part.hbond>
-3.0000

> <Gold.PLP.part.metal>
0.0000

> <Gold.PLP.part.buried>
-4.4614

> <Gold.PLP.part.nonpolar>
-25.8701

> <Gold.PLP.part.repulsive>
0.3797

> <Gold.PLP.ligand.clash>
0.8086

> <Gold.PLP.ligand.torsion>
1.3051

> <Gold.PLP.Chemscore.Hbond>
2.9913

> <Gold.PLP.Chemscore.CHOScore>
0.0000

> <Gold.PLP.Chemscore.Metal>
0.0000

> <Gold.Chemscore.Hbonds>
donor molecule, donor type, donor heavy atom, donor atom, acceptor molecule, acceptor atom, score
      L1  H     3    23       P1  7948  1.00
      L1  H    16    40       P1  7948  1.00
      P1  H  7989  7998       L1     9  1.00

> <Gold.PLP.Chemscore.Internal.Correction>
0.0932

> <Gold.Rescore>
     Score         DG    S(hbond)    S(metal)    S(lipo)     H(rot)  DE(clash)    DE(int)     intcor
     18.67     -21.24       2.80        0.00      86.91       1.47       0.15       2.42       ----

> <Gold.Chemscore.Fitness>
18.6657

> <Gold.Chemscore.DG>
-21.2382

> <Gold.Chemscore.ZeroCoef>
-5.4800

> <Gold.Chemscore.Hbond>
2.8035

> <Gold.Chemscore.Metal>
0.0000

> <Gold.Chemscore.Lipo>
86.9121

> <Gold.Chemscore.Internal_Hbond>
0.0000

> <Gold.Chemscore.DEClash>
0.1491

> <Gold.Chemscore.DEInternal>
2.4234

> <Gold.Chemscore.Rot>
1.4743

> <Gold.Chemscore.Internal.Correction>
   9.000000E+99

> <Gold.Chemscore.Hbonds>
donor molecule, donor type, donor heavy atom, donor atom, acceptor molecule, acceptor atom, score
      L1  H     3    23       P1  7948  1.00
      L1  H    16    40       P1  7948  0.81
      P1  H  7989  7998       L1     9  0.66

> <Gold.Chemscore.Hbond.Weighted>
-9.3637

> <Gold.Chemscore.Metal.Weighted>
-0.0000

> <Gold.Chemscore.Lipo.Weighted>
-10.1687

> <Gold.Chemscore.Internal_Hbond.Weighted>
0.0000

> <Gold.Chemscore.DEClash.Weighted>
0.1491

> <Gold.Chemscore.DEInternal.Weighted>
2.4234

> <Gold.Chemscore.Rot.Weighted>
3.7742

> <Gold.Chemscore.Internal.Correction.Weighted>
   9.000000E+99

> <Gold.Protein.RotatedTorsions>
[ 6907 6896 6895 6894 ] final  -88.45 input  -60.11 | X-H torsion
[ 7974 7965 7964 7962 ] final   99.42 input  175.53 | X-H torsion
[ 8008 7997 7996 7995 ] final   71.84 input   59.86 | X-H torsion
[ 10167 10162 10161 10158 ] final  128.13 input  -65.29 | X-H torsion
[ 10718 10713 10712 10709 ] final  129.36 input   66.30 | X-H torsion
[ 10763 10752 10751 10750 ] final  -54.59 input  -60.55 | X-H torsion
[ 11005 11000 10999 10996 ] final  -88.07 input  -57.11 | X-H torsion

> <Gold.Protein.ActiveResidues>
 VAL166  LYS551  ARG553  GLY616  TRP617  ASP618  TYR619  PRO620  LYS621  CYS622 
 ASP623  PHE694  ASN695  SER759  ASP760  ASP761  ALA762  ILE779  LEU786  VAL792 
 PHE793  MET794  SER795  GLU796  ALA797  LYS798  CYS799  TRP800  GLU811  SER814 

> <Gold.Protein.RotatedAtoms>
  150.6869  134.2740  159.4599 H   0  0  0  0  0  0  0  0  0  0  0  0  # atno 6907 bound_to 6896
  152.0660  134.9561  160.0584 H   0  0  0  0  0  0  0  0  0  0  0  0  # atno 6908 bound_to 6896
  152.0970  133.4195  159.4606 H   0  0  0  0  0  0  0  0  0  0  0  0  # atno 6909 bound_to 6896
  145.3991  139.2350  143.3310 H   0  0  0  0  0  0  0  0  0  0  0  0  # atno 7974 bound_to 7965
  155.7598  140.3487  155.5192 H   0  0  0  0  0  0  0  0  0  0  0  0  # atno 8008 bound_to 7997
  155.8924  140.1020  157.1430 H   0  0  0  0  0  0  0  0  0  0  0  0  # atno 8009 bound_to 7997
  154.4035  140.1301  156.4320 H   0  0  0  0  0  0  0  0  0  0  0  0  # atno 8010 bound_to 7997
  139.5542  144.6836  151.4231 H   0  0  0  0  0  0  0  0  0  0  0  0  # atno 10167 bound_to 10162
  157.5161  131.1097  150.9223 H   0  0  0  0  0  0  0  0  0  0  0  0  # atno 10718 bound_to 10713
  154.1772  135.6449  153.5025 H   0  0  0  0  0  0  0  0  0  0  0  0  # atno 10763 bound_to 10752
  153.0068  135.5397  154.6551 H   0  0  0  0  0  0  0  0  0  0  0  0  # atno 10764 bound_to 10752
  154.5906  135.2934  155.0612 H   0  0  0  0  0  0  0  0  0  0  0  0  # atno 10765 bound_to 10752
  141.1607  133.7548  156.9398 H   0  0  0  0  0  0  0  0  0  0  0  0  # atno 11005 bound_to 11000
  146.2760  140.4686  142.8795 LP  0  0  0  0  0  0  0  0  0  0  0  0  # atno 17320 bound_to 7965
  144.8386  140.6822  143.6244 LP  0  0  0  0  0  0  0  0  0  0  0  0  # atno 17321 bound_to 7965
  140.6812  143.8078  150.7124 LP  0  0  0  0  0  0  0  0  0  0  0  0  # atno 17342 bound_to 10162
  140.1532  143.4340  152.2117 LP  0  0  0  0  0  0  0  0  0  0  0  0  # atno 17343 bound_to 10162
  156.9848  130.5540  149.5299 LP  0  0  0  0  0  0  0  0  0  0  0  0  # atno 17370 bound_to 10713
  156.0321  130.5412  150.8561 LP  0  0  0  0  0  0  0  0  0  0  0  0  # atno 17371 bound_to 10713
  140.1329  134.9344  157.2362 LP  0  0  0  0  0  0  0  0  0  0  0  0  # atno 17394 bound_to 11000
  140.2931  134.3218  155.7310 LP  0  0  0  0  0  0  0  0  0  0  0  0  # atno 17395 bound_to 11000

$$$$
