AV-unprocessed.smi:2190|AV-procd|sdf|8888|dock10
  -GOLD-   2272012 93D 1   1.00000     0.00000
 Structure written by MMmdl.
 46 48  0  0  0  0  0  0  0  0  1 V2000
  154.0825  137.7920  165.0212 C   0  0  0  0  0  0  0  0  0  0  0  0
  154.3824  137.1543  163.6802 C   0  0  0  0  0  0  0  0  0  0  0  0
  155.3566  136.1431  163.5753 C   0  0  0  0  0  0  0  0  0  0  0  0
  155.6272  135.5557  162.3264 C   0  0  0  0  0  0  0  0  0  0  0  0
  154.9264  135.9742  161.1762 C   0  0  0  0  0  0  0  0  0  0  0  0
  155.2303  135.3284  159.8374 C   0  0  0  0  0  0  0  0  0  0  0  0
  153.9448  136.9883  161.2672 C   0  0  0  0  0  0  0  0  0  0  0  0
  153.2947  137.3497  160.1047 O   0  0  0  0  0  0  0  0  0  0  0  0
  152.0962  138.1074  160.2034 C   0  0  0  0  0  0  0  0  0  0  0  0
  151.3495  138.0361  158.8618 C   0  0  2  0  0  0  0  0  0  0  0  0
  151.1576  136.6760  158.5248 O   0  0  0  0  0  0  0  0  0  0  0  0
  152.1363  138.7317  157.7316 C   0  0  0  0  0  0  0  0  0  0  0  0
  151.6450  140.0719  157.4371 N   0  0  0  0  0  0  0  0  0  0  0  0
  150.8321  140.4585  156.4215 C   0  0  0  0  0  0  0  0  0  0  0  0
  150.3081  139.4687  155.4192 C   0  0  0  0  0  0  0  0  0  0  0  0
  150.6137  139.7916  154.0776 O   0  0  0  0  0  0  0  0  0  0  0  0
  150.5308  141.7589  156.3876 N   0  0  0  0  0  0  0  0  0  0  0  0
  151.2095  142.2600  157.4806 C   0  0  0  0  0  0  0  0  0  0  0  0
  151.2903  143.5772  157.9862 C   0  0  0  0  0  0  0  0  0  0  0  0
  152.0560  143.8541  159.1377 C   0  0  0  0  0  0  0  0  0  0  0  0
  152.7496  142.8201  159.7989 C   0  0  0  0  0  0  0  0  0  0  0  0
  152.6818  141.5005  159.3120 C   0  0  0  0  0  0  0  0  0  0  0  0
  151.9165  141.2293  158.1615 C   0  0  0  0  0  0  0  0  0  0  0  0
  153.6803  137.5732  162.5322 C   0  0  0  0  0  0  0  0  0  0  0  0
  154.8054  137.4856  165.7778 H   0  0  0  0  0  0  0  0  0  0  0  0
  153.0879  137.5029  165.3615 H   0  0  0  0  0  0  0  0  0  0  0  0
  154.1161  138.8788  164.9412 H   0  0  0  0  0  0  0  0  0  0  0  0
  155.8991  135.8137  164.4494 H   0  0  0  0  0  0  0  0  0  0  0  0
  156.3763  134.7808  162.2559 H   0  0  0  0  0  0  0  0  0  0  0  0
  155.5432  136.0824  159.1145 H   0  0  0  0  0  0  0  0  0  0  0  0
  154.3423  134.8283  159.4499 H   0  0  0  0  0  0  0  0  0  0  0  0
  156.0268  134.5886  159.9213 H   0  0  0  0  0  0  0  0  0  0  0  0
  151.4755  137.6640  160.9838 H   0  0  0  0  0  0  0  0  0  0  0  0
  152.2947  139.1439  160.4824 H   0  0  0  0  0  0  0  0  0  0  0  0
  150.3734  138.5103  158.9648 H   0  0  0  0  0  0  0  0  0  0  0  0
  150.3282  136.5900  158.0803 H   0  0  0  0  0  0  0  0  0  0  0  0
  153.1934  138.7966  157.9903 H   0  0  0  0  0  0  0  0  0  0  0  0
  152.0890  138.1367  156.8184 H   0  0  0  0  0  0  0  0  0  0  0  0
  150.7192  138.4829  155.6342 H   0  0  0  0  0  0  0  0  0  0  0  0
  149.2247  139.4011  155.5199 H   0  0  0  0  0  0  0  0  0  0  0  0
  150.3739  139.0600  153.5300 H   0  0  0  0  0  0  0  0  0  0  0  0
  150.7620  144.3757  157.4865 H   0  0  0  0  0  0  0  0  0  0  0  0
  152.1115  144.8647  159.5148 H   0  0  0  0  0  0  0  0  0  0  0  0
  153.3343  143.0406  160.6801 H   0  0  0  0  0  0  0  0  0  0  0  0
  153.2139  140.7075  159.8155 H   0  0  0  0  0  0  0  0  0  0  0  0
  152.9382  138.3484  162.6482 H   0  0  0  0  0  0  0  0  0  0  0  0
  1  2  1  0  0  0  0
  1 25  1  0  0  0  0
  1 26  1  0  0  0  0
  1 27  1  0  0  0  0
  2 24  1  0  0  0  0
  2  3  2  0  0  0  0
  3  4  1  0  0  0  0
  3 28  1  0  0  0  0
  4  5  2  0  0  0  0
  4 29  1  0  0  0  0
  5  6  1  0  0  0  0
  5  7  1  0  0  0  0
  6 30  1  0  0  0  0
  6 31  1  0  0  0  0
  6 32  1  0  0  0  0
  7  8  1  0  0  0  0
  7 24  2  0  0  0  0
  8  9  1  0  0  0  0
  9 10  1  0  0  0  0
  9 33  1  0  0  0  0
  9 34  1  0  0  0  0
 10 11  1  0  0  0  0
 10 12  1  0  0  0  0
 10 35  1  0  0  0  0
 11 36  1  0  0  0  0
 12 13  1  0  0  0  0
 12 37  1  0  0  0  0
 12 38  1  0  0  0  0
 13 23  1  0  0  0  0
 13 14  1  0  0  0  0
 14 15  1  0  0  0  0
 14 17  2  0  0  0  0
 15 16  1  0  0  0  0
 15 39  1  0  0  0  0
 15 40  1  0  0  0  0
 16 41  1  0  0  0  0
 17 18  1  0  0  0  0
 18 23  2  0  0  0  0
 18 19  1  0  0  0  0
 19 20  2  0  0  0  0
 19 42  1  0  0  0  0
 20 21  1  0  0  0  0
 20 43  1  0  0  0  0
 21 22  2  0  0  0  0
 21 44  1  0  0  0  0
 22 23  1  0  0  0  0
 22 45  1  0  0  0  0
 24 46  1  0  0  0  0
M  END
> <s_m_source_file>
AV-unprocessed.smi

> <i_m_source_file_index>
2190

> <i_lp_mmshare_version>
43012

> <i_f3d_flags>
0

> <s_epik_input>
W0NIM11jMVtjSF1bY0hdYyhbQ0gzXSljKFtjSF0xKU9bQ0gyXVtDQEhdKFtPSF0pW0NIMl1uKGMobjIpW0NIMl1bT0hdKWMoYzIzKVtjSF1bY0hdW2NIXVtjSF0z

> <s_epik_cmdline>
J2VwaWtfcHl0aG9uJywgJy1waCcsICc3LjAnLCAnLXRuJywgJzgnLCAnLW1hJywgJzIwMCcsICctbWV0YWxfYmluZGluZycsICctaW1hZScsICc8aW5maWxlLm1hZT4nLCAnLW9tYWUnLCAnPG91dGZpbGUubWFlPic=

> <r_lp_tautomer_probability>
1

> <r_epik_Ionization_Penalty>
0.0555874

> <r_epik_Ionization_Penalty_Charging>
0

> <r_epik_Ionization_Penalty_Neutral>
0.0555874

> <r_epik_State_Penalty>
0.0478234

> <r_epik_Charging_Adjusted_Penalty>
0.0478234

> <i_epik_Tot_Q>
0

> <i_epik_Tot_abs_Q>
0

> <r_epik_Metal_State_Penalty>
4.98044e-05

> <b_epik_Metal_Only>
0

> <s_lp_Force_Field>
OPLS_2005

> <r_lp_Energy>
17.5677

> <b_lp_Chiralities_Consistent>
1

> <s_lp_Variant>
AV-unprocessed.smi:2190-1

> <Gold.Version>
5.8.1

> <Gold.Id.Protein>
6NUR|6NUR_protein|mol2

> <Gold.PLP.Fitness>
47.1719

> <Gold.PLP.PLP>
-44.4405

> <Gold.PLP.part.hbond>
-2.4179

> <Gold.PLP.part.metal>
0.0000

> <Gold.PLP.part.buried>
-6.2934

> <Gold.PLP.part.nonpolar>
-36.3157

> <Gold.PLP.part.repulsive>
0.0854

> <Gold.PLP.ligand.clash>
0.0000

> <Gold.PLP.ligand.torsion>
1.1265

> <Gold.PLP.Chemscore.Hbond>
1.6435

> <Gold.PLP.Chemscore.CHOScore>
0.0000

> <Gold.PLP.Chemscore.Metal>
0.0000

> <Gold.Chemscore.Hbonds>
donor molecule, donor type, donor heavy atom, donor atom, acceptor molecule, acceptor atom, score
      P1  H  6896  6907       L1    11  0.76
      P1  H  7989  7998       L1    16  1.00

> <Gold.PLP.Chemscore.Internal.Correction>
0.0538

> <Gold.Rescore>
     Score         DG    S(hbond)    S(metal)    S(lipo)     H(rot)  DE(clash)    DE(int)     intcor
     17.00     -18.91       1.85        0.00     126.70       2.96       0.71       1.20       ----

> <Gold.Chemscore.Fitness>
17.0027

> <Gold.Chemscore.DG>
-18.9096

> <Gold.Chemscore.ZeroCoef>
-5.4800

> <Gold.Chemscore.Hbond>
1.8482

> <Gold.Chemscore.Metal>
0.0000

> <Gold.Chemscore.Lipo>
126.7019

> <Gold.Chemscore.Internal_Hbond>
0.0000

> <Gold.Chemscore.DEClash>
0.7080

> <Gold.Chemscore.DEInternal>
1.1989

> <Gold.Chemscore.Rot>
2.9561

> <Gold.Chemscore.Internal.Correction>
   9.000000E+99

> <Gold.Chemscore.Hbonds>
donor molecule, donor type, donor heavy atom, donor atom, acceptor molecule, acceptor atom, score
      P1  H  6896  6907       L1    11  0.29
      P1  H  7989  7998       L1    16  0.92

> <Gold.Chemscore.Hbond.Weighted>
-6.1731

> <Gold.Chemscore.Metal.Weighted>
-0.0000

> <Gold.Chemscore.Lipo.Weighted>
-14.8241

> <Gold.Chemscore.Internal_Hbond.Weighted>
0.0000

> <Gold.Chemscore.DEClash.Weighted>
0.7080

> <Gold.Chemscore.DEInternal.Weighted>
1.1989

> <Gold.Chemscore.Rot.Weighted>
7.5677

> <Gold.Chemscore.Internal.Correction.Weighted>
   9.000000E+99

> <Gold.Protein.RotatedTorsions>
[ 6907 6896 6895 6894 ] final  -27.06 input  -60.11 | X-H torsion
[ 7974 7965 7964 7962 ] final   90.24 input  175.53 | X-H torsion
[ 8008 7997 7996 7995 ] final   99.19 input   59.86 | X-H torsion
[ 10167 10162 10161 10158 ] final  148.48 input  -65.29 | X-H torsion
[ 10718 10713 10712 10709 ] final   69.28 input   66.30 | X-H torsion
[ 10763 10752 10751 10750 ] final  -34.74 input  -60.55 | X-H torsion
[ 11005 11000 10999 10996 ] final  -21.75 input  -57.11 | X-H torsion

> <Gold.Protein.ActiveResidues>
 VAL166  LYS551  ARG553  GLY616  TRP617  ASP618  TYR619  PRO620  LYS621  CYS622 
 ASP623  PHE694  ASN695  SER759  ASP760  ASP761  ALA762  ILE779  LEU786  VAL792 
 PHE793  MET794  SER795  GLU796  ALA797  LYS798  CYS799  TRP800  GLU811  SER814 

> <Gold.Protein.RotatedAtoms>
  151.1522  135.0233  159.8673 H   0  0  0  0  0  0  0  0  0  0  0  0  # atno 6907 bound_to 6896
  152.5452  134.1375  159.8475 H   0  0  0  0  0  0  0  0  0  0  0  0  # atno 6908 bound_to 6896
  151.1461  133.4892  159.2628 H   0  0  0  0  0  0  0  0  0  0  0  0  # atno 6909 bound_to 6896
  145.5216  139.2279  143.2668 H   0  0  0  0  0  0  0  0  0  0  0  0  # atno 7974 bound_to 7965
  156.1080  140.3232  155.8033 H   0  0  0  0  0  0  0  0  0  0  0  0  # atno 8008 bound_to 7997
  155.4722  140.0547  157.2995 H   0  0  0  0  0  0  0  0  0  0  0  0  # atno 8009 bound_to 7997
  154.4741  140.2024  155.9936 H   0  0  0  0  0  0  0  0  0  0  0  0  # atno 8010 bound_to 7997
  139.4874  144.5676  151.7116 H   0  0  0  0  0  0  0  0  0  0  0  0  # atno 10167 bound_to 10162
  157.6337  130.9417  150.0491 H   0  0  0  0  0  0  0  0  0  0  0  0  # atno 10718 bound_to 10713
  153.8517  135.6848  153.4791 H   0  0  0  0  0  0  0  0  0  0  0  0  # atno 10763 bound_to 10752
  153.1393  135.4664  154.9469 H   0  0  0  0  0  0  0  0  0  0  0  0  # atno 10764 bound_to 10752
  154.7799  135.3265  154.7960 H   0  0  0  0  0  0  0  0  0  0  0  0  # atno 10765 bound_to 10752
  140.8591  133.7801  156.0054 H   0  0  0  0  0  0  0  0  0  0  0  0  # atno 11005 bound_to 11000
  146.2102  140.6028  142.9063 LP  0  0  0  0  0  0  0  0  0  0  0  0  # atno 17320 bound_to 7965
  144.7673  140.5559  143.6694 LP  0  0  0  0  0  0  0  0  0  0  0  0  # atno 17321 bound_to 7965
  140.5257  144.0810  150.6037 LP  0  0  0  0  0  0  0  0  0  0  0  0  # atno 17342 bound_to 10162
  140.3783  143.2817  152.0200 LP  0  0  0  0  0  0  0  0  0  0  0  0  # atno 17343 bound_to 10162
  156.1559  130.3643  149.9370 LP  0  0  0  0  0  0  0  0  0  0  0  0  # atno 17370 bound_to 10713
  156.7379  130.9068  151.3630 LP  0  0  0  0  0  0  0  0  0  0  0  0  # atno 17371 bound_to 10713
  140.8703  134.2734  157.5194 LP  0  0  0  0  0  0  0  0  0  0  0  0  # atno 17394 bound_to 11000
  139.8706  134.9564  156.4235 LP  0  0  0  0  0  0  0  0  0  0  0  0  # atno 17395 bound_to 11000

$$$$
