AV-unprocessed.smi:2458|AV-procd|sdf|9708|dock9
  -GOLD-   2272013343D 1   1.00000     0.00000
 Structure written by MMmdl.
 47 48  0  0  0  0  0  0  0  0  1 V2000
  152.7986  143.0976  161.1956 C   0  0  0  0  0  0  0  0  0  0  0  0
  152.3214  143.6078  159.8218 C   0  0  0  0  0  0  0  0  0  0  0  0
  151.3721  144.8019  160.0410 C   0  0  0  0  0  0  0  0  0  0  0  0
  151.6848  142.4845  158.9507 C   0  0  1  0  0  0  0  0  0  0  0  0
  151.2509  142.9954  157.5543 C   0  0  0  0  0  0  0  0  0  0  0  0
  150.6368  141.8861  156.6848 C   0  0  0  0  0  0  0  0  0  0  0  0
  151.6071  140.7035  156.5142 C   0  0  2  0  0  0  0  0  0  0  0  0
  150.9833  139.5984  155.6506 C   0  0  0  0  0  0  0  0  0  0  0  0
  150.8717  139.7473  154.4333 O   0  0  0  0  0  0  0  0  0  0  0  0
  150.5792  138.4932  156.2929 N   0  0  0  0  0  0  0  0  0  0  0  0
  149.9684  137.3397  155.6452 C   0  0  0  0  0  0  0  0  0  0  0  0
  151.0248  136.2717  155.3100 C   0  0  2  0  0  0  0  0  0  0  0  0
  151.6076  136.5890  154.0613 O   0  0  0  0  0  0  0  0  0  0  0  0
  150.4178  134.8777  155.2997 C   0  0  0  0  0  0  0  0  0  0  0  0
  150.8758  133.8720  156.1783 C   0  0  0  0  0  0  0  0  0  0  0  0
  150.2844  132.5955  156.1200 C   0  0  0  0  0  0  0  0  0  0  0  0
  149.2566  132.3752  155.1818 C   0  0  0  0  0  0  0  0  0  0  0  0
  148.8103  133.3270  154.3344 N   0  0  0  0  0  0  0  0  0  0  0  0
  149.3829  134.5485  154.3971 C   0  0  0  0  0  0  0  0  0  0  0  0
  152.0120  140.1656  157.8987 C   0  0  0  0  0  0  0  0  0  0  0  0
  152.6285  141.2689  158.7739 C   0  0  0  0  0  0  0  0  0  0  0  0
  150.7891  142.1335  159.4655 H   0  0  0  0  0  0  0  0  0  0  0  0
  152.5057  141.0674  156.0125 H   0  0  0  0  0  0  0  0  0  0  0  0
  151.9903  142.6080  161.7397 H   0  0  0  0  0  0  0  0  0  0  0  0
  153.1632  143.9174  161.8153 H   0  0  0  0  0  0  0  0  0  0  0  0
  153.6232  142.3914  161.1064 H   0  0  0  0  0  0  0  0  0  0  0  0
  153.1993  143.9869  159.2968 H   0  0  0  0  0  0  0  0  0  0  0  0
  150.4249  144.4809  160.4755 H   0  0  0  0  0  0  0  0  0  0  0  0
  151.1576  145.3304  159.1130 H   0  0  0  0  0  0  0  0  0  0  0  0
  151.8124  145.5357  160.7167 H   0  0  0  0  0  0  0  0  0  0  0  0
  150.5117  143.7900  157.6462 H   0  0  0  0  0  0  0  0  0  0  0  0
  152.1086  143.4283  157.0376 H   0  0  0  0  0  0  0  0  0  0  0  0
  149.7047  141.5481  157.1405 H   0  0  0  0  0  0  0  0  0  0  0  0
  150.3713  142.2960  155.7092 H   0  0  0  0  0  0  0  0  0  0  0  0
  150.7103  138.4432  157.2929 H   0  0  0  0  0  0  0  0  0  0  0  0
  149.2401  136.9242  156.3437 H   0  0  0  0  0  0  0  0  0  0  0  0
  149.4166  137.6394  154.7524 H   0  0  0  0  0  0  0  0  0  0  0  0
  151.8174  136.2930  156.0598 H   0  0  0  0  0  0  0  0  0  0  0  0
  151.1055  136.1689  153.3796 H   0  0  0  0  0  0  0  0  0  0  0  0
  151.6686  134.0727  156.8838 H   0  0  0  0  0  0  0  0  0  0  0  0
  150.6116  131.8036  156.7774 H   0  0  0  0  0  0  0  0  0  0  0  0
  148.7817  131.4080  155.1093 H   0  0  0  0  0  0  0  0  0  0  0  0
  149.0026  135.2835  153.7030 H   0  0  0  0  0  0  0  0  0  0  0  0
  151.1439  139.7474  158.4111 H   0  0  0  0  0  0  0  0  0  0  0  0
  152.7268  139.3488  157.7884 H   0  0  0  0  0  0  0  0  0  0  0  0
  153.5725  141.5955  158.3358 H   0  0  0  0  0  0  0  0  0  0  0  0
  152.8721  140.8266  159.7389 H   0  0  0  0  0  0  0  0  0  0  0  0
  1  2  1  0  0  0  0
  1 24  1  0  0  0  0
  1 25  1  0  0  0  0
  1 26  1  0  0  0  0
  2  3  1  0  0  0  0
  2  4  1  0  0  0  0
  2 27  1  0  0  0  0
  3 28  1  0  0  0  0
  3 29  1  0  0  0  0
  3 30  1  0  0  0  0
  4 22  1  0  0  0  0
  4 21  1  0  0  0  0
  4  5  1  0  0  0  0
  5  6  1  0  0  0  0
  5 31  1  0  0  0  0
  5 32  1  0  0  0  0
  6  7  1  0  0  0  0
  6 33  1  0  0  0  0
  6 34  1  0  0  0  0
  7 23  1  0  0  0  0
  7  8  1  0  0  0  0
  7 20  1  0  0  0  0
  8  9  2  0  0  0  0
  8 10  1  0  0  0  0
 10 11  1  0  0  0  0
 10 35  1  0  0  0  0
 11 12  1  0  0  0  0
 11 36  1  0  0  0  0
 11 37  1  0  0  0  0
 12 13  1  0  0  0  0
 12 14  1  0  0  0  0
 12 38  1  0  0  0  0
 13 39  1  0  0  0  0
 14 19  1  0  0  0  0
 14 15  2  0  0  0  0
 15 16  1  0  0  0  0
 15 40  1  0  0  0  0
 16 17  2  0  0  0  0
 16 41  1  0  0  0  0
 17 18  1  0  0  0  0
 17 42  1  0  0  0  0
 18 19  2  0  0  0  0
 19 43  1  0  0  0  0
 20 21  1  0  0  0  0
 20 44  1  0  0  0  0
 20 45  1  0  0  0  0
 21 46  1  0  0  0  0
 21 47  1  0  0  0  0
M  END
> <s_m_source_file>
AV-unprocessed.smi

> <i_m_source_file_index>
2458

> <i_lp_mmshare_version>
43012

> <i_f3d_flags>
0

> <s_epik_input>
W0NIM11bQ0hdKFtDSDNdKVtDQEhdMVtDSDJdW0NIMl1bQ0BASF0oW0NIMl1bQ0gyXTEpQyg9TylbTkhdW0NIMl1bQ0BIXShbT0hdKWMyW2NIXVtjSF1bY0hdbltjSF0y

> <s_epik_cmdline>
J2VwaWtfcHl0aG9uJywgJy1waCcsICc3LjAnLCAnLXRuJywgJzgnLCAnLW1hJywgJzIwMCcsICctbWV0YWxfYmluZGluZycsICctaW1hZScsICc8aW5maWxlLm1hZT4nLCAnLW9tYWUnLCAnPG91dGZpbGUubWFlPic=

> <r_epik_Ionization_Penalty>
0.00169206

> <r_epik_Ionization_Penalty_Charging>
0

> <r_epik_Ionization_Penalty_Neutral>
0.00169206

> <r_epik_State_Penalty>
0.0011427

> <r_epik_Charging_Adjusted_Penalty>
0.0011427

> <i_epik_Tot_Q>
0

> <i_epik_Tot_abs_Q>
0

> <r_epik_Metal_State_Penalty>
-0

> <b_epik_Metal_Only>
0

> <s_lp_Force_Field>
OPLS_2005

> <r_lp_Energy>
18.0059

> <b_lp_Chiralities_Consistent>
1

> <s_lp_Variant>
AV-unprocessed.smi:2458-1

> <Gold.Version>
5.8.1

> <Gold.Id.Protein>
6NUR|6NUR_protein|mol2

> <Gold.PLP.Fitness>
49.9018

> <Gold.PLP.PLP>
-41.1995

> <Gold.PLP.part.hbond>
-3.0000

> <Gold.PLP.part.metal>
0.0000

> <Gold.PLP.part.buried>
-4.1863

> <Gold.PLP.part.nonpolar>
-33.8261

> <Gold.PLP.part.repulsive>
0.2201

> <Gold.PLP.ligand.clash>
0.8875

> <Gold.PLP.ligand.torsion>
0.8807

> <Gold.PLP.Chemscore.Hbond>
2.7680

> <Gold.PLP.Chemscore.CHOScore>
1.0000

> <Gold.PLP.Chemscore.Metal>
0.0000

> <Gold.Chemscore.Hbonds>
donor molecule, donor type, donor heavy atom, donor atom, acceptor molecule, acceptor atom, score
      L1  H    13    39       P1  7949  0.77
      P1  H  7989  7998       L1     9  1.00
      P1  H 10752 10763       L1    13  1.00
      L1  C    19    43       P1  7948  1.00

> <Gold.PLP.Chemscore.Internal.Correction>
0.0471

> <Gold.Rescore>
     Score         DG    S(hbond)    S(metal)    S(lipo)     H(rot)  DE(clash)    DE(int)     intcor
     18.39     -19.39       1.72        0.00     114.91       2.06       0.10       0.90       ----

> <Gold.Chemscore.Fitness>
18.3938

> <Gold.Chemscore.DG>
-19.3924

> <Gold.Chemscore.ZeroCoef>
-5.4800

> <Gold.Chemscore.Hbond>
1.7183

> <Gold.Chemscore.Metal>
0.0000

> <Gold.Chemscore.Lipo>
114.9056

> <Gold.Chemscore.Internal_Hbond>
0.0000

> <Gold.Chemscore.DEClash>
0.1025

> <Gold.Chemscore.DEInternal>
0.8961

> <Gold.Chemscore.Rot>
2.0588

> <Gold.Chemscore.Internal.Correction>
   9.000000E+99

> <Gold.Chemscore.Hbonds>
donor molecule, donor type, donor heavy atom, donor atom, acceptor molecule, acceptor atom, score
      L1  H    13    39       P1  7949  0.26
      P1  H  7989  7998       L1     9  1.00
      P1  H 10752 10763       L1    13  0.15

> <Gold.Chemscore.Hbond.Weighted>
-5.7390

> <Gold.Chemscore.Metal.Weighted>
-0.0000

> <Gold.Chemscore.Lipo.Weighted>
-13.4440

> <Gold.Chemscore.Internal_Hbond.Weighted>
0.0000

> <Gold.Chemscore.DEClash.Weighted>
0.1025

> <Gold.Chemscore.DEInternal.Weighted>
0.8961

> <Gold.Chemscore.Rot.Weighted>
5.2705

> <Gold.Chemscore.Internal.Correction.Weighted>
   9.000000E+99

> <Gold.Protein.RotatedTorsions>
[ 6907 6896 6895 6894 ] final   25.45 input  -60.11 | X-H torsion
[ 7974 7965 7964 7962 ] final  111.85 input  175.53 | X-H torsion
[ 8008 7997 7996 7995 ] final  -70.72 input   59.86 | X-H torsion
[ 10167 10162 10161 10158 ] final    1.97 input  -65.29 | X-H torsion
[ 10718 10713 10712 10709 ] final  -87.96 input   66.30 | X-H torsion
[ 10763 10752 10751 10750 ] final   19.02 input  -60.55 | X-H torsion
[ 11005 11000 10999 10996 ] final    0.73 input  -57.11 | X-H torsion

> <Gold.Protein.ActiveResidues>
 VAL166  LYS551  ARG553  GLY616  TRP617  ASP618  TYR619  PRO620  LYS621  CYS622 
 ASP623  PHE694  ASN695  SER759  ASP760  ASP761  ALA762  ILE779  LEU786  VAL792 
 PHE793  MET794  SER795  GLU796  ALA797  LYS798  CYS799  TRP800  GLU811  SER814 

> <Gold.Protein.RotatedAtoms>
  151.9727  135.0068  160.0553 H   0  0  0  0  0  0  0  0  0  0  0  0  # atno 6907 bound_to 6896
  152.1768  133.4676  159.4946 H   0  0  0  0  0  0  0  0  0  0  0  0  # atno 6908 bound_to 6896
  150.6910  134.1801  159.4288 H   0  0  0  0  0  0  0  0  0  0  0  0  # atno 6909 bound_to 6896
  145.2370  139.2795  143.4138 H   0  0  0  0  0  0  0  0  0  0  0  0  # atno 7974 bound_to 7965
  154.5033  140.0829  156.7843 H   0  0  0  0  0  0  0  0  0  0  0  0  # atno 8008 bound_to 7997
  155.3951  140.3434  155.4235 H   0  0  0  0  0  0  0  0  0  0  0  0  # atno 8009 bound_to 7997
  156.1484  140.1551  156.8797 H   0  0  0  0  0  0  0  0  0  0  0  0  # atno 8010 bound_to 7997
  140.6657  143.7185  150.7823 H   0  0  0  0  0  0  0  0  0  0  0  0  # atno 10167 bound_to 10162
  155.9984  130.4818  150.4947 H   0  0  0  0  0  0  0  0  0  0  0  0  # atno 10718 bound_to 10713
  153.1198  135.6716  153.9356 H   0  0  0  0  0  0  0  0  0  0  0  0  # atno 10763 bound_to 10752
  153.8874  135.3051  155.3448 H   0  0  0  0  0  0  0  0  0  0  0  0  # atno 10764 bound_to 10752
  154.7610  135.4988  153.9544 H   0  0  0  0  0  0  0  0  0  0  0  0  # atno 10765 bound_to 10752
  140.6233  133.9641  155.8236 H   0  0  0  0  0  0  0  0  0  0  0  0  # atno 11005 bound_to 11000
  146.3338  140.2722  142.8606 LP  0  0  0  0  0  0  0  0  0  0  0  0  # atno 17320 bound_to 7965
  144.9624  140.8288  143.5505 LP  0  0  0  0  0  0  0  0  0  0  0  0  # atno 17321 bound_to 7965
  140.0862  143.4921  152.2503 LP  0  0  0  0  0  0  0  0  0  0  0  0  # atno 17342 bound_to 10162
  139.5905  144.7548  151.3412 LP  0  0  0  0  0  0  0  0  0  0  0  0  # atno 17343 bound_to 10162
  157.2938  131.0631  151.2115 LP  0  0  0  0  0  0  0  0  0  0  0  0  # atno 17370 bound_to 10713
  157.3119  130.6894  149.6220 LP  0  0  0  0  0  0  0  0  0  0  0  0  # atno 17371 bound_to 10713
  141.0727  134.0182  157.3503 LP  0  0  0  0  0  0  0  0  0  0  0  0  # atno 17394 bound_to 11000
  139.9144  135.0195  156.7824 LP  0  0  0  0  0  0  0  0  0  0  0  0  # atno 17395 bound_to 11000

$$$$
