AV-unprocessed.smi:270|AV-procd|sdf|2048|dock8
  -GOLD-   2262021273D 1   1.00000     0.00000
 Structure written by MMmdl.
 54 57  0  0  0  0  0  0  0  0  1 V2000
  147.3592  132.2266  153.0100 C   0  0  0  0  0  0  0  0  0  0  0  0
  146.8413  133.0199  151.8001 C   0  0  1  0  0  0  0  0  0  0  0  0
  146.2009  132.0952  150.9239 O   0  0  0  0  0  0  0  0  0  0  0  0
  145.1449  132.7554  150.2489 C   0  0  0  0  0  0  0  0  0  0  0  0
  144.5536  133.6290  151.3441 C   0  0  0  0  0  0  0  0  0  0  0  0
  145.7889  134.1284  152.0880 C   0  0  2  0  0  0  0  0  0  0  0  0
  146.2289  135.3155  151.4482 O   0  0  0  0  0  0  0  0  0  0  0  0
  145.5261  134.4592  153.5809 C   0  0  0  0  0  0  0  0  0  0  0  0
  146.5496  135.3063  154.1750 N   0  0  0  0  0  0  0  0  0  0  0  0
  147.6010  134.8946  154.9618 C   0  0  0  0  0  0  0  0  0  0  0  0
  148.3950  135.8457  155.3706 N   0  0  0  0  0  0  0  0  0  0  0  0
  147.8425  137.0063  154.8407 C   0  0  0  0  0  0  0  0  0  0  0  0
  148.2008  138.3852  154.9005 C   0  0  0  0  0  0  0  0  0  0  0  0
  149.3452  138.8894  155.5834 N   0  0  0  0  0  0  0  0  0  0  0  0
  149.1492  140.0962  156.3732 C   0  0  0  0  0  0  0  0  0  0  0  0
  150.4973  140.5759  155.8253 C   0  0  0  0  0  0  0  0  0  0  0  0
  151.5842  140.3727  156.7151 O   0  0  0  0  0  0  0  0  0  0  0  0
  151.6231  141.3246  157.7664 C   0  0  0  0  0  0  0  0  0  0  0  0
  152.7058  140.9091  158.7692 C   0  0  0  0  0  0  0  0  0  0  0  0
  153.2882  139.8389  158.5884 O   0  0  0  0  0  0  0  0  0  0  0  0
  152.9883  141.7217  159.8143 N   0  0  0  0  0  0  0  0  0  0  0  0
  152.3241  143.0110  160.0315 C   0  0  0  0  0  0  0  0  0  0  0  0
  154.0045  141.3353  160.7968 C   0  0  0  0  0  0  0  0  0  0  0  0
  150.4079  139.4705  154.7718 C   0  0  0  0  0  0  0  0  0  0  0  0
  147.4038  139.2434  154.2090 N   0  0  0  0  0  0  0  0  0  0  0  0
  146.3318  138.8071  153.5419 C   0  0  0  0  0  0  0  0  0  0  0  0
  145.8783  137.5597  153.4192 N   0  0  0  0  0  0  0  0  0  0  0  0
  146.6782  136.6816  154.0863 C   0  0  0  0  0  0  0  0  0  0  0  0
  147.8801  132.8717  153.7174 H   0  0  0  0  0  0  0  0  0  0  0  0
  148.0646  131.4588  152.6916 H   0  0  0  0  0  0  0  0  0  0  0  0
  146.5476  131.7244  153.5371 H   0  0  0  0  0  0  0  0  0  0  0  0
  147.6996  133.4379  151.2706 H   0  0  0  0  0  0  0  0  0  0  0  0
  145.5459  133.3595  149.4336 H   0  0  0  0  0  0  0  0  0  0  0  0
  144.4252  132.0478  149.8369 H   0  0  0  0  0  0  0  0  0  0  0  0
  143.9125  134.4252  150.9628 H   0  0  0  0  0  0  0  0  0  0  0  0
  143.9497  133.0007  151.9993 H   0  0  0  0  0  0  0  0  0  0  0  0
  147.1108  135.4991  151.7336 H   0  0  0  0  0  0  0  0  0  0  0  0
  144.5663  134.9630  153.6992 H   0  0  0  0  0  0  0  0  0  0  0  0
  145.4677  133.5417  154.1677 H   0  0  0  0  0  0  0  0  0  0  0  0
  147.7660  133.8578  155.2173 H   0  0  0  0  0  0  0  0  0  0  0  0
  148.3114  140.7068  156.0330 H   0  0  0  0  0  0  0  0  0  0  0  0
  149.1262  139.9120  157.4474 H   0  0  0  0  0  0  0  0  0  0  0  0
  150.4697  141.5757  155.3892 H   0  0  0  0  0  0  0  0  0  0  0  0
  151.8602  142.3095  157.3608 H   0  0  0  0  0  0  0  0  0  0  0  0
  150.6585  141.4112  158.2674 H   0  0  0  0  0  0  0  0  0  0  0  0
  152.4467  143.6641  159.1672 H   0  0  0  0  0  0  0  0  0  0  0  0
  152.7231  143.5506  160.8903 H   0  0  0  0  0  0  0  0  0  0  0  0
  151.2574  142.8719  160.2098 H   0  0  0  0  0  0  0  0  0  0  0  0
  153.7700  140.3610  161.2283 H   0  0  0  0  0  0  0  0  0  0  0  0
  154.0883  142.0397  161.6242 H   0  0  0  0  0  0  0  0  0  0  0  0
  154.9849  141.2689  160.3230 H   0  0  0  0  0  0  0  0  0  0  0  0
  151.2955  138.8418  154.6967 H   0  0  0  0  0  0  0  0  0  0  0  0
  150.0730  139.8426  153.8022 H   0  0  0  0  0  0  0  0  0  0  0  0
  145.7581  139.5663  153.0309 H   0  0  0  0  0  0  0  0  0  0  0  0
  1  2  1  0  0  0  0
  1 29  1  0  0  0  0
  1 30  1  0  0  0  0
  1 31  1  0  0  0  0
  2  6  1  0  0  0  0
  2  3  1  0  0  0  0
  2 32  1  0  0  0  0
  3  4  1  0  0  0  0
  4  5  1  0  0  0  0
  4 33  1  0  0  0  0
  4 34  1  0  0  0  0
  5  6  1  0  0  0  0
  5 35  1  0  0  0  0
  5 36  1  0  0  0  0
  6  7  1  0  0  0  0
  6  8  1  0  0  0  0
  7 37  1  0  0  0  0
  8  9  1  0  0  0  0
  8 38  1  0  0  0  0
  8 39  1  0  0  0  0
  9 28  1  0  0  0  0
  9 10  1  0  0  0  0
 10 11  2  0  0  0  0
 10 40  1  0  0  0  0
 11 12  1  0  0  0  0
 12 28  2  0  0  0  0
 12 13  1  0  0  0  0
 13 14  1  0  0  0  0
 13 25  2  0  0  0  0
 14 24  1  0  0  0  0
 14 15  1  0  0  0  0
 15 16  1  0  0  0  0
 15 41  1  0  0  0  0
 15 42  1  0  0  0  0
 16 17  1  0  0  0  0
 16 24  1  0  0  0  0
 16 43  1  0  0  0  0
 17 18  1  0  0  0  0
 18 19  1  0  0  0  0
 18 44  1  0  0  0  0
 18 45  1  0  0  0  0
 19 20  2  0  0  0  0
 19 21  1  0  0  0  0
 21 22  1  0  0  0  0
 21 23  1  0  0  0  0
 22 46  1  0  0  0  0
 22 47  1  0  0  0  0
 22 48  1  0  0  0  0
 23 49  1  0  0  0  0
 23 50  1  0  0  0  0
 23 51  1  0  0  0  0
 24 52  1  0  0  0  0
 24 53  1  0  0  0  0
 25 26  1  0  0  0  0
 26 27  2  0  0  0  0
 26 54  1  0  0  0  0
 27 28  1  0  0  0  0
M  END
> <s_m_source_file>
AV-unprocessed.smi

> <i_m_source_file_index>
270

> <i_lp_mmshare_version>
43012

> <i_f3d_flags>
0

> <s_epik_input>
W0NIMl0xW0NIMl1PW0NAQEhdKFtDSDNdKVtDQEBdMShbT0hdKVtDSDJdbihbY0hdbjIpYyhjMjMpbltjSF1uYzNONFtDSDJdW0NIXShbQ0gyXTQpT1tDSDJdQyg9TylOKFtDSDNdKVtDSDNd

> <s_epik_cmdline>
J2VwaWtfcHl0aG9uJywgJy1waCcsICc3LjAnLCAnLXRuJywgJzgnLCAnLW1hJywgJzIwMCcsICctbWV0YWxfYmluZGluZycsICctaW1hZScsICc8aW5maWxlLm1hZT4nLCAnLW9tYWUnLCAnPG91dGZpbGUubWFlPic=

> <r_lp_tautomer_probability>
1

> <r_epik_Ionization_Penalty>
0.00375854

> <r_epik_Ionization_Penalty_Charging>
0

> <r_epik_Ionization_Penalty_Neutral>
0.00375854

> <r_epik_State_Penalty>
-0

> <r_epik_Charging_Adjusted_Penalty>
0

> <i_epik_Tot_Q>
0

> <i_epik_Tot_abs_Q>
0

> <r_epik_Metal_State_Penalty>
-0

> <b_epik_Metal_Only>
0

> <s_lp_Force_Field>
OPLS_2005

> <r_lp_Energy>
53.4022

> <b_lp_Chiralities_Consistent>
1

> <s_lp_Variant>
AV-unprocessed.smi:270-4

> <Gold.Version>
5.8.1

> <Gold.Id.Protein>
6NUR|6NUR_protein|mol2

> <Gold.PLP.Fitness>
44.8072

> <Gold.PLP.PLP>
-37.2589

> <Gold.PLP.part.hbond>
-2.0000

> <Gold.PLP.part.metal>
0.0000

> <Gold.PLP.part.buried>
-4.7201

> <Gold.PLP.part.nonpolar>
-31.0417

> <Gold.PLP.part.repulsive>
0.7175

> <Gold.PLP.ligand.clash>
0.0000

> <Gold.PLP.ligand.torsion>
0.8787

> <Gold.PLP.Chemscore.Hbond>
2.0000

> <Gold.PLP.Chemscore.CHOScore>
1.0000

> <Gold.PLP.Chemscore.Metal>
0.0000

> <Gold.Chemscore.Hbonds>
donor molecule, donor type, donor heavy atom, donor atom, acceptor molecule, acceptor atom, score
      L1  H     7    37       P1  7948  1.00
      P1  H  7997  8010       L1    20  0.93
      L1  C    26    54       P1 10175  1.00

> <Gold.PLP.Chemscore.Internal.Correction>
0.3056

> <Gold.Rescore>
     Score         DG    S(hbond)    S(metal)    S(lipo)     H(rot)  DE(clash)    DE(int)     intcor
     12.15     -13.08       1.97        0.00      76.94       3.12       0.04       0.89       ----

> <Gold.Chemscore.Fitness>
12.1482

> <Gold.Chemscore.DG>
-13.0786

> <Gold.Chemscore.ZeroCoef>
-5.4800

> <Gold.Chemscore.Hbond>
1.9739

> <Gold.Chemscore.Metal>
0.0000

> <Gold.Chemscore.Lipo>
76.9383

> <Gold.Chemscore.Internal_Hbond>
0.0000

> <Gold.Chemscore.DEClash>
0.0449

> <Gold.Chemscore.DEInternal>
0.8855

> <Gold.Chemscore.Rot>
3.1234

> <Gold.Chemscore.Internal.Correction>
   9.000000E+99

> <Gold.Chemscore.Hbonds>
donor molecule, donor type, donor heavy atom, donor atom, acceptor molecule, acceptor atom, score
      L1  H     7    37       P1  7948  0.98
      P1  H  7997  8010       L1    20  0.56

> <Gold.Chemscore.Hbond.Weighted>
-6.5927

> <Gold.Chemscore.Metal.Weighted>
-0.0000

> <Gold.Chemscore.Lipo.Weighted>
-9.0018

> <Gold.Chemscore.Internal_Hbond.Weighted>
0.0000

> <Gold.Chemscore.DEClash.Weighted>
0.0449

> <Gold.Chemscore.DEInternal.Weighted>
0.8855

> <Gold.Chemscore.Rot.Weighted>
7.9959

> <Gold.Chemscore.Internal.Correction.Weighted>
   9.000000E+99

> <Gold.Protein.RotatedTorsions>
[ 6907 6896 6895 6894 ] final   23.62 input  -60.11 | X-H torsion
[ 7974 7965 7964 7962 ] final   49.97 input  175.53 | X-H torsion
[ 8008 7997 7996 7995 ] final   39.76 input   59.86 | X-H torsion
[ 10167 10162 10161 10158 ] final   25.82 input  -65.29 | X-H torsion
[ 10718 10713 10712 10709 ] final  -54.30 input   66.30 | X-H torsion
[ 10763 10752 10751 10750 ] final  -29.08 input  -60.55 | X-H torsion
[ 11005 11000 10999 10996 ] final -149.79 input  -57.11 | X-H torsion

> <Gold.Protein.ActiveResidues>
 VAL166  LYS551  ARG553  GLY616  TRP617  ASP618  TYR619  PRO620  LYS621  CYS622 
 ASP623  PHE694  ASN695  SER759  ASP760  ASP761  ALA762  ILE779  LEU786  VAL792 
 PHE793  MET794  SER795  GLU796  ALA797  LYS798  CYS799  TRP800  GLU811  SER814 

> <Gold.Protein.RotatedAtoms>
  151.9451  135.0195  160.0538 H   0  0  0  0  0  0  0  0  0  0  0  0  # atno 6907 bound_to 6896
  152.2002  133.4831  159.5063 H   0  0  0  0  0  0  0  0  0  0  0  0  # atno 6908 bound_to 6896
  150.6953  134.1517  159.4185 H   0  0  0  0  0  0  0  0  0  0  0  0  # atno 6909 bound_to 6896
  146.0057  139.4487  142.9987 H   0  0  0  0  0  0  0  0  0  0  0  0  # atno 7974 bound_to 7965
  155.2420  140.3346  155.4291 H   0  0  0  0  0  0  0  0  0  0  0  0  # atno 8008 bound_to 7997
  156.2252  140.1826  156.7426 H   0  0  0  0  0  0  0  0  0  0  0  0  # atno 8009 bound_to 7997
  154.5887  140.0641  156.9193 H   0  0  0  0  0  0  0  0  0  0  0  0  # atno 8010 bound_to 7997
  140.5075  144.0215  150.6358 H   0  0  0  0  0  0  0  0  0  0  0  0  # atno 10167 bound_to 10162
  156.1463  130.4152  150.0019 H   0  0  0  0  0  0  0  0  0  0  0  0  # atno 10718 bound_to 10713
  153.7588  135.6921  153.4930 H   0  0  0  0  0  0  0  0  0  0  0  0  # atno 10763 bound_to 10752
  153.1952  135.4456  155.0198 H   0  0  0  0  0  0  0  0  0  0  0  0  # atno 10764 bound_to 10752
  154.8160  135.3399  154.7105 H   0  0  0  0  0  0  0  0  0  0  0  0  # atno 10765 bound_to 10752
  140.7471  134.3449  157.5134 H   0  0  0  0  0  0  0  0  0  0  0  0  # atno 11005 bound_to 11000
  145.7420  141.0005  143.1296 LP  0  0  0  0  0  0  0  0  0  0  0  0  # atno 17320 bound_to 7965
  144.6935  139.9110  143.7463 LP  0  0  0  0  0  0  0  0  0  0  0  0  # atno 17321 bound_to 7965
  140.3528  143.2953  152.0468 LP  0  0  0  0  0  0  0  0  0  0  0  0  # atno 17342 bound_to 10162
  139.4887  144.6361  151.6973 LP  0  0  0  0  0  0  0  0  0  0  0  0  # atno 17343 bound_to 10162
  156.7890  130.9249  151.3646 LP  0  0  0  0  0  0  0  0  0  0  0  0  # atno 17370 bound_to 10713
  157.6619  130.8973  149.9848 LP  0  0  0  0  0  0  0  0  0  0  0  0  # atno 17371 bound_to 10713
  139.8795  134.9118  156.3045 LP  0  0  0  0  0  0  0  0  0  0  0  0  # atno 17394 bound_to 11000
  140.9785  133.7282  156.0637 LP  0  0  0  0  0  0  0  0  0  0  0  0  # atno 17395 bound_to 11000

$$$$
