AV-unprocessed.smi:2532|AV-procd|sdf|9971|dock3
  -GOLD-   2272014 13D 1   1.00000     0.00000
 Structure written by MMmdl.
 37 39  0  0  0  0  0  0  0  0  2 V2000
  153.0359  139.8985  154.7397 O   0  0  0  0  0  0  0  0  0  0  0  0
  151.9182  139.2831  155.3490 C   0  0  1  0  0  0  0  0  0  0  0  0
  152.0367  137.7642  155.1503 C   0  0  0  0  0  0  0  0  0  0  0  0
  151.4771  137.1128  156.2779 O   0  0  0  0  0  0  0  0  0  0  0  0
  152.1890  135.9440  156.6500 C   0  0  0  0  0  0  0  0  0  0  0  0
  151.7699  134.8488  155.7229 C   0  0  0  0  0  0  0  0  0  0  0  0
  151.0169  134.9715  154.5828 C   0  0  0  0  0  0  0  0  0  0  0  0
  150.8069  133.7319  153.9098 C   0  0  0  0  0  0  0  0  0  0  0  0
  151.4119  132.6769  154.5390 C   0  0  0  0  0  0  0  0  0  0  0  0
  152.2535  133.1875  155.9764 S   0  0  0  0  0  0  0  0  0  0  0  0
  151.8736  139.6691  156.8407 C   0  0  0  0  0  0  0  0  0  0  0  0
  151.2687  140.9897  157.0692 N   0  0  0  0  0  0  0  0  0  0  0  0
  150.4428  141.7149  156.2670 C   0  0  0  0  0  0  0  0  0  0  0  0
  150.1522  142.8760  156.9166 N   0  3  0  0  0  0  0  0  0  0  0  0
  150.8025  142.8943  158.1522 C   0  0  0  0  0  0  0  0  0  0  0  0
  150.8143  143.8536  159.1601 C   0  0  0  0  0  0  0  0  0  0  0  0
  151.5891  143.5623  160.3020 C   0  0  0  0  0  0  0  0  0  0  0  0
  152.3136  142.3575  160.4102 C   0  0  0  0  0  0  0  0  0  0  0  0
  152.2938  141.3920  159.3823 C   0  0  0  0  0  0  0  0  0  0  0  0
  151.5237  141.6859  158.2571 C   0  0  0  0  0  0  0  0  0  0  0  0
  152.8361  140.0384  153.8263 H   0  0  0  0  0  0  0  0  0  0  0  0
  151.0099  139.6451  154.8650 H   0  0  0  0  0  0  0  0  0  0  0  0
  151.5551  137.4476  154.2231 H   0  0  0  0  0  0  0  0  0  0  0  0
  153.0884  137.4816  155.0812 H   0  0  0  0  0  0  0  0  0  0  0  0
  153.2642  136.1151  156.5765 H   0  0  0  0  0  0  0  0  0  0  0  0
  151.9616  135.6672  157.6803 H   0  0  0  0  0  0  0  0  0  0  0  0
  150.6105  135.9010  154.2124 H   0  0  0  0  0  0  0  0  0  0  0  0
  150.2301  133.6592  152.9996 H   0  0  0  0  0  0  0  0  0  0  0  0
  151.4180  131.6372  154.2466 H   0  0  0  0  0  0  0  0  0  0  0  0
  151.2716  138.9458  157.3919 H   0  0  0  0  0  0  0  0  0  0  0  0
  152.8670  139.6419  157.2890 H   0  0  0  0  0  0  0  0  0  0  0  0
  150.0837  141.4224  155.2908 H   0  0  0  0  0  0  0  0  0  0  0  0
  150.2614  144.7781  159.0793 H   0  0  0  0  0  0  0  0  0  0  0  0
  151.6296  144.2780  161.1102 H   0  0  0  0  0  0  0  0  0  0  0  0
  152.8977  142.1694  161.2994 H   0  0  0  0  0  0  0  0  0  0  0  0
  152.8580  140.4760  159.4736 H   0  0  0  0  0  0  0  0  0  0  0  0
  149.5550  143.6016  156.5412 H   0  0  0  0  0  0  0  0  0  0  0  0
  1  2  1  0  0  0  0
  1 21  1  0  0  0  0
  2  3  1  0  0  0  0
  2 11  1  0  0  0  0
  2 22  1  0  0  0  0
  3  4  1  0  0  0  0
  3 23  1  0  0  0  0
  3 24  1  0  0  0  0
  4  5  1  0  0  0  0
  5  6  1  0  0  0  0
  5 25  1  0  0  0  0
  5 26  1  0  0  0  0
  6 10  1  0  0  0  0
  6  7  2  0  0  0  0
  7  8  1  0  0  0  0
  7 27  1  0  0  0  0
  8  9  2  0  0  0  0
  8 28  1  0  0  0  0
  9 10  1  0  0  0  0
  9 29  1  0  0  0  0
 11 12  1  0  0  0  0
 11 30  1  0  0  0  0
 11 31  1  0  0  0  0
 12 20  1  0  0  0  0
 12 13  1  0  0  0  0
 13 14  2  0  0  0  0
 13 32  1  0  0  0  0
 14 15  1  0  0  0  0
 14 37  1  0  0  0  0
 15 20  2  0  0  0  0
 15 16  1  0  0  0  0
 16 17  2  0  0  0  0
 16 33  1  0  0  0  0
 17 18  1  0  0  0  0
 17 34  1  0  0  0  0
 18 19  2  0  0  0  0
 18 35  1  0  0  0  0
 19 20  1  0  0  0  0
 19 36  1  0  0  0  0
M  CHG  1  14   1
M  END
> <s_m_source_file>
AV-unprocessed.smi

> <i_m_source_file_index>
2532

> <i_lp_mmshare_version>
43012

> <i_f3d_flags>
0

> <s_epik_input>
W2NIXTFbY0hdW2NIXVtjSF1jKGMxMiluKFtjSF1uMilbQ0gyXVtDQEhdKFtPSF0pW0NIMl1PW0NIMl1jM1tjSF1bY0hdW2NIXXMz

> <s_epik_cmdline>
J2VwaWtfcHl0aG9uJywgJy1waCcsICc3LjAnLCAnLXRuJywgJzgnLCAnLW1hJywgJzIwMCcsICctbWV0YWxfYmluZGluZycsICctaW1hZScsICc8aW5maWxlLm1hZT4nLCAnLW9tYWUnLCAnPG91dGZpbGUubWFlPic=

> <r_epik_Ionization_Penalty>
1.31758

> <r_epik_Ionization_Penalty_Charging>
1.31758

> <r_epik_Ionization_Penalty_Neutral>
1.26231e-06

> <r_epik_State_Penalty>
1.39289

> <r_epik_Charging_Adjusted_Penalty>
2.71047

> <i_epik_Tot_Q>
1

> <i_epik_Tot_abs_Q>
1

> <r_epik_Metal_State_Penalty>
5.42637

> <b_epik_Metal_Only>
0

> <s_lp_Force_Field>
OPLS_2005

> <r_lp_Energy>
15.1458

> <b_lp_Chiralities_Consistent>
1

> <s_lp_Variant>
AV-unprocessed.smi:2532-4

> <Gold.Version>
5.8.1

> <Gold.Id.Protein>
6NUR|6NUR_protein|mol2

> <Gold.PLP.Fitness>
51.6360

> <Gold.PLP.PLP>
-45.2698

> <Gold.PLP.part.hbond>
-3.0000

> <Gold.PLP.part.metal>
0.0000

> <Gold.PLP.part.buried>
-6.1684

> <Gold.PLP.part.nonpolar>
-36.2304

> <Gold.PLP.part.repulsive>
0.0379

> <Gold.PLP.ligand.clash>
0.0000

> <Gold.PLP.ligand.torsion>
1.3706

> <Gold.PLP.Chemscore.Hbond>
3.0000

> <Gold.PLP.Chemscore.CHOScore>
0.0000

> <Gold.PLP.Chemscore.Metal>
0.0000

> <Gold.Chemscore.Hbonds>
donor molecule, donor type, donor heavy atom, donor atom, acceptor molecule, acceptor atom, score
      L1  H    14    37       P1  8028  2.00
      P1  H  7997  8009       L1     1  1.00

> <Gold.PLP.Chemscore.Internal.Correction>
0.1075

> <Gold.Rescore>
     Score         DG    S(hbond)    S(metal)    S(lipo)     H(rot)  DE(clash)    DE(int)     intcor
     17.84     -19.28       1.94        0.00     116.41       2.46       0.01       1.43       ----

> <Gold.Chemscore.Fitness>
17.8423

> <Gold.Chemscore.DG>
-19.2829

> <Gold.Chemscore.ZeroCoef>
-5.4800

> <Gold.Chemscore.Hbond>
1.9408

> <Gold.Chemscore.Metal>
0.0000

> <Gold.Chemscore.Lipo>
116.4119

> <Gold.Chemscore.Internal_Hbond>
0.0000

> <Gold.Chemscore.DEClash>
0.0060

> <Gold.Chemscore.DEInternal>
1.4346

> <Gold.Chemscore.Rot>
2.4608

> <Gold.Chemscore.Internal.Correction>
   9.000000E+99

> <Gold.Chemscore.Hbonds>
donor molecule, donor type, donor heavy atom, donor atom, acceptor molecule, acceptor atom, score
      L1  H    14    37       P1  8028  0.97
      P1  H  7997  8009       L1     1  0.82

> <Gold.Chemscore.Hbond.Weighted>
-6.4823

> <Gold.Chemscore.Metal.Weighted>
-0.0000

> <Gold.Chemscore.Lipo.Weighted>
-13.6202

> <Gold.Chemscore.Internal_Hbond.Weighted>
0.0000

> <Gold.Chemscore.DEClash.Weighted>
0.0060

> <Gold.Chemscore.DEInternal.Weighted>
1.4346

> <Gold.Chemscore.Rot.Weighted>
6.2996

> <Gold.Chemscore.Internal.Correction.Weighted>
   9.000000E+99

> <Gold.Protein.RotatedTorsions>
[ 6907 6896 6895 6894 ] final  -85.82 input  -60.11 | X-H torsion
[ 7974 7965 7964 7962 ] final -169.51 input  175.53 | X-H torsion
[ 8008 7997 7996 7995 ] final -140.59 input   59.86 | X-H torsion
[ 10167 10162 10161 10158 ] final  119.56 input  -65.29 | X-H torsion
[ 10718 10713 10712 10709 ] final  169.41 input   66.30 | X-H torsion
[ 10763 10752 10751 10750 ] final    8.25 input  -60.55 | X-H torsion
[ 11005 11000 10999 10996 ] final   93.29 input  -57.11 | X-H torsion

> <Gold.Protein.ActiveResidues>
 VAL166  LYS551  ARG553  GLY616  TRP617  ASP618  TYR619  PRO620  LYS621  CYS622 
 ASP623  PHE694  ASN695  SER759  ASP760  ASP761  ALA762  ILE779  LEU786  VAL792 
 PHE793  MET794  SER795  GLU796  ALA797  LYS798  CYS799  TRP800  GLU811  SER814 

> <Gold.Protein.RotatedAtoms>
  150.6869  134.3146  159.4760 H   0  0  0  0  0  0  0  0  0  0  0  0  # atno 6907 bound_to 6896
  152.1028  134.9327  160.0578 H   0  0  0  0  0  0  0  0  0  0  0  0  # atno 6908 bound_to 6896
  152.0599  133.4023  159.4450 H   0  0  0  0  0  0  0  0  0  0  0  0  # atno 6909 bound_to 6896
  144.7184  140.2210  143.6316 H   0  0  0  0  0  0  0  0  0  0  0  0  # atno 7974 bound_to 7965
  155.4639  140.0548  157.2987 H   0  0  0  0  0  0  0  0  0  0  0  0  # atno 8008 bound_to 7997
  154.4726  140.2047  155.9912 H   0  0  0  0  0  0  0  0  0  0  0  0  # atno 8009 bound_to 7997
  156.1080  140.3208  155.8038 H   0  0  0  0  0  0  0  0  0  0  0  0  # atno 8010 bound_to 7997
  139.6038  144.7064  151.3001 H   0  0  0  0  0  0  0  0  0  0  0  0  # atno 10167 bound_to 10162
  157.0231  131.0237  151.2768 H   0  0  0  0  0  0  0  0  0  0  0  0  # atno 10718 bound_to 10713
  153.2271  135.6888  153.7932 H   0  0  0  0  0  0  0  0  0  0  0  0  # atno 10763 bound_to 10752
  153.7110  135.3282  155.3247 H   0  0  0  0  0  0  0  0  0  0  0  0  # atno 10764 bound_to 10752
  154.8297  135.4590  154.1142 H   0  0  0  0  0  0  0  0  0  0  0  0  # atno 10765 bound_to 10752
  139.8812  134.8781  156.3696 H   0  0  0  0  0  0  0  0  0  0  0  0  # atno 11005 bound_to 11000
  145.8501  139.2171  143.1777 LP  0  0  0  0  0  0  0  0  0  0  0  0  # atno 17320 bound_to 7965
  146.0268  140.8296  142.9896 LP  0  0  0  0  0  0  0  0  0  0  0  0  # atno 17321 bound_to 7965
  140.7269  143.6976  150.7871 LP  0  0  0  0  0  0  0  0  0  0  0  0  # atno 17342 bound_to 10162
  140.0558  143.5204  152.2652 LP  0  0  0  0  0  0  0  0  0  0  0  0  # atno 17343 bound_to 10162
  157.5235  130.8013  149.7835 LP  0  0  0  0  0  0  0  0  0  0  0  0  # atno 17370 bound_to 10713
  156.0095  130.3839  150.2312 LP  0  0  0  0  0  0  0  0  0  0  0  0  # atno 17371 bound_to 10713
  140.9473  133.7474  156.0225 LP  0  0  0  0  0  0  0  0  0  0  0  0  # atno 17394 bound_to 11000
  140.8148  134.3358  157.5400 LP  0  0  0  0  0  0  0  0  0  0  0  0  # atno 17395 bound_to 11000

$$$$
