#       Name:                AV-unprocessed.smi:774
#       Creating user name   scv26
#       Creation time:       Fri Mar 27 01:11:22 2020


#       File generated by GOLD software.
#

@<TRIPOS>MOLECULE
AV-unprocessed.smi:774
    40    41     1
SMALL
NO_CHARGES


@<TRIPOS>ATOM
      1 ****        -5.2526   3.8063   1.3961 C.3            1 S1                 0.0000
      2 ****        -3.8350   3.2331   1.4687 C.3            1 S1                 0.0000
      3 ****        -3.7674   1.5434   0.8122 S.3            1 S1                 0.0000
      4 ****        -1.9971   1.1844   1.0045 C.3            1 S1                 0.0000
      5 ****        -1.5666   1.0417   2.4635 C.3            1 S1                 0.0000
      6 ****        -0.2523   0.2628   2.3970 C.3            1 S1                 0.0000
      7 ****        -0.3477  -0.6269   1.1434 C.3            1 S1                 0.0000
      8 ****         0.8576  -0.5059   0.3266 N.am           1 S1                 0.0000
      9 ****         1.3276  -1.4513  -0.4993 C.2            1 S1                 0.0000
     10 ****         0.7786  -2.5399  -0.6699 O.2            1 S1                 0.0000
     11 ****         2.4470  -1.0425  -1.1206 N.am           1 S1                 0.0000
     12 ****         3.2663  -1.7725  -2.0226 C.ar           1 S1                 0.0000
     13 ****         3.3511  -3.1854  -2.0476 C.ar           1 S1                 0.0000
     14 ****         4.2188  -3.7977  -2.9722 C.ar           1 S1                 0.0000
     15 ****         4.9733  -2.9763  -3.8322 C.ar           1 S1                 0.0000
     16 ****         4.9127  -1.6281  -3.8099 N.ar           1 S1                 0.0000
     17 ****         4.0799  -1.0480  -2.9194 C.ar           1 S1                 0.0000
     18 ****        -1.5970  -0.1529   0.3751 C.3            1 S1                 0.0000
     19 ****        -5.2819   4.8205   1.7948 H              1 S1                 0.0000
     20 ****        -5.9507   3.2010   1.9745 H              1 S1                 0.0000
     21 ****        -5.6111   3.8422   0.3671 H              1 S1                 0.0000
     22 ****        -3.1478   3.8624   0.9025 H              1 S1                 0.0000
     23 ****        -3.4922   3.2294   2.5031 H              1 S1                 0.0000
     24 ****        -1.4203   1.9816   0.5334 H              1 S1                 0.0000
     25 ****        -1.4521   2.0018   2.9672 H              1 S1                 0.0000
     26 ****        -2.3074   0.4617   3.0157 H              1 S1                 0.0000
     27 ****         0.5746   0.9693   2.3071 H              1 S1                 0.0000
     28 ****        -0.0793  -0.3195   3.3026 H              1 S1                 0.0000
     29 ****        -0.4855  -1.6653   1.4509 H              1 S1                 0.0000
     30 ****         1.3704   0.3605   0.3988 H              1 S1                 0.0000
     31 ****         2.7207  -0.0834  -0.9637 H              1 S1                 0.0000
     32 ****         2.7843  -3.8051  -1.3700 H              1 S1                 0.0000
     33 ****         4.3074  -4.8731  -3.0170 H              1 S1                 0.0000
     34 ****         5.6485  -3.4137  -4.5528 H              1 S1                 0.0000
     35 ****         4.0600   0.0322  -2.9271 H              1 S1                 0.0000
     36 ****        -2.3956  -0.8820   0.5199 H              1 S1                 0.0000
     37 ****        -1.4382  -0.0666  -0.7007 H              1 S1                 0.0000
     38 ****        -0.0649  -2.7569  -0.1785 LP             1 S1                 0.0000
     39 ****         1.1761  -3.2070  -1.2999 LP             1 S1                 0.0000
     40 ****         5.4670  -1.0764  -4.4331 LP             1 S1                 0.0000
@<TRIPOS>BOND
    1    1    2 1     
    2    1   19 1     
    3    1   20 1     
    4    1   21 1     
    5    2    3 1     
    6    2   22 1     
    7    2   23 1     
    8    3    4 1     
    9    4   18 1     
   10    4    5 1     
   11    4   24 1     
   12    5    6 1     
   13    5   25 1     
   14    5   26 1     
   15    6    7 1     
   16    6   27 1     
   17    6   28 1     
   18    7    8 1     
   19    7   18 1     
   20    7   29 1     
   21    8    9 am    
   22    8   30 1     
   23    9   10 2     
   24    9   11 am    
   25   11   12 1     
   26   11   31 1     
   27   12   17 ar    
   28   12   13 ar    
   29   13   14 ar    
   30   13   32 1     
   31   14   15 ar    
   32   14   33 1     
   33   15   16 ar    
   34   15   34 1     
   35   16   17 ar    
   36   17   35 1     
   37   18   36 1     
   38   18   37 1     
   39   10   38 1     
   40   10   39 1     
   41   16   40 1     
@<TRIPOS>SUBSTRUCTURE
      1 S1             1
@<TRIPOS>SET
LONE_PAIRS      STATIC     ATOMS    <user>   **** ""
3 38 39 40
DONOR_HYDROGENS      STATIC     ATOMS    <user>   **** ""
2 30 31
ATOM$BLUE        STATIC     ATOMS    COLORGROUP SYSTEM
3 38 39 40
ATOM$RED        STATIC     ATOMS    COLORGROUP SYSTEM
2 30 31
