#       Name:                AV-unprocessed.smi:2986
#       Creating user name   scv26
#       Creation time:       Fri Mar 27 16:30:36 2020


#       File generated by GOLD software.
#

@<TRIPOS>MOLECULE
AV-unprocessed.smi:2986
    50    52     1
SMALL
NO_CHARGES


@<TRIPOS>ATOM
      1 ****         0.8262   3.7815   4.1830 C.3            1 S1                 0.0000
      2 ****         0.4549   3.1608   2.9653 O.3            1 S1                 0.0000
      3 ****         1.5490   3.0121   2.0744 C.3            1 S1                 0.0000
      4 ****         1.0816   2.3132   0.7906 C.3            1 S1                 0.0000
      5 ****         0.5060   1.0041   1.0610 N.pl3          1 S1                 0.0000
      6 ****         1.1506  -0.1780   1.2237 C.2            1 S1                 0.0000
      7 ****         2.9032  -0.3381   1.0813 S.3            1 S1                 0.0000
      8 ****         3.0541  -0.4031  -0.7354 C.3            1 S1                 0.0000
      9 ****         2.1766  -1.4733  -1.3936 C.2            1 S1                 0.0000
     10 ****         2.4720  -2.6608  -1.2538 O.2            1 S1                 0.0000
     11 ****         1.1278  -0.9270  -2.0564 N.pl3          1 S1                -1.0000
     12 ****         0.1847  -1.7213  -2.5822 C.2            1 S1                 0.0000
     13 ****         0.2524  -2.3880  -3.8358 C.2            1 S1                 0.0000
     14 ****        -0.9438  -3.0439  -3.9046 C.2            1 S1                 0.0000
     15 ****        -1.5515  -3.9375  -4.9304 C.3            1 S1                 0.0000
     16 ****        -1.6859  -2.7908  -2.7931 O.3            1 S1                 0.0000
     17 ****        -0.9583  -1.9387  -1.9539 N.2            1 S1                 0.0000
     18 ****         0.3756  -1.2248   1.5082 N.2            1 S1                 0.0000
     19 ****        -0.8922  -0.6800   1.4889 C.ar           1 S1                 0.0000
     20 ****        -2.1532  -1.2831   1.6969 C.ar           1 S1                 0.0000
     21 ****        -3.3321  -0.5118   1.6338 C.ar           1 S1                 0.0000
     22 ****        -3.2668   0.8710   1.3661 C.ar           1 S1                 0.0000
     23 ****        -2.0201   1.4915   1.1571 C.ar           1 S1                 0.0000
     24 ****        -0.8464   0.7159   1.2155 C.ar           1 S1                 0.0000
     25 ****        -0.0475   3.8738   4.8280 H              1 S1                 0.0000
     26 ****         1.2243   4.7820   4.0105 H              1 S1                 0.0000
     27 ****         1.5756   3.1929   4.7135 H              1 S1                 0.0000
     28 ****         1.9662   3.9902   1.8307 H              1 S1                 0.0000
     29 ****         2.3407   2.4297   2.5487 H              1 S1                 0.0000
     30 ****         0.3357   2.9249   0.2828 H              1 S1                 0.0000
     31 ****         1.9115   2.2101   0.0942 H              1 S1                 0.0000
     32 ****         2.8515   0.5845  -1.1508 H              1 S1                 0.0000
     33 ****         4.0949  -0.6187  -0.9769 H              1 S1                 0.0000
     34 ****         1.0510  -2.3884  -4.5623 H              1 S1                 0.0000
     35 ****        -2.1565  -3.3630  -5.6317 H              1 S1                 0.0000
     36 ****        -2.1913  -4.6873  -4.4646 H              1 S1                 0.0000
     37 ****        -0.7793  -4.4585  -5.4967 H              1 S1                 0.0000
     38 ****        -2.2116  -2.3417   1.9016 H              1 S1                 0.0000
     39 ****        -4.2905  -0.9840   1.7918 H              1 S1                 0.0000
     40 ****        -4.1740   1.4551   1.3206 H              1 S1                 0.0000
     41 ****        -1.9661   2.5503   0.9529 H              1 S1                 0.0000
     42 ****        -0.2461   3.7191   2.5217 LP             1 S1                 0.0000
     43 ****         0.0812   2.2556   3.1679 LP             1 S1                 0.0000
     44 ****         3.2757  -2.9162  -0.7163 LP             1 S1                 0.0000
     45 ****         1.9082  -3.3696  -1.6778 LP             1 S1                 0.0000
     46 ****         1.0579   0.0658  -2.1528 LP             1 S1                 0.0000
     47 ****        -1.8807  -3.6478  -2.3159 LP             1 S1                 0.0000
     48 ****        -2.5456  -2.3522  -3.0548 LP             1 S1                 0.0000
     49 ****        -1.2424  -1.5724  -1.0678 LP             1 S1                 0.0000
     50 ****         0.6459  -2.1702   1.6904 LP             1 S1                 0.0000
@<TRIPOS>BOND
    1    1    2 1     
    2    1   25 1     
    3    1   26 1     
    4    1   27 1     
    5    2    3 1     
    6    3    4 1     
    7    3   28 1     
    8    3   29 1     
    9    4    5 1     
   10    4   30 1     
   11    4   31 1     
   12    5   24 1     
   13    5    6 1     
   14    6    7 1     
   15    6   18 2     
   16    7    8 1     
   17    8    9 1     
   18    8   32 1     
   19    8   33 1     
   20    9   10 2     
   21    9   11 1     
   22   11   12 1     
   23   12   17 2     
   24   12   13 1     
   25   13   14 2     
   26   13   34 1     
   27   14   15 1     
   28   14   16 1     
   29   15   35 1     
   30   15   36 1     
   31   15   37 1     
   32   16   17 1     
   33   18   19 1     
   34   19   24 ar    
   35   19   20 ar    
   36   20   21 ar    
   37   20   38 1     
   38   21   22 ar    
   39   21   39 1     
   40   22   23 ar    
   41   22   40 1     
   42   23   24 ar    
   43   23   41 1     
   44    2   42 1     
   45    2   43 1     
   46   10   44 1     
   47   10   45 1     
   48   11   46 1     
   49   16   47 1     
   50   16   48 1     
   51   17   49 1     
   52   18   50 1     
@<TRIPOS>SUBSTRUCTURE
      1 S1             1
@<TRIPOS>SET
LONE_PAIRS      STATIC     ATOMS    <user>   **** ""
9 42 43 44 45 46 47 48 49 50
ATOM$BLUE        STATIC     ATOMS    COLORGROUP SYSTEM
9 42 43 44 45 46 47 48 49 50
