AV-unprocessed.smi:1005|AV-procd|sdf|4366|dock4
  -GOLD-   22720 2273D 1   1.00000     0.00000
 Structure written by MMmdl.
 57 59  0  0  0  0  0  0  0  0  3 V2000
  153.4503  142.5838  160.7380 C   0  0  0  0  0  0  0  0  0  0  0  0
  152.5399  142.3216  159.5512 C   0  0  0  0  0  0  0  0  0  0  0  0
  152.7336  141.1524  158.7815 C   0  0  0  0  0  0  0  0  0  0  0  0
  151.9103  140.8731  157.6691 C   0  0  0  0  0  0  0  0  0  0  0  0
  151.9227  139.8063  156.7868 N   0  0  0  0  0  0  0  0  0  0  0  0
  150.9182  140.1186  155.9740 C   0  0  0  0  0  0  0  0  0  0  0  0
  150.2578  141.2661  156.2222 N   0  0  0  0  0  0  0  0  0  0  0  0
  149.1415  141.8109  155.4700 C   0  0  0  0  0  0  0  0  0  0  0  0
  148.6219  140.8316  154.4004 C   0  0  2  0  0  0  0  0  0  0  0  0
  149.5483  140.7660  153.3324 O   0  0  0  0  0  0  0  0  0  0  0  0
  147.2569  141.2707  153.8359 C   0  0  0  0  0  0  0  0  0  0  0  0
  146.5718  140.1771  153.1008 N   0  3  1  0  0  0  0  0  0  0  0  0
  147.0763  139.9816  151.7197 C   0  0  0  0  0  0  0  0  0  0  0  0
  146.2808  138.8718  151.0144 C   0  0  0  0  0  0  0  0  0  0  0  0
  146.3597  137.6724  151.7753 O   0  0  0  0  0  0  0  0  0  0  0  0
  145.7933  137.8135  153.0746 C   0  0  1  0  0  0  0  0  0  0  0  0
  145.8686  136.4461  153.7808 C   0  0  0  0  0  0  0  0  0  0  0  0
  146.6637  135.4445  153.0242 N   0  3  0  0  0  0  0  0  0  0  0  0
  145.9768  134.9359  151.8140 C   0  0  0  0  0  0  0  0  0  0  0  0
  147.1250  134.3353  153.8887 C   0  0  0  0  0  0  0  0  0  0  0  0
  146.5856  138.8927  153.8407 C   0  0  0  0  0  0  0  0  0  0  0  0
  150.8795  141.8030  157.3446 C   0  0  0  0  0  0  0  0  0  0  0  0
  150.6762  142.9691  158.1032 C   0  0  0  0  0  0  0  0  0  0  0  0
  151.5072  143.2324  159.2121 C   0  0  0  0  0  0  0  0  0  0  0  0
  151.2784  144.4933  160.0262 C   0  0  0  0  0  0  0  0  0  0  0  0
  154.1929  141.7936  160.8529 H   0  0  0  0  0  0  0  0  0  0  0  0
  152.8709  142.6351  161.6601 H   0  0  0  0  0  0  0  0  0  0  0  0
  153.9829  143.5264  160.6100 H   0  0  0  0  0  0  0  0  0  0  0  0
  153.5200  140.4583  159.0396 H   0  0  0  0  0  0  0  0  0  0  0  0
  150.6491  139.4786  155.1461 H   0  0  0  0  0  0  0  0  0  0  0  0
  148.3453  142.0561  156.1744 H   0  0  0  0  0  0  0  0  0  0  0  0
  149.4520  142.7515  155.0131 H   0  0  0  0  0  0  0  0  0  0  0  0
  148.5476  139.8408  154.8478 H   0  0  0  0  0  0  0  0  0  0  0  0
  149.1882  140.2112  152.6562 H   0  0  0  0  0  0  0  0  0  0  0  0
  146.6074  141.6311  154.6352 H   0  0  0  0  0  0  0  0  0  0  0  0
  147.4161  142.1201  153.1693 H   0  0  0  0  0  0  0  0  0  0  0  0
  146.9950  140.9048  151.1469 H   0  0  0  0  0  0  0  0  0  0  0  0
  148.1347  139.7168  151.7495 H   0  0  0  0  0  0  0  0  0  0  0  0
  145.2384  139.1647  150.8776 H   0  0  0  0  0  0  0  0  0  0  0  0
  146.6927  138.6880  150.0220 H   0  0  0  0  0  0  0  0  0  0  0  0
  144.7549  138.1348  152.9882 H   0  0  0  0  0  0  0  0  0  0  0  0
  146.3175  136.5956  154.7642 H   0  0  0  0  0  0  0  0  0  0  0  0
  144.8672  136.0509  153.9591 H   0  0  0  0  0  0  0  0  0  0  0  0
  145.0438  134.4341  152.0748 H   0  0  0  0  0  0  0  0  0  0  0  0
  146.6092  134.2195  151.2882 H   0  0  0  0  0  0  0  0  0  0  0  0
  145.7499  135.7375  151.1124 H   0  0  0  0  0  0  0  0  0  0  0  0
  146.2797  133.7723  154.2868 H   0  0  0  0  0  0  0  0  0  0  0  0
  147.7106  134.7135  154.7274 H   0  0  0  0  0  0  0  0  0  0  0  0
  147.7606  133.6479  153.3291 H   0  0  0  0  0  0  0  0  0  0  0  0
  147.6179  138.5723  153.9921 H   0  0  0  0  0  0  0  0  0  0  0  0
  146.1454  139.0356  154.8285 H   0  0  0  0  0  0  0  0  0  0  0  0
  149.8874  143.6559  157.8339 H   0  0  0  0  0  0  0  0  0  0  0  0
  150.4459  145.0764  159.6313 H   0  0  0  0  0  0  0  0  0  0  0  0
  152.1665  145.1253  160.0105 H   0  0  0  0  0  0  0  0  0  0  0  0
  151.0494  144.2428  161.0622 H   0  0  0  0  0  0  0  0  0  0  0  0
  147.5005  135.9163  152.7110 H   0  0  0  0  0  0  0  0  0  0  0  0
  145.6023  140.4534  153.0291 H   0  0  0  0  0  0  0  0  0  0  0  0
  1  2  1  0  0  0  0
  1 26  1  0  0  0  0
  1 27  1  0  0  0  0
  1 28  1  0  0  0  0
  2 24  1  0  0  0  0
  2  3  2  0  0  0  0
  3  4  1  0  0  0  0
  3 29  1  0  0  0  0
  4 22  2  0  0  0  0
  4  5  1  0  0  0  0
  5  6  2  0  0  0  0
  6  7  1  0  0  0  0
  6 30  1  0  0  0  0
  7  8  1  0  0  0  0
  7 22  1  0  0  0  0
  8  9  1  0  0  0  0
  8 31  1  0  0  0  0
  8 32  1  0  0  0  0
  9 10  1  0  0  0  0
  9 11  1  0  0  0  0
  9 33  1  0  0  0  0
 10 34  1  0  0  0  0
 11 12  1  0  0  0  0
 11 35  1  0  0  0  0
 11 36  1  0  0  0  0
 12 21  1  0  0  0  0
 12 13  1  0  0  0  0
 12 57  1  0  0  0  0
 13 14  1  0  0  0  0
 13 37  1  0  0  0  0
 13 38  1  0  0  0  0
 14 15  1  0  0  0  0
 14 39  1  0  0  0  0
 14 40  1  0  0  0  0
 15 16  1  0  0  0  0
 16 17  1  0  0  0  0
 16 21  1  0  0  0  0
 16 41  1  0  0  0  0
 17 18  1  0  0  0  0
 17 42  1  0  0  0  0
 17 43  1  0  0  0  0
 18 19  1  0  0  0  0
 18 20  1  0  0  0  0
 18 56  1  0  0  0  0
 19 44  1  0  0  0  0
 19 45  1  0  0  0  0
 19 46  1  0  0  0  0
 20 47  1  0  0  0  0
 20 48  1  0  0  0  0
 20 49  1  0  0  0  0
 21 50  1  0  0  0  0
 21 51  1  0  0  0  0
 22 23  1  0  0  0  0
 23 24  2  0  0  0  0
 23 52  1  0  0  0  0
 24 25  1  0  0  0  0
 25 53  1  0  0  0  0
 25 54  1  0  0  0  0
 25 55  1  0  0  0  0
M  CHG  1  12   1
M  CHG  1  18   1
M  END
> <s_m_source_file>
AV-unprocessed.smi

> <i_m_source_file_index>
1005

> <i_lp_mmshare_version>
43012

> <i_f3d_flags>
0

> <s_epik_input>
W0NIM11jKFtjSF0xKWMoW0NIM10pW2NIXWMoYzEyKW4oW2NIXW4yKVtDSDJdW0NASF0oW09IXSlbQ0gyXU4zW0NIMl1bQ0gyXU9bQ0BIXShbQ0gyXTMpW0NIMl1OKFtDSDNdKVtDSDNd

> <s_epik_cmdline>
J2VwaWtfcHl0aG9uJywgJy1waCcsICc3LjAnLCAnLXRuJywgJzgnLCAnLW1hJywgJzIwMCcsICctbWV0YWxfYmluZGluZycsICctaW1hZScsICc8aW5maWxlLm1hZT4nLCAnLW9tYWUnLCAnPG91dGZpbGUubWFlPic=

> <r_epik_Ionization_Penalty>
1.0968

> <r_epik_Ionization_Penalty_Charging>
1.0096

> <r_epik_Ionization_Penalty_Neutral>
0.0871956

> <r_epik_State_Penalty>
1.31185

> <r_epik_Charging_Adjusted_Penalty>
2.32145

> <i_epik_Tot_Q>
2

> <i_epik_Tot_abs_Q>
2

> <r_epik_Metal_State_Penalty>
1.22442

> <b_epik_Metal_Only>
0

> <s_lp_Force_Field>
OPLS_2005

> <r_lp_Energy>
32.7622

> <b_lp_Chiralities_Consistent>
1

> <s_lp_Variant>
AV-unprocessed.smi:1005-5

> <Gold.Version>
5.8.1

> <Gold.Id.Protein>
6NUR|6NUR_protein|mol2

> <Gold.PLP.Fitness>
59.0731

> <Gold.PLP.PLP>
-43.6210

> <Gold.PLP.part.hbond>
-4.1601

> <Gold.PLP.part.metal>
0.0000

> <Gold.PLP.part.buried>
1.6470

> <Gold.PLP.part.nonpolar>
-43.6870

> <Gold.PLP.part.repulsive>
1.3053

> <Gold.PLP.ligand.clash>
0.0000

> <Gold.PLP.ligand.torsion>
1.2405

> <Gold.PLP.Chemscore.Hbond>
5.9093

> <Gold.PLP.Chemscore.CHOScore>
0.0000

> <Gold.PLP.Chemscore.Metal>
0.0000

> <Gold.Chemscore.Hbonds>
donor molecule, donor type, donor heavy atom, donor atom, acceptor molecule, acceptor atom, score
      L1  H    10    34       P1  7957  0.61
      L1  H    12    57       P1 10175  2.00
      L1  H    18    56       P1  7948  2.00
      P1  H  7989  7998       L1    10  0.27
      P1  H  8011  8017       L1    10  1.00

> <Gold.PLP.Chemscore.Internal.Correction>
0.2050

> <Gold.Rescore>
     Score         DG    S(hbond)    S(metal)    S(lipo)     H(rot)  DE(clash)    DE(int)     intcor
     20.28     -26.27       3.35        0.00     136.40       2.48       3.32       2.68       ----

> <Gold.Chemscore.Fitness>
20.2751

> <Gold.Chemscore.DG>
-26.2708

> <Gold.Chemscore.ZeroCoef>
-5.4800

> <Gold.Chemscore.Hbond>
3.3487

> <Gold.Chemscore.Metal>
0.0000

> <Gold.Chemscore.Lipo>
136.3963

> <Gold.Chemscore.Internal_Hbond>
0.0000

> <Gold.Chemscore.DEClash>
3.3198

> <Gold.Chemscore.DEInternal>
2.6759

> <Gold.Chemscore.Rot>
2.4814

> <Gold.Chemscore.Internal.Correction>
   9.000000E+99

> <Gold.Chemscore.Hbonds>
donor molecule, donor type, donor heavy atom, donor atom, acceptor molecule, acceptor atom, score
      L1  H    10    34       P1  7957  0.58
      L1  H    12    57       P1 10175  0.85
      L1  H    18    56       P1  7948  0.99
      P1  H  7989  7998       L1    10  0.25
      P1  H  8011  8017       L1    10  0.23

> <Gold.Chemscore.Hbond.Weighted>
-11.1848

> <Gold.Chemscore.Metal.Weighted>
-0.0000

> <Gold.Chemscore.Lipo.Weighted>
-15.9584

> <Gold.Chemscore.Internal_Hbond.Weighted>
0.0000

> <Gold.Chemscore.DEClash.Weighted>
3.3198

> <Gold.Chemscore.DEInternal.Weighted>
2.6759

> <Gold.Chemscore.Rot.Weighted>
6.3524

> <Gold.Chemscore.Internal.Correction.Weighted>
   9.000000E+99

> <Gold.Protein.RotatedTorsions>
[ 6907 6896 6895 6894 ] final   94.38 input  -60.11 | X-H torsion
[ 7974 7965 7964 7962 ] final  -14.78 input  175.53 | X-H torsion
[ 8008 7997 7996 7995 ] final  152.59 input   59.86 | X-H torsion
[ 10167 10162 10161 10158 ] final  111.27 input  -65.29 | X-H torsion
[ 10718 10713 10712 10709 ] final -112.32 input   66.30 | X-H torsion
[ 10763 10752 10751 10750 ] final  -12.74 input  -60.55 | X-H torsion
[ 11005 11000 10999 10996 ] final  -74.61 input  -57.11 | X-H torsion

> <Gold.Protein.ActiveResidues>
 VAL166  LYS551  ARG553  GLY616  TRP617  ASP618  TYR619  PRO620  LYS621  CYS622 
 ASP623  PHE694  ASN695  SER759  ASP760  ASP761  ALA762  ILE779  LEU786  VAL792 
 PHE793  MET794  SER795  GLU796  ALA797  LYS798  CYS799  TRP800  GLU811  SER814 

> <Gold.Protein.RotatedAtoms>
  152.5449  134.1203  159.8395 H   0  0  0  0  0  0  0  0  0  0  0  0  # atno 6907 bound_to 6896
  151.1259  133.5063  159.2608 H   0  0  0  0  0  0  0  0  0  0  0  0  # atno 6908 bound_to 6896
  151.1727  135.0335  159.8813 H   0  0  0  0  0  0  0  0  0  0  0  0  # atno 6909 bound_to 6896
  146.2060  140.3398  142.8407 H   0  0  0  0  0  0  0  0  0  0  0  0  # atno 7974 bound_to 7965
  156.2622  140.2016  156.6357 H   0  0  0  0  0  0  0  0  0  0  0  0  # atno 8008 bound_to 7997
  154.6648  140.0556  157.0126 H   0  0  0  0  0  0  0  0  0  0  0  0  # atno 8009 bound_to 7997
  155.1223  140.3226  155.4497 H   0  0  0  0  0  0  0  0  0  0  0  0  # atno 8010 bound_to 7997
  139.6624  144.7128  151.1840 H   0  0  0  0  0  0  0  0  0  0  0  0  # atno 10167 bound_to 10162
  156.0699  130.5914  150.8493 H   0  0  0  0  0  0  0  0  0  0  0  0  # atno 10718 bound_to 10713
  153.5030  135.7017  153.5821 H   0  0  0  0  0  0  0  0  0  0  0  0  # atno 10763 bound_to 10752
  153.3944  135.3887  155.1945 H   0  0  0  0  0  0  0  0  0  0  0  0  # atno 10764 bound_to 10752
  154.8709  135.3866  154.4503 H   0  0  0  0  0  0  0  0  0  0  0  0  # atno 10765 bound_to 10752
  141.1637  133.6917  156.7391 H   0  0  0  0  0  0  0  0  0  0  0  0  # atno 11005 bound_to 11000
  144.8794  140.7379  143.5996 LP  0  0  0  0  0  0  0  0  0  0  0  0  # atno 17320 bound_to 7965
  145.3318  139.1757  143.4533 LP  0  0  0  0  0  0  0  0  0  0  0  0  # atno 17321 bound_to 7965
  140.7585  143.5973  150.8735 LP  0  0  0  0  0  0  0  0  0  0  0  0  # atno 17342 bound_to 10162
  139.9632  143.6140  152.2996 LP  0  0  0  0  0  0  0  0  0  0  0  0  # atno 17343 bound_to 10162
  157.5763  131.0946  150.9340 LP  0  0  0  0  0  0  0  0  0  0  0  0  # atno 17370 bound_to 10713
  156.9545  130.5432  149.5283 LP  0  0  0  0  0  0  0  0  0  0  0  0  # atno 17371 bound_to 10713
  140.2688  134.8408  157.3828 LP  0  0  0  0  0  0  0  0  0  0  0  0  # atno 17394 bound_to 11000
  140.1541  134.4812  155.7940 LP  0  0  0  0  0  0  0  0  0  0  0  0  # atno 17395 bound_to 11000

$$$$
