AV-unprocessed.smi:1748|AV-procd|sdf|7036|dock2
  -GOLD-   22720 8253D 1   1.00000     0.00000
 Structure written by MMmdl.
 40 41  0  0  0  0  0  0  0  0  2 V2000
  138.7348  141.8776  154.1696 C   0  0  0  0  0  0  0  0  0  0  0  0
  138.9621  140.4203  154.0646 N   0  3  1  0  0  0  0  0  0  0  0  0
  137.8271  139.7153  153.4181 C   0  0  0  0  0  0  0  0  0  0  0  0
  138.0389  138.1924  153.4419 C   0  0  0  0  0  0  0  0  0  0  0  0
  139.3738  137.8103  152.7870 C   0  0  0  0  0  0  0  0  0  0  0  0
  140.5289  138.5765  153.4521 C   0  0  1  0  0  0  0  0  0  0  0  0
  141.7865  138.2572  152.7834 N   0  0  0  0  0  0  0  0  0  0  0  0
  142.3470  137.0404  152.7346 C   0  0  0  0  0  0  0  0  0  0  0  0
  141.8514  136.0503  153.2721 O   0  0  0  0  0  0  0  0  0  0  0  0
  143.5053  137.0718  152.0507 N   0  0  0  0  0  0  0  0  0  0  0  0
  144.3856  136.0205  151.7431 C   0  0  0  0  0  0  0  0  0  0  0  0
  144.0592  134.9214  151.0138 C   0  0  0  0  0  0  0  0  0  0  0  0
  145.0252  133.8752  150.7208 C   0  0  0  0  0  0  0  0  0  0  0  0
  144.6700  132.6768  149.8541 C   0  0  0  0  0  0  0  0  0  0  0  0
  145.7607  131.9857  149.5205 F   0  0  0  0  0  0  0  0  0  0  0  0
  143.8517  131.8633  150.5199 F   0  0  0  0  0  0  0  0  0  0  0  0
  144.0568  133.0570  148.7330 F   0  0  0  0  0  0  0  0  0  0  0  0
  146.2737  134.0640  151.1861 C   0  0  0  0  0  0  0  0  0  0  0  0
  146.6170  135.1898  151.9380 N   0  0  0  0  0  0  0  0  0  0  0  0
  145.7586  136.1869  152.2483 C   0  0  0  0  0  0  0  0  0  0  0  0
  146.1396  137.1511  152.9113 O   0  0  0  0  0  0  0  0  0  0  0  0
  140.2581  140.0960  153.4185 C   0  0  0  0  0  0  0  0  0  0  0  0
  147.5724  135.2535  152.2592 H   0  0  0  0  0  0  0  0  0  0  0  0
  138.6628  142.3349  153.1821 H   0  0  0  0  0  0  0  0  0  0  0  0
  139.5517  142.3568  154.7101 H   0  0  0  0  0  0  0  0  0  0  0  0
  137.8117  142.0853  154.7117 H   0  0  0  0  0  0  0  0  0  0  0  0
  136.8999  139.9618  153.9371 H   0  0  0  0  0  0  0  0  0  0  0  0
  137.7177  140.0639  152.3898 H   0  0  0  0  0  0  0  0  0  0  0  0
  138.0221  137.8363  154.4730 H   0  0  0  0  0  0  0  0  0  0  0  0
  137.2163  137.6933  152.9292 H   0  0  0  0  0  0  0  0  0  0  0  0
  139.5343  136.7345  152.8700 H   0  0  0  0  0  0  0  0  0  0  0  0
  139.3363  138.0401  151.7210 H   0  0  0  0  0  0  0  0  0  0  0  0
  140.5954  138.2523  154.4928 H   0  0  0  0  0  0  0  0  0  0  0  0
  142.2615  139.0172  152.3181 H   0  0  0  0  0  0  0  0  0  0  0  0
  143.8138  137.9792  151.7326 H   0  0  0  0  0  0  0  0  0  0  0  0
  143.0671  134.7972  150.6120 H   0  0  0  0  0  0  0  0  0  0  0  0
  147.0944  133.3823  151.0179 H   0  0  0  0  0  0  0  0  0  0  0  0
  140.2533  140.4598  152.3894 H   0  0  0  0  0  0  0  0  0  0  0  0
  141.0568  140.6270  153.9385 H   0  0  0  0  0  0  0  0  0  0  0  0
  139.0180  140.0704  155.0106 H   0  0  0  0  0  0  0  0  0  0  0  0
  1  2  1  0  0  0  0
  1 24  1  0  0  0  0
  1 25  1  0  0  0  0
  1 26  1  0  0  0  0
  2 22  1  0  0  0  0
  2  3  1  0  0  0  0
  2 40  1  0  0  0  0
  3  4  1  0  0  0  0
  3 27  1  0  0  0  0
  3 28  1  0  0  0  0
  4  5  1  0  0  0  0
  4 29  1  0  0  0  0
  4 30  1  0  0  0  0
  5  6  1  0  0  0  0
  5 31  1  0  0  0  0
  5 32  1  0  0  0  0
  6  7  1  0  0  0  0
  6 22  1  0  0  0  0
  6 33  1  0  0  0  0
  7  8  1  0  0  0  0
  7 34  1  0  0  0  0
  8  9  2  0  0  0  0
  8 10  1  0  0  0  0
 10 11  1  0  0  0  0
 10 35  1  0  0  0  0
 11 20  1  0  0  0  0
 11 12  2  0  0  0  0
 12 13  1  0  0  0  0
 12 36  1  0  0  0  0
 13 14  1  0  0  0  0
 13 18  2  0  0  0  0
 14 15  1  0  0  0  0
 14 16  1  0  0  0  0
 14 17  1  0  0  0  0
 18 19  1  0  0  0  0
 18 37  1  0  0  0  0
 19 23  1  0  0  0  0
 19 20  1  0  0  0  0
 20 21  2  0  0  0  0
 22 38  1  0  0  0  0
 22 39  1  0  0  0  0
M  CHG  1   2   1
M  END
> <s_m_source_file>
AV-unprocessed.smi

> <i_m_source_file_index>
1748

> <i_lp_mmshare_version>
43012

> <i_f3d_flags>
0

> <s_epik_input>
W0NIM11OMVtDSDJdW0NIMl1bQ0gyXVtDQEhdKFtDSDJdMSlbTkhdQyg9TylbTkhdYzJbY0hdYyhDKEYpKEYpRilbY0hdW25IXWMyPU8=

> <s_epik_cmdline>
J2VwaWtfcHl0aG9uJywgJy1waCcsICc3LjAnLCAnLXRuJywgJzgnLCAnLW1hJywgJzIwMCcsICctbWV0YWxfYmluZGluZycsICctaW1hZScsICc8aW5maWxlLm1hZT4nLCAnLW9tYWUnLCAnPG91dGZpbGUubWFlPic=

> <r_lp_tautomer_probability>
1

> <r_epik_Ionization_Penalty>
0.00746315

> <r_epik_Ionization_Penalty_Charging>
0.00744398

> <r_epik_Ionization_Penalty_Neutral>
1.91704e-05

> <r_epik_State_Penalty>
-0

> <r_epik_Charging_Adjusted_Penalty>
0.00744398

> <i_epik_Tot_Q>
1

> <i_epik_Tot_abs_Q>
1

> <r_epik_Metal_State_Penalty>
0.379332

> <b_epik_Metal_Only>
0

> <s_lp_Force_Field>
OPLS_2005

> <r_lp_Energy>
25.304

> <b_lp_Chiralities_Consistent>
1

> <s_lp_Variant>
AV-unprocessed.smi:1748-1

> <Gold.Version>
5.8.1

> <Gold.Id.Protein>
6NUR|6NUR_protein|mol2

> <Gold.PLP.Fitness>
43.0098

> <Gold.PLP.PLP>
-39.0443

> <Gold.PLP.part.hbond>
-2.8908

> <Gold.PLP.part.metal>
0.0000

> <Gold.PLP.part.buried>
-3.9746

> <Gold.PLP.part.nonpolar>
-33.8910

> <Gold.PLP.part.repulsive>
1.1365

> <Gold.PLP.ligand.clash>
1.3565

> <Gold.PLP.ligand.torsion>
0.8525

> <Gold.PLP.Chemscore.Hbond>
2.3310

> <Gold.PLP.Chemscore.CHOScore>
0.0000

> <Gold.PLP.Chemscore.Metal>
0.0000

> <Gold.Chemscore.Hbonds>
donor molecule, donor type, donor heavy atom, donor atom, acceptor molecule, acceptor atom, score
      L1  H     7    34       P1 10175  0.94
      L1  H    10    35       P1 10171  0.51
      L1  H    19    23       P1  7948  0.70

> <Gold.PLP.Chemscore.Internal.Correction>
0.0342

> <Gold.Rescore>
     Score         DG    S(hbond)    S(metal)    S(lipo)     H(rot)  DE(clash)    DE(int)     intcor
     17.32     -18.03       2.16        0.00      67.57       1.00       0.16       0.55       ----

> <Gold.Chemscore.Fitness>
17.3229

> <Gold.Chemscore.DG>
-18.0265

> <Gold.Chemscore.ZeroCoef>
-5.4800

> <Gold.Chemscore.Hbond>
2.1558

> <Gold.Chemscore.Metal>
0.0000

> <Gold.Chemscore.Lipo>
67.5720

> <Gold.Chemscore.Internal_Hbond>
0.0000

> <Gold.Chemscore.DEClash>
0.1552

> <Gold.Chemscore.DEInternal>
0.5484

> <Gold.Chemscore.Rot>
1.0000

> <Gold.Chemscore.Internal.Correction>
   9.000000E+99

> <Gold.Chemscore.Hbonds>
donor molecule, donor type, donor heavy atom, donor atom, acceptor molecule, acceptor atom, score
      L1  H     7    34       P1 10175  0.74
      L1  H    10    35       P1 10171  0.49
      L1  H    19    23       P1  7948  0.70

> <Gold.Chemscore.Hbond.Weighted>
-7.2005

> <Gold.Chemscore.Metal.Weighted>
-0.0000

> <Gold.Chemscore.Lipo.Weighted>
-7.9059

> <Gold.Chemscore.Internal_Hbond.Weighted>
0.0000

> <Gold.Chemscore.DEClash.Weighted>
0.1552

> <Gold.Chemscore.DEInternal.Weighted>
0.5484

> <Gold.Chemscore.Rot.Weighted>
2.5600

> <Gold.Chemscore.Internal.Correction.Weighted>
   9.000000E+99

> <Gold.Protein.RotatedTorsions>
[ 6907 6896 6895 6894 ] final  -53.81 input  -60.11 | X-H torsion
[ 7974 7965 7964 7962 ] final   24.76 input  175.53 | X-H torsion
[ 8008 7997 7996 7995 ] final -142.24 input   59.86 | X-H torsion
[ 10167 10162 10161 10158 ] final   75.09 input  -65.29 | X-H torsion
[ 10718 10713 10712 10709 ] final  137.79 input   66.30 | X-H torsion
[ 10763 10752 10751 10750 ] final   61.71 input  -60.55 | X-H torsion
[ 11005 11000 10999 10996 ] final  142.82 input  -57.11 | X-H torsion

> <Gold.Protein.ActiveResidues>
 VAL166  LYS551  ARG553  GLY616  TRP617  ASP618  TYR619  PRO620  LYS621  CYS622 
 ASP623  PHE694  ASN695  SER759  ASP760  ASP761  ALA762  ILE779  LEU786  VAL792 
 PHE793  MET794  SER795  GLU796  ALA797  LYS798  CYS799  TRP800  GLU811  SER814 

> <Gold.Protein.RotatedAtoms>
  150.8393  134.7679  159.6918 H   0  0  0  0  0  0  0  0  0  0  0  0  # atno 6907 bound_to 6896
  152.4484  134.5443  159.9858 H   0  0  0  0  0  0  0  0  0  0  0  0  # atno 6908 bound_to 6896
  151.5587  133.3368  159.3002 H   0  0  0  0  0  0  0  0  0  0  0  0  # atno 6909 bound_to 6896
  146.1922  139.7560  142.8823 H   0  0  0  0  0  0  0  0  0  0  0  0  # atno 7974 bound_to 7965
  155.4909  140.0568  157.2954 H   0  0  0  0  0  0  0  0  0  0  0  0  # atno 8008 bound_to 7997
  154.4623  140.2002  156.0161 H   0  0  0  0  0  0  0  0  0  0  0  0  # atno 8009 bound_to 7997
  156.0913  140.3233  155.7824 H   0  0  0  0  0  0  0  0  0  0  0  0  # atno 8010 bound_to 7997
  140.0067  144.5645  150.7692 H   0  0  0  0  0  0  0  0  0  0  0  0  # atno 10167 bound_to 10162
  157.4323  131.1049  151.0236 H   0  0  0  0  0  0  0  0  0  0  0  0  # atno 10718 bound_to 10713
  152.9959  135.5491  154.6077 H   0  0  0  0  0  0  0  0  0  0  0  0  # atno 10763 bound_to 10752
  154.5405  135.2819  155.1102 H   0  0  0  0  0  0  0  0  0  0  0  0  # atno 10764 bound_to 10752
  154.2381  135.6421  153.5250 H   0  0  0  0  0  0  0  0  0  0  0  0  # atno 10765 bound_to 10752
  140.0506  134.9257  157.1010 H   0  0  0  0  0  0  0  0  0  0  0  0  # atno 11005 bound_to 11000
  145.3757  141.0350  143.3206 LP  0  0  0  0  0  0  0  0  0  0  0  0  # atno 17320 bound_to 7965
  144.8509  139.5323  143.6857 LP  0  0  0  0  0  0  0  0  0  0  0  0  # atno 17321 bound_to 7965
  140.7397  143.2795  151.3640 LP  0  0  0  0  0  0  0  0  0  0  0  0  # atno 17342 bound_to 10162
  139.6233  144.0863  152.2411 LP  0  0  0  0  0  0  0  0  0  0  0  0  # atno 17343 bound_to 10162
  157.1128  130.6029  149.5486 LP  0  0  0  0  0  0  0  0  0  0  0  0  # atno 17370 bound_to 10713
  155.9918  130.4973  150.7312 LP  0  0  0  0  0  0  0  0  0  0  0  0  # atno 17371 bound_to 10713
  140.3923  134.2171  155.7166 LP  0  0  0  0  0  0  0  0  0  0  0  0  # atno 17394 bound_to 11000
  141.1928  133.8164  157.0823 LP  0  0  0  0  0  0  0  0  0  0  0  0  # atno 17395 bound_to 11000

$$$$
