AV-unprocessed.smi:3303|AV-procd|sdf|12684|dock8
  -GOLD-   2272019 23D 1   1.00000     0.00000
 Structure written by MMmdl.
 44 45  0  0  0  0  0  0  0  0  2 V2000
  151.1087  138.6450  155.1215 C   0  0  0  0  0  0  0  0  0  0  0  0
  150.1129  139.5557  154.3817 C   0  0  1  0  0  0  0  0  0  0  0  0
  148.8357  138.8044  153.9581 C   0  0  0  0  0  0  0  0  0  0  0  0
  147.9445  139.6765  153.1533 N   0  3  1  0  0  0  0  0  0  0  0  0
  146.8299  138.9330  152.5230 C   0  0  0  0  0  0  0  0  0  0  0  0
  147.5259  140.9170  153.8660 C   0  0  1  0  0  0  0  0  0  0  0  0
  146.4843  140.6707  154.9797 C   0  0  0  0  0  0  0  0  0  0  0  0
  148.7620  141.7070  154.3542 C   0  0  0  0  0  0  0  0  0  0  0  0
  149.7860  140.8592  155.1466 C   0  0  1  0  0  0  0  0  0  0  0  0
  149.3444  140.5705  156.5089 N   0  0  0  0  0  0  0  0  0  0  0  0
  149.5805  141.6826  157.4186 C   0  0  0  0  0  0  0  0  0  0  0  0
  151.0590  142.0879  157.3557 C   0  0  0  0  0  0  0  0  0  0  0  0
  151.4232  143.0802  158.4434 C   0  0  0  0  0  0  0  0  0  0  0  0
  151.7314  144.4193  158.1221 C   0  0  0  0  0  0  0  0  0  0  0  0
  152.0728  145.2984  159.1681 C   0  0  0  0  0  0  0  0  0  0  0  0
  152.0937  144.8069  160.4876 C   0  0  0  0  0  0  0  0  0  0  0  0
  151.7717  143.4520  160.7033 C   0  0  0  0  0  0  0  0  0  0  0  0
  151.4435  142.6005  159.7075 N   0  0  0  0  0  0  0  0  0  0  0  0
  150.6772  138.2269  156.0315 H   0  0  0  0  0  0  0  0  0  0  0  0
  152.0098  139.1924  155.3994 H   0  0  0  0  0  0  0  0  0  0  0  0
  151.4145  137.8091  154.4917 H   0  0  0  0  0  0  0  0  0  0  0  0
  150.6131  139.8594  153.4605 H   0  0  0  0  0  0  0  0  0  0  0  0
  149.1142  137.9367  153.3587 H   0  0  0  0  0  0  0  0  0  0  0  0
  148.3043  138.4195  154.8291 H   0  0  0  0  0  0  0  0  0  0  0  0
  146.2008  138.4468  153.2692 H   0  0  0  0  0  0  0  0  0  0  0  0
  147.2179  138.1603  151.8587 H   0  0  0  0  0  0  0  0  0  0  0  0
  146.2070  139.5998  151.9259 H   0  0  0  0  0  0  0  0  0  0  0  0
  147.0340  141.5480  153.1244 H   0  0  0  0  0  0  0  0  0  0  0  0
  146.2505  141.5996  155.5005 H   0  0  0  0  0  0  0  0  0  0  0  0
  146.8291  139.9580  155.7273 H   0  0  0  0  0  0  0  0  0  0  0  0
  145.5457  140.2929  154.5749 H   0  0  0  0  0  0  0  0  0  0  0  0
  149.2751  142.0932  153.4725 H   0  0  0  0  0  0  0  0  0  0  0  0
  148.4531  142.5945  154.9054 H   0  0  0  0  0  0  0  0  0  0  0  0
  150.7145  141.4271  155.2262 H   0  0  0  0  0  0  0  0  0  0  0  0
  149.8507  139.7669  156.8537 H   0  0  0  0  0  0  0  0  0  0  0  0
  148.9514  142.5281  157.1376 H   0  0  0  0  0  0  0  0  0  0  0  0
  149.3229  141.4055  158.4401 H   0  0  0  0  0  0  0  0  0  0  0  0
  151.6934  141.2054  157.4497 H   0  0  0  0  0  0  0  0  0  0  0  0
  151.2879  142.5293  156.3845 H   0  0  0  0  0  0  0  0  0  0  0  0
  151.7093  144.7665  157.0995 H   0  0  0  0  0  0  0  0  0  0  0  0
  152.3148  146.3305  158.9618 H   0  0  0  0  0  0  0  0  0  0  0  0
  152.3507  145.4521  161.3145 H   0  0  0  0  0  0  0  0  0  0  0  0
  151.7788  143.0412  161.7021 H   0  0  0  0  0  0  0  0  0  0  0  0
  148.5149  139.9977  152.3841 H   0  0  0  0  0  0  0  0  0  0  0  0
  1  2  1  0  0  0  0
  1 19  1  0  0  0  0
  1 20  1  0  0  0  0
  1 21  1  0  0  0  0
  2  9  1  0  0  0  0
  2  3  1  0  0  0  0
  2 22  1  0  0  0  0
  3  4  1  0  0  0  0
  3 23  1  0  0  0  0
  3 24  1  0  0  0  0
  4  5  1  0  0  0  0
  4  6  1  0  0  0  0
  4 44  1  0  0  0  0
  5 25  1  0  0  0  0
  5 26  1  0  0  0  0
  5 27  1  0  0  0  0
  6  7  1  0  0  0  0
  6  8  1  0  0  0  0
  6 28  1  0  0  0  0
  7 29  1  0  0  0  0
  7 30  1  0  0  0  0
  7 31  1  0  0  0  0
  8  9  1  0  0  0  0
  8 32  1  0  0  0  0
  8 33  1  0  0  0  0
  9 10  1  0  0  0  0
  9 34  1  0  0  0  0
 10 11  1  0  0  0  0
 10 35  1  0  0  0  0
 11 12  1  0  0  0  0
 11 36  1  0  0  0  0
 11 37  1  0  0  0  0
 12 13  1  0  0  0  0
 12 38  1  0  0  0  0
 12 39  1  0  0  0  0
 13 18  1  0  0  0  0
 13 14  2  0  0  0  0
 14 15  1  0  0  0  0
 14 40  1  0  0  0  0
 15 16  2  0  0  0  0
 15 41  1  0  0  0  0
 16 17  1  0  0  0  0
 16 42  1  0  0  0  0
 17 18  2  0  0  0  0
 17 43  1  0  0  0  0
M  CHG  1   4   1
M  END
> <s_m_source_file>
AV-unprocessed.smi

> <i_m_source_file_index>
3303

> <i_lp_mmshare_version>
43012

> <i_f3d_flags>
0

> <s_epik_input>
W0NIM11bQ0BASF0xW0NIMl1OKFtDSDNdKVtDQEBIXShbQ0gzXSlbQ0gyXVtDQEhdMVtOSF1bQ0gyXVtDSDJdYzJbY0hdW2NIXVtjSF1bY0hdbjI=

> <s_epik_cmdline>
J2VwaWtfcHl0aG9uJywgJy1waCcsICc3LjAnLCAnLXRuJywgJzgnLCAnLW1hJywgJzIwMCcsICctbWV0YWxfYmluZGluZycsICctaW1hZScsICc8aW5maWxlLm1hZT4nLCAnLW9tYWUnLCAnPG91dGZpbGUubWFlPic=

> <r_epik_Ionization_Penalty>
2.31085

> <r_epik_Ionization_Penalty_Charging>
0.000313057

> <r_epik_Ionization_Penalty_Neutral>
2.31054

> <r_epik_State_Penalty>
2.4087

> <r_epik_Charging_Adjusted_Penalty>
2.40902

> <i_epik_Tot_Q>
1

> <i_epik_Tot_abs_Q>
1

> <r_epik_Metal_State_Penalty>
2.30979

> <b_epik_Metal_Only>
0

> <s_lp_Force_Field>
OPLS_2005

> <r_lp_Energy>
26.6876

> <b_lp_Chiralities_Consistent>
1

> <s_lp_Variant>
AV-unprocessed.smi:3303-28

> <Gold.Version>
5.8.1

> <Gold.Id.Protein>
6NUR|6NUR_protein|mol2

> <Gold.PLP.Fitness>
45.3176

> <Gold.PLP.PLP>
-43.0249

> <Gold.PLP.part.hbond>
-1.0714

> <Gold.PLP.part.metal>
0.0000

> <Gold.PLP.part.buried>
-2.9690

> <Gold.PLP.part.nonpolar>
-38.3172

> <Gold.PLP.part.repulsive>
0.0795

> <Gold.PLP.ligand.clash>
0.0000

> <Gold.PLP.ligand.torsion>
0.3595

> <Gold.PLP.Chemscore.Hbond>
1.0000

> <Gold.PLP.Chemscore.CHOScore>
0.0000

> <Gold.PLP.Chemscore.Metal>
0.0000

> <Gold.Chemscore.Hbonds>
donor molecule, donor type, donor heavy atom, donor atom, acceptor molecule, acceptor atom, score
      L1  H     4    44       P1  7957  1.00

> <Gold.PLP.Chemscore.Internal.Correction>
0.0117

> <Gold.Rescore>
     Score         DG    S(hbond)    S(metal)    S(lipo)     H(rot)  DE(clash)    DE(int)     intcor
     19.84     -20.41       1.00        0.00     128.09       1.33       0.09       0.47       ----

> <Gold.Chemscore.Fitness>
19.8448

> <Gold.Chemscore.DG>
-20.4080

> <Gold.Chemscore.ZeroCoef>
-5.4800

> <Gold.Chemscore.Hbond>
0.9999

> <Gold.Chemscore.Metal>
0.0000

> <Gold.Chemscore.Lipo>
128.0859

> <Gold.Chemscore.Internal_Hbond>
0.0000

> <Gold.Chemscore.DEClash>
0.0918

> <Gold.Chemscore.DEInternal>
0.4714

> <Gold.Chemscore.Rot>
1.3272

> <Gold.Chemscore.Internal.Correction>
   9.000000E+99

> <Gold.Chemscore.Hbonds>
donor molecule, donor type, donor heavy atom, donor atom, acceptor molecule, acceptor atom, score
      L1  H     4    44       P1  7957  0.99

> <Gold.Chemscore.Hbond.Weighted>
-3.3396

> <Gold.Chemscore.Metal.Weighted>
-0.0000

> <Gold.Chemscore.Lipo.Weighted>
-14.9860

> <Gold.Chemscore.Internal_Hbond.Weighted>
0.0000

> <Gold.Chemscore.DEClash.Weighted>
0.0918

> <Gold.Chemscore.DEInternal.Weighted>
0.4714

> <Gold.Chemscore.Rot.Weighted>
3.3976

> <Gold.Chemscore.Internal.Correction.Weighted>
   9.000000E+99

> <Gold.Protein.RotatedTorsions>
[ 6907 6896 6895 6894 ] final  -59.44 input  -60.11 | X-H torsion
[ 7974 7965 7964 7962 ] final -108.99 input  175.53 | X-H torsion
[ 8008 7997 7996 7995 ] final  -81.17 input   59.86 | X-H torsion
[ 10167 10162 10161 10158 ] final -105.93 input  -65.29 | X-H torsion
[ 10718 10713 10712 10709 ] final   31.53 input   66.30 | X-H torsion
[ 10763 10752 10751 10750 ] final -161.56 input  -60.55 | X-H torsion
[ 11005 11000 10999 10996 ] final  123.51 input  -57.11 | X-H torsion

> <Gold.Protein.ActiveResidues>
 VAL166  LYS551  ARG553  GLY616  TRP617  ASP618  TYR619  PRO620  LYS621  CYS622 
 ASP623  PHE694  ASN695  SER759  ASP760  ASP761  ALA762  ILE779  LEU786  VAL792 
 PHE793  MET794  SER795  GLU796  ALA797  LYS798  CYS799  TRP800  GLU811  SER814 

> <Gold.Protein.RotatedAtoms>
  150.7930  134.6969  159.6527 H   0  0  0  0  0  0  0  0  0  0  0  0  # atno 6907 bound_to 6896
  152.4039  134.6237  160.0067 H   0  0  0  0  0  0  0  0  0  0  0  0  # atno 6908 bound_to 6896
  151.6500  133.3284  159.3186 H   0  0  0  0  0  0  0  0  0  0  0  0  # atno 6909 bound_to 6896
  145.1861  140.8993  143.3452 H   0  0  0  0  0  0  0  0  0  0  0  0  # atno 7974 bound_to 7965
  154.5956  140.0652  156.9299 H   0  0  0  0  0  0  0  0  0  0  0  0  # atno 8008 bound_to 7997
  155.2220  140.3331  155.4296 H   0  0  0  0  0  0  0  0  0  0  0  0  # atno 8009 bound_to 7997
  156.2285  140.1830  156.7287 H   0  0  0  0  0  0  0  0  0  0  0  0  # atno 8010 bound_to 7997
  140.1933  143.3875  152.1189 H   0  0  0  0  0  0  0  0  0  0  0  0  # atno 10167 bound_to 10162
  157.2736  130.7220  149.6518 H   0  0  0  0  0  0  0  0  0  0  0  0  # atno 10718 bound_to 10713
  154.7292  135.3043  154.8919 H   0  0  0  0  0  0  0  0  0  0  0  0  # atno 10763 bound_to 10752
  153.9767  135.6735  153.4753 H   0  0  0  0  0  0  0  0  0  0  0  0  # atno 10764 bound_to 10752
  153.0903  135.4963  154.8597 H   0  0  0  0  0  0  0  0  0  0  0  0  # atno 10765 bound_to 10752
  139.9316  134.9641  156.8269 H   0  0  0  0  0  0  0  0  0  0  0  0  # atno 11005 bound_to 11000
  145.0088  139.3529  143.6130 LP  0  0  0  0  0  0  0  0  0  0  0  0  # atno 17320 bound_to 7965
  146.3444  139.9341  142.8749 LP  0  0  0  0  0  0  0  0  0  0  0  0  # atno 17321 bound_to 7965
  139.5247  144.7087  151.5275 LP  0  0  0  0  0  0  0  0  0  0  0  0  # atno 17342 bound_to 10162
  140.6441  143.8830  150.6720 LP  0  0  0  0  0  0  0  0  0  0  0  0  # atno 17343 bound_to 10162
  155.9663  130.4360  150.5114 LP  0  0  0  0  0  0  0  0  0  0  0  0  # atno 17370 bound_to 10713
  157.3043  131.0651  151.2046 LP  0  0  0  0  0  0  0  0  0  0  0  0  # atno 17371 bound_to 10713
  140.6188  134.0013  155.7609 LP  0  0  0  0  0  0  0  0  0  0  0  0  # atno 17394 bound_to 11000
  141.0907  133.9921  157.3241 LP  0  0  0  0  0  0  0  0  0  0  0  0  # atno 17395 bound_to 11000

$$$$
