AV-unprocessed.smi:1286|AV-procd|sdf|5378|dock7
  -GOLD-   22720 4523D 1   1.00000     0.00000
 Structure written by MMmdl.
 36 37  0  0  0  0  0  0  0  0  1 V2000
  151.6951  137.2842  156.9537 C   0  0  0  0  0  0  0  0  0  0  0  0
  152.4129  138.6319  156.7552 C   0  0  1  0  0  0  0  0  0  0  0  0
  152.1910  139.2428  155.3573 C   0  0  0  0  0  0  0  0  0  0  0  0
  150.9633  140.0131  155.2683 N   0  0  0  0  0  0  0  0  0  0  0  0
  149.9247  139.8651  154.3737 C   0  0  0  0  0  0  0  0  0  0  0  0
  148.9893  140.8123  154.6772 C   0  0  0  0  0  0  0  0  0  0  0  0
  149.5554  141.5037  155.7846 C   0  0  0  0  0  0  0  0  0  0  0  0
  150.7380  141.0245  156.1348 N   0  0  0  0  0  0  0  0  0  0  0  0
  151.9720  139.5878  157.7671 N   0  0  0  0  0  0  0  0  0  0  0  0
  152.7511  140.1451  158.7068 C   0  0  0  0  0  0  0  0  0  0  0  0
  153.9513  139.8982  158.8252 O   0  0  0  0  0  0  0  0  0  0  0  0
  152.0667  141.1278  159.6635 C   0  0  0  0  0  0  0  0  0  0  0  0
  152.7434  142.5150  159.7220 C   0  0  1  0  0  0  0  0  0  0  0  0
  152.3938  143.4117  158.5584 C   0  0  0  0  0  0  0  0  0  0  0  0
  151.9217  144.5948  158.9441 C   0  0  0  0  0  0  0  0  0  0  0  0
  151.8558  144.7288  160.4399 C   0  0  0  0  0  0  0  0  0  0  0  0
  152.3157  143.3475  160.9579 C   0  0  0  0  0  0  0  0  0  0  0  0
  152.0601  136.5302  156.2559 H   0  0  0  0  0  0  0  0  0  0  0  0
  150.6195  137.3836  156.8039 H   0  0  0  0  0  0  0  0  0  0  0  0
  151.8566  136.8946  157.9592 H   0  0  0  0  0  0  0  0  0  0  0  0
  153.4851  138.4646  156.8745 H   0  0  0  0  0  0  0  0  0  0  0  0
  153.0315  139.8840  155.0860 H   0  0  0  0  0  0  0  0  0  0  0  0
  152.1475  138.4535  154.6056 H   0  0  0  0  0  0  0  0  0  0  0  0
  149.9371  139.1043  153.6069 H   0  0  0  0  0  0  0  0  0  0  0  0
  148.0448  140.9851  154.1835 H   0  0  0  0  0  0  0  0  0  0  0  0
  149.1454  142.3341  156.3402 H   0  0  0  0  0  0  0  0  0  0  0  0
  150.9966  139.8483  157.7496 H   0  0  0  0  0  0  0  0  0  0  0  0
  151.0194  141.2429  159.3784 H   0  0  0  0  0  0  0  0  0  0  0  0
  152.0664  140.6805  160.6581 H   0  0  0  0  0  0  0  0  0  0  0  0
  153.8279  142.3952  159.7281 H   0  0  0  0  0  0  0  0  0  0  0  0
  152.5381  143.1092  157.5315 H   0  0  0  0  0  0  0  0  0  0  0  0
  151.6230  145.3927  158.2805 H   0  0  0  0  0  0  0  0  0  0  0  0
  152.5209  145.5267  160.7714 H   0  0  0  0  0  0  0  0  0  0  0  0
  150.8403  144.9649  160.7594 H   0  0  0  0  0  0  0  0  0  0  0  0
  151.4956  142.8636  161.4903 H   0  0  0  0  0  0  0  0  0  0  0  0
  153.1381  143.4470  161.6672 H   0  0  0  0  0  0  0  0  0  0  0  0
  1  2  1  0  0  0  0
  1 18  1  0  0  0  0
  1 19  1  0  0  0  0
  1 20  1  0  0  0  0
  2  3  1  0  0  0  0
  2  9  1  0  0  0  0
  2 21  1  0  0  0  0
  3  4  1  0  0  0  0
  3 22  1  0  0  0  0
  3 23  1  0  0  0  0
  4  8  1  0  0  0  0
  4  5  1  0  0  0  0
  5  6  2  0  0  0  0
  5 24  1  0  0  0  0
  6  7  1  0  0  0  0
  6 25  1  0  0  0  0
  7  8  2  0  0  0  0
  7 26  1  0  0  0  0
  9 10  1  0  0  0  0
  9 27  1  0  0  0  0
 10 11  2  0  0  0  0
 10 12  1  0  0  0  0
 12 13  1  0  0  0  0
 12 28  1  0  0  0  0
 12 29  1  0  0  0  0
 13 17  1  0  0  0  0
 13 14  1  0  0  0  0
 13 30  1  0  0  0  0
 14 15  2  0  0  0  0
 14 31  1  0  0  0  0
 15 16  1  0  0  0  0
 15 32  1  0  0  0  0
 16 17  1  0  0  0  0
 16 33  1  0  0  0  0
 16 34  1  0  0  0  0
 17 35  1  0  0  0  0
 17 36  1  0  0  0  0
M  END
> <s_m_source_file>
AV-unprocessed.smi

> <i_m_source_file_index>
1286

> <i_lp_mmshare_version>
43012

> <i_f3d_flags>
0

> <s_epik_input>
bjFbY0hdW2NIXVtjSF1uMVtDSDJdW0NAQEhdKFtDSDNdKVtOSF1DKD1PKVtDSDJdW0NAQEhdMltDSF09W0NIXVtDSDJdW0NIMl0y

> <s_epik_cmdline>
J2VwaWtfcHl0aG9uJywgJy1waCcsICc3LjAnLCAnLXRuJywgJzgnLCAnLW1hJywgJzIwMCcsICctbWV0YWxfYmluZGluZycsICctaW1hZScsICc8aW5maWxlLm1hZT4nLCAnLW9tYWUnLCAnPG91dGZpbGUubWFlPic=

> <r_lp_tautomer_probability>
1

> <r_epik_Ionization_Penalty>
0.000301761

> <r_epik_Ionization_Penalty_Charging>
0

> <r_epik_Ionization_Penalty_Neutral>
0.000301761

> <r_epik_State_Penalty>
-0

> <r_epik_Charging_Adjusted_Penalty>
0

> <i_epik_Tot_Q>
0

> <i_epik_Tot_abs_Q>
0

> <r_epik_Metal_State_Penalty>
-0

> <b_epik_Metal_Only>
0

> <s_lp_Force_Field>
OPLS_2005

> <r_lp_Energy>
16.9784

> <b_lp_Chiralities_Consistent>
1

> <s_lp_Variant>
AV-unprocessed.smi:1286-4

> <Gold.Version>
5.8.1

> <Gold.Id.Protein>
6NUR|6NUR_protein|mol2

> <Gold.PLP.Fitness>
46.5077

> <Gold.PLP.PLP>
-39.2695

> <Gold.PLP.part.hbond>
-1.0000

> <Gold.PLP.part.metal>
0.0000

> <Gold.PLP.part.buried>
0.2425

> <Gold.PLP.part.nonpolar>
-38.1138

> <Gold.PLP.part.repulsive>
0.1185

> <Gold.PLP.ligand.clash>
0.0000

> <Gold.PLP.ligand.torsion>
0.4548

> <Gold.PLP.Chemscore.Hbond>
1.0000

> <Gold.PLP.Chemscore.CHOScore>
1.7034

> <Gold.PLP.Chemscore.Metal>
0.0000

> <Gold.Chemscore.Hbonds>
donor molecule, donor type, donor heavy atom, donor atom, acceptor molecule, acceptor atom, score
      P1  H  7997  8008       L1    11  1.00
      L1  C     5    24       P1  7957  0.51
      L1  C     7    26       P1  8028  0.99

> <Gold.PLP.Chemscore.Internal.Correction>
0.0376

> <Gold.Rescore>
     Score         DG    S(hbond)    S(metal)    S(lipo)     H(rot)  DE(clash)    DE(int)     intcor
     16.67     -17.12       0.96        0.00     108.00       1.64       0.08       0.38       ----

> <Gold.Chemscore.Fitness>
16.6715

> <Gold.Chemscore.DG>
-17.1248

> <Gold.Chemscore.ZeroCoef>
-5.4800

> <Gold.Chemscore.Hbond>
0.9598

> <Gold.Chemscore.Metal>
0.0000

> <Gold.Chemscore.Lipo>
107.9992

> <Gold.Chemscore.Internal_Hbond>
0.0000

> <Gold.Chemscore.DEClash>
0.0775

> <Gold.Chemscore.DEInternal>
0.3758

> <Gold.Chemscore.Rot>
1.6394

> <Gold.Chemscore.Internal.Correction>
   9.000000E+99

> <Gold.Chemscore.Hbonds>
donor molecule, donor type, donor heavy atom, donor atom, acceptor molecule, acceptor atom, score
      P1  H  7997  8008       L1    11  0.91

> <Gold.Chemscore.Hbond.Weighted>
-3.2058

> <Gold.Chemscore.Metal.Weighted>
-0.0000

> <Gold.Chemscore.Lipo.Weighted>
-12.6359

> <Gold.Chemscore.Internal_Hbond.Weighted>
0.0000

> <Gold.Chemscore.DEClash.Weighted>
0.0775

> <Gold.Chemscore.DEInternal.Weighted>
0.3758

> <Gold.Chemscore.Rot.Weighted>
4.1969

> <Gold.Chemscore.Internal.Correction.Weighted>
   9.000000E+99

> <Gold.Protein.RotatedTorsions>
[ 6907 6896 6895 6894 ] final   16.17 input  -60.11 | X-H torsion
[ 7974 7965 7964 7962 ] final    5.42 input  175.53 | X-H torsion
[ 8008 7997 7996 7995 ] final -114.18 input   59.86 | X-H torsion
[ 10167 10162 10161 10158 ] final   92.54 input  -65.29 | X-H torsion
[ 10718 10713 10712 10709 ] final   36.38 input   66.30 | X-H torsion
[ 10763 10752 10751 10750 ] final  -57.88 input  -60.55 | X-H torsion
[ 11005 11000 10999 10996 ] final -152.57 input  -57.11 | X-H torsion

> <Gold.Protein.ActiveResidues>
 VAL166  LYS551  ARG553  GLY616  TRP617  ASP618  TYR619  PRO620  LYS621  CYS622 
 ASP623  PHE694  ASN695  SER759  ASP760  ASP761  ALA762  ILE779  LEU786  VAL792 
 PHE793  MET794  SER795  GLU796  ALA797  LYS798  CYS799  TRP800  GLU811  SER814 

> <Gold.Protein.RotatedAtoms>
  151.8296  135.0625  160.0434 H   0  0  0  0  0  0  0  0  0  0  0  0  # atno 6907 bound_to 6896
  152.2890  133.5538  159.5554 H   0  0  0  0  0  0  0  0  0  0  0  0  # atno 6908 bound_to 6896
  150.7222  134.0372  159.3795 H   0  0  0  0  0  0  0  0  0  0  0  0  # atno 6909 bound_to 6896
  146.2440  140.0386  142.8384 H   0  0  0  0  0  0  0  0  0  0  0  0  # atno 7974 bound_to 7965
  155.0323  140.0393  157.2478 H   0  0  0  0  0  0  0  0  0  0  0  0  # atno 8008 bound_to 7997
  154.7286  140.2726  155.6452 H   0  0  0  0  0  0  0  0  0  0  0  0  # atno 8009 bound_to 7997
  156.2836  140.2688  156.1980 H   0  0  0  0  0  0  0  0  0  0  0  0  # atno 8010 bound_to 7997
  139.8267  144.6706  150.9451 H   0  0  0  0  0  0  0  0  0  0  0  0  # atno 10167 bound_to 10162
  157.3342  130.7514  149.6868 H   0  0  0  0  0  0  0  0  0  0  0  0  # atno 10718 bound_to 10713
  154.2294  135.6363  153.5170 H   0  0  0  0  0  0  0  0  0  0  0  0  # atno 10763 bound_to 10752
  152.9952  135.5516  154.6029 H   0  0  0  0  0  0  0  0  0  0  0  0  # atno 10764 bound_to 10752
  154.5508  135.2901  155.0984 H   0  0  0  0  0  0  0  0  0  0  0  0  # atno 10765 bound_to 10752
  140.7175  134.3764  157.5188 H   0  0  0  0  0  0  0  0  0  0  0  0  # atno 11005 bound_to 11000
  145.1090  140.9393  143.4668 LP  0  0  0  0  0  0  0  0  0  0  0  0  # atno 17320 bound_to 7965
  145.0596  139.3116  143.5887 LP  0  0  0  0  0  0  0  0  0  0  0  0  # atno 17321 bound_to 7965
  140.7809  143.4040  151.1102 LP  0  0  0  0  0  0  0  0  0  0  0  0  # atno 17342 bound_to 10162
  139.7696  143.8513  152.3118 LP  0  0  0  0  0  0  0  0  0  0  0  0  # atno 17343 bound_to 10162
  155.9699  130.4186  150.4337 LP  0  0  0  0  0  0  0  0  0  0  0  0  # atno 17370 bound_to 10713
  157.2374  131.0517  151.2457 LP  0  0  0  0  0  0  0  0  0  0  0  0  # atno 17371 bound_to 10713
  139.8856  134.8932  156.2632 LP  0  0  0  0  0  0  0  0  0  0  0  0  # atno 17394 bound_to 11000
  141.0032  133.7139  156.0993 LP  0  0  0  0  0  0  0  0  0  0  0  0  # atno 17395 bound_to 11000

$$$$
