AV-unprocessed.smi:2993|AV-procd|sdf|11403|dock5
  -GOLD-   2272016323D 1   1.00000     0.00000
 Structure written by MMmdl.
 34 35  0  0  0  0  0  0  0  0  1 V2000
  151.1397  136.7674  156.0611 C   0  0  0  0  0  0  0  0  0  0  0  0
  150.9770  138.2146  155.6939 C   0  0  0  0  0  0  0  0  0  0  0  0
  150.9568  138.5563  154.4168 N   0  0  0  0  0  0  0  0  0  0  0  0
  150.8082  139.9462  154.3932 O   0  0  0  0  0  0  0  0  0  0  0  0
  150.7470  140.3927  155.6734 C   0  0  0  0  0  0  0  0  0  0  0  0
  150.5960  141.8637  155.8651 C   0  0  0  0  0  0  0  0  0  0  0  0
  150.8445  139.3471  156.5496 C   0  0  0  0  0  0  0  0  0  0  0  0
  150.8262  139.3869  158.0563 C   0  0  0  0  0  0  0  0  0  0  0  0
  151.8632  140.3937  158.5521 C   0  0  0  0  0  0  0  0  0  0  0  0
  153.0582  140.2081  158.3238 O   0  0  0  0  0  0  0  0  0  0  0  0
  151.3910  141.4459  159.2386 N   0  0  0  0  0  0  0  0  0  0  0  0
  152.2019  142.4919  159.8509 C   0  0  1  0  0  0  0  0  0  0  0  0
  153.3392  141.8308  160.6414 C   0  0  0  0  0  0  0  0  0  0  0  0
  152.7518  143.4896  158.8454 C   0  0  0  0  0  0  0  0  0  0  0  0
  152.3643  144.9480  158.9062 C   0  0  0  0  0  0  0  0  0  0  0  0
  151.8786  144.0834  157.7654 C   0  0  0  0  0  0  0  0  0  0  0  0
  152.1628  136.4344  155.8853 H   0  0  0  0  0  0  0  0  0  0  0  0
  150.4758  136.1336  155.4729 H   0  0  0  0  0  0  0  0  0  0  0  0
  150.9123  136.5933  157.1123 H   0  0  0  0  0  0  0  0  0  0  0  0
  151.2578  142.2192  156.6552 H   0  0  0  0  0  0  0  0  0  0  0  0
  149.5721  142.1123  156.1440 H   0  0  0  0  0  0  0  0  0  0  0  0
  150.8407  142.4064  154.9518 H   0  0  0  0  0  0  0  0  0  0  0  0
  149.8443  139.6765  158.4329 H   0  0  0  0  0  0  0  0  0  0  0  0
  151.0345  138.4077  158.4883 H   0  0  0  0  0  0  0  0  0  0  0  0
  150.3924  141.5112  159.3710 H   0  0  0  0  0  0  0  0  0  0  0  0
  151.5837  143.0374  160.5666 H   0  0  0  0  0  0  0  0  0  0  0  0
  153.9403  142.5767  161.1623 H   0  0  0  0  0  0  0  0  0  0  0  0
  154.0044  141.2688  159.9850 H   0  0  0  0  0  0  0  0  0  0  0  0
  152.9494  141.1420  161.3919 H   0  0  0  0  0  0  0  0  0  0  0  0
  153.7846  143.2934  158.5623 H   0  0  0  0  0  0  0  0  0  0  0  0
  151.6329  145.2483  159.6541 H   0  0  0  0  0  0  0  0  0  0  0  0
  153.1377  145.6820  158.6888 H   0  0  0  0  0  0  0  0  0  0  0  0
  152.3291  144.2383  156.7871 H   0  0  0  0  0  0  0  0  0  0  0  0
  150.8243  143.8142  157.7558 H   0  0  0  0  0  0  0  0  0  0  0  0
  1  2  1  0  0  0  0
  1 17  1  0  0  0  0
  1 18  1  0  0  0  0
  1 19  1  0  0  0  0
  2  7  1  0  0  0  0
  2  3  2  0  0  0  0
  3  4  1  0  0  0  0
  4  5  1  0  0  0  0
  5  6  1  0  0  0  0
  5  7  2  0  0  0  0
  6 20  1  0  0  0  0
  6 21  1  0  0  0  0
  6 22  1  0  0  0  0
  7  8  1  0  0  0  0
  8  9  1  0  0  0  0
  8 23  1  0  0  0  0
  8 24  1  0  0  0  0
  9 10  2  0  0  0  0
  9 11  1  0  0  0  0
 11 12  1  0  0  0  0
 11 25  1  0  0  0  0
 12 13  1  0  0  0  0
 12 14  1  0  0  0  0
 12 26  1  0  0  0  0
 13 27  1  0  0  0  0
 13 28  1  0  0  0  0
 13 29  1  0  0  0  0
 14 16  1  0  0  0  0
 14 15  1  0  0  0  0
 14 30  1  0  0  0  0
 15 16  1  0  0  0  0
 15 31  1  0  0  0  0
 15 32  1  0  0  0  0
 16 33  1  0  0  0  0
 16 34  1  0  0  0  0
M  END
> <s_m_source_file>
AV-unprocessed.smi

> <i_m_source_file_index>
2993

> <i_lp_mmshare_version>
43012

> <i_f3d_flags>
0

> <s_epik_input>
W0NIM11jMW5vYyhbQ0gzXSljMVtDSDJdQyg9TylbTkhdW0NASF0oW0NIM10pW0NIXTJbQ0gyXVtDSDJdMg==

> <s_epik_cmdline>
J2VwaWtfcHl0aG9uJywgJy1waCcsICc3LjAnLCAnLXRuJywgJzgnLCAnLW1hJywgJzIwMCcsICctbWV0YWxfYmluZGluZycsICctaW1hZScsICc8aW5maWxlLm1hZT4nLCAnLW9tYWUnLCAnPG91dGZpbGUubWFlPic=

> <r_lp_tautomer_probability>
1

> <r_epik_Ionization_Penalty>
1.92533e-08

> <r_epik_Ionization_Penalty_Charging>
0

> <r_epik_Ionization_Penalty_Neutral>
1.92533e-08

> <r_epik_State_Penalty>
-0

> <r_epik_Charging_Adjusted_Penalty>
0

> <i_epik_Tot_Q>
0

> <i_epik_Tot_abs_Q>
0

> <r_epik_Metal_State_Penalty>
-0

> <b_epik_Metal_Only>
0

> <s_lp_Force_Field>
OPLS_2005

> <r_lp_Energy>
6.29181

> <b_lp_Chiralities_Consistent>
1

> <s_lp_Variant>
AV-unprocessed.smi:2993-2

> <Gold.Version>
5.8.1

> <Gold.Id.Protein>
6NUR|6NUR_protein|mol2

> <Gold.PLP.Fitness>
40.0562

> <Gold.PLP.PLP>
-35.3042

> <Gold.PLP.part.hbond>
-2.0000

> <Gold.PLP.part.metal>
0.0000

> <Gold.PLP.part.buried>
-4.5764

> <Gold.PLP.part.nonpolar>
-29.5346

> <Gold.PLP.part.repulsive>
0.4537

> <Gold.PLP.ligand.clash>
0.0000

> <Gold.PLP.ligand.torsion>
1.0707

> <Gold.PLP.Chemscore.Hbond>
1.9440

> <Gold.PLP.Chemscore.CHOScore>
0.0000

> <Gold.PLP.Chemscore.Metal>
0.0000

> <Gold.Chemscore.Hbonds>
donor molecule, donor type, donor heavy atom, donor atom, acceptor molecule, acceptor atom, score
      P1  H  7989  7998       L1     4  0.99
      P1  H  7997  8009       L1    10  0.96

> <Gold.PLP.Chemscore.Internal.Correction>
1.0614

> <Gold.Rescore>
     Score         DG    S(hbond)    S(metal)    S(lipo)     H(rot)  DE(clash)    DE(int)     intcor
     16.57     -18.81       1.85        0.00      93.11       1.46       0.04       2.21       ----

> <Gold.Chemscore.Fitness>
16.5711

> <Gold.Chemscore.DG>
-18.8130

> <Gold.Chemscore.ZeroCoef>
-5.4800

> <Gold.Chemscore.Hbond>
1.8481

> <Gold.Chemscore.Metal>
0.0000

> <Gold.Chemscore.Lipo>
93.1096

> <Gold.Chemscore.Internal_Hbond>
0.0000

> <Gold.Chemscore.DEClash>
0.0354

> <Gold.Chemscore.DEInternal>
2.2066

> <Gold.Chemscore.Rot>
1.4584

> <Gold.Chemscore.Internal.Correction>
   9.000000E+99

> <Gold.Chemscore.Hbonds>
donor molecule, donor type, donor heavy atom, donor atom, acceptor molecule, acceptor atom, score
      P1  H  7989  7998       L1     4  0.78
      P1  H  7997  8009       L1    10  0.88

> <Gold.Chemscore.Hbond.Weighted>
-6.1726

> <Gold.Chemscore.Metal.Weighted>
-0.0000

> <Gold.Chemscore.Lipo.Weighted>
-10.8938

> <Gold.Chemscore.Internal_Hbond.Weighted>
0.0000

> <Gold.Chemscore.DEClash.Weighted>
0.0354

> <Gold.Chemscore.DEInternal.Weighted>
2.2066

> <Gold.Chemscore.Rot.Weighted>
3.7334

> <Gold.Chemscore.Internal.Correction.Weighted>
   9.000000E+99

> <Gold.Protein.RotatedTorsions>
[ 6907 6896 6895 6894 ] final   54.97 input  -60.11 | X-H torsion
[ 7974 7965 7964 7962 ] final -101.06 input  175.53 | X-H torsion
[ 8008 7997 7996 7995 ] final  158.15 input   59.86 | X-H torsion
[ 10167 10162 10161 10158 ] final -114.72 input  -65.29 | X-H torsion
[ 10718 10713 10712 10709 ] final  -41.10 input   66.30 | X-H torsion
[ 10763 10752 10751 10750 ] final  106.90 input  -60.55 | X-H torsion
[ 11005 11000 10999 10996 ] final -152.98 input  -57.11 | X-H torsion

> <Gold.Protein.ActiveResidues>
 VAL166  LYS551  ARG553  GLY616  TRP617  ASP618  TYR619  PRO620  LYS621  CYS622 
 ASP623  PHE694  ASN695  SER759  ASP760  ASP761  ALA762  ILE779  LEU786  VAL792 
 PHE793  MET794  SER795  GLU796  ALA797  LYS798  CYS799  TRP800  GLU811  SER814 

> <Gold.Protein.RotatedAtoms>
  152.3492  134.7029  160.0241 H   0  0  0  0  0  0  0  0  0  0  0  0  # atno 6907 bound_to 6896
  151.7389  133.3315  159.3368 H   0  0  0  0  0  0  0  0  0  0  0  0  # atno 6908 bound_to 6896
  150.7529  134.6229  159.6190 H   0  0  0  0  0  0  0  0  0  0  0  0  # atno 6909 bound_to 6896
  145.2865  140.9341  143.2902 H   0  0  0  0  0  0  0  0  0  0  0  0  # atno 7974 bound_to 7965
  156.2320  140.1866  156.7217 H   0  0  0  0  0  0  0  0  0  0  0  0  # atno 8008 bound_to 7997
  154.6040  140.0632  156.9433 H   0  0  0  0  0  0  0  0  0  0  0  0  # atno 8009 bound_to 7997
  155.2127  140.3301  155.4329 H   0  0  0  0  0  0  0  0  0  0  0  0  # atno 8010 bound_to 7997
  140.0979  143.4639  152.1830 H   0  0  0  0  0  0  0  0  0  0  0  0  # atno 10167 bound_to 10162
  156.2740  130.4210  149.8407 H   0  0  0  0  0  0  0  0  0  0  0  0  # atno 10718 bound_to 10713
  153.3994  135.3862  155.1977 H   0  0  0  0  0  0  0  0  0  0  0  0  # atno 10763 bound_to 10752
  154.8728  135.3767  154.4638 H   0  0  0  0  0  0  0  0  0  0  0  0  # atno 10764 bound_to 10752
  153.5134  135.7087  153.5831 H   0  0  0  0  0  0  0  0  0  0  0  0  # atno 10765 bound_to 10752
  140.7130  134.3811  157.5195 H   0  0  0  0  0  0  0  0  0  0  0  0  # atno 11005 bound_to 11000
  144.9209  139.4413  143.6542 LP  0  0  0  0  0  0  0  0  0  0  0  0  # atno 17320 bound_to 7965
  146.3199  139.8068  142.8954 LP  0  0  0  0  0  0  0  0  0  0  0  0  # atno 17321 bound_to 7965
  139.5687  144.7450  151.3949 LP  0  0  0  0  0  0  0  0  0  0  0  0  # atno 17342 bound_to 10162
  140.6993  143.7670  150.7377 LP  0  0  0  0  0  0  0  0  0  0  0  0  # atno 17343 bound_to 10162
  156.5878  130.8493  151.3400 LP  0  0  0  0  0  0  0  0  0  0  0  0  # atno 17370 bound_to 10713
  157.7293  130.9669  150.1782 LP  0  0  0  0  0  0  0  0  0  0  0  0  # atno 17371 bound_to 10713
  139.8867  134.8903  156.2571 LP  0  0  0  0  0  0  0  0  0  0  0  0  # atno 17394 bound_to 11000
  141.0068  133.7119  156.1048 LP  0  0  0  0  0  0  0  0  0  0  0  0  # atno 17395 bound_to 11000

$$$$
