AV-unprocessed.smi:260|AV-procd|sdf|1978|dock4
  -GOLD-   2262021153D 1   1.00000     0.00000
 Structure written by MMmdl.
 53 56  0  0  0  0  0  0  0  0  1 V2000
  148.2093  143.2883  158.9155 C   0  0  0  0  0  0  0  0  0  0  0  0
  149.6177  143.6517  158.9136 N   0  0  0  0  0  0  0  0  0  0  0  0
  150.2678  144.1784  159.9636 C   0  0  0  0  0  0  0  0  0  0  0  0
  149.7006  144.4103  161.0322 O   0  0  0  0  0  0  0  0  0  0  0  0
  151.7755  144.5105  159.8115 C   0  0  2  0  0  0  0  0  0  0  0  0
  151.9734  146.0269  160.0018 C   0  0  0  0  0  0  0  0  0  0  0  0
  152.4075  144.0028  158.4953 C   0  0  0  0  0  0  0  0  0  0  0  0
  152.7425  142.5296  158.7615 C   0  0  0  0  0  0  0  0  0  0  0  0
  152.8420  142.4094  160.2092 N   0  0  0  0  0  0  0  0  0  0  0  0
  153.6505  141.4819  160.7846 C   0  0  0  0  0  0  0  0  0  0  0  0
  154.1386  141.7235  162.0304 N   0  0  0  0  0  0  0  0  0  0  0  0
  154.9408  140.8394  162.6296 C   0  0  0  0  0  0  0  0  0  0  0  0
  155.3729  139.6629  162.1738 N   0  0  0  0  0  0  0  0  0  0  0  0
  154.8773  139.4038  160.9306 C   0  0  0  0  0  0  0  0  0  0  0  0
  154.0167  140.2477  160.1701 C   0  0  0  0  0  0  0  0  0  0  0  0
  153.7191  139.6358  158.9564 N   0  0  0  0  0  0  0  0  0  0  0  0
  154.3723  138.5069  158.9932 C   0  0  0  0  0  0  0  0  0  0  0  0
  155.0975  138.2890  160.1411 N   0  0  0  0  0  0  0  0  0  0  0  0
  155.9138  137.1250  160.4403 C   0  0  0  0  0  0  0  0  0  0  0  0
  155.0685  135.8504  160.6303 C   0  0  1  0  0  0  0  0  0  0  0  0
  155.8609  134.7166  160.3333 O   0  0  0  0  0  0  0  0  0  0  0  0
  154.5285  135.7164  162.0658 C   0  0  2  0  0  0  0  0  0  0  0  0
  153.9768  137.0133  162.6610 C   0  0  0  0  0  0  0  0  0  0  0  0
  154.1222  136.8112  164.1612 C   0  0  0  0  0  0  0  0  0  0  0  0
  155.0897  135.6312  164.2854 C   0  0  0  0  0  0  0  0  0  0  0  0
  155.5792  135.4113  162.9699 O   0  0  0  0  0  0  0  0  0  0  0  0
  152.5974  143.7036  160.8351 C   0  0  0  0  0  0  0  0  0  0  0  0
  147.9160  142.9337  157.9275 H   0  0  0  0  0  0  0  0  0  0  0  0
  147.5851  144.1460  159.1700 H   0  0  0  0  0  0  0  0  0  0  0  0
  148.0176  142.4916  159.6357 H   0  0  0  0  0  0  0  0  0  0  0  0
  150.1363  143.4870  158.0630 H   0  0  0  0  0  0  0  0  0  0  0  0
  153.0271  146.3010  159.9408 H   0  0  0  0  0  0  0  0  0  0  0  0
  151.6091  146.3623  160.9737 H   0  0  0  0  0  0  0  0  0  0  0  0
  151.4444  146.5938  159.2348 H   0  0  0  0  0  0  0  0  0  0  0  0
  151.7925  144.1426  157.6056 H   0  0  0  0  0  0  0  0  0  0  0  0
  153.3377  144.5419  158.3094 H   0  0  0  0  0  0  0  0  0  0  0  0
  151.9420  141.8797  158.4067 H   0  0  0  0  0  0  0  0  0  0  0  0
  153.6668  142.2442  158.2578 H   0  0  0  0  0  0  0  0  0  0  0  0
  155.2867  141.1152  163.6149 H   0  0  0  0  0  0  0  0  0  0  0  0
  154.3451  137.7984  158.1779 H   0  0  0  0  0  0  0  0  0  0  0  0
  156.6419  136.9874  159.6398 H   0  0  0  0  0  0  0  0  0  0  0  0
  156.4847  137.3381  161.3448 H   0  0  0  0  0  0  0  0  0  0  0  0
  154.2311  135.8671  159.9312 H   0  0  0  0  0  0  0  0  0  0  0  0
  156.0896  134.2899  161.1449 H   0  0  0  0  0  0  0  0  0  0  0  0
  153.7739  134.9290  162.1211 H   0  0  0  0  0  0  0  0  0  0  0  0
  154.5873  137.8613  162.3478 H   0  0  0  0  0  0  0  0  0  0  0  0
  152.9482  137.2108  162.3582 H   0  0  0  0  0  0  0  0  0  0  0  0
  154.5144  137.7092  164.6394 H   0  0  0  0  0  0  0  0  0  0  0  0
  153.1651  136.5731  164.6266 H   0  0  0  0  0  0  0  0  0  0  0  0
  155.9070  135.8303  164.9789 H   0  0  0  0  0  0  0  0  0  0  0  0
  154.5634  134.7387  164.6271 H   0  0  0  0  0  0  0  0  0  0  0  0
  153.5508  144.1943  161.0372 H   0  0  0  0  0  0  0  0  0  0  0  0
  152.0802  143.5832  161.7881 H   0  0  0  0  0  0  0  0  0  0  0  0
  1  2  1  0  0  0  0
  1 28  1  0  0  0  0
  1 29  1  0  0  0  0
  1 30  1  0  0  0  0
  2  3  1  0  0  0  0
  2 31  1  0  0  0  0
  3  4  2  0  0  0  0
  3  5  1  0  0  0  0
  5 27  1  0  0  0  0
  5  6  1  0  0  0  0
  5  7  1  0  0  0  0
  6 32  1  0  0  0  0
  6 33  1  0  0  0  0
  6 34  1  0  0  0  0
  7  8  1  0  0  0  0
  7 35  1  0  0  0  0
  7 36  1  0  0  0  0
  8  9  1  0  0  0  0
  8 37  1  0  0  0  0
  8 38  1  0  0  0  0
  9 10  1  0  0  0  0
  9 27  1  0  0  0  0
 10 15  1  0  0  0  0
 10 11  2  0  0  0  0
 11 12  1  0  0  0  0
 12 13  2  0  0  0  0
 12 39  1  0  0  0  0
 13 14  1  0  0  0  0
 14 18  1  0  0  0  0
 14 15  2  0  0  0  0
 15 16  1  0  0  0  0
 16 17  2  0  0  0  0
 17 18  1  0  0  0  0
 17 40  1  0  0  0  0
 18 19  1  0  0  0  0
 19 20  1  0  0  0  0
 19 41  1  0  0  0  0
 19 42  1  0  0  0  0
 20 21  1  0  0  0  0
 20 22  1  0  0  0  0
 20 43  1  0  0  0  0
 21 44  1  0  0  0  0
 22 26  1  0  0  0  0
 22 23  1  0  0  0  0
 22 45  1  0  0  0  0
 23 24  1  0  0  0  0
 23 46  1  0  0  0  0
 23 47  1  0  0  0  0
 24 25  1  0  0  0  0
 24 48  1  0  0  0  0
 24 49  1  0  0  0  0
 25 26  1  0  0  0  0
 25 50  1  0  0  0  0
 25 51  1  0  0  0  0
 27 52  1  0  0  0  0
 27 53  1  0  0  0  0
M  END
> <s_m_source_file>
AV-unprocessed.smi

> <i_m_source_file_index>
260

> <i_lp_mmshare_version>
43012

> <i_f3d_flags>
0

> <s_epik_input>
W0NIM11bTkhdQyg9TylbQ0BAXTEoW0NIM10pW0NIMl1bQ0gyXU4oW0NIMl0xKWMobltjSF1uMiljKGMyMyluW2NIXW4zW0NIMl1bQ0BIXShbT0hdKVtDQEBIXTRbQ0gyXVtDSDJdW0NIMl1PNA==

> <s_epik_cmdline>
J2VwaWtfcHl0aG9uJywgJy1waCcsICc3LjAnLCAnLXRuJywgJzgnLCAnLW1hJywgJzIwMCcsICctbWV0YWxfYmluZGluZycsICctaW1hZScsICc8aW5maWxlLm1hZT4nLCAnLW9tYWUnLCAnPG91dGZpbGUubWFlPic=

> <r_lp_tautomer_probability>
1

> <r_epik_Ionization_Penalty>
0.00115068

> <r_epik_Ionization_Penalty_Charging>
0

> <r_epik_Ionization_Penalty_Neutral>
0.00115068

> <r_epik_State_Penalty>
0.000668876

> <r_epik_Charging_Adjusted_Penalty>
0.000668876

> <i_epik_Tot_Q>
0

> <i_epik_Tot_abs_Q>
0

> <r_epik_Metal_State_Penalty>
-0

> <b_epik_Metal_Only>
0

> <s_lp_Force_Field>
OPLS_2005

> <r_lp_Energy>
50.1788

> <b_lp_Chiralities_Consistent>
1

> <s_lp_Variant>
AV-unprocessed.smi:260-4

> <Gold.Version>
5.8.1

> <Gold.Id.Protein>
6NUR|6NUR_protein|mol2

> <Gold.PLP.Fitness>
50.2400

> <Gold.PLP.PLP>
-50.2520

> <Gold.PLP.part.hbond>
-2.8919

> <Gold.PLP.part.metal>
0.0000

> <Gold.PLP.part.buried>
-2.7198

> <Gold.PLP.part.nonpolar>
-44.5935

> <Gold.PLP.part.repulsive>
0.2963

> <Gold.PLP.ligand.clash>
0.0000

> <Gold.PLP.ligand.torsion>
0.7453

> <Gold.PLP.Chemscore.Hbond>
0.3777

> <Gold.PLP.Chemscore.CHOScore>
0.0000

> <Gold.PLP.Chemscore.Metal>
0.0000

> <Gold.Chemscore.Hbonds>
donor molecule, donor type, donor heavy atom, donor atom, acceptor molecule, acceptor atom, score
      P1  H  6933  6944       L1     4  0.05
      P1  H  7997  8009       L1    16  0.12

> <Gold.PLP.Chemscore.Internal.Correction>
0.3457

> <Gold.Rescore>
     Score         DG    S(hbond)    S(metal)    S(lipo)     H(rot)  DE(clash)    DE(int)     intcor
     11.71     -13.24       0.40        0.00     110.14       2.53       0.31       1.21       ----

> <Gold.Chemscore.Fitness>
11.7109

> <Gold.Chemscore.DG>
-13.2354

> <Gold.Chemscore.ZeroCoef>
-5.4800

> <Gold.Chemscore.Hbond>
0.3997

> <Gold.Chemscore.Metal>
0.0000

> <Gold.Chemscore.Lipo>
110.1443

> <Gold.Chemscore.Internal_Hbond>
0.0000

> <Gold.Chemscore.DEClash>
0.3140

> <Gold.Chemscore.DEInternal>
1.2105

> <Gold.Chemscore.Rot>
2.5259

> <Gold.Chemscore.Internal.Correction>
   9.000000E+99

> <Gold.Chemscore.Hbonds>
donor molecule, donor type, donor heavy atom, donor atom, acceptor molecule, acceptor atom, score
      P1  H  6933  6944       L1     4  0.02

> <Gold.Chemscore.Hbond.Weighted>
-1.3348

> <Gold.Chemscore.Metal.Weighted>
-0.0000

> <Gold.Chemscore.Lipo.Weighted>
-12.8869

> <Gold.Chemscore.Internal_Hbond.Weighted>
0.0000

> <Gold.Chemscore.DEClash.Weighted>
0.3140

> <Gold.Chemscore.DEInternal.Weighted>
1.2105

> <Gold.Chemscore.Rot.Weighted>
6.4663

> <Gold.Chemscore.Internal.Correction.Weighted>
   9.000000E+99

> <Gold.Protein.RotatedTorsions>
[ 6907 6896 6895 6894 ] final   61.22 input  -60.11 | X-H torsion
[ 7974 7965 7964 7962 ] final -137.31 input  175.53 | X-H torsion
[ 8008 7997 7996 7995 ] final  127.09 input   59.86 | X-H torsion
[ 10167 10162 10161 10158 ] final  103.40 input  -65.29 | X-H torsion
[ 10718 10713 10712 10709 ] final  165.05 input   66.30 | X-H torsion
[ 10763 10752 10751 10750 ] final  -28.59 input  -60.55 | X-H torsion
[ 11005 11000 10999 10996 ] final  174.26 input  -57.11 | X-H torsion

> <Gold.Protein.ActiveResidues>
 VAL166  LYS551  ARG553  GLY616  TRP617  ASP618  TYR619  PRO620  LYS621  CYS622 
 ASP623  PHE694  ASN695  SER759  ASP760  ASP761  ALA762  ILE779  LEU786  VAL792 
 PHE793  MET794  SER795  GLU796  ALA797  LYS798  CYS799  TRP800  GLU811  SER814 

> <Gold.Protein.RotatedAtoms>
  152.4070  134.6190  160.0045 H   0  0  0  0  0  0  0  0  0  0  0  0  # atno 6907 bound_to 6896
  151.6378  133.3322  159.3131 H   0  0  0  0  0  0  0  0  0  0  0  0  # atno 6908 bound_to 6896
  150.7964  134.7068  159.6626 H   0  0  0  0  0  0  0  0  0  0  0  0  # atno 6909 bound_to 6896
  144.8852  140.6565  143.5180 H   0  0  0  0  0  0  0  0  0  0  0  0  # atno 7974 bound_to 7965
  156.2882  140.2677  156.2217 H   0  0  0  0  0  0  0  0  0  0  0  0  # atno 8008 bound_to 7997
  155.0161  140.0387  157.2437 H   0  0  0  0  0  0  0  0  0  0  0  0  # atno 8009 bound_to 7997
  154.7476  140.2737  155.6325 H   0  0  0  0  0  0  0  0  0  0  0  0  # atno 8010 bound_to 7997
  139.7266  144.7046  151.0788 H   0  0  0  0  0  0  0  0  0  0  0  0  # atno 10167 bound_to 10162
  157.0857  131.0404  151.2557 H   0  0  0  0  0  0  0  0  0  0  0  0  # atno 10718 bound_to 10713
  153.7508  135.6926  153.4946 H   0  0  0  0  0  0  0  0  0  0  0  0  # atno 10763 bound_to 10752
  153.2004  135.4438  155.0259 H   0  0  0  0  0  0  0  0  0  0  0  0  # atno 10764 bound_to 10752
  154.8188  135.3412  154.7029 H   0  0  0  0  0  0  0  0  0  0  0  0  # atno 10765 bound_to 10752
  140.3494  134.7208  157.4257 H   0  0  0  0  0  0  0  0  0  0  0  0  # atno 11005 bound_to 11000
  145.3881  139.1622  143.4244 LP  0  0  0  0  0  0  0  0  0  0  0  0  # atno 17320 bound_to 7965
  146.3020  140.3968  142.8700 LP  0  0  0  0  0  0  0  0  0  0  0  0  # atno 17321 bound_to 7965
  140.7764  143.5097  150.9668 LP  0  0  0  0  0  0  0  0  0  0  0  0  # atno 17342 bound_to 10162
  139.8785  143.7102  152.3159 LP  0  0  0  0  0  0  0  0  0  0  0  0  # atno 17343 bound_to 10162
  157.4763  130.7738  149.7371 LP  0  0  0  0  0  0  0  0  0  0  0  0  # atno 17370 bound_to 10713
  155.9911  130.3940  150.2998 LP  0  0  0  0  0  0  0  0  0  0  0  0  # atno 17371 bound_to 10713
  140.0715  134.5855  155.8636 LP  0  0  0  0  0  0  0  0  0  0  0  0  # atno 17394 bound_to 11000
  141.2016  133.6620  156.5961 LP  0  0  0  0  0  0  0  0  0  0  0  0  # atno 17395 bound_to 11000

$$$$
