AV-unprocessed.smi:2045|AV-procd|sdf|8308|dock1
  -GOLD-   2272010573D 1   1.00000     0.00000
 Structure written by MMmdl.
 39 40  0  0  0  0  0  0  0  0  2 V2000
  150.1795  141.6529  155.2291 C   0  0  0  0  0  0  0  0  0  0  0  0
  148.8938  141.3429  154.5422 C   0  0  0  0  0  0  0  0  0  0  0  0
  148.3815  140.1982  153.9992 C   0  0  0  0  0  0  0  0  0  0  0  0
  147.1142  140.6148  153.5124 C   0  0  0  0  0  0  0  0  0  0  0  0
  146.2461  139.6995  152.8639 N   0  0  0  0  0  0  0  0  0  0  0  0
  146.3138  138.3575  152.8794 C   0  0  0  0  0  0  0  0  0  0  0  0
  147.1573  137.6951  153.4846 O   0  0  0  0  0  0  0  0  0  0  0  0
  145.3388  137.8080  152.1404 N   0  0  0  0  0  0  0  0  0  0  0  0
  145.1439  136.3743  151.9568 C   0  0  0  0  0  0  0  0  0  0  0  0
  145.4496  135.9415  150.5091 C   0  0  0  0  0  0  0  0  0  0  0  0
  145.3000  134.4778  150.3118 N   0  3  0  0  0  0  0  0  0  0  0  0
  146.4102  133.7123  150.9376 C   0  0  0  0  0  0  0  0  0  0  0  0
  146.3103  132.2129  150.6088 C   0  0  0  0  0  0  0  0  0  0  0  0
  144.9506  131.6457  151.0357 C   0  0  0  0  0  0  0  0  0  0  0  0
  143.8200  132.4689  150.4060 C   0  0  0  0  0  0  0  0  0  0  0  0
  143.9721  133.9620  150.7423 C   0  0  0  0  0  0  0  0  0  0  0  0
  146.8738  141.8971  153.7384 N   0  0  0  0  0  0  0  0  0  0  0  0
  148.0137  142.3706  154.3989 O   0  0  0  0  0  0  0  0  0  0  0  0
  150.7089  140.7383  155.4967 H   0  0  0  0  0  0  0  0  0  0  0  0
  150.0036  142.2204  156.1431 H   0  0  0  0  0  0  0  0  0  0  0  0
  150.8292  142.2434  154.5831 H   0  0  0  0  0  0  0  0  0  0  0  0
  148.8425  139.2224  153.9589 H   0  0  0  0  0  0  0  0  0  0  0  0
  145.4972  140.1123  152.3278 H   0  0  0  0  0  0  0  0  0  0  0  0
  144.6834  138.4226  151.6795 H   0  0  0  0  0  0  0  0  0  0  0  0
  145.7632  135.8380  152.6763 H   0  0  0  0  0  0  0  0  0  0  0  0
  144.1083  136.1389  152.2038 H   0  0  0  0  0  0  0  0  0  0  0  0
  144.7573  136.4672  149.8496 H   0  0  0  0  0  0  0  0  0  0  0  0
  146.4522  136.2479  150.2070 H   0  0  0  0  0  0  0  0  0  0  0  0
  147.3686  134.0910  150.5800 H   0  0  0  0  0  0  0  0  0  0  0  0
  146.3931  133.8629  152.0183 H   0  0  0  0  0  0  0  0  0  0  0  0
  146.4513  132.0617  149.5378 H   0  0  0  0  0  0  0  0  0  0  0  0
  147.1132  131.6682  151.1066 H   0  0  0  0  0  0  0  0  0  0  0  0
  144.8675  130.5997  150.7395 H   0  0  0  0  0  0  0  0  0  0  0  0
  144.8647  131.6712  152.1229 H   0  0  0  0  0  0  0  0  0  0  0  0
  143.8259  132.3341  149.3235 H   0  0  0  0  0  0  0  0  0  0  0  0
  142.8545  132.1038  150.7575 H   0  0  0  0  0  0  0  0  0  0  0  0
  143.8515  134.1171  151.8157 H   0  0  0  0  0  0  0  0  0  0  0  0
  143.1701  134.5147  150.2544 H   0  0  0  0  0  0  0  0  0  0  0  0
  145.3725  134.3146  149.3178 H   0  0  0  0  0  0  0  0  0  0  0  0
  1  2  1  0  0  0  0
  1 19  1  0  0  0  0
  1 20  1  0  0  0  0
  1 21  1  0  0  0  0
  2 18  1  0  0  0  0
  2  3  2  0  0  0  0
  3  4  1  0  0  0  0
  3 22  1  0  0  0  0
  4  5  1  0  0  0  0
  4 17  2  0  0  0  0
  5  6  1  0  0  0  0
  5 23  1  0  0  0  0
  6  7  2  0  0  0  0
  6  8  1  0  0  0  0
  8  9  1  0  0  0  0
  8 24  1  0  0  0  0
  9 10  1  0  0  0  0
  9 25  1  0  0  0  0
  9 26  1  0  0  0  0
 10 11  1  0  0  0  0
 10 27  1  0  0  0  0
 10 28  1  0  0  0  0
 11 16  1  0  0  0  0
 11 12  1  0  0  0  0
 11 39  1  0  0  0  0
 12 13  1  0  0  0  0
 12 29  1  0  0  0  0
 12 30  1  0  0  0  0
 13 14  1  0  0  0  0
 13 31  1  0  0  0  0
 13 32  1  0  0  0  0
 14 15  1  0  0  0  0
 14 33  1  0  0  0  0
 14 34  1  0  0  0  0
 15 16  1  0  0  0  0
 15 35  1  0  0  0  0
 15 36  1  0  0  0  0
 16 37  1  0  0  0  0
 16 38  1  0  0  0  0
 17 18  1  0  0  0  0
M  CHG  1  11   1
M  END
> <s_m_source_file>
AV-unprocessed.smi

> <i_m_source_file_index>
2045

> <i_lp_mmshare_version>
43012

> <i_f3d_flags>
0

> <s_epik_input>
W0NIM11jMVtjSF1jKG5vMSlbTkhdQyg9TylbTkhdW0NIMl1bQ0gyXU4yW0NIMl1bQ0gyXVtDSDJdW0NIMl1bQ0gyXTI=

> <s_epik_cmdline>
J2VwaWtfcHl0aG9uJywgJy1waCcsICc3LjAnLCAnLXRuJywgJzgnLCAnLW1hJywgJzIwMCcsICctbWV0YWxfYmluZGluZycsICctaW1hZScsICc8aW5maWxlLm1hZT4nLCAnLW9tYWUnLCAnPG91dGZpbGUubWFlPic=

> <r_epik_Ionization_Penalty>
0.00265971

> <r_epik_Ionization_Penalty_Charging>
0.00262393

> <r_epik_Ionization_Penalty_Neutral>
3.57846e-05

> <r_epik_State_Penalty>
0.00182566

> <r_epik_Charging_Adjusted_Penalty>
0.00444959

> <i_epik_Tot_Q>
1

> <i_epik_Tot_abs_Q>
1

> <r_epik_Metal_State_Penalty>
0.0216344

> <b_epik_Metal_Only>
0

> <s_lp_Force_Field>
OPLS_2005

> <r_lp_Energy>
12.4185

> <b_lp_Chiralities_Consistent>
1

> <s_lp_Variant>
AV-unprocessed.smi:2045-1

> <Gold.Version>
5.8.1

> <Gold.Id.Protein>
6NUR|6NUR_protein|mol2

> <Gold.PLP.Fitness>
38.1868

> <Gold.PLP.PLP>
-30.7613

> <Gold.PLP.part.hbond>
-3.7319

> <Gold.PLP.part.metal>
0.0000

> <Gold.PLP.part.buried>
-3.0350

> <Gold.PLP.part.nonpolar>
-27.2852

> <Gold.PLP.part.repulsive>
4.0392

> <Gold.PLP.ligand.clash>
0.0000

> <Gold.PLP.ligand.torsion>
0.1493

> <Gold.PLP.Chemscore.Hbond>
2.5520

> <Gold.PLP.Chemscore.CHOScore>
0.0000

> <Gold.PLP.Chemscore.Metal>
0.0000

> <Gold.Chemscore.Hbonds>
donor molecule, donor type, donor heavy atom, donor atom, acceptor molecule, acceptor atom, score
      L1  H     5    23       P1 10175  0.82
      L1  H     8    24       P1 10171  0.75
      L1  H    11    39       P1  7921  0.98

> <Gold.PLP.Chemscore.Internal.Correction>
0.0682

> <Gold.Rescore>
     Score         DG    S(hbond)    S(metal)    S(lipo)     H(rot)  DE(clash)    DE(int)     intcor
     14.61     -18.10       2.32        0.00      76.34       1.58       2.00       1.50       ----

> <Gold.Chemscore.Fitness>
14.6071

> <Gold.Chemscore.DG>
-18.1024

> <Gold.Chemscore.ZeroCoef>
-5.4800

> <Gold.Chemscore.Hbond>
2.3184

> <Gold.Chemscore.Metal>
0.0000

> <Gold.Chemscore.Lipo>
76.3424

> <Gold.Chemscore.Internal_Hbond>
0.0000

> <Gold.Chemscore.DEClash>
1.9961

> <Gold.Chemscore.DEInternal>
1.4992

> <Gold.Chemscore.Rot>
1.5833

> <Gold.Chemscore.Internal.Correction>
   9.000000E+99

> <Gold.Chemscore.Hbonds>
donor molecule, donor type, donor heavy atom, donor atom, acceptor molecule, acceptor atom, score
      L1  H     5    23       P1 10175  0.64
      L1  H     8    24       P1 10171  0.68
      L1  H    11    39       P1  7921  0.88

> <Gold.Chemscore.Hbond.Weighted>
-7.7436

> <Gold.Chemscore.Metal.Weighted>
-0.0000

> <Gold.Chemscore.Lipo.Weighted>
-8.9321

> <Gold.Chemscore.Internal_Hbond.Weighted>
0.0000

> <Gold.Chemscore.DEClash.Weighted>
1.9961

> <Gold.Chemscore.DEInternal.Weighted>
1.4992

> <Gold.Chemscore.Rot.Weighted>
4.0532

> <Gold.Chemscore.Internal.Correction.Weighted>
   9.000000E+99

> <Gold.Protein.RotatedTorsions>
[ 6907 6896 6895 6894 ] final  174.25 input  -60.11 | X-H torsion
[ 7974 7965 7964 7962 ] final  -88.75 input  175.53 | X-H torsion
[ 8008 7997 7996 7995 ] final  134.54 input   59.86 | X-H torsion
[ 10167 10162 10161 10158 ] final   32.22 input  -65.29 | X-H torsion
[ 10718 10713 10712 10709 ] final  -68.53 input   66.30 | X-H torsion
[ 10763 10752 10751 10750 ] final -177.48 input  -60.55 | X-H torsion
[ 11005 11000 10999 10996 ] final -118.79 input  -57.11 | X-H torsion

> <Gold.Protein.ActiveResidues>
 VAL166  LYS551  ARG553  GLY616  TRP617  ASP618  TYR619  PRO620  LYS621  CYS622 
 ASP623  PHE694  ASN695  SER759  ASP760  ASP761  ALA762  ILE779  LEU786  VAL792 
 PHE793  MET794  SER795  GLU796  ALA797  LYS798  CYS799  TRP800  GLU811  SER814 

> <Gold.Protein.RotatedAtoms>
  151.7553  133.3330  159.3402 H   0  0  0  0  0  0  0  0  0  0  0  0  # atno 6907 bound_to 6896
  150.7519  134.6155  159.6118 H   0  0  0  0  0  0  0  0  0  0  0  0  # atno 6908 bound_to 6896
  152.3441  134.7097  160.0307 H   0  0  0  0  0  0  0  0  0  0  0  0  # atno 6909 bound_to 6896
  145.4490  140.9560  143.2033 H   0  0  0  0  0  0  0  0  0  0  0  0  # atno 7974 bound_to 7965
  156.2999  140.2493  156.3435 H   0  0  0  0  0  0  0  0  0  0  0  0  # atno 8008 bound_to 7997
  154.9033  140.0405  157.1924 H   0  0  0  0  0  0  0  0  0  0  0  0  # atno 8009 bound_to 7997
  154.8479  140.2901  155.5621 H   0  0  0  0  0  0  0  0  0  0  0  0  # atno 8010 bound_to 7997
  140.4518  144.1036  150.6193 H   0  0  0  0  0  0  0  0  0  0  0  0  # atno 10167 bound_to 10162
  156.0501  130.4296  150.2014 H   0  0  0  0  0  0  0  0  0  0  0  0  # atno 10718 bound_to 10713
  154.5596  135.2819  155.0932 H   0  0  0  0  0  0  0  0  0  0  0  0  # atno 10763 bound_to 10752
  154.2346  135.6368  153.5190 H   0  0  0  0  0  0  0  0  0  0  0  0  # atno 10764 bound_to 10752
  153.0025  135.5545  154.6186 H   0  0  0  0  0  0  0  0  0  0  0  0  # atno 10765 bound_to 10752
  141.0261  134.0051  157.3212 H   0  0  0  0  0  0  0  0  0  0  0  0  # atno 11005 bound_to 11000
  144.8073  139.6026  143.7045 LP  0  0  0  0  0  0  0  0  0  0  0  0  # atno 17320 bound_to 7965
  146.2515  139.6209  142.9424 LP  0  0  0  0  0  0  0  0  0  0  0  0  # atno 17321 bound_to 7965
  140.4198  143.2617  151.9730 LP  0  0  0  0  0  0  0  0  0  0  0  0  # atno 17342 bound_to 10162
  139.4797  144.5841  151.7883 LP  0  0  0  0  0  0  0  0  0  0  0  0  # atno 17343 bound_to 10162
  157.0099  130.9947  151.3369 LP  0  0  0  0  0  0  0  0  0  0  0  0  # atno 17370 bound_to 10713
  157.5417  130.8124  149.8037 LP  0  0  0  0  0  0  0  0  0  0  0  0  # atno 17371 bound_to 10713
  139.9177  135.0198  156.7945 LP  0  0  0  0  0  0  0  0  0  0  0  0  # atno 17394 bound_to 11000
  140.6489  133.9750  155.7745 LP  0  0  0  0  0  0  0  0  0  0  0  0  # atno 17395 bound_to 11000

$$$$
