AV-unprocessed.smi:675|AV-procd|sdf|3304|dock10
  -GOLD-   22720 0263D 1   1.00000     0.00000
 Structure written by MMmdl.
 29 30  0  0  0  0  0  0  0  0  1 V2000
  147.1208  140.8399  152.8251 O   0  0  0  0  0  0  0  0  0  0  0  0
  147.7495  141.0321  153.8641 C   0  0  0  0  0  0  0  0  0  0  0  0
  149.0872  140.6346  153.9520 N   0  0  0  0  0  0  0  0  0  0  0  0
  149.9113  140.7935  155.0668 C   0  0  0  0  0  0  0  0  0  0  0  0
  151.0750  140.3947  155.0284 O   0  0  0  0  0  0  0  0  0  0  0  0
  149.3369  141.4175  156.1983 N   0  0  0  0  0  0  0  0  0  0  0  0
  150.1500  141.5768  157.3799 C   0  0  0  0  0  0  0  0  0  0  0  0
  151.2964  142.5952  157.1942 C   0  0  1  0  0  0  0  0  0  0  0  0
  150.9338  143.5191  156.1853 O   0  0  0  0  0  0  0  0  0  0  0  0
  151.6214  143.2918  158.5152 C   0  0  0  0  0  0  0  0  0  0  0  0
  151.3948  144.6811  158.6588 C   0  0  0  0  0  0  0  0  0  0  0  0
  151.6812  145.3339  159.8726 C   0  0  0  0  0  0  0  0  0  0  0  0
  152.1919  144.6035  160.9604 C   0  0  0  0  0  0  0  0  0  0  0  0
  152.4091  143.2193  160.8341 C   0  0  0  0  0  0  0  0  0  0  0  0
  152.1235  142.5599  159.6216 C   0  0  0  0  0  0  0  0  0  0  0  0
  152.3864  140.8525  159.5335 Cl  0  0  0  0  0  0  0  0  0  0  0  0
  148.0109  141.8208  156.1585 C   0  0  0  0  0  0  0  0  0  0  0  0
  147.2171  141.6603  155.0725 C   0  0  0  0  0  0  0  0  0  0  0  0
  145.5730  142.1890  155.1026 Cl  0  0  0  0  0  0  0  0  0  0  0  0
  149.4915  140.1925  153.1393 H   0  0  0  0  0  0  0  0  0  0  0  0
  149.5118  141.7804  158.2427 H   0  0  0  0  0  0  0  0  0  0  0  0
  150.5589  140.5795  157.5535 H   0  0  0  0  0  0  0  0  0  0  0  0
  152.1907  142.0880  156.8329 H   0  0  0  0  0  0  0  0  0  0  0  0
  150.1324  143.9472  156.4447 H   0  0  0  0  0  0  0  0  0  0  0  0
  150.9939  145.2590  157.8390 H   0  0  0  0  0  0  0  0  0  0  0  0
  151.5059  146.3953  159.9691 H   0  0  0  0  0  0  0  0  0  0  0  0
  152.4112  145.1030  161.8927 H   0  0  0  0  0  0  0  0  0  0  0  0
  152.7928  142.6599  161.6748 H   0  0  0  0  0  0  0  0  0  0  0  0
  147.5848  142.2838  157.0374 H   0  0  0  0  0  0  0  0  0  0  0  0
  1  2  2  0  0  0  0
  2 18  1  0  0  0  0
  2  3  1  0  0  0  0
  3 20  1  0  0  0  0
  3  4  1  0  0  0  0
  4  5  2  0  0  0  0
  4  6  1  0  0  0  0
  6  7  1  0  0  0  0
  6 17  1  0  0  0  0
  7  8  1  0  0  0  0
  7 21  1  0  0  0  0
  7 22  1  0  0  0  0
  8  9  1  0  0  0  0
  8 10  1  0  0  0  0
  8 23  1  0  0  0  0
  9 24  1  0  0  0  0
 10 15  1  0  0  0  0
 10 11  2  0  0  0  0
 11 12  1  0  0  0  0
 11 25  1  0  0  0  0
 12 13  2  0  0  0  0
 12 26  1  0  0  0  0
 13 14  1  0  0  0  0
 13 27  1  0  0  0  0
 14 15  2  0  0  0  0
 14 28  1  0  0  0  0
 15 16  1  0  0  0  0
 17 18  2  0  0  0  0
 17 29  1  0  0  0  0
 18 19  1  0  0  0  0
M  END
> <s_m_source_file>
AV-unprocessed.smi

> <i_m_source_file_index>
675

> <i_lp_mmshare_version>
43012

> <i_f3d_flags>
0

> <s_epik_input>
Tz1jMVtuSF1jKD1PKW4oW2NIXWMxQ2wpW0NIMl1bQ0BIXShbT0hdKWMyW2NIXVtjSF1bY0hdW2NIXWMyQ2w=

> <s_epik_cmdline>
J2VwaWtfcHl0aG9uJywgJy1waCcsICc3LjAnLCAnLXRuJywgJzgnLCAnLW1hJywgJzIwMCcsICctbWV0YWxfYmluZGluZycsICctaW1hZScsICc8aW5maWxlLm1hZT4nLCAnLW9tYWUnLCAnPG91dGZpbGUubWFlPic=

> <r_lp_tautomer_probability>
0.999537

> <r_epik_Ionization_Penalty>
0.029206

> <r_epik_Ionization_Penalty_Charging>
0.0292057

> <r_epik_Ionization_Penalty_Neutral>
2.68278e-07

> <r_epik_State_Penalty>
0.0240115

> <r_epik_Charging_Adjusted_Penalty>
0.0532172

> <i_epik_Tot_Q>
0

> <i_epik_Tot_abs_Q>
0

> <r_epik_Metal_State_Penalty>
2.21956

> <b_epik_Metal_Only>
0

> <s_lp_Force_Field>
OPLS_2005

> <r_lp_Energy>
14.2263

> <b_lp_Chiralities_Consistent>
1

> <s_lp_Variant>
AV-unprocessed.smi:675-2

> <Gold.Version>
5.8.1

> <Gold.Id.Protein>
6NUR|6NUR_protein|mol2

> <Gold.PLP.Fitness>
48.8893

> <Gold.PLP.PLP>
-41.9572

> <Gold.PLP.part.hbond>
-2.5623

> <Gold.PLP.part.metal>
0.0000

> <Gold.PLP.part.buried>
-4.3944

> <Gold.PLP.part.nonpolar>
-34.0938

> <Gold.PLP.part.repulsive>
0.5343

> <Gold.PLP.ligand.clash>
0.0000

> <Gold.PLP.ligand.torsion>
0.5485

> <Gold.PLP.Chemscore.Hbond>
2.6720

> <Gold.PLP.Chemscore.CHOScore>
0.0000

> <Gold.PLP.Chemscore.Metal>
0.0000

> <Gold.Chemscore.Hbonds>
donor molecule, donor type, donor heavy atom, donor atom, acceptor molecule, acceptor atom, score
      L1  H     3    20       P1  7957  0.98
      L1  H     9    24       P1  8028  0.72
      P1  H  7989  7998       L1     5  1.00

> <Gold.PLP.Chemscore.Internal.Correction>
0.0131

> <Gold.Rescore>
     Score         DG    S(hbond)    S(metal)    S(lipo)     H(rot)  DE(clash)    DE(int)     intcor
     18.95     -19.80       2.34        0.00     103.28       2.18       0.28       0.56       ----

> <Gold.Chemscore.Fitness>
18.9543

> <Gold.Chemscore.DG>
-19.7952

> <Gold.Chemscore.ZeroCoef>
-5.4800

> <Gold.Chemscore.Hbond>
2.3372

> <Gold.Chemscore.Metal>
0.0000

> <Gold.Chemscore.Lipo>
103.2764

> <Gold.Chemscore.Internal_Hbond>
0.0000

> <Gold.Chemscore.DEClash>
0.2835

> <Gold.Chemscore.DEInternal>
0.5574

> <Gold.Chemscore.Rot>
2.1775

> <Gold.Chemscore.Internal.Correction>
   9.000000E+99

> <Gold.Chemscore.Hbonds>
donor molecule, donor type, donor heavy atom, donor atom, acceptor molecule, acceptor atom, score
      L1  H     3    20       P1  7957  0.91
      L1  H     9    24       P1  8028  0.72
      P1  H  7989  7998       L1     5  0.43

> <Gold.Chemscore.Hbond.Weighted>
-7.8063

> <Gold.Chemscore.Metal.Weighted>
-0.0000

> <Gold.Chemscore.Lipo.Weighted>
-12.0833

> <Gold.Chemscore.Internal_Hbond.Weighted>
0.0000

> <Gold.Chemscore.DEClash.Weighted>
0.2835

> <Gold.Chemscore.DEInternal.Weighted>
0.5574

> <Gold.Chemscore.Rot.Weighted>
5.5745

> <Gold.Chemscore.Internal.Correction.Weighted>
   9.000000E+99

> <Gold.Protein.RotatedTorsions>
[ 6907 6896 6895 6894 ] final   33.68 input  -60.11 | X-H torsion
[ 7974 7965 7964 7962 ] final -164.90 input  175.53 | X-H torsion
[ 8008 7997 7996 7995 ] final  177.25 input   59.86 | X-H torsion
[ 10167 10162 10161 10158 ] final  122.61 input  -65.29 | X-H torsion
[ 10718 10713 10712 10709 ] final  -48.45 input   66.30 | X-H torsion
[ 10763 10752 10751 10750 ] final  173.07 input  -60.55 | X-H torsion
[ 11005 11000 10999 10996 ] final   70.72 input  -57.11 | X-H torsion

> <Gold.Protein.ActiveResidues>
 VAL166  LYS551  ARG553  GLY616  TRP617  ASP618  TYR619  PRO620  LYS621  CYS622 
 ASP623  PHE694  ASN695  SER759  ASP760  ASP761  ALA762  ILE779  LEU786  VAL792 
 PHE793  MET794  SER795  GLU796  ALA797  LYS798  CYS799  TRP800  GLU811  SER814 

> <Gold.Protein.RotatedAtoms>
  152.0919  134.9401  160.0571 H   0  0  0  0  0  0  0  0  0  0  0  0  # atno 6907 bound_to 6896
  152.0649  133.4074  159.4442 H   0  0  0  0  0  0  0  0  0  0  0  0  # atno 6908 bound_to 6896
  150.6837  134.3078  159.4777 H   0  0  0  0  0  0  0  0  0  0  0  0  # atno 6909 bound_to 6896
  144.7284  140.2893  143.6223 H   0  0  0  0  0  0  0  0  0  0  0  0  # atno 7974 bound_to 7965
  156.0677  140.1363  156.9866 H   0  0  0  0  0  0  0  0  0  0  0  0  # atno 8008 bound_to 7997
  154.4515  140.0978  156.6683 H   0  0  0  0  0  0  0  0  0  0  0  0  # atno 8009 bound_to 7997
  155.5277  140.3458  155.4422 H   0  0  0  0  0  0  0  0  0  0  0  0  # atno 8010 bound_to 7997
  139.5849  144.7002  151.3435 H   0  0  0  0  0  0  0  0  0  0  0  0  # atno 10167 bound_to 10162
  156.1987  130.4155  149.9271 H   0  0  0  0  0  0  0  0  0  0  0  0  # atno 10718 bound_to 10713
  154.4350  135.2760  155.1887 H   0  0  0  0  0  0  0  0  0  0  0  0  # atno 10763 bound_to 10752
  154.3777  135.6094  153.5777 H   0  0  0  0  0  0  0  0  0  0  0  0  # atno 10764 bound_to 10752
  152.9838  135.5873  154.4667 H   0  0  0  0  0  0  0  0  0  0  0  0  # atno 10765 bound_to 10752
  139.9582  134.7107  156.0705 H   0  0  0  0  0  0  0  0  0  0  0  0  # atno 11005 bound_to 11000
  145.7871  139.1913  143.2124 LP  0  0  0  0  0  0  0  0  0  0  0  0  # atno 17320 bound_to 7965
  146.0786  140.7789  142.9652 LP  0  0  0  0  0  0  0  0  0  0  0  0  # atno 17321 bound_to 7965
  140.7122  143.7361  150.7587 LP  0  0  0  0  0  0  0  0  0  0  0  0  # atno 17342 bound_to 10162
  140.0903  143.4884  152.2482 LP  0  0  0  0  0  0  0  0  0  0  0  0  # atno 17343 bound_to 10162
  156.6988  130.8925  151.3597 LP  0  0  0  0  0  0  0  0  0  0  0  0  # atno 17370 bound_to 10713
  157.6973  130.9295  150.0680 LP  0  0  0  0  0  0  0  0  0  0  0  0  # atno 17371 bound_to 10713
  141.1256  133.6600  156.3328 LP  0  0  0  0  0  0  0  0  0  0  0  0  # atno 17394 bound_to 11000
  140.5561  134.5980  157.5421 LP  0  0  0  0  0  0  0  0  0  0  0  0  # atno 17395 bound_to 11000

$$$$
