#       Name:                AV-unprocessed.smi:1533
#       Creating user name   scv26
#       Creation time:       Fri Mar 27 06:31:21 2020


#       File generated by GOLD software.
#

@<TRIPOS>MOLECULE
AV-unprocessed.smi:1533
    43    45     1
SMALL
NO_CHARGES


@<TRIPOS>ATOM
      1 ****        -3.4570   6.0248   0.7445 C.3            1 S1                 0.0000
      2 ****        -3.4632   4.5863   0.3534 C.2            1 S1                 0.0000
      3 ****        -4.3966   4.0917  -0.4509 N.2            1 S1                 0.0000
      4 ****        -4.0401   2.7404  -0.5674 O.3            1 S1                 0.0000
      5 ****        -2.9373   2.5817   0.2034 C.2            1 S1                 0.0000
      6 ****        -2.2805   1.2432   0.2532 C.3            1 S1                 0.0000
      7 ****        -1.3098   1.0234  -0.9180 C.3            1 S1                 0.0000
      8 ****        -0.7127  -0.3066  -0.8803 N.am           1 S1                 0.0000
      9 ****         0.3183  -0.6681  -0.1013 C.2            1 S1                 0.0000
     10 ****         0.8678   0.1055   0.6839 O.2            1 S1                 0.0000
     11 ****         0.7697  -2.1350  -0.2177 C.3            1 S1                 0.0000
     12 ****         1.2054  -2.7868   1.1180 C.3            1 S1                 0.0000
     13 ****         2.6013  -3.3490   0.7894 C.3            1 S1                 0.0000
     14 ****         3.6099  -2.1901   0.6789 C.3            1 S1                 0.0000
     15 ****         3.2410  -1.5475  -0.6706 C.3            1 S1                 0.0000
     16 ****         2.0130  -2.3722  -1.1161 C.3            1 S1                 0.0000
     17 ****         2.4358  -3.7679  -0.6672 C.3            1 S1                 0.0000
     18 ****        -2.5223   3.7034   0.7873 N.2            1 S1                 0.0000
     19 ****        -4.2553   6.5705   0.2400 H              1 S1                 0.0000
     20 ****        -2.5047   6.4834   0.4774 H              1 S1                 0.0000
     21 ****        -3.5989   6.1225   1.8209 H              1 S1                 0.0000
     22 ****        -1.7564   1.1509   1.2054 H              1 S1                 0.0000
     23 ****        -3.0561   0.4763   0.2480 H              1 S1                 0.0000
     24 ****        -1.8417   1.1263  -1.8644 H              1 S1                 0.0000
     25 ****        -0.5289   1.7861  -0.9163 H              1 S1                 0.0000
     26 ****        -1.1117  -1.0041  -1.4921 H              1 S1                 0.0000
     27 ****        -0.0629  -2.7148  -0.6211 H              1 S1                 0.0000
     28 ****         1.2330  -2.1024   1.9671 H              1 S1                 0.0000
     29 ****         0.5221  -3.5954   1.3806 H              1 S1                 0.0000
     30 ****         2.9212  -4.1431   1.4646 H              1 S1                 0.0000
     31 ****         3.5230  -1.4889   1.5098 H              1 S1                 0.0000
     32 ****         4.6351  -2.5618   0.6593 H              1 S1                 0.0000
     33 ****         3.0537  -0.4770  -0.5959 H              1 S1                 0.0000
     34 ****         4.0581  -1.6770  -1.3816 H              1 S1                 0.0000
     35 ****         1.7984  -2.2926  -2.1822 H              1 S1                 0.0000
     36 ****         3.3647  -4.1110  -1.1267 H              1 S1                 0.0000
     37 ****         1.6644  -4.5259  -0.8155 H              1 S1                 0.0000
     38 ****        -5.1682   4.5682  -0.8723 LP             1 S1                 0.0000
     39 ****        -3.8346   2.5154  -1.5198 LP             1 S1                 0.0000
     40 ****        -4.7815   2.1551  -0.2391 LP             1 S1                 0.0000
     41 ****         0.5483   1.0500   0.7613 LP             1 S1                 0.0000
     42 ****         1.6334  -0.2108   1.2441 LP             1 S1                 0.0000
     43 ****        -1.7336   3.8561   1.3829 LP             1 S1                 0.0000
@<TRIPOS>BOND
    1    1    2 1     
    2    1   19 1     
    3    1   20 1     
    4    1   21 1     
    5    2   18 1     
    6    2    3 2     
    7    3    4 1     
    8    4    5 1     
    9    5    6 1     
   10    5   18 2     
   11    6    7 1     
   12    6   22 1     
   13    6   23 1     
   14    7    8 1     
   15    7   24 1     
   16    7   25 1     
   17    8    9 am    
   18    8   26 1     
   19    9   10 2     
   20    9   11 1     
   21   11   16 1     
   22   11   12 1     
   23   11   27 1     
   24   12   13 1     
   25   12   28 1     
   26   12   29 1     
   27   13   17 1     
   28   13   14 1     
   29   13   30 1     
   30   14   15 1     
   31   14   31 1     
   32   14   32 1     
   33   15   16 1     
   34   15   33 1     
   35   15   34 1     
   36   16   17 1     
   37   16   35 1     
   38   17   36 1     
   39   17   37 1     
   40    3   38 1     
   41    4   39 1     
   42    4   40 1     
   43   10   41 1     
   44   10   42 1     
   45   18   43 1     
@<TRIPOS>SUBSTRUCTURE
      1 S1             1
@<TRIPOS>SET
LONE_PAIRS      STATIC     ATOMS    <user>   **** ""
6 38 39 40 41 42 43
DONOR_HYDROGENS      STATIC     ATOMS    <user>   **** ""
1 26
ATOM$BLUE        STATIC     ATOMS    COLORGROUP SYSTEM
6 38 39 40 41 42 43
ATOM$RED        STATIC     ATOMS    COLORGROUP SYSTEM
1 26
