AV-unprocessed.smi:2458|AV-procd|sdf|9710|dock6
  -GOLD-   2272013353D 1   1.00000     0.00000
 Structure written by MMmdl.
 47 48  0  0  0  0  0  0  0  0  1 V2000
  151.5591  142.5044  159.1214 C   0  0  0  0  0  0  0  0  0  0  0  0
  151.3206  141.0810  158.5805 C   0  0  0  0  0  0  0  0  0  0  0  0
  152.4402  140.1605  159.1043 C   0  0  0  0  0  0  0  0  0  0  0  0
  151.1839  141.0422  157.0294 C   0  0  1  0  0  0  0  0  0  0  0  0
  151.2492  139.6015  156.4662 C   0  0  0  0  0  0  0  0  0  0  0  0
  151.1023  139.5538  154.9331 C   0  0  0  0  0  0  0  0  0  0  0  0
  149.8433  140.2719  154.4023 C   0  0  1  0  0  0  0  0  0  0  0  0
  148.5527  139.4533  154.5969 C   0  0  0  0  0  0  0  0  0  0  0  0
  148.2061  139.0688  155.7135 O   0  0  0  0  0  0  0  0  0  0  0  0
  147.8447  139.1915  153.4886 N   0  0  0  0  0  0  0  0  0  0  0  0
  146.5950  138.4429  153.4632 C   0  0  0  0  0  0  0  0  0  0  0  0
  146.2144  138.0546  152.0235 C   0  0  2  0  0  0  0  0  0  0  0  0
  145.8414  139.2248  151.3223 O   0  0  0  0  0  0  0  0  0  0  0  0
  145.1014  137.0189  152.0084 C   0  0  0  0  0  0  0  0  0  0  0  0
  145.2585  135.7813  151.3472 C   0  0  0  0  0  0  0  0  0  0  0  0
  144.1909  134.8633  151.3567 C   0  0  0  0  0  0  0  0  0  0  0  0
  143.0048  135.2215  152.0271 C   0  0  0  0  0  0  0  0  0  0  0  0
  142.8397  136.4022  152.6609 N   0  0  0  0  0  0  0  0  0  0  0  0
  143.8688  137.2768  152.6472 C   0  0  0  0  0  0  0  0  0  0  0  0
  149.7448  141.6886  155.0038 C   0  0  0  0  0  0  0  0  0  0  0  0
  149.8822  141.7195  156.5368 C   0  0  0  0  0  0  0  0  0  0  0  0
  152.0236  141.5977  156.6091 H   0  0  0  0  0  0  0  0  0  0  0  0
  149.9762  140.3903  153.3254 H   0  0  0  0  0  0  0  0  0  0  0  0
  152.4274  142.9673  158.6511 H   0  0  0  0  0  0  0  0  0  0  0  0
  151.7353  142.4924  160.1974 H   0  0  0  0  0  0  0  0  0  0  0  0
  150.6994  143.1537  158.9596 H   0  0  0  0  0  0  0  0  0  0  0  0
  150.3837  140.7251  159.0114 H   0  0  0  0  0  0  0  0  0  0  0  0
  153.3983  140.3972  158.6407 H   0  0  0  0  0  0  0  0  0  0  0  0
  152.2253  139.1086  158.9207 H   0  0  0  0  0  0  0  0  0  0  0  0
  152.5617  140.2640  160.1830 H   0  0  0  0  0  0  0  0  0  0  0  0
  152.2031  139.1380  156.7140 H   0  0  0  0  0  0  0  0  0  0  0  0
  150.4847  138.9849  156.9386 H   0  0  0  0  0  0  0  0  0  0  0  0
  151.9825  140.0161  154.4844 H   0  0  0  0  0  0  0  0  0  0  0  0
  151.1121  138.5156  154.5981 H   0  0  0  0  0  0  0  0  0  0  0  0
  148.1869  139.5438  152.6063 H   0  0  0  0  0  0  0  0  0  0  0  0
  146.7472  137.5397  154.0565 H   0  0  0  0  0  0  0  0  0  0  0  0
  145.7908  139.0051  153.9418 H   0  0  0  0  0  0  0  0  0  0  0  0
  147.0828  137.6296  151.5176 H   0  0  0  0  0  0  0  0  0  0  0  0
  144.9596  139.1150  151.0012 H   0  0  0  0  0  0  0  0  0  0  0  0
  146.1801  135.5385  150.8386 H   0  0  0  0  0  0  0  0  0  0  0  0
  144.2783  133.9079  150.8607 H   0  0  0  0  0  0  0  0  0  0  0  0
  142.1659  134.5418  152.0539 H   0  0  0  0  0  0  0  0  0  0  0  0
  143.7000  138.2113  153.1618 H   0  0  0  0  0  0  0  0  0  0  0  0
  150.5293  142.3095  154.5692 H   0  0  0  0  0  0  0  0  0  0  0  0
  148.8034  142.1564  154.7122 H   0  0  0  0  0  0  0  0  0  0  0  0
  149.0179  141.2454  157.0023 H   0  0  0  0  0  0  0  0  0  0  0  0
  149.8544  142.7641  156.8434 H   0  0  0  0  0  0  0  0  0  0  0  0
  1  2  1  0  0  0  0
  1 24  1  0  0  0  0
  1 25  1  0  0  0  0
  1 26  1  0  0  0  0
  2  3  1  0  0  0  0
  2  4  1  0  0  0  0
  2 27  1  0  0  0  0
  3 28  1  0  0  0  0
  3 29  1  0  0  0  0
  3 30  1  0  0  0  0
  4 22  1  0  0  0  0
  4 21  1  0  0  0  0
  4  5  1  0  0  0  0
  5  6  1  0  0  0  0
  5 31  1  0  0  0  0
  5 32  1  0  0  0  0
  6  7  1  0  0  0  0
  6 33  1  0  0  0  0
  6 34  1  0  0  0  0
  7 23  1  0  0  0  0
  7  8  1  0  0  0  0
  7 20  1  0  0  0  0
  8  9  2  0  0  0  0
  8 10  1  0  0  0  0
 10 11  1  0  0  0  0
 10 35  1  0  0  0  0
 11 12  1  0  0  0  0
 11 36  1  0  0  0  0
 11 37  1  0  0  0  0
 12 13  1  0  0  0  0
 12 14  1  0  0  0  0
 12 38  1  0  0  0  0
 13 39  1  0  0  0  0
 14 19  1  0  0  0  0
 14 15  2  0  0  0  0
 15 16  1  0  0  0  0
 15 40  1  0  0  0  0
 16 17  2  0  0  0  0
 16 41  1  0  0  0  0
 17 18  1  0  0  0  0
 17 42  1  0  0  0  0
 18 19  2  0  0  0  0
 19 43  1  0  0  0  0
 20 21  1  0  0  0  0
 20 44  1  0  0  0  0
 20 45  1  0  0  0  0
 21 46  1  0  0  0  0
 21 47  1  0  0  0  0
M  END
> <s_m_source_file>
AV-unprocessed.smi

> <i_m_source_file_index>
2458

> <i_lp_mmshare_version>
43012

> <i_f3d_flags>
0

> <s_epik_input>
W0NIM11bQ0hdKFtDSDNdKVtDQEhdMVtDSDJdW0NIMl1bQ0BASF0oW0NIMl1bQ0gyXTEpQyg9TylbTkhdW0NIMl1bQ0BIXShbT0hdKWMyW2NIXVtjSF1bY0hdbltjSF0y

> <s_epik_cmdline>
J2VwaWtfcHl0aG9uJywgJy1waCcsICc3LjAnLCAnLXRuJywgJzgnLCAnLW1hJywgJzIwMCcsICctbWV0YWxfYmluZGluZycsICctaW1hZScsICc8aW5maWxlLm1hZT4nLCAnLW9tYWUnLCAnPG91dGZpbGUubWFlPic=

> <r_epik_Ionization_Penalty>
0.00169206

> <r_epik_Ionization_Penalty_Charging>
0

> <r_epik_Ionization_Penalty_Neutral>
0.00169206

> <r_epik_State_Penalty>
0.0011427

> <r_epik_Charging_Adjusted_Penalty>
0.0011427

> <i_epik_Tot_Q>
0

> <i_epik_Tot_abs_Q>
0

> <r_epik_Metal_State_Penalty>
-0

> <b_epik_Metal_Only>
0

> <s_lp_Force_Field>
OPLS_2005

> <r_lp_Energy>
16.378

> <b_lp_Chiralities_Consistent>
1

> <s_lp_Variant>
AV-unprocessed.smi:2458-3

> <Gold.Version>
5.8.1

> <Gold.Id.Protein>
6NUR|6NUR_protein|mol2

> <Gold.PLP.Fitness>
44.1971

> <Gold.PLP.PLP>
-35.8231

> <Gold.PLP.part.hbond>
-3.0000

> <Gold.PLP.part.metal>
0.0000

> <Gold.PLP.part.buried>
1.8491

> <Gold.PLP.part.nonpolar>
-34.3011

> <Gold.PLP.part.repulsive>
0.2227

> <Gold.PLP.ligand.clash>
0.0000

> <Gold.PLP.ligand.torsion>
0.4142

> <Gold.PLP.Chemscore.Hbond>
2.0000

> <Gold.PLP.Chemscore.CHOScore>
1.0488

> <Gold.PLP.Chemscore.Metal>
0.0000

> <Gold.Chemscore.Hbonds>
donor molecule, donor type, donor heavy atom, donor atom, acceptor molecule, acceptor atom, score
      L1  H    10    35       P1  7957  0.89
      L1  H    13    39       P1 10171  1.00
      L1  C    19    43       P1 10175  1.00

> <Gold.PLP.Chemscore.Internal.Correction>
0.0559

> <Gold.Rescore>
     Score         DG    S(hbond)    S(metal)    S(lipo)     H(rot)  DE(clash)    DE(int)     intcor
     16.76     -18.33       1.88        0.00     101.12       2.06       1.26       0.32       ----

> <Gold.Chemscore.Fitness>
16.7568

> <Gold.Chemscore.DG>
-18.3348

> <Gold.Chemscore.ZeroCoef>
-5.4800

> <Gold.Chemscore.Hbond>
1.8846

> <Gold.Chemscore.Metal>
0.0000

> <Gold.Chemscore.Lipo>
101.1180

> <Gold.Chemscore.Internal_Hbond>
0.0000

> <Gold.Chemscore.DEClash>
1.2612

> <Gold.Chemscore.DEInternal>
0.3168

> <Gold.Chemscore.Rot>
2.0588

> <Gold.Chemscore.Internal.Correction>
   9.000000E+99

> <Gold.Chemscore.Hbonds>
donor molecule, donor type, donor heavy atom, donor atom, acceptor molecule, acceptor atom, score
      L1  H    10    35       P1  7957  0.85
      L1  H    13    39       P1 10171  0.95

> <Gold.Chemscore.Hbond.Weighted>
-6.2945

> <Gold.Chemscore.Metal.Weighted>
-0.0000

> <Gold.Chemscore.Lipo.Weighted>
-11.8308

> <Gold.Chemscore.Internal_Hbond.Weighted>
0.0000

> <Gold.Chemscore.DEClash.Weighted>
1.2612

> <Gold.Chemscore.DEInternal.Weighted>
0.3168

> <Gold.Chemscore.Rot.Weighted>
5.2705

> <Gold.Chemscore.Internal.Correction.Weighted>
   9.000000E+99

> <Gold.Protein.RotatedTorsions>
[ 6907 6896 6895 6894 ] final   -5.05 input  -60.11 | X-H torsion
[ 7974 7965 7964 7962 ] final   75.96 input  175.53 | X-H torsion
[ 8008 7997 7996 7995 ] final -171.17 input   59.86 | X-H torsion
[ 10167 10162 10161 10158 ] final  103.23 input  -65.29 | X-H torsion
[ 10718 10713 10712 10709 ] final   63.08 input   66.30 | X-H torsion
[ 10763 10752 10751 10750 ] final -136.67 input  -60.55 | X-H torsion
[ 11005 11000 10999 10996 ] final   69.73 input  -57.11 | X-H torsion

> <Gold.Protein.ActiveResidues>
 VAL166  LYS551  ARG553  GLY616  TRP617  ASP618  TYR619  PRO620  LYS621  CYS622 
 ASP623  PHE694  ASN695  SER759  ASP760  ASP761  ALA762  ILE779  LEU786  VAL792 
 PHE793  MET794  SER795  GLU796  ALA797  LYS798  CYS799  TRP800  GLU811  SER814 

> <Gold.Protein.RotatedAtoms>
  151.4878  135.1056  159.9794 H   0  0  0  0  0  0  0  0  0  0  0  0  # atno 6907 bound_to 6896
  152.4753  133.8120  159.7019 H   0  0  0  0  0  0  0  0  0  0  0  0  # atno 6908 bound_to 6896
  150.8787  133.7340  159.2965 H   0  0  0  0  0  0  0  0  0  0  0  0  # atno 6909 bound_to 6896
  145.7089  139.2608  143.1662 H   0  0  0  0  0  0  0  0  0  0  0  0  # atno 7974 bound_to 7965
  155.9281  140.1086  157.1154 H   0  0  0  0  0  0  0  0  0  0  0  0  # atno 8008 bound_to 7997
  154.4066  140.1243  156.4832 H   0  0  0  0  0  0  0  0  0  0  0  0  # atno 8009 bound_to 7997
  155.7114  140.3471  155.4978 H   0  0  0  0  0  0  0  0  0  0  0  0  # atno 8010 bound_to 7997
  139.7281  144.7043  151.0766 H   0  0  0  0  0  0  0  0  0  0  0  0  # atno 10167 bound_to 10162
  157.5946  130.9085  149.9670 H   0  0  0  0  0  0  0  0  0  0  0  0  # atno 10718 bound_to 10713
  154.8679  135.3665  154.5098 H   0  0  0  0  0  0  0  0  0  0  0  0  # atno 10763 bound_to 10752
  153.5734  135.7020  153.5499 H   0  0  0  0  0  0  0  0  0  0  0  0  # atno 10764 bound_to 10752
  153.3521  135.4069  155.1617 H   0  0  0  0  0  0  0  0  0  0  0  0  # atno 10765 bound_to 10752
  139.9637  134.7017  156.0590 H   0  0  0  0  0  0  0  0  0  0  0  0  # atno 11005 bound_to 11000
  146.0731  140.7847  142.9678 LP  0  0  0  0  0  0  0  0  0  0  0  0  # atno 17320 bound_to 7965
  144.6947  140.3372  143.7205 LP  0  0  0  0  0  0  0  0  0  0  0  0  # atno 17321 bound_to 7965
  140.7766  143.5079  150.9689 LP  0  0  0  0  0  0  0  0  0  0  0  0  # atno 17342 bound_to 10162
  139.8767  143.7124  152.3161 LP  0  0  0  0  0  0  0  0  0  0  0  0  # atno 17343 bound_to 10162
  156.1006  130.3656  150.0225 LP  0  0  0  0  0  0  0  0  0  0  0  0  # atno 17370 bound_to 10713
  156.8341  130.9402  151.3635 LP  0  0  0  0  0  0  0  0  0  0  0  0  # atno 17371 bound_to 10713
  141.1316  133.6585  156.3480 LP  0  0  0  0  0  0  0  0  0  0  0  0  # atno 17394 bound_to 11000
  140.5443  134.6090  157.5389 LP  0  0  0  0  0  0  0  0  0  0  0  0  # atno 17395 bound_to 11000

$$$$
