AV-unprocessed.smi:1855|AV-procd|sdf|7532|dock7
  -GOLD-   22720 9243D 1   1.00000     0.00000
 Structure written by MMmdl.
 44 46  0  0  0  0  0  0  0  0  2 V2000
  154.8619  139.4119  161.1728 C   0  0  0  0  0  0  0  0  0  0  0  0
  154.0789  139.6603  160.0151 O   0  0  0  0  0  0  0  0  0  0  0  0
  153.4179  140.8678  159.9175 C   0  0  0  0  0  0  0  0  0  0  0  0
  153.4635  141.8741  160.9154 C   0  0  0  0  0  0  0  0  0  0  0  0
  152.7574  143.0792  160.7457 C   0  0  0  0  0  0  0  0  0  0  0  0
  152.0015  143.2938  159.5805 C   0  0  0  0  0  0  0  0  0  0  0  0
  151.9493  142.3022  158.5840 C   0  0  0  0  0  0  0  0  0  0  0  0
  152.6550  141.0845  158.7475 C   0  0  0  0  0  0  0  0  0  0  0  0
  152.6527  140.0700  157.8163 O   0  0  0  0  0  0  0  0  0  0  0  0
  151.9242  140.2446  156.6099 C   0  0  0  0  0  0  0  0  0  0  0  0
  150.4845  139.7579  156.8310 C   0  0  0  0  0  0  0  0  0  0  0  0
  149.8375  139.3592  155.5699 N   0  0  0  0  0  0  0  0  0  0  0  0
  150.0465  138.2700  154.7745 C   0  0  0  0  0  0  0  0  0  0  0  0
  151.0166  137.1529  155.0020 C   0  0  0  0  0  0  0  0  0  0  0  0
  150.6931  135.9555  154.2358 N   0  0  0  0  0  0  0  0  0  0  0  0
  150.0141  134.9011  154.7096 C   0  0  0  0  0  0  0  0  0  0  0  0
  149.5668  134.8189  155.8521 O   0  0  0  0  0  0  0  0  0  0  0  0
  149.2030  138.3809  153.7092 N   0  3  0  0  0  0  0  0  0  0  0  0
  148.4538  139.5524  153.8179 C   0  0  0  0  0  0  0  0  0  0  0  0
  147.4838  140.0939  152.9799 C   0  0  0  0  0  0  0  0  0  0  0  0
  146.9172  141.3222  153.3786 C   0  0  0  0  0  0  0  0  0  0  0  0
  147.3157  141.9618  154.5701 C   0  0  0  0  0  0  0  0  0  0  0  0
  148.2951  141.3993  155.4143 C   0  0  0  0  0  0  0  0  0  0  0  0
  148.8541  140.1862  155.0115 C   0  0  0  0  0  0  0  0  0  0  0  0
  155.3065  138.4196  161.0982 H   0  0  0  0  0  0  0  0  0  0  0  0
  154.2537  139.4333  162.0780 H   0  0  0  0  0  0  0  0  0  0  0  0
  155.6757  140.1321  161.2659 H   0  0  0  0  0  0  0  0  0  0  0  0
  154.0341  141.7456  161.8224 H   0  0  0  0  0  0  0  0  0  0  0  0
  152.7978  143.8405  161.5107 H   0  0  0  0  0  0  0  0  0  0  0  0
  151.4622  144.2204  159.4494 H   0  0  0  0  0  0  0  0  0  0  0  0
  151.3644  142.5004  157.6988 H   0  0  0  0  0  0  0  0  0  0  0  0
  151.9096  141.2974  156.3231 H   0  0  0  0  0  0  0  0  0  0  0  0
  152.3886  139.6787  155.8013 H   0  0  0  0  0  0  0  0  0  0  0  0
  150.4759  138.9006  157.5033 H   0  0  0  0  0  0  0  0  0  0  0  0
  149.8817  140.5267  157.3144 H   0  0  0  0  0  0  0  0  0  0  0  0
  152.0105  137.4903  154.7078 H   0  0  0  0  0  0  0  0  0  0  0  0
  151.0769  136.9127  156.0640 H   0  0  0  0  0  0  0  0  0  0  0  0
  151.0187  135.9200  153.2806 H   0  0  0  0  0  0  0  0  0  0  0  0
  149.9114  134.1216  153.9391 H   0  0  0  0  0  0  0  0  0  0  0  0
  147.1787  139.6071  152.0654 H   0  0  0  0  0  0  0  0  0  0  0  0
  146.1637  141.7842  152.7576 H   0  0  0  0  0  0  0  0  0  0  0  0
  146.8627  142.9043  154.8419 H   0  0  0  0  0  0  0  0  0  0  0  0
  148.5982  141.9033  156.3199 H   0  0  0  0  0  0  0  0  0  0  0  0
  149.1502  137.7037  152.9594 H   0  0  0  0  0  0  0  0  0  0  0  0
  1  2  1  0  0  0  0
  1 25  1  0  0  0  0
  1 26  1  0  0  0  0
  1 27  1  0  0  0  0
  2  3  1  0  0  0  0
  3  8  1  0  0  0  0
  3  4  2  0  0  0  0
  4  5  1  0  0  0  0
  4 28  1  0  0  0  0
  5  6  2  0  0  0  0
  5 29  1  0  0  0  0
  6  7  1  0  0  0  0
  6 30  1  0  0  0  0
  7  8  2  0  0  0  0
  7 31  1  0  0  0  0
  8  9  1  0  0  0  0
  9 10  1  0  0  0  0
 10 11  1  0  0  0  0
 10 32  1  0  0  0  0
 10 33  1  0  0  0  0
 11 12  1  0  0  0  0
 11 34  1  0  0  0  0
 11 35  1  0  0  0  0
 12 24  1  0  0  0  0
 12 13  1  0  0  0  0
 13 14  1  0  0  0  0
 13 18  2  0  0  0  0
 14 15  1  0  0  0  0
 14 36  1  0  0  0  0
 14 37  1  0  0  0  0
 15 16  1  0  0  0  0
 15 38  1  0  0  0  0
 16 17  2  0  0  0  0
 16 39  1  0  0  0  0
 18 19  1  0  0  0  0
 18 44  1  0  0  0  0
 19 24  2  0  0  0  0
 19 20  1  0  0  0  0
 20 21  2  0  0  0  0
 20 40  1  0  0  0  0
 21 22  1  0  0  0  0
 21 41  1  0  0  0  0
 22 23  2  0  0  0  0
 22 42  1  0  0  0  0
 23 24  1  0  0  0  0
 23 43  1  0  0  0  0
M  CHG  1  18   1
M  END
> <s_m_source_file>
AV-unprocessed.smi

> <i_m_source_file_index>
1855

> <i_lp_mmshare_version>
43012

> <i_f3d_flags>
0

> <s_epik_input>
W0NIM11PYzFbY0hdW2NIXVtjSF1bY0hdYzFPW0NIMl1bQ0gyXW4oYyhuMilbQ0gyXVtOSF1bQ0hdPU8pYyhjMjMpW2NIXVtjSF1bY0hdW2NIXTM=

> <s_epik_cmdline>
J2VwaWtfcHl0aG9uJywgJy1waCcsICc3LjAnLCAnLXRuJywgJzgnLCAnLW1hJywgJzIwMCcsICctbWV0YWxfYmluZGluZycsICctaW1hZScsICc8aW5maWxlLm1hZT4nLCAnLW9tYWUnLCAnPG91dGZpbGUubWFlPic=

> <r_lp_tautomer_probability>
1

> <r_epik_Ionization_Penalty>
1.39865

> <r_epik_Ionization_Penalty_Charging>
1.39865

> <r_epik_Ionization_Penalty_Neutral>
7.38905e-08

> <r_epik_State_Penalty>
1.48061

> <r_epik_Charging_Adjusted_Penalty>
2.87925

> <i_epik_Tot_Q>
1

> <i_epik_Tot_abs_Q>
1

> <r_epik_Metal_State_Penalty>
1.53473

> <b_epik_Metal_Only>
0

> <s_lp_Force_Field>
OPLS_2005

> <r_lp_Energy>
17.0983

> <b_lp_Chiralities_Consistent>
1

> <s_lp_Variant>
AV-unprocessed.smi:1855-2

> <Gold.Version>
5.8.1

> <Gold.Id.Protein>
6NUR|6NUR_protein|mol2

> <Gold.PLP.Fitness>
54.0456

> <Gold.PLP.PLP>
-43.9696

> <Gold.PLP.part.hbond>
-4.9769

> <Gold.PLP.part.metal>
0.0000

> <Gold.PLP.part.buried>
-0.4784

> <Gold.PLP.part.nonpolar>
-39.2128

> <Gold.PLP.part.repulsive>
0.1955

> <Gold.PLP.ligand.clash>
0.0000

> <Gold.PLP.ligand.torsion>
0.8885

> <Gold.PLP.Chemscore.Hbond>
3.8940

> <Gold.PLP.Chemscore.CHOScore>
0.0000

> <Gold.PLP.Chemscore.Metal>
0.0000

> <Gold.Chemscore.Hbonds>
donor molecule, donor type, donor heavy atom, donor atom, acceptor molecule, acceptor atom, score
      L1  H    15    38       P1  7949  0.90
      L1  H    18    44       P1  7948  2.00
      P1  H  7997  8010       L1     9  0.75

> <Gold.PLP.Chemscore.Internal.Correction>
0.1711

> <Gold.Rescore>
     Score         DG    S(hbond)    S(metal)    S(lipo)     H(rot)  DE(clash)    DE(int)     intcor
     17.12     -19.17       2.08        0.00     119.12       2.81       1.19       0.87       ----

> <Gold.Chemscore.Fitness>
17.1192

> <Gold.Chemscore.DG>
-19.1733

> <Gold.Chemscore.ZeroCoef>
-5.4800

> <Gold.Chemscore.Hbond>
2.0815

> <Gold.Chemscore.Metal>
0.0000

> <Gold.Chemscore.Lipo>
119.1180

> <Gold.Chemscore.Internal_Hbond>
0.0000

> <Gold.Chemscore.DEClash>
1.1858

> <Gold.Chemscore.DEInternal>
0.8683

> <Gold.Chemscore.Rot>
2.8108

> <Gold.Chemscore.Internal.Correction>
   9.000000E+99

> <Gold.Chemscore.Hbonds>
donor molecule, donor type, donor heavy atom, donor atom, acceptor molecule, acceptor atom, score
      L1  H    15    38       P1  7949  0.18
      L1  H    18    44       P1  7948  0.99
      P1  H  7997  8010       L1     9  0.07

> <Gold.Chemscore.Hbond.Weighted>
-6.9520

> <Gold.Chemscore.Metal.Weighted>
-0.0000

> <Gold.Chemscore.Lipo.Weighted>
-13.9368

> <Gold.Chemscore.Internal_Hbond.Weighted>
0.0000

> <Gold.Chemscore.DEClash.Weighted>
1.1858

> <Gold.Chemscore.DEInternal.Weighted>
0.8683

> <Gold.Chemscore.Rot.Weighted>
7.1955

> <Gold.Chemscore.Internal.Correction.Weighted>
   9.000000E+99

> <Gold.Protein.RotatedTorsions>
[ 6907 6896 6895 6894 ] final  -90.06 input  -60.11 | X-H torsion
[ 7974 7965 7964 7962 ] final  -83.94 input  175.53 | X-H torsion
[ 8008 7997 7996 7995 ] final   37.39 input   59.86 | X-H torsion
[ 10167 10162 10161 10158 ] final  -84.46 input  -65.29 | X-H torsion
[ 10718 10713 10712 10709 ] final  164.83 input   66.30 | X-H torsion
[ 10763 10752 10751 10750 ] final  -45.44 input  -60.55 | X-H torsion
[ 11005 11000 10999 10996 ] final  -24.86 input  -57.11 | X-H torsion

> <Gold.Protein.ActiveResidues>
 VAL166  LYS551  ARG553  GLY616  TRP617  ASP618  TYR619  PRO620  LYS621  CYS622 
 ASP623  PHE694  ASN695  SER759  ASP760  ASP761  ALA762  ILE779  LEU786  VAL792 
 PHE793  MET794  SER795  GLU796  ALA797  LYS798  CYS799  TRP800  GLU811  SER814 

> <Gold.Protein.RotatedAtoms>
  150.6878  134.2491  159.4503 H   0  0  0  0  0  0  0  0  0  0  0  0  # atno 6907 bound_to 6896
  152.0430  134.9697  160.0583 H   0  0  0  0  0  0  0  0  0  0  0  0  # atno 6908 bound_to 6896
  152.1192  133.4309  159.4704 H   0  0  0  0  0  0  0  0  0  0  0  0  # atno 6909 bound_to 6896
  145.5133  140.9538  143.1695 H   0  0  0  0  0  0  0  0  0  0  0  0  # atno 7974 bound_to 7965
  155.2030  140.3317  155.4340 H   0  0  0  0  0  0  0  0  0  0  0  0  # atno 8008 bound_to 7997
  156.2399  140.1890  156.7066 H   0  0  0  0  0  0  0  0  0  0  0  0  # atno 8009 bound_to 7997
  154.6128  140.0606  156.9502 H   0  0  0  0  0  0  0  0  0  0  0  0  # atno 8010 bound_to 7997
  140.4130  143.2615  151.8992 H   0  0  0  0  0  0  0  0  0  0  0  0  # atno 10167 bound_to 10162
  157.0887  131.0412  151.2546 H   0  0  0  0  0  0  0  0  0  0  0  0  # atno 10718 bound_to 10713
  154.0286  135.6660  153.4778 H   0  0  0  0  0  0  0  0  0  0  0  0  # atno 10763 bound_to 10752
  153.0550  135.5061  154.7954 H   0  0  0  0  0  0  0  0  0  0  0  0  # atno 10764 bound_to 10752
  154.6892  135.3058  154.9468 H   0  0  0  0  0  0  0  0  0  0  0  0  # atno 10765 bound_to 10752
  140.8884  133.7605  156.0390 H   0  0  0  0  0  0  0  0  0  0  0  0  # atno 11005 bound_to 11000
  144.7716  139.6723  143.7192 LP  0  0  0  0  0  0  0  0  0  0  0  0  # atno 17320 bound_to 7965
  146.2153  139.5538  142.9654 LP  0  0  0  0  0  0  0  0  0  0  0  0  # atno 17321 bound_to 7965
  139.4782  144.5517  151.8376 LP  0  0  0  0  0  0  0  0  0  0  0  0  # atno 17342 bound_to 10162
  140.4617  144.1713  150.5907 LP  0  0  0  0  0  0  0  0  0  0  0  0  # atno 17343 bound_to 10162
  157.4739  130.7725  149.7349 LP  0  0  0  0  0  0  0  0  0  0  0  0  # atno 17370 bound_to 10713
  155.9904  130.3945  150.3031 LP  0  0  0  0  0  0  0  0  0  0  0  0  # atno 17371 bound_to 10713
  140.8376  134.3104  157.5325 LP  0  0  0  0  0  0  0  0  0  0  0  0  # atno 17394 bound_to 11000
  139.8727  134.9398  156.3753 LP  0  0  0  0  0  0  0  0  0  0  0  0  # atno 17395 bound_to 11000

$$$$
