AV-unprocessed.smi:2717|AV-procd|sdf|10485|dock4
  -GOLD-   2272014533D 1   1.00000     0.00000
 Structure written by MMmdl.
 43 44  0  0  0  0  0  0  0  0  1 V2000
  150.5018  141.4144  157.8613 C   0  0  0  0  0  0  0  0  0  0  0  0
  151.3037  141.0568  156.6052 C   0  0  0  0  0  0  0  0  0  0  0  0
  150.5929  140.0798  155.7298 C   0  0  0  0  0  0  0  0  0  0  0  0
  149.4396  140.3482  155.1113 N   0  0  0  0  0  0  0  0  0  0  0  0
  148.9903  139.2827  154.3254 C   0  0  0  0  0  0  0  0  0  0  0  0
  147.6944  139.3961  153.5762 C   0  0  0  0  0  0  0  0  0  0  0  0
  146.6920  138.2714  153.9064 C   0  0  0  0  0  0  0  0  0  0  0  0
  146.9326  137.0507  153.1422 N   0  0  0  0  0  0  0  0  0  0  0  0
  146.0674  136.0347  153.0235 C   0  0  0  0  0  0  0  0  0  0  0  0
  144.9699  135.9939  153.5802 O   0  0  0  0  0  0  0  0  0  0  0  0
  146.5335  135.0798  152.2069 N   0  0  0  0  0  0  0  0  0  0  0  0
  145.8070  133.8737  151.8233 C   0  0  2  0  0  0  0  0  0  0  0  0
  146.6116  133.1031  150.7611 C   0  0  0  0  0  0  0  0  0  0  0  0
  145.8593  131.8492  150.2816 C   0  0  0  0  0  0  0  0  0  0  0  0
  144.4420  132.1771  149.7752 C   0  0  2  0  0  0  0  0  0  0  0  0
  144.5145  132.8906  148.5567 O   0  0  0  0  0  0  0  0  0  0  0  0
  143.6430  132.9879  150.8127 C   0  0  0  0  0  0  0  0  0  0  0  0
  144.4056  134.2358  151.2910 C   0  0  0  0  0  0  0  0  0  0  0  0
  149.8353  138.2009  154.3453 C   0  0  0  0  0  0  0  0  0  0  0  0
  151.2250  138.4802  155.3567 S   0  0  0  0  0  0  0  0  0  0  0  0
  151.0453  142.1296  158.4790 H   0  0  0  0  0  0  0  0  0  0  0  0
  150.3067  140.5300  158.4688 H   0  0  0  0  0  0  0  0  0  0  0  0
  149.5418  141.8609  157.6004 H   0  0  0  0  0  0  0  0  0  0  0  0
  151.5097  141.9577  156.0267 H   0  0  0  0  0  0  0  0  0  0  0  0
  152.2708  140.6387  156.8879 H   0  0  0  0  0  0  0  0  0  0  0  0
  147.2281  140.3601  153.7823 H   0  0  0  0  0  0  0  0  0  0  0  0
  147.8923  139.3950  152.5037 H   0  0  0  0  0  0  0  0  0  0  0  0
  146.7751  138.0125  154.9622 H   0  0  0  0  0  0  0  0  0  0  0  0
  145.6681  138.6154  153.7528 H   0  0  0  0  0  0  0  0  0  0  0  0
  147.8077  136.9926  152.6420 H   0  0  0  0  0  0  0  0  0  0  0  0
  147.4472  135.2088  151.7977 H   0  0  0  0  0  0  0  0  0  0  0  0
  145.6974  133.2298  152.6986 H   0  0  0  0  0  0  0  0  0  0  0  0
  146.8163  133.7524  149.9085 H   0  0  0  0  0  0  0  0  0  0  0  0
  147.5821  132.8132  151.1659 H   0  0  0  0  0  0  0  0  0  0  0  0
  146.4318  131.3426  149.5037 H   0  0  0  0  0  0  0  0  0  0  0  0
  145.7854  131.1442  151.1106 H   0  0  0  0  0  0  0  0  0  0  0  0
  143.9135  131.2462  149.5674 H   0  0  0  0  0  0  0  0  0  0  0  0
  145.1274  133.6021  148.6609 H   0  0  0  0  0  0  0  0  0  0  0  0
  142.6736  133.2753  150.4038 H   0  0  0  0  0  0  0  0  0  0  0  0
  143.4319  132.3523  151.6736 H   0  0  0  0  0  0  0  0  0  0  0  0
  143.8266  134.7392  152.0663 H   0  0  0  0  0  0  0  0  0  0  0  0
  144.4951  134.9456  150.4673 H   0  0  0  0  0  0  0  0  0  0  0  0
  149.7206  137.2581  153.8308 H   0  0  0  0  0  0  0  0  0  0  0  0
  1  2  1  0  0  0  0
  1 21  1  0  0  0  0
  1 22  1  0  0  0  0
  1 23  1  0  0  0  0
  2  3  1  0  0  0  0
  2 24  1  0  0  0  0
  2 25  1  0  0  0  0
  3 20  1  0  0  0  0
  3  4  2  0  0  0  0
  4  5  1  0  0  0  0
  5  6  1  0  0  0  0
  5 19  2  0  0  0  0
  6  7  1  0  0  0  0
  6 26  1  0  0  0  0
  6 27  1  0  0  0  0
  7  8  1  0  0  0  0
  7 28  1  0  0  0  0
  7 29  1  0  0  0  0
  8  9  1  0  0  0  0
  8 30  1  0  0  0  0
  9 10  2  0  0  0  0
  9 11  1  0  0  0  0
 11 12  1  0  0  0  0
 11 31  1  0  0  0  0
 12 18  1  0  0  0  0
 12 13  1  0  0  0  0
 12 32  1  0  0  0  0
 13 14  1  0  0  0  0
 13 33  1  0  0  0  0
 13 34  1  0  0  0  0
 14 15  1  0  0  0  0
 14 35  1  0  0  0  0
 14 36  1  0  0  0  0
 15 16  1  0  0  0  0
 15 17  1  0  0  0  0
 15 37  1  0  0  0  0
 16 38  1  0  0  0  0
 17 18  1  0  0  0  0
 17 39  1  0  0  0  0
 17 40  1  0  0  0  0
 18 41  1  0  0  0  0
 18 42  1  0  0  0  0
 19 20  1  0  0  0  0
 19 43  1  0  0  0  0
M  END
> <s_m_source_file>
AV-unprocessed.smi

> <i_m_source_file_index>
2717

> <i_lp_mmshare_version>
43012

> <i_f3d_flags>
0

> <s_epik_input>
W0NIM11bQ0gyXWMxbmMoW2NIXXMxKVtDSDJdW0NIMl1bTkhdQyg9TylbTkhdW0NAQEhdMltDSDJdW0NIMl1bQ0BASF0oW09IXSlbQ0gyXVtDSDJdMg==

> <s_epik_cmdline>
J2VwaWtfcHl0aG9uJywgJy1waCcsICc3LjAnLCAnLXRuJywgJzgnLCAnLW1hJywgJzIwMCcsICctbWV0YWxfYmluZGluZycsICctaW1hZScsICc8aW5maWxlLm1hZT4nLCAnLW9tYWUnLCAnPG91dGZpbGUubWFlPic=

> <r_epik_Ionization_Penalty>
0.00202099

> <r_epik_Ionization_Penalty_Charging>
0

> <r_epik_Ionization_Penalty_Neutral>
0.00202099

> <r_epik_State_Penalty>
0.00133629

> <r_epik_Charging_Adjusted_Penalty>
0.00133629

> <i_epik_Tot_Q>
0

> <i_epik_Tot_abs_Q>
0

> <r_epik_Metal_State_Penalty>
-0

> <b_epik_Metal_Only>
0

> <s_lp_Force_Field>
OPLS_2005

> <r_lp_Energy>
0.0101123

> <b_lp_Chiralities_Consistent>
1

> <s_lp_Variant>
AV-unprocessed.smi:2717-2

> <Gold.Version>
5.8.1

> <Gold.Id.Protein>
6NUR|6NUR_protein|mol2

> <Gold.PLP.Fitness>
48.7220

> <Gold.PLP.PLP>
-37.8361

> <Gold.PLP.part.hbond>
-3.5252

> <Gold.PLP.part.metal>
0.0000

> <Gold.PLP.part.buried>
-3.1900

> <Gold.PLP.part.nonpolar>
-31.6725

> <Gold.PLP.part.repulsive>
0.2411

> <Gold.PLP.ligand.clash>
0.0000

> <Gold.PLP.ligand.torsion>
0.2941

> <Gold.PLP.Chemscore.Hbond>
2.8160

> <Gold.PLP.Chemscore.CHOScore>
1.0000

> <Gold.PLP.Chemscore.Metal>
0.0000

> <Gold.Chemscore.Hbonds>
donor molecule, donor type, donor heavy atom, donor atom, acceptor molecule, acceptor atom, score
      L1  H     8    30       P1  7948  1.00
      L1  H    11    31       P1  7948  0.91
      L1  H    16    38       P1  7921  0.78
      L1  C    19    43       P1  7948  1.00

> <Gold.PLP.Chemscore.Internal.Correction>
0.0261

> <Gold.Rescore>
     Score         DG    S(hbond)    S(metal)    S(lipo)     H(rot)  DE(clash)    DE(int)     intcor
     17.75     -19.14       2.46        0.00      94.95       2.21       0.19       1.20       ----

> <Gold.Chemscore.Fitness>
17.7502

> <Gold.Chemscore.DG>
-19.1400

> <Gold.Chemscore.ZeroCoef>
-5.4800

> <Gold.Chemscore.Hbond>
2.4564

> <Gold.Chemscore.Metal>
0.0000

> <Gold.Chemscore.Lipo>
94.9495

> <Gold.Chemscore.Internal_Hbond>
0.0000

> <Gold.Chemscore.DEClash>
0.1917

> <Gold.Chemscore.DEInternal>
1.1981

> <Gold.Chemscore.Rot>
2.2084

> <Gold.Chemscore.Internal.Correction>
   9.000000E+99

> <Gold.Chemscore.Hbonds>
donor molecule, donor type, donor heavy atom, donor atom, acceptor molecule, acceptor atom, score
      L1  H     8    30       P1  7948  0.95
      L1  H    11    31       P1  7948  0.85
      L1  H    16    38       P1  7921  0.59

> <Gold.Chemscore.Hbond.Weighted>
-8.2044

> <Gold.Chemscore.Metal.Weighted>
-0.0000

> <Gold.Chemscore.Lipo.Weighted>
-11.1091

> <Gold.Chemscore.Internal_Hbond.Weighted>
0.0000

> <Gold.Chemscore.DEClash.Weighted>
0.1917

> <Gold.Chemscore.DEInternal.Weighted>
1.1981

> <Gold.Chemscore.Rot.Weighted>
5.6535

> <Gold.Chemscore.Internal.Correction.Weighted>
   9.000000E+99

> <Gold.Protein.RotatedTorsions>
[ 6907 6896 6895 6894 ] final -122.86 input  -60.11 | X-H torsion
[ 7974 7965 7964 7962 ] final  122.94 input  175.53 | X-H torsion
[ 8008 7997 7996 7995 ] final  -34.54 input   59.86 | X-H torsion
[ 10167 10162 10161 10158 ] final   38.48 input  -65.29 | X-H torsion
[ 10718 10713 10712 10709 ] final  -19.74 input   66.30 | X-H torsion
[ 10763 10752 10751 10750 ] final  176.59 input  -60.55 | X-H torsion
[ 11005 11000 10999 10996 ] final   42.35 input  -57.11 | X-H torsion

> <Gold.Protein.ActiveResidues>
 VAL166  LYS551  ARG553  GLY616  TRP617  ASP618  TYR619  PRO620  LYS621  CYS622 
 ASP623  PHE694  ASN695  SER759  ASP760  ASP761  ALA762  ILE779  LEU786  VAL792 
 PHE793  MET794  SER795  GLU796  ALA797  LYS798  CYS799  TRP800  GLU811  SER814 

> <Gold.Protein.RotatedAtoms>
  150.8616  133.7635  159.2990 H   0  0  0  0  0  0  0  0  0  0  0  0  # atno 6907 bound_to 6896
  151.5275  135.1066  159.9904 H   0  0  0  0  0  0  0  0  0  0  0  0  # atno 6908 bound_to 6896
  152.4630  133.7819  159.6911 H   0  0  0  0  0  0  0  0  0  0  0  0  # atno 6909 bound_to 6896
  145.1017  139.3514  143.4808 H   0  0  0  0  0  0  0  0  0  0  0  0  # atno 7974 bound_to 7965
  154.4118  140.1681  156.2066 H   0  0  0  0  0  0  0  0  0  0  0  0  # atno 8008 bound_to 7997
  155.9479  140.3403  155.6360 H   0  0  0  0  0  0  0  0  0  0  0  0  # atno 8009 bound_to 7997
  155.6906  140.0733  157.2440 H   0  0  0  0  0  0  0  0  0  0  0  0  # atno 8010 bound_to 7997
  140.3932  144.1824  150.6131 H   0  0  0  0  0  0  0  0  0  0  0  0  # atno 10167 bound_to 10162
  156.5414  130.4679  149.6497 H   0  0  0  0  0  0  0  0  0  0  0  0  # atno 10718 bound_to 10713
  154.4832  135.2776  155.1554 H   0  0  0  0  0  0  0  0  0  0  0  0  # atno 10763 bound_to 10752
  154.3256  135.6200  153.5531 H   0  0  0  0  0  0  0  0  0  0  0  0  # atno 10764 bound_to 10752
  152.9878  135.5753  154.5237 H   0  0  0  0  0  0  0  0  0  0  0  0  # atno 10765 bound_to 10752
  140.1747  134.4178  155.8235 H   0  0  0  0  0  0  0  0  0  0  0  0  # atno 11005 bound_to 11000
  146.3529  140.0898  142.8613 LP  0  0  0  0  0  0  0  0  0  0  0  0  # atno 17320 bound_to 7965
  145.0947  140.9307  143.4748 LP  0  0  0  0  0  0  0  0  0  0  0  0  # atno 17321 bound_to 7965
  140.4818  143.2377  151.8945 LP  0  0  0  0  0  0  0  0  0  0  0  0  # atno 17342 bound_to 10162
  139.4788  144.5261  151.8732 LP  0  0  0  0  0  0  0  0  0  0  0  0  # atno 17343 bound_to 10162
  156.2968  130.7154  151.2017 LP  0  0  0  0  0  0  0  0  0  0  0  0  # atno 17370 bound_to 10713
  157.7404  131.0517  150.5165 LP  0  0  0  0  0  0  0  0  0  0  0  0  # atno 17371 bound_to 10713
  141.2219  133.6972  156.7826 LP  0  0  0  0  0  0  0  0  0  0  0  0  # atno 17394 bound_to 11000
  140.2336  134.8667  157.3502 LP  0  0  0  0  0  0  0  0  0  0  0  0  # atno 17395 bound_to 11000

$$$$
