#       Name:                AV-unprocessed.smi:1449
#       Creating user name   scv26
#       Creation time:       Fri Mar 27 05:58:02 2020


#       File generated by GOLD software.
#

@<TRIPOS>MOLECULE
AV-unprocessed.smi:1449
    39    40     1
SMALL
NO_CHARGES


@<TRIPOS>ATOM
      1 ****        -6.3303   0.4938  -0.0180 C.3            1 S1                 0.0000
      2 ****        -5.6722  -0.7681  -0.0210 O.3            1 S1                 0.0000
      3 ****        -4.2927  -0.7881  -0.0000 C.ar           1 S1                 0.0000
      4 ****        -3.6367  -2.0348  -0.0026 C.ar           1 S1                 0.0000
      5 ****        -2.2291  -2.0651   0.0171 C.ar           1 S1                 0.0000
      6 ****        -1.5190  -0.8410   0.0480 C.ar           1 S1                 0.0000
      7 ****        -0.1020  -0.7323   0.0510 N.am           1 S1                 0.0000
      8 ****         0.8192  -1.6645   0.3653 C.2            1 S1                 0.0000
      9 ****         0.5627  -2.7992   0.7611 O.2            1 S1                 0.0000
     10 ****         2.0917  -1.2459   0.2422 N.am           1 S1                 0.0000
     11 ****         3.3234  -1.9938   0.4996 C.3            1 S1                 0.0000
     12 ****         4.5063  -1.0380   0.7430 C.3            1 S1                 0.0000
     13 ****         5.8129  -1.8356   0.6485 C.3            1 S1                 0.0000
     14 ****         5.4975  -3.1878  -0.5481 S.o2           1 S1                 0.0000
     15 ****         6.1311  -2.8663  -1.8357 O.2            1 S1                 0.0000
     16 ****         5.7422  -4.4770   0.1160 O.2            1 S1                 0.0000
     17 ****         3.6922  -2.9057  -0.6817 C.3            1 S1                 0.0000
     18 ****        -2.2700   0.3525   0.0368 C.ar           1 S1                 0.0000
     19 ****        -3.6190   0.3886   0.0174 N.ar           1 S1                 0.0000
     20 ****        -7.4087   0.3372  -0.0368 H              1 S1                 0.0000
     21 ****        -6.0669   1.0843  -0.8967 H              1 S1                 0.0000
     22 ****        -6.0948   1.0642   0.8816 H              1 S1                 0.0000
     23 ****        -4.2034  -2.9539  -0.0246 H              1 S1                 0.0000
     24 ****        -1.7308  -3.0213  -0.0058 H              1 S1                 0.0000
     25 ****         0.2589   0.1823  -0.1778 H              1 S1                 0.0000
     26 ****         2.2173  -0.2851  -0.0426 H              1 S1                 0.0000
     27 ****         3.2110  -2.6053   1.3967 H              1 S1                 0.0000
     28 ****         4.5126  -0.2700  -0.0319 H              1 S1                 0.0000
     29 ****         4.4214  -0.5223   1.7000 H              1 S1                 0.0000
     30 ****         6.6580  -1.2300   0.3206 H              1 S1                 0.0000
     31 ****         6.0607  -2.2882   1.6090 H              1 S1                 0.0000
     32 ****         3.1624  -3.8585  -0.6737 H              1 S1                 0.0000
     33 ****         3.5040  -2.4114  -1.6355 H              1 S1                 0.0000
     34 ****        -1.7735   1.3120   0.0462 H              1 S1                 0.0000
     35 ****        -5.9625  -1.2511  -0.8471 LP             1 S1                 0.0000
     36 ****        -5.9876  -1.2681   0.7856 LP             1 S1                 0.0000
     37 ****        -0.3886  -3.0876   0.8702 LP             1 S1                 0.0000
     38 ****         1.3052  -3.4342   0.9741 LP             1 S1                 0.0000
     39 ****        -4.1089   1.2603   0.0159 LP             1 S1                 0.0000
@<TRIPOS>BOND
    1    1    2 1     
    2    1   20 1     
    3    1   21 1     
    4    1   22 1     
    5    2    3 1     
    6    3   19 ar    
    7    3    4 ar    
    8    4    5 ar    
    9    4   23 1     
   10    5    6 ar    
   11    5   24 1     
   12    6    7 1     
   13    6   18 ar    
   14    7    8 am    
   15    7   25 1     
   16    8    9 2     
   17    8   10 am    
   18   10   11 1     
   19   10   26 1     
   20   11   17 1     
   21   11   12 1     
   22   11   27 1     
   23   12   13 1     
   24   12   28 1     
   25   12   29 1     
   26   13   14 1     
   27   13   30 1     
   28   13   31 1     
   29   14   15 2     
   30   14   16 2     
   31   14   17 1     
   32   17   32 1     
   33   17   33 1     
   34   18   19 ar    
   35   18   34 1     
   36    2   35 1     
   37    2   36 1     
   38    9   37 1     
   39    9   38 1     
   40   19   39 1     
@<TRIPOS>SUBSTRUCTURE
      1 S1             1
@<TRIPOS>SET
LONE_PAIRS      STATIC     ATOMS    <user>   **** ""
7 35 36 37 38 15 16 39
DONOR_HYDROGENS      STATIC     ATOMS    <user>   **** ""
2 25 26
ATOM$BLUE        STATIC     ATOMS    COLORGROUP SYSTEM
7 35 36 37 38 15 16 39
ATOM$RED        STATIC     ATOMS    COLORGROUP SYSTEM
2 25 26
