AV-unprocessed.smi:2829|AV-procd|sdf|10901|dock4
  -GOLD-   2272015353D 1   1.00000     0.00000
 Structure written by MMmdl.
 50 53  0  0  0  0  0  0  0  0  1 V2000
  145.4797  131.7100  160.6644 C   0  0  0  0  0  0  0  0  0  0  0  0
  144.6604  133.0003  160.4533 C   0  0  0  0  0  0  0  0  0  0  0  0
  143.5473  132.7508  159.4141 C   0  0  0  0  0  0  0  0  0  0  0  0
  143.9741  133.3396  161.7959 C   0  0  0  0  0  0  0  0  0  0  0  0
  145.5852  134.1291  159.9633 C   0  0  0  0  0  0  0  0  0  0  0  0
  146.7571  134.5220  160.6487 C   0  0  0  0  0  0  0  0  0  0  0  0
  147.5167  135.5686  160.0991 C   0  0  0  0  0  0  0  0  0  0  0  0
  147.0714  136.1663  158.9032 C   0  0  0  0  0  0  0  0  0  0  0  0
  147.8865  137.2174  158.4084 N   0  0  0  0  0  0  0  0  0  0  0  0
  149.2258  137.3444  158.4924 C   0  0  0  0  0  0  0  0  0  0  0  0
  149.9746  136.5369  159.0390 O   0  0  0  0  0  0  0  0  0  0  0  0
  149.7040  138.4694  157.9324 N   0  0  0  0  0  0  0  0  0  0  0  0
  151.1008  138.9030  157.8555 C   0  0  1  0  0  0  0  0  0  0  0  0
  151.8687  138.3511  156.6310 C   0  0  1  0  0  0  0  0  0  0  0  0
  151.1881  137.6581  155.4782 C   0  0  0  0  0  0  0  0  0  0  0  0
  150.6586  138.8219  154.6466 C   0  0  0  0  0  0  0  0  0  0  0  0
  151.5908  139.8794  154.8710 O   0  0  0  0  0  0  0  0  0  0  0  0
  152.1425  139.7865  156.1872 C   0  0  1  0  0  0  0  0  0  0  0  0
  151.2571  140.3364  157.3205 C   0  0  0  0  0  0  0  0  0  0  0  0
  150.0697  141.2796  157.0341 C   0  0  0  0  0  0  0  0  0  0  0  0
  150.9630  142.4492  157.4530 C   0  0  0  0  0  0  0  0  0  0  0  0
  151.8127  141.4425  158.2320 C   0  0  0  0  0  0  0  0  0  0  0  0
  145.9359  135.7376  158.2974 N   0  0  0  0  0  0  0  0  0  0  0  0
  145.2096  134.7422  158.8142 N   0  0  0  0  0  0  0  0  0  0  0  0
  144.8532  130.8975  161.0337 H   0  0  0  0  0  0  0  0  0  0  0  0
  146.2798  131.8641  161.3897 H   0  0  0  0  0  0  0  0  0  0  0  0
  145.9392  131.3645  159.7374 H   0  0  0  0  0  0  0  0  0  0  0  0
  143.9533  132.4361  158.4520 H   0  0  0  0  0  0  0  0  0  0  0  0
  142.9574  133.6522  159.2427 H   0  0  0  0  0  0  0  0  0  0  0  0
  142.8632  131.9682  159.7444 H   0  0  0  0  0  0  0  0  0  0  0  0
  143.3228  132.5283  162.1230 H   0  0  0  0  0  0  0  0  0  0  0  0
  143.3537  134.2331  161.7170 H   0  0  0  0  0  0  0  0  0  0  0  0
  144.7028  133.5025  162.5911 H   0  0  0  0  0  0  0  0  0  0  0  0
  147.0838  134.0551  161.5648 H   0  0  0  0  0  0  0  0  0  0  0  0
  148.4201  135.9024  160.5886 H   0  0  0  0  0  0  0  0  0  0  0  0
  147.3966  137.9632  157.9367 H   0  0  0  0  0  0  0  0  0  0  0  0
  149.0231  139.1090  157.5487 H   0  0  0  0  0  0  0  0  0  0  0  0
  151.6598  138.7689  158.7835 H   0  0  0  0  0  0  0  0  0  0  0  0
  152.7793  137.8447  156.9535 H   0  0  0  0  0  0  0  0  0  0  0  0
  151.9187  137.0930  154.8984 H   0  0  0  0  0  0  0  0  0  0  0  0
  150.4022  136.9653  155.7777 H   0  0  0  0  0  0  0  0  0  0  0  0
  150.5738  138.5791  153.5874 H   0  0  0  0  0  0  0  0  0  0  0  0
  149.6736  139.1259  155.0027 H   0  0  0  0  0  0  0  0  0  0  0  0
  153.1902  140.0825  156.2503 H   0  0  0  0  0  0  0  0  0  0  0  0
  149.7347  141.3216  155.9981 H   0  0  0  0  0  0  0  0  0  0  0  0
  149.2314  141.1416  157.7186 H   0  0  0  0  0  0  0  0  0  0  0  0
  151.4984  142.8930  156.6120 H   0  0  0  0  0  0  0  0  0  0  0  0
  150.4708  143.2048  158.0660 H   0  0  0  0  0  0  0  0  0  0  0  0
  151.4897  141.3356  159.2690 H   0  0  0  0  0  0  0  0  0  0  0  0
  152.8888  141.6036  158.1623 H   0  0  0  0  0  0  0  0  0  0  0  0
  1  2  1  0  0  0  0
  1 25  1  0  0  0  0
  1 26  1  0  0  0  0
  1 27  1  0  0  0  0
  2  3  1  0  0  0  0
  2  4  1  0  0  0  0
  2  5  1  0  0  0  0
  3 28  1  0  0  0  0
  3 29  1  0  0  0  0
  3 30  1  0  0  0  0
  4 31  1  0  0  0  0
  4 32  1  0  0  0  0
  4 33  1  0  0  0  0
  5 24  1  0  0  0  0
  5  6  2  0  0  0  0
  6  7  1  0  0  0  0
  6 34  1  0  0  0  0
  7  8  2  0  0  0  0
  7 35  1  0  0  0  0
  8  9  1  0  0  0  0
  8 23  1  0  0  0  0
  9 10  1  0  0  0  0
  9 36  1  0  0  0  0
 10 11  2  0  0  0  0
 10 12  1  0  0  0  0
 12 13  1  0  0  0  0
 12 37  1  0  0  0  0
 13 19  1  0  0  0  0
 13 14  1  0  0  0  0
 13 38  1  0  0  0  0
 14 18  1  0  0  0  0
 14 15  1  0  0  0  0
 14 39  1  0  0  0  0
 15 16  1  0  0  0  0
 15 40  1  0  0  0  0
 15 41  1  0  0  0  0
 16 17  1  0  0  0  0
 16 42  1  0  0  0  0
 16 43  1  0  0  0  0
 17 18  1  0  0  0  0
 18 19  1  0  0  0  0
 18 44  1  0  0  0  0
 19 22  1  0  0  0  0
 19 20  1  0  0  0  0
 20 21  1  0  0  0  0
 20 45  1  0  0  0  0
 20 46  1  0  0  0  0
 21 22  1  0  0  0  0
 21 47  1  0  0  0  0
 21 48  1  0  0  0  0
 22 49  1  0  0  0  0
 22 50  1  0  0  0  0
 23 24  2  0  0  0  0
M  END
> <s_m_source_file>
AV-unprocessed.smi

> <i_m_source_file_index>
2829

> <i_lp_mmshare_version>
43012

> <i_f3d_flags>
0

> <s_epik_input>
W0NIM11DKFtDSDNdKShbQ0gzXSljMVtjSF1bY0hdYyhubjEpW05IXUMoPU8pW05IXVtDQEBIXTJbQ0BIXShbQ0gyXVtDSDJdTzMpW0NAQEhdM0MyNFtDSDJdW0NIMl1bQ0gyXTQ=

> <s_epik_cmdline>
J2VwaWtfcHl0aG9uJywgJy1waCcsICc3LjAnLCAnLXRuJywgJzgnLCAnLW1hJywgJzIwMCcsICctbWV0YWxfYmluZGluZycsICctaW1hZScsICc8aW5maWxlLm1hZT4nLCAnLW9tYWUnLCAnPG91dGZpbGUubWFlPic=

> <r_lp_tautomer_probability>
1

> <r_epik_Ionization_Penalty>
0.011915

> <r_epik_Ionization_Penalty_Charging>
0

> <r_epik_Ionization_Penalty_Neutral>
0.011915

> <r_epik_State_Penalty>
0.00486223

> <r_epik_Charging_Adjusted_Penalty>
0.00486223

> <i_epik_Tot_Q>
0

> <i_epik_Tot_abs_Q>
0

> <r_epik_Metal_State_Penalty>
-0

> <b_epik_Metal_Only>
0

> <s_lp_Force_Field>
OPLS_2005

> <r_lp_Energy>
61.8896

> <b_lp_Chiralities_Consistent>
1

> <s_lp_Variant>
AV-unprocessed.smi:2829-4

> <Gold.Version>
5.8.1

> <Gold.Id.Protein>
6NUR|6NUR_protein|mol2

> <Gold.PLP.Fitness>
38.1602

> <Gold.PLP.PLP>
-33.0473

> <Gold.PLP.part.hbond>
-2.0000

> <Gold.PLP.part.metal>
0.0000

> <Gold.PLP.part.buried>
-5.8485

> <Gold.PLP.part.nonpolar>
-25.6491

> <Gold.PLP.part.repulsive>
0.3333

> <Gold.PLP.ligand.clash>
0.0000

> <Gold.PLP.ligand.torsion>
0.5258

> <Gold.PLP.Chemscore.Hbond>
2.0000

> <Gold.PLP.Chemscore.CHOScore>
0.0000

> <Gold.PLP.Chemscore.Metal>
0.0000

> <Gold.Chemscore.Hbonds>
donor molecule, donor type, donor heavy atom, donor atom, acceptor molecule, acceptor atom, score
      P1  H  6896  6909       L1    11  1.00
      P1  H  7989  7998       L1    17  1.00

> <Gold.PLP.Chemscore.Internal.Correction>
0.1644

> <Gold.Rescore>
     Score         DG    S(hbond)    S(metal)    S(lipo)     H(rot)  DE(clash)    DE(int)     intcor
     18.73     -20.47       1.97        0.00      97.25       1.16       0.03       1.71       ----

> <Gold.Chemscore.Fitness>
18.7349

> <Gold.Chemscore.DG>
-20.4748

> <Gold.Chemscore.ZeroCoef>
-5.4800

> <Gold.Chemscore.Hbond>
1.9734

> <Gold.Chemscore.Metal>
0.0000

> <Gold.Chemscore.Lipo>
97.2455

> <Gold.Chemscore.Internal_Hbond>
0.0000

> <Gold.Chemscore.DEClash>
0.0329

> <Gold.Chemscore.DEInternal>
1.7070

> <Gold.Chemscore.Rot>
1.1618

> <Gold.Chemscore.Internal.Correction>
   9.000000E+99

> <Gold.Chemscore.Hbonds>
donor molecule, donor type, donor heavy atom, donor atom, acceptor molecule, acceptor atom, score
      P1  H  6896  6909       L1    11  0.98
      P1  H  7989  7998       L1    17  0.69

> <Gold.Chemscore.Hbond.Weighted>
-6.5912

> <Gold.Chemscore.Metal.Weighted>
-0.0000

> <Gold.Chemscore.Lipo.Weighted>
-11.3777

> <Gold.Chemscore.Internal_Hbond.Weighted>
0.0000

> <Gold.Chemscore.DEClash.Weighted>
0.0329

> <Gold.Chemscore.DEInternal.Weighted>
1.7070

> <Gold.Chemscore.Rot.Weighted>
2.9741

> <Gold.Chemscore.Internal.Correction.Weighted>
   9.000000E+99

> <Gold.Protein.RotatedTorsions>
[ 6907 6896 6895 6894 ] final   77.58 input  -60.11 | X-H torsion
[ 7974 7965 7964 7962 ] final -168.92 input  175.53 | X-H torsion
[ 8008 7997 7996 7995 ] final   36.74 input   59.86 | X-H torsion
[ 10167 10162 10161 10158 ] final    6.70 input  -65.29 | X-H torsion
[ 10718 10713 10712 10709 ] final   -9.73 input   66.30 | X-H torsion
[ 10763 10752 10751 10750 ] final -120.92 input  -60.55 | X-H torsion
[ 11005 11000 10999 10996 ] final   32.38 input  -57.11 | X-H torsion

> <Gold.Protein.ActiveResidues>
 VAL166  LYS551  ARG553  GLY616  TRP617  ASP618  TYR619  PRO620  LYS621  CYS622 
 ASP623  PHE694  ASN695  SER759  ASP760  ASP761  ALA762  ILE779  LEU786  VAL792 
 PHE793  MET794  SER795  GLU796  ALA797  LYS798  CYS799  TRP800  GLU811  SER814 

> <Gold.Protein.RotatedAtoms>
  152.5124  134.3795  159.9345 H   0  0  0  0  0  0  0  0  0  0  0  0  # atno 6907 bound_to 6896
  151.3751  133.3834  159.2711 H   0  0  0  0  0  0  0  0  0  0  0  0  # atno 6908 bound_to 6896
  150.9547  134.8963  159.7752 H   0  0  0  0  0  0  0  0  0  0  0  0  # atno 6909 bound_to 6896
  144.7194  140.2298  143.6305 H   0  0  0  0  0  0  0  0  0  0  0  0  # atno 7974 bound_to 7965
  155.1923  140.3309  155.4356 H   0  0  0  0  0  0  0  0  0  0  0  0  # atno 8008 bound_to 7997
  156.2437  140.1908  156.6965 H   0  0  0  0  0  0  0  0  0  0  0  0  # atno 8009 bound_to 7997
  154.6197  140.0597  156.9585 H   0  0  0  0  0  0  0  0  0  0  0  0  # atno 8010 bound_to 7997
  140.6413  143.7767  150.7432 H   0  0  0  0  0  0  0  0  0  0  0  0  # atno 10167 bound_to 10162
  156.6838  130.5045  149.5963 H   0  0  0  0  0  0  0  0  0  0  0  0  # atno 10718 bound_to 10713
  154.8656  135.4186  154.2537 H   0  0  0  0  0  0  0  0  0  0  0  0  # atno 10763 bound_to 10752
  153.3479  135.6997  153.6819 H   0  0  0  0  0  0  0  0  0  0  0  0  # atno 10764 bound_to 10752
  153.5770  135.3580  155.2833 H   0  0  0  0  0  0  0  0  0  0  0  0  # atno 10765 bound_to 10752
  140.2740  134.3049  155.7819 H   0  0  0  0  0  0  0  0  0  0  0  0  # atno 11005 bound_to 11000
  145.8422  139.2135  143.1821 LP  0  0  0  0  0  0  0  0  0  0  0  0  # atno 17320 bound_to 7965
  146.0336  140.8233  142.9863 LP  0  0  0  0  0  0  0  0  0  0  0  0  # atno 17321 bound_to 7965
  140.1399  143.4450  152.2200 LP  0  0  0  0  0  0  0  0  0  0  0  0  # atno 17342 bound_to 10162
  139.5622  144.7413  151.4121 LP  0  0  0  0  0  0  0  0  0  0  0  0  # atno 17343 bound_to 10162
  156.1848  130.6522  151.0993 LP  0  0  0  0  0  0  0  0  0  0  0  0  # atno 17370 bound_to 10713
  157.7034  131.0766  150.6747 LP  0  0  0  0  0  0  0  0  0  0  0  0  # atno 17371 bound_to 10713
  141.2173  133.7484  156.9379 LP  0  0  0  0  0  0  0  0  0  0  0  0  # atno 17394 bound_to 11000
  140.1346  134.9334  157.2384 LP  0  0  0  0  0  0  0  0  0  0  0  0  # atno 17395 bound_to 11000

$$$$
