#       Name:                AV-unprocessed.smi:283
#       Creating user name   scv26
#       Creation time:       Thu Mar 26 21:48:20 2020


#       File generated by GOLD software.
#

@<TRIPOS>MOLECULE
AV-unprocessed.smi:283
    59    62     1
SMALL
NO_CHARGES


@<TRIPOS>ATOM
      1 ****        -3.4574   2.9144   0.4356 C.3            1 S1                 0.0000
      2 ****        -3.3333   1.5371  -0.2406 C.3            1 S1                 0.0000
      3 ****        -2.1781   0.8000   0.2708 N.pl3          1 S1                 0.0000
      4 ****        -0.9148   1.1144  -0.0927 C.ar           1 S1                 0.0000
      5 ****        -0.6643   2.0443  -1.0509 N.ar           1 S1                 0.0000
      6 ****         0.5959   2.3335  -1.3883 C.ar           1 S1                 0.0000
      7 ****         1.7282   1.8148  -0.9081 N.ar           1 S1                 0.0000
      8 ****         1.4819   0.8700   0.0454 C.ar           1 S1                 0.0000
      9 ****         0.1978   0.4739   0.5112 C.ar           1 S1                 0.0000
     10 ****         0.3341  -0.4874   1.5031 N.2            1 S1                 0.0000
     11 ****         1.6258  -0.6401   1.6185 C.2            1 S1                 0.0000
     12 ****         2.3928   0.1089   0.7498 N.pl3          1 S1                 0.0000
     13 ****         3.8875   0.1865   0.6401 C.3            1 S1                 0.0000
     14 ****         4.4405  -0.8609   1.3852 O.3            1 S1                 0.0000
     15 ****         4.8592  -1.9227   0.5325 C.3            1 S1                 0.0000
     16 ****         3.7041  -2.9303   0.3337 C.3            1 S1                 0.0000
     17 ****         4.1908  -4.1640  -0.1525 O.3            1 S1                 0.0000
     18 ****         5.3276  -1.1692  -0.7196 C.3            1 S1                 0.0000
     19 ****         5.3009  -1.9650  -1.8884 O.3            1 S1                 0.0000
     20 ****         4.3579   0.0030  -0.8186 C.3            1 S1                 0.0000
     21 ****         5.0384   1.1467  -1.2960 O.3            1 S1                 0.0000
     22 ****        -4.6409   0.7608  -0.0894 C.ar           1 S1                 0.0000
     23 ****        -4.8520  -0.0571   1.0460 C.ar           1 S1                 0.0000
     24 ****        -6.0534  -0.7738   1.2022 C.ar           1 S1                 0.0000
     25 ****        -7.0625  -0.6756   0.2277 C.ar           1 S1                 0.0000
     26 ****        -6.8697   0.1445  -0.8990 C.ar           1 S1                 0.0000
     27 ****        -5.6690   0.8644  -1.0611 C.ar           1 S1                 0.0000
     28 ****        -5.4976   1.8700  -2.4577 Cl             1 S1                 0.0000
     29 ****         4.1374   1.1530   1.0799 H              1 S1                 0.0000
     30 ****         5.6959  -2.4326   1.0118 H              1 S1                 0.0000
     31 ****         6.3445  -0.8109  -0.5494 H              1 S1                 0.0000
     32 ****         3.5127  -0.2427  -1.4635 H              1 S1                 0.0000
     33 ****        -4.2900   3.4806   0.0171 H              1 S1                 0.0000
     34 ****        -2.5587   3.5161   0.3009 H              1 S1                 0.0000
     35 ****        -3.6305   2.8141   1.5075 H              1 S1                 0.0000
     36 ****        -3.1658   1.6865  -1.3064 H              1 S1                 0.0000
     37 ****        -2.3847   0.0911   0.9594 H              1 S1                 0.0000
     38 ****         0.7142   3.0864  -2.1536 H              1 S1                 0.0000
     39 ****         2.0513  -1.3135   2.3476 H              1 S1                 0.0000
     40 ****         3.2227  -3.1357   1.2894 H              1 S1                 0.0000
     41 ****         2.9376  -2.5418  -0.3373 H              1 S1                 0.0000
     42 ****         3.4602  -4.7538  -0.2600 H              1 S1                 0.0000
     43 ****         5.8458  -2.7242  -1.7472 H              1 S1                 0.0000
     44 ****         5.7706   1.3207  -0.7252 H              1 S1                 0.0000
     45 ****        -4.0949  -0.1391   1.8118 H              1 S1                 0.0000
     46 ****        -6.2018  -1.3967   2.0718 H              1 S1                 0.0000
     47 ****        -7.9851  -1.2241   0.3462 H              1 S1                 0.0000
     48 ****        -7.6502   0.2239  -1.6415 H              1 S1                 0.0000
     49 ****        -1.4231   2.5125  -1.5037 LP             1 S1                 0.0000
     50 ****         2.6427   2.0848  -1.2094 LP             1 S1                 0.0000
     51 ****        -0.3893  -0.9547   2.0115 LP             1 S1                 0.0000
     52 ****         3.7540  -1.2058   2.0254 LP             1 S1                 0.0000
     53 ****         5.2299  -0.5192   1.8952 LP             1 S1                 0.0000
     54 ****         4.8426  -4.5501   0.5002 LP             1 S1                 0.0000
     55 ****         4.6438  -4.0243  -1.0330 LP             1 S1                 0.0000
     56 ****         5.6506  -1.4382  -2.6631 LP             1 S1                 0.0000
     57 ****         4.3625  -2.2539  -2.0782 LP             1 S1                 0.0000
     58 ****         4.4185   1.9315  -1.2979 LP             1 S1                 0.0000
     59 ****         5.3676   0.9797  -2.2253 LP             1 S1                 0.0000
@<TRIPOS>BOND
    1    1    2 1     
    2    1   33 1     
    3    1   34 1     
    4    1   35 1     
    5    2    3 1     
    6    2   22 1     
    7    2   36 1     
    8    3    4 1     
    9    3   37 1     
   10    4    9 ar    
   11    4    5 ar    
   12    5    6 ar    
   13    6    7 ar    
   14    6   38 1     
   15    7    8 ar    
   16    8   12 1     
   17    8    9 ar    
   18    9   10 1     
   19   10   11 2     
   20   11   12 1     
   21   11   39 1     
   22   12   13 1     
   23   13   29 1     
   24   13   20 1     
   25   13   14 1     
   26   14   15 1     
   27   15   30 1     
   28   15   16 1     
   29   15   18 1     
   30   16   17 1     
   31   16   40 1     
   32   16   41 1     
   33   17   42 1     
   34   18   31 1     
   35   18   19 1     
   36   18   20 1     
   37   19   43 1     
   38   20   32 1     
   39   20   21 1     
   40   21   44 1     
   41   22   27 ar    
   42   22   23 ar    
   43   23   24 ar    
   44   23   45 1     
   45   24   25 ar    
   46   24   46 1     
   47   25   26 ar    
   48   25   47 1     
   49   26   27 ar    
   50   26   48 1     
   51   27   28 1     
   52    5   49 1     
   53    7   50 1     
   54   10   51 1     
   55   14   52 1     
   56   14   53 1     
   57   17   54 1     
   58   17   55 1     
   59   19   56 1     
   60   19   57 1     
   61   21   58 1     
   62   21   59 1     
@<TRIPOS>SUBSTRUCTURE
      1 S1             1
@<TRIPOS>SET
LONE_PAIRS      STATIC     ATOMS    <user>   **** ""
11 49 50 51 52 53 54 55 56 57 58 59
DONOR_HYDROGENS      STATIC     ATOMS    <user>   **** ""
4 37 42 43 44
ATOM$BLUE        STATIC     ATOMS    COLORGROUP SYSTEM
11 49 50 51 52 53 54 55 56 57 58 59
ATOM$RED        STATIC     ATOMS    COLORGROUP SYSTEM
4 37 42 43 44
