AV-unprocessed.smi:2895|AV-procd|sdf|11134|dock3
  -GOLD-   2272016 03D 1   1.00000     0.00000
 Structure written by MMmdl.
 54 57  0  0  0  0  0  0  0  0  3 V2000
  155.0234  140.8606  163.3048 O   0  0  0  0  0  0  0  0  0  0  0  0
  154.8894  140.1155  162.3333 C   0  0  0  0  0  0  0  0  0  0  0  0
  154.2586  140.5112  161.2143 N   0  0  0  0  0  0  0  0  0  0  0  0
  153.6571  141.8241  161.0089 C   0  0  0  0  0  0  0  0  0  0  0  0
  153.5450  142.1716  159.5152 C   0  0  0  0  0  0  0  0  0  0  0  0
  152.2480  142.8882  159.1920 C   0  0  0  0  0  0  0  0  0  0  0  0
  151.9789  144.1604  159.7435 C   0  0  0  0  0  0  0  0  0  0  0  0
  150.7675  144.8070  159.4237 C   0  0  0  0  0  0  0  0  0  0  0  0
  149.8821  144.2068  158.5981 N   0  3  0  0  0  0  0  0  0  0  0  0
  150.1008  142.9914  158.0493 C   0  0  0  0  0  0  0  0  0  0  0  0
  151.2953  142.2976  158.3326 C   0  0  0  0  0  0  0  0  0  0  0  0
  155.4141  138.8652  162.2785 N   0  0  0  0  0  0  0  0  0  0  0  0
  155.4604  137.9996  161.0896 C   0  0  0  0  0  0  0  0  0  0  0  0
  154.4747  136.8246  161.2706 C   0  0  0  0  0  0  0  0  0  0  0  0
  154.7327  136.0530  162.5239 N   0  3  0  0  0  0  0  0  0  0  0  0
  155.8901  135.1079  162.4108 C   0  0  2  0  0  0  0  0  0  0  0  0
  155.7089  134.0843  161.2562 C   0  0  0  0  0  0  0  0  0  0  0  0
  155.9294  132.7227  161.9333 C   0  0  1  0  0  0  0  0  0  0  0  0
  157.4039  132.5800  162.3460 C   0  0  0  0  0  0  0  0  0  0  0  0
  157.5109  133.5471  163.5379 C   0  0  0  0  0  0  0  0  0  0  0  0
  156.0949  134.1508  163.6216 C   0  0  2  0  0  0  0  0  0  0  0  0
  155.2346  132.9428  163.2689 C   0  0  0  0  0  0  0  0  0  0  0  0
  154.7743  136.9724  163.6987 C   0  0  0  0  0  0  0  0  0  0  0  0
  155.7759  138.1246  163.4919 C   0  0  0  0  0  0  0  0  0  0  0  0
  154.2086  139.8612  160.4431 H   0  0  0  0  0  0  0  0  0  0  0  0
  152.6762  141.8618  161.4864 H   0  0  0  0  0  0  0  0  0  0  0  0
  154.2771  142.5634  161.5169 H   0  0  0  0  0  0  0  0  0  0  0  0
  154.3857  142.7974  159.2124 H   0  0  0  0  0  0  0  0  0  0  0  0
  153.6031  141.2667  158.9089 H   0  0  0  0  0  0  0  0  0  0  0  0
  152.6920  144.6363  160.4015 H   0  0  0  0  0  0  0  0  0  0  0  0
  150.4829  145.7790  159.7997 H   0  0  0  0  0  0  0  0  0  0  0  0
  149.3202  142.6145  157.4047 H   0  0  0  0  0  0  0  0  0  0  0  0
  151.4761  141.3267  157.8942 H   0  0  0  0  0  0  0  0  0  0  0  0
  155.2252  138.5157  160.1591 H   0  0  0  0  0  0  0  0  0  0  0  0
  156.4779  137.6294  160.9612 H   0  0  0  0  0  0  0  0  0  0  0  0
  153.4599  137.2211  161.3259 H   0  0  0  0  0  0  0  0  0  0  0  0
  154.4899  136.1900  160.3862 H   0  0  0  0  0  0  0  0  0  0  0  0
  156.7977  135.6909  162.2531 H   0  0  0  0  0  0  0  0  0  0  0  0
  154.6984  134.1040  160.8462 H   0  0  0  0  0  0  0  0  0  0  0  0
  156.4035  134.2584  160.4335 H   0  0  0  0  0  0  0  0  0  0  0  0
  155.5537  131.8799  161.3522 H   0  0  0  0  0  0  0  0  0  0  0  0
  157.6256  131.5589  162.6589 H   0  0  0  0  0  0  0  0  0  0  0  0
  158.0862  132.8391  161.5354 H   0  0  0  0  0  0  0  0  0  0  0  0
  157.7513  132.9997  164.4503 H   0  0  0  0  0  0  0  0  0  0  0  0
  158.2828  134.3042  163.3946 H   0  0  0  0  0  0  0  0  0  0  0  0
  155.9037  134.5630  164.6088 H   0  0  0  0  0  0  0  0  0  0  0  0
  154.1734  133.1794  163.1744 H   0  0  0  0  0  0  0  0  0  0  0  0
  155.3552  132.1076  163.9614 H   0  0  0  0  0  0  0  0  0  0  0  0
  153.7763  137.3961  163.8200 H   0  0  0  0  0  0  0  0  0  0  0  0
  154.9696  136.4584  164.6354 H   0  0  0  0  0  0  0  0  0  0  0  0
  156.7906  137.7383  163.3903 H   0  0  0  0  0  0  0  0  0  0  0  0
  155.7953  138.7576  164.3801 H   0  0  0  0  0  0  0  0  0  0  0  0
  153.9264  135.4605  162.6630 H   0  0  0  0  0  0  0  0  0  0  0  0
  149.0115  144.6921  158.3797 H   0  0  0  0  0  0  0  0  0  0  0  0
  1  2  2  0  0  0  0
  2  3  1  0  0  0  0
  2 12  1  0  0  0  0
  3  4  1  0  0  0  0
  3 25  1  0  0  0  0
  4  5  1  0  0  0  0
  4 26  1  0  0  0  0
  4 27  1  0  0  0  0
  5  6  1  0  0  0  0
  5 28  1  0  0  0  0
  5 29  1  0  0  0  0
  6 11  1  0  0  0  0
  6  7  2  0  0  0  0
  7  8  1  0  0  0  0
  7 30  1  0  0  0  0
  8  9  2  0  0  0  0
  8 31  1  0  0  0  0
  9 10  1  0  0  0  0
  9 54  1  0  0  0  0
 10 11  2  0  0  0  0
 10 32  1  0  0  0  0
 11 33  1  0  0  0  0
 12 24  1  0  0  0  0
 12 13  1  0  0  0  0
 13 14  1  0  0  0  0
 13 34  1  0  0  0  0
 13 35  1  0  0  0  0
 14 15  1  0  0  0  0
 14 36  1  0  0  0  0
 14 37  1  0  0  0  0
 15 16  1  0  0  0  0
 15 23  1  0  0  0  0
 15 53  1  0  0  0  0
 16 21  1  0  0  0  0
 16 17  1  0  0  0  0
 16 38  1  0  0  0  0
 17 18  1  0  0  0  0
 17 39  1  0  0  0  0
 17 40  1  0  0  0  0
 18 22  1  0  0  0  0
 18 19  1  0  0  0  0
 18 41  1  0  0  0  0
 19 20  1  0  0  0  0
 19 42  1  0  0  0  0
 19 43  1  0  0  0  0
 20 21  1  0  0  0  0
 20 44  1  0  0  0  0
 20 45  1  0  0  0  0
 21 22  1  0  0  0  0
 21 46  1  0  0  0  0
 22 47  1  0  0  0  0
 22 48  1  0  0  0  0
 23 24  1  0  0  0  0
 23 49  1  0  0  0  0
 23 50  1  0  0  0  0
 24 51  1  0  0  0  0
 24 52  1  0  0  0  0
M  CHG  1   9   1
M  CHG  1  15   1
M  END
> <s_m_source_file>
AV-unprocessed.smi

> <i_m_source_file_index>
2895

> <i_lp_mmshare_version>
43012

> <i_f3d_flags>
0

> <s_epik_input>
W0NIMl0xW0NIMl1bQ0BASF0oW0NIMl0yKVtDQEBIXShbQ0gyXVtDQEhdMTIpTihbQ0gyXVtDSDJdMylbQ0gyXVtDSDJdTjNDKD1PKVtOSF1bQ0gyXVtDSDJdYzRbY0hdW2NIXW5bY0hdW2NIXTQ=

> <s_epik_cmdline>
J2VwaWtfcHl0aG9uJywgJy1waCcsICc3LjAnLCAnLXRuJywgJzgnLCAnLW1hJywgJzIwMCcsICctbWV0YWxfYmluZGluZycsICctaW1hZScsICc8aW5maWxlLm1hZT4nLCAnLW9tYWUnLCAnPG91dGZpbGUubWFlPic=

> <r_epik_Ionization_Penalty>
1.44916

> <r_epik_Ionization_Penalty_Charging>
1.44913

> <r_epik_Ionization_Penalty_Neutral>
2.64641e-05

> <r_epik_State_Penalty>
1.53218

> <r_epik_Charging_Adjusted_Penalty>
2.98131

> <i_epik_Tot_Q>
2

> <i_epik_Tot_abs_Q>
2

> <r_epik_Metal_State_Penalty>
1.58241

> <b_epik_Metal_Only>
0

> <s_lp_Force_Field>
OPLS_2005

> <r_lp_Energy>
108.082

> <b_lp_Chiralities_Consistent>
1

> <s_lp_Variant>
AV-unprocessed.smi:2895-7

> <Gold.Version>
5.8.1

> <Gold.Id.Protein>
6NUR|6NUR_protein|mol2

> <Gold.PLP.Fitness>
52.2609

> <Gold.PLP.PLP>
-47.3164

> <Gold.PLP.part.hbond>
-2.4570

> <Gold.PLP.part.metal>
0.0000

> <Gold.PLP.part.buried>
-5.6434

> <Gold.PLP.part.nonpolar>
-39.2192

> <Gold.PLP.part.repulsive>
0.1821

> <Gold.PLP.ligand.clash>
0.0000

> <Gold.PLP.ligand.torsion>
0.5815

> <Gold.PLP.Chemscore.Hbond>
2.0000

> <Gold.PLP.Chemscore.CHOScore>
0.0000

> <Gold.PLP.Chemscore.Metal>
0.0000

> <Gold.Chemscore.Hbonds>
donor molecule, donor type, donor heavy atom, donor atom, acceptor molecule, acceptor atom, score
      L1  H     9    54       P1  8029  2.00

> <Gold.PLP.Chemscore.Internal.Correction>
0.1075

> <Gold.Rescore>
     Score         DG    S(hbond)    S(metal)    S(lipo)     H(rot)  DE(clash)    DE(int)     intcor
     19.39     -20.27       0.74        0.00     137.09       1.46       0.31       0.57       ----

> <Gold.Chemscore.Fitness>
19.3875

> <Gold.Chemscore.DG>
-20.2664

> <Gold.Chemscore.ZeroCoef>
-5.4800

> <Gold.Chemscore.Hbond>
0.7418

> <Gold.Chemscore.Metal>
0.0000

> <Gold.Chemscore.Lipo>
137.0872

> <Gold.Chemscore.Internal_Hbond>
0.0000

> <Gold.Chemscore.DEClash>
0.3063

> <Gold.Chemscore.DEInternal>
0.5725

> <Gold.Chemscore.Rot>
1.4572

> <Gold.Chemscore.Internal.Correction>
   9.000000E+99

> <Gold.Chemscore.Hbonds>
donor molecule, donor type, donor heavy atom, donor atom, acceptor molecule, acceptor atom, score
      L1  H     9    54       P1  8029  0.55

> <Gold.Chemscore.Hbond.Weighted>
-2.4777

> <Gold.Chemscore.Metal.Weighted>
-0.0000

> <Gold.Chemscore.Lipo.Weighted>
-16.0392

> <Gold.Chemscore.Internal_Hbond.Weighted>
0.0000

> <Gold.Chemscore.DEClash.Weighted>
0.3063

> <Gold.Chemscore.DEInternal.Weighted>
0.5725

> <Gold.Chemscore.Rot.Weighted>
3.7305

> <Gold.Chemscore.Internal.Correction.Weighted>
   9.000000E+99

> <Gold.Protein.RotatedTorsions>
[ 6907 6896 6895 6894 ] final  112.36 input  -60.11 | X-H torsion
[ 7974 7965 7964 7962 ] final -104.75 input  175.53 | X-H torsion
[ 8008 7997 7996 7995 ] final    9.15 input   59.86 | X-H torsion
[ 10167 10162 10161 10158 ] final -130.05 input  -65.29 | X-H torsion
[ 10718 10713 10712 10709 ] final   82.34 input   66.30 | X-H torsion
[ 10763 10752 10751 10750 ] final  165.61 input  -60.55 | X-H torsion
[ 11005 11000 10999 10996 ] final  120.33 input  -57.11 | X-H torsion

> <Gold.Protein.ActiveResidues>
 VAL166  LYS551  ARG553  GLY616  TRP617  ASP618  TYR619  PRO620  LYS621  CYS622 
 ASP623  PHE694  ASN695  SER759  ASP760  ASP761  ALA762  ILE779  LEU786  VAL792 
 PHE793  MET794  SER795  GLU796  ALA797  LYS798  CYS799  TRP800  GLU811  SER814 

> <Gold.Protein.RotatedAtoms>
  152.4920  133.8526  159.7209 H   0  0  0  0  0  0  0  0  0  0  0  0  # atno 6907 bound_to 6896
  150.9059  133.7049  159.2873 H   0  0  0  0  0  0  0  0  0  0  0  0  # atno 6908 bound_to 6896
  151.4475  135.1030  159.9740 H   0  0  0  0  0  0  0  0  0  0  0  0  # atno 6909 bound_to 6896
  145.2392  140.9199  143.3160 H   0  0  0  0  0  0  0  0  0  0  0  0  # atno 7974 bound_to 7965
  154.7762  140.2811  155.6099 H   0  0  0  0  0  0  0  0  0  0  0  0  # atno 8008 bound_to 7997
  156.2942  140.2632  156.2505 H   0  0  0  0  0  0  0  0  0  0  0  0  # atno 8009 bound_to 7997
  154.9839  140.0374  157.2279 H   0  0  0  0  0  0  0  0  0  0  0  0  # atno 8010 bound_to 7997
  139.9334  143.6246  152.2523 H   0  0  0  0  0  0  0  0  0  0  0  0  # atno 10167 bound_to 10162
  157.6855  131.0043  150.2360 H   0  0  0  0  0  0  0  0  0  0  0  0  # atno 10718 bound_to 10713
  154.3266  135.2755  155.2493 H   0  0  0  0  0  0  0  0  0  0  0  0  # atno 10763 bound_to 10752
  154.4823  135.5855  153.6402 H   0  0  0  0  0  0  0  0  0  0  0  0  # atno 10764 bound_to 10752
  152.9871  135.6114  154.3455 H   0  0  0  0  0  0  0  0  0  0  0  0  # atno 10765 bound_to 10752
  139.9181  134.9634  156.7791 H   0  0  0  0  0  0  0  0  0  0  0  0  # atno 11005 bound_to 11000
  144.9605  139.3985  143.6358 LP  0  0  0  0  0  0  0  0  0  0  0  0  # atno 17320 bound_to 7965
  146.3333  139.8655  142.8849 LP  0  0  0  0  0  0  0  0  0  0  0  0  # atno 17321 bound_to 7965
  139.6763  144.7658  151.1689 LP  0  0  0  0  0  0  0  0  0  0  0  0  # atno 17342 bound_to 10162
  140.7631  143.5790  150.8915 LP  0  0  0  0  0  0  0  0  0  0  0  0  # atno 17343 bound_to 10162
  156.2983  130.3755  149.7774 LP  0  0  0  0  0  0  0  0  0  0  0  0  # atno 17370 bound_to 10713
  156.5412  130.8301  151.3269 LP  0  0  0  0  0  0  0  0  0  0  0  0  # atno 17371 bound_to 10713
  140.6559  133.9689  155.7779 LP  0  0  0  0  0  0  0  0  0  0  0  0  # atno 17394 bound_to 11000
  141.0677  134.0253  157.3571 LP  0  0  0  0  0  0  0  0  0  0  0  0  # atno 17395 bound_to 11000

$$$$
