AV-unprocessed.smi:1423|AV-procd|sdf|5798|dock5
  -GOLD-   22720 5453D 1   1.00000     0.00000
 Structure written by MMmdl.
 43 44  0  0  0  0  0  0  0  0  3 V2000
  152.2835  140.2624  158.3858 C   0  0  0  0  0  0  0  0  0  0  0  0
  152.4196  140.0699  156.9821 O   0  0  0  0  0  0  0  0  0  0  0  0
  151.4145  139.4043  156.3108 C   0  0  0  0  0  0  0  0  0  0  0  0
  150.4762  138.6687  157.0611 C   0  0  0  0  0  0  0  0  0  0  0  0
  149.4468  137.9861  156.3855 C   0  0  0  0  0  0  0  0  0  0  0  0
  149.3831  138.0673  154.9735 C   0  0  0  0  0  0  0  0  0  0  0  0
  148.4079  137.4115  154.1726 N   0  0  0  0  0  0  0  0  0  0  0  0
  147.1269  137.1311  154.4687 C   0  0  0  0  0  0  0  0  0  0  0  0
  146.5490  137.4477  155.5079 O   0  0  0  0  0  0  0  0  0  0  0  0
  146.5321  136.4633  153.4693 N   0  0  0  0  0  0  0  0  0  0  0  0
  145.1406  136.0111  153.4681 C   0  0  2  0  0  0  0  0  0  0  0  0
  145.0291  134.5037  153.7708 C   0  0  0  0  0  0  0  0  0  0  0  0
  145.5402  133.6411  152.6036 C   0  0  0  0  0  0  0  0  0  0  0  0
  144.8331  133.9770  151.3386 N   0  3  2  0  0  0  0  0  0  0  0  0
  145.1949  133.0811  150.2119 C   0  0  0  0  0  0  0  0  0  0  0  0
  144.0232  132.9624  149.2314 C   0  0  0  0  0  0  0  0  0  0  0  0
  143.7928  134.1090  148.5644 N   0  5  0  0  0  0  0  0  0  0  0  0
  143.4280  131.8923  149.1230 O   0  0  0  0  0  0  0  0  0  0  0  0
  144.9892  135.4118  150.9900 C   0  0  0  0  0  0  0  0  0  0  0  0
  144.4705  136.3215  152.1186 C   0  0  0  0  0  0  0  0  0  0  0  0
  150.3781  138.8207  154.3161 C   0  0  0  0  0  0  0  0  0  0  0  0
  151.3678  139.4771  154.9576 N   0  0  0  0  0  0  0  0  0  0  0  0
  153.1581  140.7919  158.7629 H   0  0  0  0  0  0  0  0  0  0  0  0
  152.2199  139.3105  158.9150 H   0  0  0  0  0  0  0  0  0  0  0  0
  151.4049  140.8639  158.6228 H   0  0  0  0  0  0  0  0  0  0  0  0
  150.5468  138.6250  158.1379 H   0  0  0  0  0  0  0  0  0  0  0  0
  148.7429  137.4083  156.9633 H   0  0  0  0  0  0  0  0  0  0  0  0
  148.7150  137.1563  153.2456 H   0  0  0  0  0  0  0  0  0  0  0  0
  147.0804  136.2544  152.6479 H   0  0  0  0  0  0  0  0  0  0  0  0
  144.6070  136.5651  154.2428 H   0  0  0  0  0  0  0  0  0  0  0  0
  145.5686  134.2529  154.6848 H   0  0  0  0  0  0  0  0  0  0  0  0
  143.9844  134.2548  153.9624 H   0  0  0  0  0  0  0  0  0  0  0  0
  146.6142  133.7814  152.4709 H   0  0  0  0  0  0  0  0  0  0  0  0
  145.3915  132.5896  152.8506 H   0  0  0  0  0  0  0  0  0  0  0  0
  146.0305  133.5040  149.6527 H   0  0  0  0  0  0  0  0  0  0  0  0
  145.5329  132.1131  150.5884 H   0  0  0  0  0  0  0  0  0  0  0  0
  144.5555  134.5200  148.0124 H   0  0  0  0  0  0  0  0  0  0  0  0
  146.0386  135.6242  150.7801 H   0  0  0  0  0  0  0  0  0  0  0  0
  144.4346  135.6294  150.0765 H   0  0  0  0  0  0  0  0  0  0  0  0
  143.3926  136.1834  152.2159 H   0  0  0  0  0  0  0  0  0  0  0  0
  144.6178  137.3693  151.8537 H   0  0  0  0  0  0  0  0  0  0  0  0
  150.3808  138.9025  153.2389 H   0  0  0  0  0  0  0  0  0  0  0  0
  143.8476  133.8269  151.5025 H   0  0  0  0  0  0  0  0  0  0  0  0
  1  2  1  0  0  0  0
  1 23  1  0  0  0  0
  1 24  1  0  0  0  0
  1 25  1  0  0  0  0
  2  3  1  0  0  0  0
  3 22  1  0  0  0  0
  3  4  2  0  0  0  0
  4  5  1  0  0  0  0
  4 26  1  0  0  0  0
  5  6  2  0  0  0  0
  5 27  1  0  0  0  0
  6  7  1  0  0  0  0
  6 21  1  0  0  0  0
  7  8  1  0  0  0  0
  7 28  1  0  0  0  0
  8  9  2  0  0  0  0
  8 10  1  0  0  0  0
 10 11  1  0  0  0  0
 10 29  1  0  0  0  0
 11 20  1  0  0  0  0
 11 12  1  0  0  0  0
 11 30  1  0  0  0  0
 12 13  1  0  0  0  0
 12 31  1  0  0  0  0
 12 32  1  0  0  0  0
 13 14  1  0  0  0  0
 13 33  1  0  0  0  0
 13 34  1  0  0  0  0
 14 15  1  0  0  0  0
 14 19  1  0  0  0  0
 14 43  1  0  0  0  0
 15 16  1  0  0  0  0
 15 35  1  0  0  0  0
 15 36  1  0  0  0  0
 16 17  1  0  0  0  0
 16 18  2  0  0  0  0
 17 37  1  0  0  0  0
 19 20  1  0  0  0  0
 19 38  1  0  0  0  0
 19 39  1  0  0  0  0
 20 40  1  0  0  0  0
 20 41  1  0  0  0  0
 21 22  2  0  0  0  0
 21 42  1  0  0  0  0
M  CHG  1  14   1
M  CHG  1  17  -1
M  END
> <s_m_source_file>
AV-unprocessed.smi

> <i_m_source_file_index>
1423

> <i_lp_mmshare_version>
43012

> <i_f3d_flags>
0

> <s_epik_input>
W0NIM11PYzFbY0hdW2NIXWMoW2NIXW4xKVtOSF1DKD1PKVtOSF1bQ0hdMltDSDJdW0NIMl1OKFtDSDJdW0NIMl0yKVtDSDJdQyg9TylbTkgyXQ==

> <s_epik_cmdline>
J2VwaWtfcHl0aG9uJywgJy1waCcsICc3LjAnLCAnLXRuJywgJzgnLCAnLW1hJywgJzIwMCcsICctbWV0YWxfYmluZGluZycsICctaW1hZScsICc8aW5maWxlLm1hZT4nLCAnLW9tYWUnLCAnPG91dGZpbGUubWFlPic=

> <r_lp_tautomer_probability>
1

> <r_epik_Ionization_Penalty>
5.72888

> <r_epik_Ionization_Penalty_Charging>
5.7288

> <r_epik_Ionization_Penalty_Neutral>
7.8452e-05

> <r_epik_State_Penalty>
6.54882

> <r_epik_Charging_Adjusted_Penalty>
12.2776

> <i_epik_Tot_Q>
0

> <i_epik_Tot_abs_Q>
2

> <r_epik_Metal_State_Penalty>
2.51301

> <b_epik_Metal_Only>
1

> <s_lp_Force_Field>
OPLS_2005

> <r_lp_Energy>
11.3515

> <b_lp_Chiralities_Consistent>
1

> <s_lp_Variant>
AV-unprocessed.smi:1423-5

> <Gold.Version>
5.8.1

> <Gold.Id.Protein>
6NUR|6NUR_protein|mol2

> <Gold.PLP.Fitness>
47.9863

> <Gold.PLP.PLP>
-29.5246

> <Gold.PLP.part.hbond>
-6.9244

> <Gold.PLP.part.metal>
0.0000

> <Gold.PLP.part.buried>
-4.9016

> <Gold.PLP.part.nonpolar>
-18.9027

> <Gold.PLP.part.repulsive>
1.1344

> <Gold.PLP.ligand.clash>
0.0104

> <Gold.PLP.ligand.torsion>
0.9708

> <Gold.PLP.Chemscore.Hbond>
5.7880

> <Gold.PLP.Chemscore.CHOScore>
1.0000

> <Gold.PLP.Chemscore.Metal>
0.0000

> <Gold.Chemscore.Hbonds>
donor molecule, donor type, donor heavy atom, donor atom, acceptor molecule, acceptor atom, score
      L1  H     7    28       P1  7948  1.00
      L1  H    10    29       P1  7948  0.91
      L1  H    17    37       P1  7921  1.00
      P1  H  7989  7998       L1    22  0.75
      P1  H  7997  8009       L1     2  1.00
      P1  H 10785 10796       L1    18  0.96
      L1  C    21    42       P1  7957  1.00

> <Gold.PLP.Chemscore.Internal.Correction>
0.0496

> <Gold.Rescore>
     Score         DG    S(hbond)    S(metal)    S(lipo)     H(rot)  DE(clash)    DE(int)     intcor
     19.41     -21.32       4.65        0.00      52.65       2.29       0.05       1.86       ----

> <Gold.Chemscore.Fitness>
19.4141

> <Gold.Chemscore.DG>
-21.3223

> <Gold.Chemscore.ZeroCoef>
-5.4800

> <Gold.Chemscore.Hbond>
4.6536

> <Gold.Chemscore.Metal>
0.0000

> <Gold.Chemscore.Lipo>
52.6504

> <Gold.Chemscore.Internal_Hbond>
0.0000

> <Gold.Chemscore.DEClash>
0.0522

> <Gold.Chemscore.DEInternal>
1.8561

> <Gold.Chemscore.Rot>
2.2894

> <Gold.Chemscore.Internal.Correction>
   9.000000E+99

> <Gold.Chemscore.Hbonds>
donor molecule, donor type, donor heavy atom, donor atom, acceptor molecule, acceptor atom, score
      L1  H     7    28       P1  7948  1.00
      L1  H    10    29       P1  7948  0.85
      L1  H    17    37       P1  7921  0.98
      P1  H  7989  7998       L1    22  0.09
      P1  H  7997  8009       L1     2  0.76
      P1  H 10785 10796       L1    18  0.92

> <Gold.Chemscore.Hbond.Weighted>
-15.5430

> <Gold.Chemscore.Metal.Weighted>
-0.0000

> <Gold.Chemscore.Lipo.Weighted>
-6.1601

> <Gold.Chemscore.Internal_Hbond.Weighted>
0.0000

> <Gold.Chemscore.DEClash.Weighted>
0.0522

> <Gold.Chemscore.DEInternal.Weighted>
1.8561

> <Gold.Chemscore.Rot.Weighted>
5.8608

> <Gold.Chemscore.Internal.Correction.Weighted>
   9.000000E+99

> <Gold.Protein.RotatedTorsions>
[ 6907 6896 6895 6894 ] final -179.17 input  -60.11 | X-H torsion
[ 7974 7965 7964 7962 ] final  124.41 input  175.53 | X-H torsion
[ 8008 7997 7996 7995 ] final -164.82 input   59.86 | X-H torsion
[ 10167 10162 10161 10158 ] final   -9.53 input  -65.29 | X-H torsion
[ 10718 10713 10712 10709 ] final  -75.01 input   66.30 | X-H torsion
[ 10763 10752 10751 10750 ] final   20.59 input  -60.55 | X-H torsion
[ 11005 11000 10999 10996 ] final  117.92 input  -57.11 | X-H torsion

> <Gold.Protein.ActiveResidues>
 VAL166  LYS551  ARG553  GLY616  TRP617  ASP618  TYR619  PRO620  LYS621  CYS622 
 ASP623  PHE694  ASN695  SER759  ASP760  ASP761  ALA762  ILE779  LEU786  VAL792 
 PHE793  MET794  SER795  GLU796  ALA797  LYS798  CYS799  TRP800  GLU811  SER814 

> <Gold.Protein.RotatedAtoms>
  151.6491  133.3322  159.3147 H   0  0  0  0  0  0  0  0  0  0  0  0  # atno 6907 bound_to 6896
  150.7969  134.7039  159.6575 H   0  0  0  0  0  0  0  0  0  0  0  0  # atno 6908 bound_to 6896
  152.4057  134.6215  160.0103 H   0  0  0  0  0  0  0  0  0  0  0  0  # atno 6909 bound_to 6896
  145.0847  139.3631  143.4891 H   0  0  0  0  0  0  0  0  0  0  0  0  # atno 7974 bound_to 7965
  155.8410  140.0948  157.1734 H   0  0  0  0  0  0  0  0  0  0  0  0  # atno 8008 bound_to 7997
  154.3982  140.1401  156.3789 H   0  0  0  0  0  0  0  0  0  0  0  0  # atno 8009 bound_to 7997
  155.8064  140.3451  155.5435 H   0  0  0  0  0  0  0  0  0  0  0  0  # atno 8010 bound_to 7997
  140.7090  143.5848  150.8954 H   0  0  0  0  0  0  0  0  0  0  0  0  # atno 10167 bound_to 10162
  156.0222  130.4430  150.2978 H   0  0  0  0  0  0  0  0  0  0  0  0  # atno 10718 bound_to 10713
  153.1065  135.6686  153.9577 H   0  0  0  0  0  0  0  0  0  0  0  0  # atno 10763 bound_to 10752
  153.9133  135.3022  155.3450 H   0  0  0  0  0  0  0  0  0  0  0  0  # atno 10764 bound_to 10752
  154.7486  135.5045  153.9325 H   0  0  0  0  0  0  0  0  0  0  0  0  # atno 10765 bound_to 10752
  139.9091  134.9615  156.7424 H   0  0  0  0  0  0  0  0  0  0  0  0  # atno 11005 bound_to 11000
  146.3531  140.0653  142.8626 LP  0  0  0  0  0  0  0  0  0  0  0  0  # atno 17320 bound_to 7965
  145.1137  140.9420  143.4641 LP  0  0  0  0  0  0  0  0  0  0  0  0  # atno 17321 bound_to 7965
  139.9574  143.6203  152.3012 LP  0  0  0  0  0  0  0  0  0  0  0  0  # atno 17342 bound_to 10162
  139.6743  144.7659  151.1725 LP  0  0  0  0  0  0  0  0  0  0  0  0  # atno 17343 bound_to 10162
  157.1081  131.0214  151.3059 LP  0  0  0  0  0  0  0  0  0  0  0  0  # atno 17370 bound_to 10713
  157.4726  130.7718  149.7338 LP  0  0  0  0  0  0  0  0  0  0  0  0  # atno 17371 bound_to 10713
  140.6839  133.9450  155.7926 LP  0  0  0  0  0  0  0  0  0  0  0  0  # atno 17394 bound_to 11000
  141.0491  134.0511  157.3807 LP  0  0  0  0  0  0  0  0  0  0  0  0  # atno 17395 bound_to 11000

$$$$
