AV-unprocessed.smi:1233|AV-procd|sdf|5171|dock8
  -GOLD-   22720 4243D 1   1.00000     0.00000
 Structure written by MMmdl.
 38 39  0  0  0  0  0  0  0  0  1 V2000
  146.2782  132.7481  151.5487 C   0  0  0  0  0  0  0  0  0  0  0  0
  147.2303  133.3333  152.4302 O   0  0  0  0  0  0  0  0  0  0  0  0
  147.9046  132.5113  153.3130 C   0  0  0  0  0  0  0  0  0  0  0  0
  147.6590  131.1774  153.2688 N   0  0  0  0  0  0  0  0  0  0  0  0
  148.3138  130.3744  154.1324 C   0  0  0  0  0  0  0  0  0  0  0  0
  149.2328  130.8532  155.0841 C   0  0  0  0  0  0  0  0  0  0  0  0
  149.4893  132.2360  155.1319 C   0  0  0  0  0  0  0  0  0  0  0  0
  148.8229  133.0898  154.2201 C   0  0  0  0  0  0  0  0  0  0  0  0
  148.9952  134.5011  154.1957 N   0  0  0  0  0  0  0  0  0  0  0  0
  149.4063  135.3094  155.1872 C   0  0  0  0  0  0  0  0  0  0  0  0
  149.7033  134.9463  156.3254 O   0  0  0  0  0  0  0  0  0  0  0  0
  149.4789  136.5834  154.7733 N   0  0  0  0  0  0  0  0  0  0  0  0
  149.9600  137.7113  155.5733 C   0  0  2  0  0  0  0  0  0  0  0  0
  150.0064  138.9622  154.6597 C   0  0  0  0  0  0  0  0  0  0  0  0
  150.8508  140.1538  155.1651 C   0  0  0  0  0  0  0  0  0  0  0  0
  150.6731  140.4978  156.6580 C   0  0  0  0  0  0  0  0  0  0  0  0
  151.0568  139.3942  157.6778 C   0  0  0  0  0  0  0  0  0  0  0  0
  151.8073  138.2708  157.1165 N   0  0  0  0  0  0  0  0  0  0  0  0
  151.3639  137.4387  156.1589 C   0  0  0  0  0  0  0  0  0  0  0  0
  152.0584  136.5117  155.7433 O   0  0  0  0  0  0  0  0  0  0  0  0
  145.8448  133.5254  150.9194 H   0  0  0  0  0  0  0  0  0  0  0  0
  145.4637  132.2758  152.0996 H   0  0  0  0  0  0  0  0  0  0  0  0
  146.7417  132.0112  150.8912 H   0  0  0  0  0  0  0  0  0  0  0  0
  148.0928  129.3193  154.0673 H   0  0  0  0  0  0  0  0  0  0  0  0
  149.7267  130.1759  155.7650 H   0  0  0  0  0  0  0  0  0  0  0  0
  150.1769  132.6146  155.8722 H   0  0  0  0  0  0  0  0  0  0  0  0
  148.8760  134.9336  153.2913 H   0  0  0  0  0  0  0  0  0  0  0  0
  149.2208  136.7857  153.8187 H   0  0  0  0  0  0  0  0  0  0  0  0
  149.2538  137.8836  156.3868 H   0  0  0  0  0  0  0  0  0  0  0  0
  150.3780  138.6878  153.6709 H   0  0  0  0  0  0  0  0  0  0  0  0
  148.9824  139.3036  154.5025 H   0  0  0  0  0  0  0  0  0  0  0  0
  151.9066  139.9662  154.9645 H   0  0  0  0  0  0  0  0  0  0  0  0
  150.6035  141.0318  154.5678 H   0  0  0  0  0  0  0  0  0  0  0  0
  151.2794  141.3797  156.8678 H   0  0  0  0  0  0  0  0  0  0  0  0
  149.6431  140.8071  156.8384 H   0  0  0  0  0  0  0  0  0  0  0  0
  151.6514  139.8315  158.4802 H   0  0  0  0  0  0  0  0  0  0  0  0
  150.1593  139.0068  158.1622 H   0  0  0  0  0  0  0  0  0  0  0  0
  152.7295  138.1047  157.4928 H   0  0  0  0  0  0  0  0  0  0  0  0
  1  2  1  0  0  0  0
  1 21  1  0  0  0  0
  1 22  1  0  0  0  0
  1 23  1  0  0  0  0
  2  3  1  0  0  0  0
  3  8  1  0  0  0  0
  3  4  2  0  0  0  0
  4  5  1  0  0  0  0
  5  6  2  0  0  0  0
  5 24  1  0  0  0  0
  6  7  1  0  0  0  0
  6 25  1  0  0  0  0
  7  8  2  0  0  0  0
  7 26  1  0  0  0  0
  8  9  1  0  0  0  0
  9 10  1  0  0  0  0
  9 27  1  0  0  0  0
 10 11  2  0  0  0  0
 10 12  1  0  0  0  0
 12 13  1  0  0  0  0
 12 28  1  0  0  0  0
 13 19  1  0  0  0  0
 13 14  1  0  0  0  0
 13 29  1  0  0  0  0
 14 15  1  0  0  0  0
 14 30  1  0  0  0  0
 14 31  1  0  0  0  0
 15 16  1  0  0  0  0
 15 32  1  0  0  0  0
 15 33  1  0  0  0  0
 16 17  1  0  0  0  0
 16 34  1  0  0  0  0
 16 35  1  0  0  0  0
 17 18  1  0  0  0  0
 17 36  1  0  0  0  0
 17 37  1  0  0  0  0
 18 19  1  0  0  0  0
 18 38  1  0  0  0  0
 19 20  2  0  0  0  0
M  END
> <s_m_source_file>
AV-unprocessed.smi

> <i_m_source_file_index>
1233

> <i_lp_mmshare_version>
43012

> <i_f3d_flags>
0

> <s_epik_input>
W0NIM11PYzFuW2NIXVtjSF1bY0hdYzFbTkhdQyg9TylbTkhdW0NAQEhdMltDSDJdW0NIMl1bQ0gyXVtDSDJdW05IXUMyPU8=

> <s_epik_cmdline>
J2VwaWtfcHl0aG9uJywgJy1waCcsICc3LjAnLCAnLXRuJywgJzgnLCAnLW1hJywgJzIwMCcsICctbWV0YWxfYmluZGluZycsICctaW1hZScsICc8aW5maWxlLm1hZT4nLCAnLW9tYWUnLCAnPG91dGZpbGUubWFlPic=

> <r_lp_tautomer_probability>
1

> <r_epik_Ionization_Penalty>
8.308e-05

> <r_epik_Ionization_Penalty_Charging>
0

> <r_epik_Ionization_Penalty_Neutral>
8.308e-05

> <r_epik_State_Penalty>
-0

> <r_epik_Charging_Adjusted_Penalty>
0

> <i_epik_Tot_Q>
0

> <i_epik_Tot_abs_Q>
0

> <r_epik_Metal_State_Penalty>
-0

> <b_epik_Metal_Only>
0

> <s_lp_Force_Field>
OPLS_2005

> <r_lp_Energy>
19.4298

> <b_lp_Chiralities_Consistent>
1

> <s_lp_Variant>
AV-unprocessed.smi:1233-1

> <Gold.Version>
5.8.1

> <Gold.Id.Protein>
6NUR|6NUR_protein|mol2

> <Gold.PLP.Fitness>
36.6464

> <Gold.PLP.PLP>
-28.0793

> <Gold.PLP.part.hbond>
-2.8922

> <Gold.PLP.part.metal>
0.0000

> <Gold.PLP.part.buried>
-3.0986

> <Gold.PLP.part.nonpolar>
-23.6785

> <Gold.PLP.part.repulsive>
0.7624

> <Gold.PLP.ligand.clash>
0.0000

> <Gold.PLP.ligand.torsion>
0.1690

> <Gold.PLP.Chemscore.Hbond>
2.9680

> <Gold.PLP.Chemscore.CHOScore>
0.0000

> <Gold.PLP.Chemscore.Metal>
0.0000

> <Gold.Chemscore.Hbonds>
donor molecule, donor type, donor heavy atom, donor atom, acceptor molecule, acceptor atom, score
      L1  H     9    27       P1  7948  1.00
      L1  H    12    28       P1  7948  0.99
      P1  H 10752 10764       L1    20  0.96

> <Gold.PLP.Chemscore.Internal.Correction>
0.0011

> <Gold.Rescore>
     Score         DG    S(hbond)    S(metal)    S(lipo)     H(rot)  DE(clash)    DE(int)     intcor
     14.31     -15.60       2.25        0.00      51.00       1.31       0.00       1.29       ----

> <Gold.Chemscore.Fitness>
14.3074

> <Gold.Chemscore.DG>
-15.6015

> <Gold.Chemscore.ZeroCoef>
-5.4800

> <Gold.Chemscore.Hbond>
2.2471

> <Gold.Chemscore.Metal>
0.0000

> <Gold.Chemscore.Lipo>
51.0013

> <Gold.Chemscore.Internal_Hbond>
0.0000

> <Gold.Chemscore.DEClash>
0.0000

> <Gold.Chemscore.DEInternal>
1.2941

> <Gold.Chemscore.Rot>
1.3090

> <Gold.Chemscore.Internal.Correction>
   9.000000E+99

> <Gold.Chemscore.Hbonds>
donor molecule, donor type, donor heavy atom, donor atom, acceptor molecule, acceptor atom, score
      L1  H     9    27       P1  7948  0.35
      L1  H    12    28       P1  7948  0.87
      P1  H 10752 10764       L1    20  0.92

> <Gold.Chemscore.Hbond.Weighted>
-7.5053

> <Gold.Chemscore.Metal.Weighted>
-0.0000

> <Gold.Chemscore.Lipo.Weighted>
-5.9671

> <Gold.Chemscore.Internal_Hbond.Weighted>
0.0000

> <Gold.Chemscore.DEClash.Weighted>
0.0000

> <Gold.Chemscore.DEInternal.Weighted>
1.2941

> <Gold.Chemscore.Rot.Weighted>
3.3509

> <Gold.Chemscore.Internal.Correction.Weighted>
   9.000000E+99

> <Gold.Protein.RotatedTorsions>
[ 6907 6896 6895 6894 ] final -150.17 input  -60.11 | X-H torsion
[ 7974 7965 7964 7962 ] final  -35.87 input  175.53 | X-H torsion
[ 8008 7997 7996 7995 ] final  163.52 input   59.86 | X-H torsion
[ 10167 10162 10161 10158 ] final   14.12 input  -65.29 | X-H torsion
[ 10718 10713 10712 10709 ] final -170.01 input   66.30 | X-H torsion
[ 10763 10752 10751 10750 ] final  -57.67 input  -60.55 | X-H torsion
[ 11005 11000 10999 10996 ] final    6.19 input  -57.11 | X-H torsion

> <Gold.Protein.ActiveResidues>
 VAL166  LYS551  ARG553  GLY616  TRP617  ASP618  TYR619  PRO620  LYS621  CYS622 
 ASP623  PHE694  ASN695  SER759  ASP760  ASP761  ALA762  ILE779  LEU786  VAL792 
 PHE793  MET794  SER795  GLU796  ALA797  LYS798  CYS799  TRP800  GLU811  SER814 

> <Gold.Protein.RotatedAtoms>
  151.1947  133.4646  159.2595 H   0  0  0  0  0  0  0  0  0  0  0  0  # atno 6907 bound_to 6896
  151.1128  135.0036  159.8512 H   0  0  0  0  0  0  0  0  0  0  0  0  # atno 6908 bound_to 6896
  152.5451  134.1865  159.8710 H   0  0  0  0  0  0  0  0  0  0  0  0  # atno 6909 bound_to 6896
  146.0710  140.6211  142.8952 H   0  0  0  0  0  0  0  0  0  0  0  0  # atno 7974 bound_to 7965
  156.1951  140.1721  156.8015 H   0  0  0  0  0  0  0  0  0  0  0  0  # atno 8008 bound_to 7997
  154.5519  140.0716  156.8713 H   0  0  0  0  0  0  0  0  0  0  0  0  # atno 8009 bound_to 7997
  155.3012  140.3361  155.4250 H   0  0  0  0  0  0  0  0  0  0  0  0  # atno 8010 bound_to 7997
  140.5957  143.8706  150.6916 H   0  0  0  0  0  0  0  0  0  0  0  0  # atno 10167 bound_to 10162
  156.7199  130.9266  151.3096 H   0  0  0  0  0  0  0  0  0  0  0  0  # atno 10718 bound_to 10713
  154.2261  135.6369  153.5160 H   0  0  0  0  0  0  0  0  0  0  0  0  # atno 10763 bound_to 10752
  152.9958  135.5508  154.6062 H   0  0  0  0  0  0  0  0  0  0  0  0  # atno 10764 bound_to 10752
  154.5534  135.2903  155.0961 H   0  0  0  0  0  0  0  0  0  0  0  0  # atno 10765 bound_to 10752
  140.5622  134.0181  155.7976 H   0  0  0  0  0  0  0  0  0  0  0  0  # atno 11005 bound_to 11000
  144.7231  140.4439  143.6993 LP  0  0  0  0  0  0  0  0  0  0  0  0  # atno 17320 bound_to 7965
  145.6392  139.1547  143.2925 LP  0  0  0  0  0  0  0  0  0  0  0  0  # atno 17321 bound_to 7965
  140.2240  143.3787  152.1620 LP  0  0  0  0  0  0  0  0  0  0  0  0  # atno 17342 bound_to 10162
  139.5257  144.7098  151.5240 LP  0  0  0  0  0  0  0  0  0  0  0  0  # atno 17343 bound_to 10162
  157.6902  130.9226  150.0494 LP  0  0  0  0  0  0  0  0  0  0  0  0  # atno 17370 bound_to 10713
  156.1602  130.3644  149.9311 LP  0  0  0  0  0  0  0  0  0  0  0  0  # atno 17371 bound_to 10713
  141.1107  133.9621  157.2915 LP  0  0  0  0  0  0  0  0  0  0  0  0  # atno 17394 bound_to 11000
  139.9402  135.0192  156.8684 LP  0  0  0  0  0  0  0  0  0  0  0  0  # atno 17395 bound_to 11000

$$$$
