#       Name:                AV-unprocessed.smi:651
#       Creating user name   scv26
#       Creation time:       Fri Mar 27 00:11:35 2020


#       File generated by GOLD software.
#

@<TRIPOS>MOLECULE
AV-unprocessed.smi:651
    43    44     1
SMALL
NO_CHARGES


@<TRIPOS>ATOM
      1 ****        -3.5817   5.2992  -0.3557 C.3            1 S1                 0.0000
      2 ****        -3.0797   3.8757  -0.4745 C.ar           1 S1                 0.0000
      3 ****        -2.8867   3.2492  -1.7242 C.ar           1 S1                 0.0000
      4 ****        -2.4107   1.9220  -1.7629 C.ar           1 S1                 0.0000
      5 ****        -2.1364   1.2480  -0.5522 C.ar           1 S1                 0.0000
      6 ****        -1.6152  -0.1803  -0.5619 C.3            1 S1                 0.0000
      7 ****        -0.0829  -0.2415  -0.5813 C.2            1 S1                 0.0000
      8 ****         0.5977   0.7852  -0.5578 O.2            1 S1                 0.0000
      9 ****         0.4496  -1.4722  -0.6138 N.am           1 S1                 0.0000
     10 ****         1.8833  -1.7706  -0.6241 C.3            1 S1                 0.0000
     11 ****         2.1473  -3.2018  -1.1318 C.3            1 S1                 0.0000
     12 ****         3.1827  -3.8269  -0.1896 C.3            1 S1                 0.0000
     13 ****         3.7358  -2.6692   0.6441 C.3            1 S1                 0.0000
     14 ****         2.5897  -1.6525   0.7551 C.3            1 S1                 0.0000
     15 ****         1.7014  -1.9589   1.9806 C.2            1 S1                 0.0000
     16 ****         1.6317  -1.0185   2.9261 N.am           1 S1                 0.0000
     17 ****         1.0826  -3.0180   2.0712 O.2            1 S1                 0.0000
     18 ****        -2.3492   1.9257   0.6678 C.ar           1 S1                 0.0000
     19 ****        -2.8055   3.1972   0.6624 N.pl3          1 S1                 1.0000
     20 ****        -4.1984   5.5652  -1.2147 H              1 S1                 0.0000
     21 ****        -2.7414   5.9922  -0.3087 H              1 S1                 0.0000
     22 ****        -4.1835   5.4263   0.5449 H              1 S1                 0.0000
     23 ****        -3.0976   3.7775  -2.6426 H              1 S1                 0.0000
     24 ****        -2.2542   1.4299  -2.7119 H              1 S1                 0.0000
     25 ****        -1.9834  -0.7076   0.3193 H              1 S1                 0.0000
     26 ****        -2.0082  -0.7062  -1.4332 H              1 S1                 0.0000
     27 ****        -0.1781  -2.2634  -0.6233 H              1 S1                 0.0000
     28 ****         2.3746  -1.0816  -1.3141 H              1 S1                 0.0000
     29 ****         1.2410  -3.8093  -1.1415 H              1 S1                 0.0000
     30 ****         2.5230  -3.1733  -2.1552 H              1 S1                 0.0000
     31 ****         2.6950  -4.5525   0.4624 H              1 S1                 0.0000
     32 ****         3.9688  -4.3546  -0.7303 H              1 S1                 0.0000
     33 ****         4.1113  -3.0062   1.6117 H              1 S1                 0.0000
     34 ****         4.5744  -2.2098   0.1192 H              1 S1                 0.0000
     35 ****         2.9975  -0.6469   0.8731 H              1 S1                 0.0000
     36 ****         1.0562  -1.1656   3.7427 H              1 S1                 0.0000
     37 ****         2.1479  -0.1576   2.8152 H              1 S1                 0.0000
     38 ****        -2.1638   1.4947   1.6411 H              1 S1                 0.0000
     39 ****        -2.9482   3.6670   1.5566 H              1 S1                 0.0000
     40 ****         0.1521   1.6799  -0.5254 LP             1 S1                 0.0000
     41 ****         1.5957   0.7239  -0.5711 LP             1 S1                 0.0000
     42 ****         1.1494  -3.6999   1.3429 LP             1 S1                 0.0000
     43 ****         0.5127  -3.1971   2.8732 LP             1 S1                 0.0000
@<TRIPOS>BOND
    1    1    2 1     
    2    1   20 1     
    3    1   21 1     
    4    1   22 1     
    5    2   19 ar    
    6    2    3 ar    
    7    3    4 ar    
    8    3   23 1     
    9    4    5 ar    
   10    4   24 1     
   11    5    6 1     
   12    5   18 ar    
   13    6    7 1     
   14    6   25 1     
   15    6   26 1     
   16    7    8 2     
   17    7    9 am    
   18    9   10 1     
   19    9   27 1     
   20   10   14 1     
   21   10   11 1     
   22   10   28 1     
   23   11   12 1     
   24   11   29 1     
   25   11   30 1     
   26   12   13 1     
   27   12   31 1     
   28   12   32 1     
   29   13   14 1     
   30   13   33 1     
   31   13   34 1     
   32   14   15 1     
   33   14   35 1     
   34   15   16 am    
   35   15   17 2     
   36   16   36 1     
   37   16   37 1     
   38   18   19 ar    
   39   18   38 1     
   40   19   39 1     
   41    8   40 1     
   42    8   41 1     
   43   17   42 1     
   44   17   43 1     
@<TRIPOS>SUBSTRUCTURE
      1 S1             1
@<TRIPOS>SET
LONE_PAIRS      STATIC     ATOMS    <user>   **** ""
4 40 41 42 43
DONOR_HYDROGENS      STATIC     ATOMS    <user>   **** ""
4 27 36 37 39
ATOM$BLUE        STATIC     ATOMS    COLORGROUP SYSTEM
4 40 41 42 43
ATOM$RED        STATIC     ATOMS    COLORGROUP SYSTEM
4 27 36 37 39
