AV-unprocessed.smi:3076|AV-procd|sdf|11725|dock10
  -GOLD-   2272017123D 1   1.00000     0.00000
 Structure written by MMmdl.
 21 21  0  0  0  0  0  0  0  0  2 V2000
  148.0397  138.9981  152.8012 N   0  3  0  0  0  0  0  0  0  0  0  0
  148.2720  139.3027  154.2239 C   0  0  0  0  0  0  0  0  0  0  0  0
  148.8021  140.7343  154.4209 C   0  0  2  0  0  0  0  0  0  0  0  0
  149.3547  141.1866  153.1998 O   0  0  0  0  0  0  0  0  0  0  0  0
  149.8127  140.7946  155.5552 C   0  0  0  0  0  0  0  0  0  0  0  0
  150.9226  139.9224  155.6009 C   0  0  0  0  0  0  0  0  0  0  0  0
  151.8193  140.0168  156.6825 C   0  0  0  0  0  0  0  0  0  0  0  0
  151.5693  140.9810  157.6790 C   0  0  0  0  0  0  0  0  0  0  0  0
  150.5111  141.8191  157.6489 N   0  0  0  0  0  0  0  0  0  0  0  0
  149.6563  141.7224  156.6083 C   0  0  0  0  0  0  0  0  0  0  0  0
  148.5615  139.6441  152.2263 H   0  0  0  0  0  0  0  0  0  0  0  0
  147.0535  139.0878  152.6008 H   0  0  0  0  0  0  0  0  0  0  0  0
  147.3266  139.1770  154.7528 H   0  0  0  0  0  0  0  0  0  0  0  0
  148.9679  138.5705  154.6359 H   0  0  0  0  0  0  0  0  0  0  0  0
  147.9700  141.3962  154.6660 H   0  0  0  0  0  0  0  0  0  0  0  0
  149.3195  140.4796  152.5727 H   0  0  0  0  0  0  0  0  0  0  0  0
  151.0857  139.1905  154.8231 H   0  0  0  0  0  0  0  0  0  0  0  0
  152.6784  139.3655  156.7478 H   0  0  0  0  0  0  0  0  0  0  0  0
  152.2357  141.0800  158.5230 H   0  0  0  0  0  0  0  0  0  0  0  0
  148.8200  142.4063  156.6197 H   0  0  0  0  0  0  0  0  0  0  0  0
  148.3373  138.0533  152.6047 H   0  0  0  0  0  0  0  0  0  0  0  0
  1  2  1  0  0  0  0
  1 11  1  0  0  0  0
  1 12  1  0  0  0  0
  1 21  1  0  0  0  0
  2  3  1  0  0  0  0
  2 13  1  0  0  0  0
  2 14  1  0  0  0  0
  3  4  1  0  0  0  0
  3  5  1  0  0  0  0
  3 15  1  0  0  0  0
  4 16  1  0  0  0  0
  5 10  1  0  0  0  0
  5  6  2  0  0  0  0
  6  7  1  0  0  0  0
  6 17  1  0  0  0  0
  7  8  2  0  0  0  0
  7 18  1  0  0  0  0
  8  9  1  0  0  0  0
  8 19  1  0  0  0  0
  9 10  2  0  0  0  0
 10 20  1  0  0  0  0
M  CHG  1   1   1
M  END
> <s_m_source_file>
AV-unprocessed.smi

> <i_m_source_file_index>
3076

> <i_lp_mmshare_version>
43012

> <i_f3d_flags>
0

> <s_epik_input>
W05IMl1bQ0gyXVtDQEhdKFtPSF0pYzFbY0hdW2NIXVtjSF1uW2NIXTE=

> <s_epik_cmdline>
J2VwaWtfcHl0aG9uJywgJy1waCcsICc3LjAnLCAnLXRuJywgJzgnLCAnLW1hJywgJzIwMCcsICctbWV0YWxfYmluZGluZycsICctaW1hZScsICc8aW5maWxlLm1hZT4nLCAnLW9tYWUnLCAnPG91dGZpbGUubWFlPic=

> <r_epik_Ionization_Penalty>
0.0145342

> <r_epik_Ionization_Penalty_Charging>
0.0140431

> <r_epik_Ionization_Penalty_Neutral>
0.000491123

> <r_epik_State_Penalty>
0.0109628

> <r_epik_Charging_Adjusted_Penalty>
0.0250059

> <i_epik_Tot_Q>
1

> <i_epik_Tot_abs_Q>
1

> <r_epik_Metal_State_Penalty>
0.0109916

> <b_epik_Metal_Only>
0

> <s_lp_Force_Field>
OPLS_2005

> <r_lp_Energy>
5.00299

> <b_lp_Chiralities_Consistent>
1

> <s_lp_Variant>
AV-unprocessed.smi:3076-1

> <Gold.Version>
5.8.1

> <Gold.Id.Protein>
6NUR|6NUR_protein|mol2

> <Gold.PLP.Fitness>
36.1724

> <Gold.PLP.PLP>
-20.1774

> <Gold.PLP.part.hbond>
-4.2606

> <Gold.PLP.part.metal>
0.0000

> <Gold.PLP.part.buried>
-2.2141

> <Gold.PLP.part.nonpolar>
-13.7491

> <Gold.PLP.part.repulsive>
0.1375

> <Gold.PLP.ligand.clash>
0.0000

> <Gold.PLP.ligand.torsion>
0.6633

> <Gold.PLP.Chemscore.Hbond>
4.9474

> <Gold.PLP.Chemscore.CHOScore>
0.8241

> <Gold.PLP.Chemscore.Metal>
0.0000

> <Gold.Chemscore.Hbonds>
donor molecule, donor type, donor heavy atom, donor atom, acceptor molecule, acceptor atom, score
      L1  H     1    11       P1  7957  1.00
      L1  H     1    21       P1  7948  1.95
      L1  H     4    16       P1  7957  0.86
      P1  H  7989  7998       L1     4  0.02
      P1  H  8011  8017       L1     4  1.00
      L1  C    10    20       P1  8028  0.89

> <Gold.PLP.Chemscore.Internal.Correction>
0.0070

> <Gold.Rescore>
     Score         DG    S(hbond)    S(metal)    S(lipo)     H(rot)  DE(clash)    DE(int)     intcor
     16.66     -17.22       3.39        0.00      45.17       1.90       0.02       0.53       ----

> <Gold.Chemscore.Fitness>
16.6572

> <Gold.Chemscore.DG>
-17.2156

> <Gold.Chemscore.ZeroCoef>
-5.4800

> <Gold.Chemscore.Hbond>
3.3860

> <Gold.Chemscore.Metal>
0.0000

> <Gold.Chemscore.Lipo>
45.1743

> <Gold.Chemscore.Internal_Hbond>
0.0000

> <Gold.Chemscore.DEClash>
0.0245

> <Gold.Chemscore.DEInternal>
0.5339

> <Gold.Chemscore.Rot>
1.8981

> <Gold.Chemscore.Internal.Correction>
   9.000000E+99

> <Gold.Chemscore.Hbonds>
donor molecule, donor type, donor heavy atom, donor atom, acceptor molecule, acceptor atom, score
      L1  H     1    11       P1  7957  0.92
      L1  H     1    21       P1  7948  0.92
      L1  H     4    16       P1  7957  0.81
      P1  H  8011  8017       L1     4  0.38

> <Gold.Chemscore.Hbond.Weighted>
-11.3094

> <Gold.Chemscore.Metal.Weighted>
-0.0000

> <Gold.Chemscore.Lipo.Weighted>
-5.2854

> <Gold.Chemscore.Internal_Hbond.Weighted>
0.0000

> <Gold.Chemscore.DEClash.Weighted>
0.0245

> <Gold.Chemscore.DEInternal.Weighted>
0.5339

> <Gold.Chemscore.Rot.Weighted>
4.8592

> <Gold.Chemscore.Internal.Correction.Weighted>
   9.000000E+99

> <Gold.Protein.RotatedTorsions>
[ 6907 6896 6895 6894 ] final  -13.92 input  -60.11 | X-H torsion
[ 7974 7965 7964 7962 ] final  158.13 input  175.53 | X-H torsion
[ 8008 7997 7996 7995 ] final  125.29 input   59.86 | X-H torsion
[ 10167 10162 10161 10158 ] final   65.43 input  -65.29 | X-H torsion
[ 10718 10713 10712 10709 ] final  -36.81 input   66.30 | X-H torsion
[ 10763 10752 10751 10750 ] final  178.52 input  -60.55 | X-H torsion
[ 11005 11000 10999 10996 ] final  134.74 input  -57.11 | X-H torsion

> <Gold.Protein.ActiveResidues>
 VAL166  LYS551  ARG553  GLY616  TRP617  ASP618  TYR619  PRO620  LYS621  CYS622 
 ASP623  PHE694  ASN695  SER759  ASP760  ASP761  ALA762  ILE779  LEU786  VAL792 
 PHE793  MET794  SER795  GLU796  ALA797  LYS798  CYS799  TRP800  GLU811  SER814 

> <Gold.Protein.RotatedAtoms>
  151.3474  135.0877  159.9391 H   0  0  0  0  0  0  0  0  0  0  0  0  # atno 6907 bound_to 6896
  152.5196  133.9386  159.7626 H   0  0  0  0  0  0  0  0  0  0  0  0  # atno 6908 bound_to 6896
  150.9755  133.6246  159.2760 H   0  0  0  0  0  0  0  0  0  0  0  0  # atno 6909 bound_to 6896
  144.7863  139.7436  143.6239 H   0  0  0  0  0  0  0  0  0  0  0  0  # atno 7974 bound_to 7965
  156.2829  140.2719  156.1926 H   0  0  0  0  0  0  0  0  0  0  0  0  # atno 8008 bound_to 7997
  155.0443  140.0386  157.2539 H   0  0  0  0  0  0  0  0  0  0  0  0  # atno 8009 bound_to 7997
  154.7248  140.2695  155.6514 H   0  0  0  0  0  0  0  0  0  0  0  0  # atno 8010 bound_to 7997
  140.1113  144.4815  150.6976 H   0  0  0  0  0  0  0  0  0  0  0  0  # atno 10167 bound_to 10162
  156.3225  130.4267  149.7947 H   0  0  0  0  0  0  0  0  0  0  0  0  # atno 10718 bound_to 10713
  154.5087  135.2787  155.1361 H   0  0  0  0  0  0  0  0  0  0  0  0  # atno 10763 bound_to 10752
  154.2965  135.6256  153.5410 H   0  0  0  0  0  0  0  0  0  0  0  0  # atno 10764 bound_to 10752
  152.9915  135.5686  154.5547 H   0  0  0  0  0  0  0  0  0  0  0  0  # atno 10765 bound_to 10752
  139.9934  134.9506  156.9909 H   0  0  0  0  0  0  0  0  0  0  0  0  # atno 11005 bound_to 11000
  146.2096  139.5444  142.9689 LP  0  0  0  0  0  0  0  0  0  0  0  0  # atno 17320 bound_to 7965
  145.5912  141.0369  143.2069 LP  0  0  0  0  0  0  0  0  0  0  0  0  # atno 17321 bound_to 7965
  140.6924  143.2383  151.5095 LP  0  0  0  0  0  0  0  0  0  0  0  0  # atno 17342 bound_to 10162
  139.5617  144.2139  152.1702 LP  0  0  0  0  0  0  0  0  0  0  0  0  # atno 17343 bound_to 10162
  156.5250  130.8232  151.3217 LP  0  0  0  0  0  0  0  0  0  0  0  0  # atno 17370 bound_to 10713
  157.7414  130.9870  150.2447 LP  0  0  0  0  0  0  0  0  0  0  0  0  # atno 17371 bound_to 10713
  140.4864  134.1237  155.7225 LP  0  0  0  0  0  0  0  0  0  0  0  0  # atno 17394 bound_to 11000
  141.1585  133.8838  157.1913 LP  0  0  0  0  0  0  0  0  0  0  0  0  # atno 17395 bound_to 11000

$$$$
