#       Name:                AV-unprocessed.smi:3284
#       Creating user name   scv26
#       Creation time:       Fri Mar 27 18:49:47 2020


#       File generated by GOLD software.
#

@<TRIPOS>MOLECULE
AV-unprocessed.smi:3284
    45    46     1
SMALL
NO_CHARGES


@<TRIPOS>ATOM
      1 ****        -2.4421   1.7699   2.2538 C.3            1 S1                 0.0000
      2 ****        -2.7133   1.5342   0.7778 C.2            1 S1                 0.0000
      3 ****        -3.9583   1.6283   0.2709 C.2            1 S1                 0.0000
      4 ****        -4.3102   1.4511  -1.1950 C.3            1 S1                 0.0000
      5 ****        -3.1287   0.9488  -2.0405 C.3            1 S1                 0.0000
      6 ****        -1.7988   1.5744  -1.5824 C.3            1 S1                 0.0000
      7 ****        -0.6585   1.2808  -2.5716 C.3            1 S1                 0.0000
      8 ****        -1.4924   1.2283  -0.0932 C.3            1 S1                 0.0000
      9 ****        -1.0213  -0.2284   0.1520 C.3            1 S1                 0.0000
     10 ****         0.3734  -0.4496  -0.2775 N.4            1 S1                 1.0000
     11 ****         0.8393  -1.8438  -0.1353 C.3            1 S1                 0.0000
     12 ****         2.3009  -1.9989  -0.5822 C.3            1 S1                 0.0000
     13 ****         3.2604  -1.2090   0.2569 C.2            1 S1                 0.0000
     14 ****         3.5342   0.0757   0.0493 N.2            1 S1                 0.0000
     15 ****         4.4369   0.4134   1.0521 C.2            1 S1                 0.0000
     16 ****         4.6718  -0.6861   1.8419 C.2            1 S1                 0.0000
     17 ****         3.9056  -1.7212   1.3226 N.pl3          1 S1                 0.0000
     18 ****         3.8344  -3.0720   1.8451 C.3            1 S1                 0.0000
     19 ****        -1.7306   2.5861   2.3812 H              1 S1                 0.0000
     20 ****        -2.0319   0.8802   2.7299 H              1 S1                 0.0000
     21 ****        -3.3554   2.0384   2.7860 H              1 S1                 0.0000
     22 ****        -4.7841   1.8715   0.9237 H              1 S1                 0.0000
     23 ****        -5.1546   0.7672  -1.2863 H              1 S1                 0.0000
     24 ****        -4.6463   2.4182  -1.5700 H              1 S1                 0.0000
     25 ****        -3.0687  -0.1376  -1.9775 H              1 S1                 0.0000
     26 ****        -3.3172   1.1772  -3.0903 H              1 S1                 0.0000
     27 ****        -1.9385   2.6563  -1.6196 H              1 S1                 0.0000
     28 ****        -0.5195   0.2106  -2.7248 H              1 S1                 0.0000
     29 ****         0.2846   1.7045  -2.2256 H              1 S1                 0.0000
     30 ****        -0.8722   1.7181  -3.5474 H              1 S1                 0.0000
     31 ****        -0.7008   1.9011   0.2410 H              1 S1                 0.0000
     32 ****        -1.0650  -0.4730   1.2127 H              1 S1                 0.0000
     33 ****        -1.6796  -0.9365  -0.3511 H              1 S1                 0.0000
     34 ****         0.4531  -0.1848  -1.2489 H              1 S1                 0.0000
     35 ****         0.7295  -2.1626   0.9022 H              1 S1                 0.0000
     36 ****         0.2024  -2.4912  -0.7393 H              1 S1                 0.0000
     37 ****         2.5824  -3.0518  -0.5637 H              1 S1                 0.0000
     38 ****         2.4059  -1.6818  -1.6207 H              1 S1                 0.0000
     39 ****         4.8422   1.4117   1.1284 H              1 S1                 0.0000
     40 ****         5.3036  -0.8128   2.7090 H              1 S1                 0.0000
     41 ****         4.4240  -3.1538   2.7588 H              1 S1                 0.0000
     42 ****         4.2285  -3.7735   1.1092 H              1 S1                 0.0000
     43 ****         2.7988  -3.3286   2.0702 H              1 S1                 0.0000
     44 ****         0.9780   0.1492   0.2677 H              1 S1                 0.0000
     45 ****         3.1710   0.6685  -0.6695 LP             1 S1                 0.0000
@<TRIPOS>BOND
    1    1    2 1     
    2    1   19 1     
    3    1   20 1     
    4    1   21 1     
    5    2    8 1     
    6    2    3 2     
    7    3    4 1     
    8    3   22 1     
    9    4    5 1     
   10    4   23 1     
   11    4   24 1     
   12    5    6 1     
   13    5   25 1     
   14    5   26 1     
   15    6    7 1     
   16    6    8 1     
   17    6   27 1     
   18    7   28 1     
   19    7   29 1     
   20    7   30 1     
   21    8    9 1     
   22    8   31 1     
   23    9   10 1     
   24    9   32 1     
   25    9   33 1     
   26   10   11 1     
   27   10   34 1     
   28   10   44 1     
   29   11   12 1     
   30   11   35 1     
   31   11   36 1     
   32   12   13 1     
   33   12   37 1     
   34   12   38 1     
   35   13   17 1     
   36   13   14 2     
   37   14   15 1     
   38   15   16 2     
   39   15   39 1     
   40   16   17 1     
   41   16   40 1     
   42   17   18 1     
   43   18   41 1     
   44   18   42 1     
   45   18   43 1     
   46   14   45 1     
@<TRIPOS>SUBSTRUCTURE
      1 S1             1
@<TRIPOS>SET
LONE_PAIRS      STATIC     ATOMS    <user>   **** ""
1 45
DONOR_HYDROGENS      STATIC     ATOMS    <user>   **** ""
2 34 44
ATOM$BLUE        STATIC     ATOMS    COLORGROUP SYSTEM
1 45
ATOM$RED        STATIC     ATOMS    COLORGROUP SYSTEM
2 34 44
