AV-unprocessed.smi:2698|AV-procd|sdf|10422|dock8
  -GOLD-   2272014463D 1   1.00000     0.00000
 Structure written by MMmdl.
 33 33  0  0  0  0  0  0  0  0  2 V2000
  152.0935  144.4681  159.2322 C   0  0  0  0  0  0  0  0  0  0  0  0
  151.7016  142.9944  159.0466 C   0  0  0  0  0  0  0  0  0  0  0  0
  152.8544  142.0749  159.4903 C   0  0  0  0  0  0  0  0  0  0  0  0
  151.2351  142.7354  157.5951 C   0  0  0  0  0  0  0  0  0  0  0  0
  150.7603  141.2996  157.3567 C   0  0  0  0  0  0  0  0  0  0  0  0
  149.9947  140.7613  158.1565 O   0  0  0  0  0  0  0  0  0  0  0  0
  151.2273  140.6944  156.2527 N   0  0  0  0  0  0  0  0  0  0  0  0
  150.8754  139.3531  155.7860 C   0  0  1  0  0  0  0  0  0  0  0  0
  150.1777  139.4010  154.4088 C   0  0  0  0  0  0  0  0  0  0  0  0
  148.8807  140.1715  154.3728 C   0  0  0  0  0  0  0  0  0  0  0  0
  148.6652  141.5073  154.6434 C   0  0  0  0  0  0  0  0  0  0  0  0
  147.3150  141.7310  154.4415 N   0  0  0  0  0  0  0  0  0  0  0  0
  146.7776  140.5683  154.0717 C   0  0  0  0  0  0  0  0  0  0  0  0
  147.6629  139.5828  154.0113 N   0  0  0  0  0  0  0  0  0  0  0  0
  152.1132  138.4506  155.8030 C   0  0  0  0  0  0  0  0  0  0  0  0
  151.9578  137.2565  155.4621 O   0  0  0  0  0  0  0  0  0  0  0  0
  153.1948  138.9665  156.1607 O   0  5  0  0  0  0  0  0  0  0  0  0
  146.8295  142.6100  154.5466 H   0  0  0  0  0  0  0  0  0  0  0  0
  152.9434  144.7338  158.6030 H   0  0  0  0  0  0  0  0  0  0  0  0
  152.3672  144.6751  160.2671 H   0  0  0  0  0  0  0  0  0  0  0  0
  151.2673  145.1311  158.9742 H   0  0  0  0  0  0  0  0  0  0  0  0
  150.8567  142.8034  159.7105 H   0  0  0  0  0  0  0  0  0  0  0  0
  153.7203  142.1830  158.8365 H   0  0  0  0  0  0  0  0  0  0  0  0
  152.5619  141.0253  159.4865 H   0  0  0  0  0  0  0  0  0  0  0  0
  153.1739  142.3112  160.5055 H   0  0  0  0  0  0  0  0  0  0  0  0
  150.4214  143.4166  157.3409 H   0  0  0  0  0  0  0  0  0  0  0  0
  152.0427  142.9586  156.8966 H   0  0  0  0  0  0  0  0  0  0  0  0
  151.8694  141.2095  155.6679 H   0  0  0  0  0  0  0  0  0  0  0  0
  150.1683  138.9149  156.4933 H   0  0  0  0  0  0  0  0  0  0  0  0
  150.8499  139.8198  153.6581 H   0  0  0  0  0  0  0  0  0  0  0  0
  149.9607  138.3829  154.0830 H   0  0  0  0  0  0  0  0  0  0  0  0
  149.3445  142.2918  154.9417 H   0  0  0  0  0  0  0  0  0  0  0  0
  145.7299  140.4419  153.8414 H   0  0  0  0  0  0  0  0  0  0  0  0
  1  2  1  0  0  0  0
  1 19  1  0  0  0  0
  1 20  1  0  0  0  0
  1 21  1  0  0  0  0
  2  3  1  0  0  0  0
  2  4  1  0  0  0  0
  2 22  1  0  0  0  0
  3 23  1  0  0  0  0
  3 24  1  0  0  0  0
  3 25  1  0  0  0  0
  4  5  1  0  0  0  0
  4 26  1  0  0  0  0
  4 27  1  0  0  0  0
  5  6  2  0  0  0  0
  5  7  1  0  0  0  0
  7  8  1  0  0  0  0
  7 28  1  0  0  0  0
  8  9  1  0  0  0  0
  8 15  1  0  0  0  0
  8 29  1  0  0  0  0
  9 10  1  0  0  0  0
  9 30  1  0  0  0  0
  9 31  1  0  0  0  0
 10 14  1  0  0  0  0
 10 11  2  0  0  0  0
 11 12  1  0  0  0  0
 11 32  1  0  0  0  0
 12 18  1  0  0  0  0
 12 13  1  0  0  0  0
 13 14  2  0  0  0  0
 13 33  1  0  0  0  0
 15 16  2  0  0  0  0
 15 17  1  0  0  0  0
M  CHG  1  17  -1
M  END
> <s_m_source_file>
AV-unprocessed.smi

> <i_m_source_file_index>
2698

> <i_lp_mmshare_version>
43012

> <i_f3d_flags>
0

> <s_epik_input>
W0NIM11bQ0hdKFtDSDNdKVtDSDJdQyg9TylbTkhdW0NAQEhdKEMoPU8pW09IXSlbQ0gyXWMxW2NIXVtuSF1bY0hdbjE=

> <s_epik_cmdline>
J2VwaWtfcHl0aG9uJywgJy1waCcsICc3LjAnLCAnLXRuJywgJzgnLCAnLW1hJywgJzIwMCcsICctbWV0YWxfYmluZGluZycsICctaW1hZScsICc8aW5maWxlLm1hZT4nLCAnLW9tYWUnLCAnPG91dGZpbGUubWFlPic=

> <r_lp_tautomer_probability>
0.5

> <r_epik_Ionization_Penalty>
0.818672

> <r_epik_Ionization_Penalty_Charging>
0.818672

> <r_epik_Ionization_Penalty_Neutral>
7.99661e-08

> <r_epik_State_Penalty>
0.927032

> <r_epik_Charging_Adjusted_Penalty>
1.7457

> <i_epik_Tot_Q>
-1

> <i_epik_Tot_abs_Q>
1

> <r_epik_Metal_State_Penalty>
0.525537

> <b_epik_Metal_Only>
0

> <s_lp_Force_Field>
OPLS_2005

> <r_lp_Energy>
1.97611

> <b_lp_Chiralities_Consistent>
1

> <s_lp_Variant>
AV-unprocessed.smi:2698-6

> <Gold.Version>
5.8.1

> <Gold.Id.Protein>
6NUR|6NUR_protein|mol2

> <Gold.PLP.Fitness>
49.1979

> <Gold.PLP.PLP>
-32.2211

> <Gold.PLP.part.hbond>
-1.9640

> <Gold.PLP.part.metal>
0.0000

> <Gold.PLP.part.buried>
-4.5425

> <Gold.PLP.part.nonpolar>
-27.6096

> <Gold.PLP.part.repulsive>
0.4533

> <Gold.PLP.ligand.clash>
0.0000

> <Gold.PLP.ligand.torsion>
0.1965

> <Gold.PLP.Chemscore.Hbond>
3.7763

> <Gold.PLP.Chemscore.CHOScore>
1.9720

> <Gold.PLP.Chemscore.Metal>
0.0000

> <Gold.Chemscore.Hbonds>
donor molecule, donor type, donor heavy atom, donor atom, acceptor molecule, acceptor atom, score
      P1  H  7997  8009       L1    17  2.00
      P1  H 10752 10765       L1    16  1.54
      L1  C    11    32       P1  8028  0.92
      L1  C    13    33       P1 10175  1.00

> <Gold.PLP.Chemscore.Internal.Correction>
0.1250

> <Gold.Rescore>
     Score         DG    S(hbond)    S(metal)    S(lipo)     H(rot)  DE(clash)    DE(int)     intcor
     12.41     -12.70       1.90        0.00      73.55       3.01       0.02       0.27       ----

> <Gold.Chemscore.Fitness>
12.4087

> <Gold.Chemscore.DG>
-12.6984

> <Gold.Chemscore.ZeroCoef>
-5.4800

> <Gold.Chemscore.Hbond>
1.8952

> <Gold.Chemscore.Metal>
0.0000

> <Gold.Chemscore.Lipo>
73.5514

> <Gold.Chemscore.Internal_Hbond>
0.0000

> <Gold.Chemscore.DEClash>
0.0203

> <Gold.Chemscore.DEInternal>
0.2695

> <Gold.Chemscore.Rot>
3.0145

> <Gold.Chemscore.Internal.Correction>
   9.000000E+99

> <Gold.Chemscore.Hbonds>
donor molecule, donor type, donor heavy atom, donor atom, acceptor molecule, acceptor atom, score
      P1  H  7997  8009       L1    17  0.99
      P1  H 10752 10765       L1    16  0.75

> <Gold.Chemscore.Hbond.Weighted>
-6.3300

> <Gold.Chemscore.Metal.Weighted>
-0.0000

> <Gold.Chemscore.Lipo.Weighted>
-8.6055

> <Gold.Chemscore.Internal_Hbond.Weighted>
0.0000

> <Gold.Chemscore.DEClash.Weighted>
0.0203

> <Gold.Chemscore.DEInternal.Weighted>
0.2695

> <Gold.Chemscore.Rot.Weighted>
7.7171

> <Gold.Chemscore.Internal.Correction.Weighted>
   9.000000E+99

> <Gold.Protein.RotatedTorsions>
[ 6907 6896 6895 6894 ] final   44.59 input  -60.11 | X-H torsion
[ 7974 7965 7964 7962 ] final  149.52 input  175.53 | X-H torsion
[ 8008 7997 7996 7995 ] final -162.60 input   59.86 | X-H torsion
[ 10167 10162 10161 10158 ] final  -69.53 input  -65.29 | X-H torsion
[ 10718 10713 10712 10709 ] final  -36.70 input   66.30 | X-H torsion
[ 10763 10752 10751 10750 ] final -176.74 input  -60.55 | X-H torsion
[ 11005 11000 10999 10996 ] final   43.87 input  -57.11 | X-H torsion

> <Gold.Protein.ActiveResidues>
 VAL166  LYS551  ARG553  GLY616  TRP617  ASP618  TYR619  PRO620  LYS621  CYS622 
 ASP623  PHE694  ASN695  SER759  ASP760  ASP761  ALA762  ILE779  LEU786  VAL792 
 PHE793  MET794  SER795  GLU796  ALA797  LYS798  CYS799  TRP800  GLU811  SER814 

> <Gold.Protein.RotatedAtoms>
  152.2344  134.8290  160.0468 H   0  0  0  0  0  0  0  0  0  0  0  0  # atno 6907 bound_to 6896
  151.9028  133.3537  159.3844 H   0  0  0  0  0  0  0  0  0  0  0  0  # atno 6908 bound_to 6896
  150.7035  134.4737  159.5481 H   0  0  0  0  0  0  0  0  0  0  0  0  # atno 6909 bound_to 6896
  144.8432  139.6290  143.6007 H   0  0  0  0  0  0  0  0  0  0  0  0  # atno 7974 bound_to 7965
  155.8091  140.0903  157.1914 H   0  0  0  0  0  0  0  0  0  0  0  0  # atno 8008 bound_to 7997
  154.3980  140.1458  156.3425 H   0  0  0  0  0  0  0  0  0  0  0  0  # atno 8009 bound_to 7997
  155.8383  140.3440  155.5618 H   0  0  0  0  0  0  0  0  0  0  0  0  # atno 8010 bound_to 7997
  140.5424  143.2314  151.7065 H   0  0  0  0  0  0  0  0  0  0  0  0  # atno 10167 bound_to 10162
  156.3238  130.4269  149.7935 H   0  0  0  0  0  0  0  0  0  0  0  0  # atno 10718 bound_to 10713
  154.5687  135.2826  155.0848 H   0  0  0  0  0  0  0  0  0  0  0  0  # atno 10763 bound_to 10752
  154.2229  135.6388  153.5154 H   0  0  0  0  0  0  0  0  0  0  0  0  # atno 10764 bound_to 10752
  153.0051  135.5519  154.6304 H   0  0  0  0  0  0  0  0  0  0  0  0  # atno 10765 bound_to 10752
  140.1604  134.4348  155.8321 H   0  0  0  0  0  0  0  0  0  0  0  0  # atno 11005 bound_to 11000
  146.2721  139.6661  142.9288 LP  0  0  0  0  0  0  0  0  0  0  0  0  # atno 17320 bound_to 7965
  145.4650  141.0434  143.2730 LP  0  0  0  0  0  0  0  0  0  0  0  0  # atno 17321 bound_to 7965
  139.4994  144.3948  152.0242 LP  0  0  0  0  0  0  0  0  0  0  0  0  # atno 17342 bound_to 10162
  140.3058  144.3594  150.6047 LP  0  0  0  0  0  0  0  0  0  0  0  0  # atno 17343 bound_to 10162
  156.5233  130.8225  151.3211 LP  0  0  0  0  0  0  0  0  0  0  0  0  # atno 17370 bound_to 10713
  157.7417  130.9875  150.2465 LP  0  0  0  0  0  0  0  0  0  0  0  0  # atno 17371 bound_to 10713
  141.2209  133.6911  156.7584 LP  0  0  0  0  0  0  0  0  0  0  0  0  # atno 17394 bound_to 11000
  140.2496  134.8550  157.3655 LP  0  0  0  0  0  0  0  0  0  0  0  0  # atno 17395 bound_to 11000

$$$$
