AV-unprocessed.smi:45|AV-procd|sdf|411|dock3
  -GOLD-   2262016273D 1   1.00000     0.00000
 Structure written by MMmdl.
 61 64  0  0  0  0  0  0  0  0  2 V2000
  144.3382  133.3297  150.1459 C   0  0  0  0  0  0  0  0  0  0  0  0
  144.2716  133.9857  151.4036 O   0  0  0  0  0  0  0  0  0  0  0  0
  145.3628  133.8995  152.2433 C   0  0  0  0  0  0  0  0  0  0  0  0
  146.5836  133.2710  151.8879 C   0  0  0  0  0  0  0  0  0  0  0  0
  147.6552  133.2198  152.7999 C   0  0  0  0  0  0  0  0  0  0  0  0
  147.5259  133.7940  154.0794 C   0  0  0  0  0  0  0  0  0  0  0  0
  148.6736  133.7291  155.0655 C   0  0  0  0  0  0  0  0  0  0  0  0
  148.2691  134.0633  156.4227 N   0  0  0  0  0  0  0  0  0  0  0  0
  148.7240  135.2313  157.0555 C   0  0  0  0  0  0  0  0  0  0  0  0
  149.5760  136.0403  156.3715 N   0  3  0  0  0  0  0  0  0  0  0  0
  150.0598  137.1625  156.9280 C   0  0  0  0  0  0  0  0  0  0  0  0
  150.9269  137.9628  156.1896 N   0  0  0  0  0  0  0  0  0  0  0  0
  152.2982  137.5910  155.8640 C   0  0  0  0  0  0  0  0  0  0  0  0
  152.8627  138.7460  155.0348 C   0  0  0  0  0  0  0  0  0  0  0  0
  151.9955  139.9351  155.4427 C   0  0  0  0  0  0  0  0  0  0  0  0
  150.6198  139.3080  155.7131 C   0  0  1  0  0  0  0  0  0  0  0  0
  149.7232  139.2709  154.4579 C   0  0  0  0  0  0  0  0  0  0  0  0
  149.7781  140.5110  153.7860 O   0  0  0  0  0  0  0  0  0  0  0  0
  149.7303  137.5394  158.1698 N   0  0  0  0  0  0  0  0  0  0  0  0
  148.8877  136.7743  158.8886 C   0  0  0  0  0  0  0  0  0  0  0  0
  148.3442  135.5793  158.3777 C   0  0  0  0  0  0  0  0  0  0  0  0
  147.3763  134.7693  159.1977 C   0  0  0  0  0  0  0  0  0  0  0  0
  146.2589  134.4841  158.7674 O   0  0  0  0  0  0  0  0  0  0  0  0
  147.8301  134.3774  160.3990 N   0  0  0  0  0  0  0  0  0  0  0  0
  147.0425  133.6488  161.3863 C   0  0  0  0  0  0  0  0  0  0  0  0
  145.8246  134.4331  161.8422 C   0  0  0  0  0  0  0  0  0  0  0  0
  145.7599  135.7173  161.4768 N   0  0  0  0  0  0  0  0  0  0  0  0
  144.6852  136.4188  161.8981 C   0  0  0  0  0  0  0  0  0  0  0  0
  143.6766  135.8279  162.6859 C   0  0  0  0  0  0  0  0  0  0  0  0
  143.8539  134.4676  163.0089 C   0  0  0  0  0  0  0  0  0  0  0  0
  144.9315  133.7712  162.5862 N   0  0  0  0  0  0  0  0  0  0  0  0
  146.3169  134.4201  154.4406 C   0  0  0  0  0  0  0  0  0  0  0  0
  145.2442  134.4733  153.5291 C   0  0  0  0  0  0  0  0  0  0  0  0
  143.7755  135.2489  154.0036 Cl  0  0  0  0  0  0  0  0  0  0  0  0
  150.1147  139.8682  156.5014 H   0  0  0  0  0  0  0  0  0  0  0  0
  143.4011  133.4824  149.6107 H   0  0  0  0  0  0  0  0  0  0  0  0
  144.4779  132.2542  150.2639 H   0  0  0  0  0  0  0  0  0  0  0  0
  145.1406  133.7337  149.5272 H   0  0  0  0  0  0  0  0  0  0  0  0
  146.7241  132.8173  150.9186 H   0  0  0  0  0  0  0  0  0  0  0  0
  148.5762  132.7334  152.5128 H   0  0  0  0  0  0  0  0  0  0  0  0
  149.1069  132.7282  155.0509 H   0  0  0  0  0  0  0  0  0  0  0  0
  149.4522  134.4204  154.7411 H   0  0  0  0  0  0  0  0  0  0  0  0
  147.6155  133.4565  156.8987 H   0  0  0  0  0  0  0  0  0  0  0  0
  152.8617  137.4747  156.7905 H   0  0  0  0  0  0  0  0  0  0  0  0
  152.3403  136.6479  155.3181 H   0  0  0  0  0  0  0  0  0  0  0  0
  153.9257  138.9128  155.2114 H   0  0  0  0  0  0  0  0  0  0  0  0
  152.7280  138.5395  153.9724 H   0  0  0  0  0  0  0  0  0  0  0  0
  152.3863  140.3664  156.3656 H   0  0  0  0  0  0  0  0  0  0  0  0
  151.9784  140.7264  154.6926 H   0  0  0  0  0  0  0  0  0  0  0  0
  150.0258  138.4742  153.7774 H   0  0  0  0  0  0  0  0  0  0  0  0
  148.6832  139.0844  154.7268 H   0  0  0  0  0  0  0  0  0  0  0  0
  149.4798  140.3882  152.8974 H   0  0  0  0  0  0  0  0  0  0  0  0
  148.6417  137.1318  159.8780 H   0  0  0  0  0  0  0  0  0  0  0  0
  148.7665  134.6375  160.6714 H   0  0  0  0  0  0  0  0  0  0  0  0
  146.7467  132.6753  160.9897 H   0  0  0  0  0  0  0  0  0  0  0  0
  147.6747  133.4468  162.2515 H   0  0  0  0  0  0  0  0  0  0  0  0
  144.6295  137.4568  161.6048 H   0  0  0  0  0  0  0  0  0  0  0  0
  142.8162  136.3867  163.0232 H   0  0  0  0  0  0  0  0  0  0  0  0
  143.1299  133.9366  163.6092 H   0  0  0  0  0  0  0  0  0  0  0  0
  146.2098  134.8601  155.4216 H   0  0  0  0  0  0  0  0  0  0  0  0
  149.8443  135.7824  155.4222 H   0  0  0  0  0  0  0  0  0  0  0  0
  1  2  1  0  0  0  0
  1 36  1  0  0  0  0
  1 37  1  0  0  0  0
  1 38  1  0  0  0  0
  2  3  1  0  0  0  0
  3 33  1  0  0  0  0
  3  4  2  0  0  0  0
  4  5  1  0  0  0  0
  4 39  1  0  0  0  0
  5  6  2  0  0  0  0
  5 40  1  0  0  0  0
  6  7  1  0  0  0  0
  6 32  1  0  0  0  0
  7  8  1  0  0  0  0
  7 41  1  0  0  0  0
  7 42  1  0  0  0  0
  8  9  1  0  0  0  0
  8 43  1  0  0  0  0
  9 21  1  0  0  0  0
  9 10  2  0  0  0  0
 10 11  1  0  0  0  0
 10 61  1  0  0  0  0
 11 12  1  0  0  0  0
 11 19  2  0  0  0  0
 12 16  1  0  0  0  0
 12 13  1  0  0  0  0
 13 14  1  0  0  0  0
 13 44  1  0  0  0  0
 13 45  1  0  0  0  0
 14 15  1  0  0  0  0
 14 46  1  0  0  0  0
 14 47  1  0  0  0  0
 15 16  1  0  0  0  0
 15 48  1  0  0  0  0
 15 49  1  0  0  0  0
 16 35  1  0  0  0  0
 16 17  1  0  0  0  0
 17 18  1  0  0  0  0
 17 50  1  0  0  0  0
 17 51  1  0  0  0  0
 18 52  1  0  0  0  0
 19 20  1  0  0  0  0
 20 21  2  0  0  0  0
 20 53  1  0  0  0  0
 21 22  1  0  0  0  0
 22 23  2  0  0  0  0
 22 24  1  0  0  0  0
 24 25  1  0  0  0  0
 24 54  1  0  0  0  0
 25 26  1  0  0  0  0
 25 55  1  0  0  0  0
 25 56  1  0  0  0  0
 26 31  1  0  0  0  0
 26 27  2  0  0  0  0
 27 28  1  0  0  0  0
 28 29  2  0  0  0  0
 28 57  1  0  0  0  0
 29 30  1  0  0  0  0
 29 58  1  0  0  0  0
 30 31  2  0  0  0  0
 30 59  1  0  0  0  0
 32 33  2  0  0  0  0
 32 60  1  0  0  0  0
 33 34  1  0  0  0  0
M  CHG  1  10   1
M  END
> <s_m_source_file>
AV-unprocessed.smi

> <i_m_source_file_index>
45

> <i_lp_mmshare_version>
43012

> <i_f3d_flags>
0

> <s_epik_input>
W0NIM11PYzFbY0hdW2NIXWMoW2NIXWMxQ2wpW0NIMl1bTkhdYzJuYyhOM1tDSDJdW0NIMl1bQ0gyXVtDQEhdM1tDSDJdW09IXSluW2NIXWMyQyg9TylbTkhdW0NIMl1jNG5bY0hdW2NIXVtjSF1uNA==

> <s_epik_cmdline>
J2VwaWtfcHl0aG9uJywgJy1waCcsICc3LjAnLCAnLXRuJywgJzgnLCAnLW1hJywgJzIwMCcsICctbWV0YWxfYmluZGluZycsICctaW1hZScsICc8aW5maWxlLm1hZT4nLCAnLW9tYWUnLCAnPG91dGZpbGUubWFlPic=

> <r_lp_tautomer_probability>
0.424989

> <r_epik_Ionization_Penalty>
2.31209

> <r_epik_Ionization_Penalty_Charging>
2.31199

> <r_epik_Ionization_Penalty_Neutral>
9.65277e-05

> <r_epik_State_Penalty>
2.29675

> <r_epik_Charging_Adjusted_Penalty>
4.60874

> <i_epik_Tot_Q>
1

> <i_epik_Tot_abs_Q>
1

> <r_epik_Metal_State_Penalty>
2.3404

> <b_epik_Metal_Only>
0

> <s_epik_Chemistry_Notes>
This compound contains an electron-poor aromatic ring that is susceptible to covalent hydrolysis at low pH, typically resulting in measured values for nitrogen ring protonation that are around two units higher than predicted values.

> <s_lp_Force_Field>
OPLS_2005

> <r_lp_Energy>
34.7273

> <b_lp_Chiralities_Consistent>
1

> <s_lp_Variant>
AV-unprocessed.smi:45-5

> <Gold.Version>
5.8.1

> <Gold.Id.Protein>
6NUR|6NUR_protein|mol2

> <Gold.PLP.Fitness>
44.6097

> <Gold.PLP.PLP>
-43.7378

> <Gold.PLP.part.hbond>
-2.0000

> <Gold.PLP.part.metal>
0.0000

> <Gold.PLP.part.buried>
-7.0019

> <Gold.PLP.part.nonpolar>
-35.4443

> <Gold.PLP.part.repulsive>
0.3338

> <Gold.PLP.ligand.clash>
0.0000

> <Gold.PLP.ligand.torsion>
2.7728

> <Gold.PLP.Chemscore.Hbond>
1.5920

> <Gold.PLP.Chemscore.CHOScore>
0.0000

> <Gold.PLP.Chemscore.Metal>
0.0000

> <Gold.Chemscore.Hbonds>
donor molecule, donor type, donor heavy atom, donor atom, acceptor molecule, acceptor atom, score
      L1  H    18    52       P1  7957  1.00
      P1  H  7989  7998       L1    18  0.59

> <Gold.PLP.Chemscore.Internal.Correction>
1.6415

> <Gold.Rescore>
     Score         DG    S(hbond)    S(metal)    S(lipo)     H(rot)  DE(clash)    DE(int)     intcor
     12.26     -15.23       1.43        0.00     106.72       2.94       0.04       2.93       ----

> <Gold.Chemscore.Fitness>
12.2616

> <Gold.Chemscore.DG>
-15.2292

> <Gold.Chemscore.ZeroCoef>
-5.4800

> <Gold.Chemscore.Hbond>
1.4334

> <Gold.Chemscore.Metal>
0.0000

> <Gold.Chemscore.Lipo>
106.7248

> <Gold.Chemscore.Internal_Hbond>
0.0000

> <Gold.Chemscore.DEClash>
0.0396

> <Gold.Chemscore.DEInternal>
2.9281

> <Gold.Chemscore.Rot>
2.9395

> <Gold.Chemscore.Internal.Correction>
   9.000000E+99

> <Gold.Chemscore.Hbonds>
donor molecule, donor type, donor heavy atom, donor atom, acceptor molecule, acceptor atom, score
      L1  H    18    52       P1  7957  0.99
      P1  H  7989  7998       L1    18  0.09

> <Gold.Chemscore.Hbond.Weighted>
-4.7876

> <Gold.Chemscore.Metal.Weighted>
-0.0000

> <Gold.Chemscore.Lipo.Weighted>
-12.4868

> <Gold.Chemscore.Internal_Hbond.Weighted>
0.0000

> <Gold.Chemscore.DEClash.Weighted>
0.0396

> <Gold.Chemscore.DEInternal.Weighted>
2.9281

> <Gold.Chemscore.Rot.Weighted>
7.5251

> <Gold.Chemscore.Internal.Correction.Weighted>
   9.000000E+99

> <Gold.Protein.RotatedTorsions>
[ 6907 6896 6895 6894 ] final   40.18 input  -60.11 | X-H torsion
[ 7974 7965 7964 7962 ] final -133.47 input  175.53 | X-H torsion
[ 8008 7997 7996 7995 ] final -151.28 input   59.86 | X-H torsion
[ 10167 10162 10161 10158 ] final   84.46 input  -65.29 | X-H torsion
[ 10718 10713 10712 10709 ] final  -97.62 input   66.30 | X-H torsion
[ 10763 10752 10751 10750 ] final -154.65 input  -60.55 | X-H torsion
[ 11005 11000 10999 10996 ] final  131.79 input  -57.11 | X-H torsion

> <Gold.Protein.ActiveResidues>
 VAL166  LYS551  ARG553  GLY616  TRP617  ASP618  TYR619  PRO620  LYS621  CYS622 
 ASP623  PHE694  ASN695  SER759  ASP760  ASP761  ALA762  ILE779  LEU786  VAL792 
 PHE793  MET794  SER795  GLU796  ALA797  LYS798  CYS799  TRP800  GLU811  SER814 

> <Gold.Protein.RotatedAtoms>
  152.1791  134.8769  160.0527 H   0  0  0  0  0  0  0  0  0  0  0  0  # atno 6907 bound_to 6896
  151.9700  133.3718  159.4076 H   0  0  0  0  0  0  0  0  0  0  0  0  # atno 6908 bound_to 6896
  150.6914  134.4073  159.5190 H   0  0  0  0  0  0  0  0  0  0  0  0  # atno 6909 bound_to 6896
  144.9190  140.6990  143.4977 H   0  0  0  0  0  0  0  0  0  0  0  0  # atno 7974 bound_to 7965
  155.6369  140.0697  157.2631 H   0  0  0  0  0  0  0  0  0  0  0  0  # atno 8008 bound_to 7997
  154.4192  140.1757  156.1581 H   0  0  0  0  0  0  0  0  0  0  0  0  # atno 8009 bound_to 7997
  155.9887  140.3347  155.6735 H   0  0  0  0  0  0  0  0  0  0  0  0  # atno 8010 bound_to 7997
  139.9078  144.6290  150.8569 H   0  0  0  0  0  0  0  0  0  0  0  0  # atno 10167 bound_to 10162
  156.0088  130.5202  150.6402 H   0  0  0  0  0  0  0  0  0  0  0  0  # atno 10718 bound_to 10713
  154.7843  135.3185  154.7920 H   0  0  0  0  0  0  0  0  0  0  0  0  # atno 10763 bound_to 10752
  153.8624  135.6852  153.4786 H   0  0  0  0  0  0  0  0  0  0  0  0  # atno 10764 bound_to 10752
  153.1490  135.4707  154.9547 H   0  0  0  0  0  0  0  0  0  0  0  0  # atno 10765 bound_to 10752
  139.9751  134.9566  156.9488 H   0  0  0  0  0  0  0  0  0  0  0  0  # atno 11005 bound_to 11000
  145.3328  139.1755  143.4528 LP  0  0  0  0  0  0  0  0  0  0  0  0  # atno 17320 bound_to 7965
  146.3195  140.3359  142.8644 LP  0  0  0  0  0  0  0  0  0  0  0  0  # atno 17321 bound_to 7965
  140.7692  143.3388  151.2251 LP  0  0  0  0  0  0  0  0  0  0  0  0  # atno 17342 bound_to 10162
  139.6969  143.9598  152.2887 LP  0  0  0  0  0  0  0  0  0  0  0  0  # atno 17343 bound_to 10162
  157.4183  131.0833  151.1155 LP  0  0  0  0  0  0  0  0  0  0  0  0  # atno 17370 bound_to 10713
  157.1765  130.6290  149.5657 LP  0  0  0  0  0  0  0  0  0  0  0  0  # atno 17371 bound_to 10713
  140.5212  134.0906  155.7292 LP  0  0  0  0  0  0  0  0  0  0  0  0  # atno 17394 bound_to 11000
  141.1428  133.9107  157.2285 LP  0  0  0  0  0  0  0  0  0  0  0  0  # atno 17395 bound_to 11000

$$$$
