AV-unprocessed.smi:1145|AV-procd|sdf|4882|dock3
  -GOLD-   22720 3453D 1   1.00000     0.00000
 Structure written by MMmdl.
 36 37  0  0  0  0  0  0  0  0  1 V2000
  151.7899  138.4043  156.2646 C   0  0  0  0  0  0  0  0  0  0  0  0
  150.5826  139.3376  156.0946 C   0  0  2  0  0  0  0  0  0  0  0  0
  150.1073  139.3996  154.6305 C   0  0  0  0  0  0  0  0  0  0  0  0
  148.8713  140.1498  154.4861 N   0  0  0  0  0  0  0  0  0  0  0  0
  148.6527  141.4907  154.7218 C   0  0  0  0  0  0  0  0  0  0  0  0
  147.3407  141.7442  154.4405 C   0  0  0  0  0  0  0  0  0  0  0  0
  146.8320  140.4793  154.0330 C   0  0  0  0  0  0  0  0  0  0  0  0
  147.7503  139.5270  154.0611 N   0  0  0  0  0  0  0  0  0  0  0  0
  150.9283  140.6776  156.5644 N   0  0  0  0  0  0  0  0  0  0  0  0
  151.3523  140.9883  157.7987 C   0  0  0  0  0  0  0  0  0  0  0  0
  151.5466  140.1498  158.6796 O   0  0  0  0  0  0  0  0  0  0  0  0
  151.5858  142.4780  158.0819 C   0  0  2  0  0  0  0  0  0  0  0  0
  152.0828  142.7006  159.5198 C   0  0  0  0  0  0  0  0  0  0  0  0
  152.3660  144.1886  159.7800 C   0  0  0  0  0  0  0  0  0  0  0  0
  151.2468  145.1177  159.2867 C   0  0  0  0  0  0  0  0  0  0  0  0
  151.1857  146.2691  159.7119 O   0  0  0  0  0  0  0  0  0  0  0  0
  150.3764  144.6600  158.3695 N   0  0  0  0  0  0  0  0  0  0  0  0
  150.2945  143.2924  157.8556 C   0  0  0  0  0  0  0  0  0  0  0  0
  151.5492  137.3903  155.9445 H   0  0  0  0  0  0  0  0  0  0  0  0
  152.1025  138.3526  157.3083 H   0  0  0  0  0  0  0  0  0  0  0  0
  152.6430  138.7459  155.6776 H   0  0  0  0  0  0  0  0  0  0  0  0
  149.7633  138.9339  156.6925 H   0  0  0  0  0  0  0  0  0  0  0  0
  150.8745  139.8425  153.9929 H   0  0  0  0  0  0  0  0  0  0  0  0
  149.9314  138.3924  154.2512 H   0  0  0  0  0  0  0  0  0  0  0  0
  149.4412  142.1453  155.0629 H   0  0  0  0  0  0  0  0  0  0  0  0
  146.8233  142.6894  154.5135 H   0  0  0  0  0  0  0  0  0  0  0  0
  145.8295  140.2269  153.7203 H   0  0  0  0  0  0  0  0  0  0  0  0
  150.7959  141.4340  155.9085 H   0  0  0  0  0  0  0  0  0  0  0  0
  152.3520  142.8477  157.3975 H   0  0  0  0  0  0  0  0  0  0  0  0
  151.3406  142.3438  160.2364 H   0  0  0  0  0  0  0  0  0  0  0  0
  152.9889  142.1210  159.7013 H   0  0  0  0  0  0  0  0  0  0  0  0
  152.5354  144.3558  160.8442 H   0  0  0  0  0  0  0  0  0  0  0  0
  153.2843  144.4790  159.2685 H   0  0  0  0  0  0  0  0  0  0  0  0
  149.6710  145.3039  158.0418 H   0  0  0  0  0  0  0  0  0  0  0  0
  150.0596  143.3333  156.7912 H   0  0  0  0  0  0  0  0  0  0  0  0
  149.4448  142.8127  158.3440 H   0  0  0  0  0  0  0  0  0  0  0  0
  1  2  1  0  0  0  0
  1 19  1  0  0  0  0
  1 20  1  0  0  0  0
  1 21  1  0  0  0  0
  2  3  1  0  0  0  0
  2  9  1  0  0  0  0
  2 22  1  0  0  0  0
  3  4  1  0  0  0  0
  3 23  1  0  0  0  0
  3 24  1  0  0  0  0
  4  8  1  0  0  0  0
  4  5  1  0  0  0  0
  5  6  2  0  0  0  0
  5 25  1  0  0  0  0
  6  7  1  0  0  0  0
  6 26  1  0  0  0  0
  7  8  2  0  0  0  0
  7 27  1  0  0  0  0
  9 10  1  0  0  0  0
  9 28  1  0  0  0  0
 10 11  2  0  0  0  0
 10 12  1  0  0  0  0
 12 18  1  0  0  0  0
 12 13  1  0  0  0  0
 12 29  1  0  0  0  0
 13 14  1  0  0  0  0
 13 30  1  0  0  0  0
 13 31  1  0  0  0  0
 14 15  1  0  0  0  0
 14 32  1  0  0  0  0
 14 33  1  0  0  0  0
 15 16  2  0  0  0  0
 15 17  1  0  0  0  0
 17 18  1  0  0  0  0
 17 34  1  0  0  0  0
 18 35  1  0  0  0  0
 18 36  1  0  0  0  0
M  END
> <s_m_source_file>
AV-unprocessed.smi

> <i_m_source_file_index>
1145

> <i_lp_mmshare_version>
43012

> <i_f3d_flags>
0

> <s_epik_input>
bjFbY0hdW2NIXVtjSF1uMVtDSDJdW0NAQEhdKFtDSDNdKVtOSF1DKD1PKVtDQEBIXTJbQ0gyXVtDSDJdQyg9TylbTkhdW0NIMl0y

> <s_epik_cmdline>
J2VwaWtfcHl0aG9uJywgJy1waCcsICc3LjAnLCAnLXRuJywgJzgnLCAnLW1hJywgJzIwMCcsICctbWV0YWxfYmluZGluZycsICctaW1hZScsICc8aW5maWxlLm1hZT4nLCAnLW9tYWUnLCAnPG91dGZpbGUubWFlPic=

> <r_lp_tautomer_probability>
1

> <r_epik_Ionization_Penalty>
0.000314064

> <r_epik_Ionization_Penalty_Charging>
0

> <r_epik_Ionization_Penalty_Neutral>
0.000314064

> <r_epik_State_Penalty>
-0

> <r_epik_Charging_Adjusted_Penalty>
0

> <i_epik_Tot_Q>
0

> <i_epik_Tot_abs_Q>
0

> <r_epik_Metal_State_Penalty>
-0

> <b_epik_Metal_Only>
0

> <s_lp_Force_Field>
OPLS_2005

> <r_lp_Energy>
12.6815

> <b_lp_Chiralities_Consistent>
1

> <s_lp_Variant>
AV-unprocessed.smi:1145-1

> <Gold.Version>
5.8.1

> <Gold.Id.Protein>
6NUR|6NUR_protein|mol2

> <Gold.PLP.Fitness>
42.1008

> <Gold.PLP.PLP>
-34.1701

> <Gold.PLP.part.hbond>
-3.5056

> <Gold.PLP.part.metal>
0.0000

> <Gold.PLP.part.buried>
-0.1410

> <Gold.PLP.part.nonpolar>
-31.8943

> <Gold.PLP.part.repulsive>
0.6663

> <Gold.PLP.ligand.clash>
0.0000

> <Gold.PLP.ligand.torsion>
0.0447

> <Gold.PLP.Chemscore.Hbond>
0.8775

> <Gold.PLP.Chemscore.CHOScore>
1.7876

> <Gold.PLP.Chemscore.Metal>
0.0000

> <Gold.Chemscore.Hbonds>
donor molecule, donor type, donor heavy atom, donor atom, acceptor molecule, acceptor atom, score
      L1  H    17    34       P1  8029  0.95
      L1  C     5    25       P1  8028  0.47
      L1  C     7    27       P1 10175  1.00

> <Gold.PLP.Chemscore.Internal.Correction>
0.0247

> <Gold.Rescore>
     Score         DG    S(hbond)    S(metal)    S(lipo)     H(rot)  DE(clash)    DE(int)     intcor
      9.54      -9.69       0.02        0.00      74.87       1.80       0.00       0.15       ----

> <Gold.Chemscore.Fitness>
9.5363

> <Gold.Chemscore.DG>
-9.6924

> <Gold.Chemscore.ZeroCoef>
-5.4800

> <Gold.Chemscore.Hbond>
0.0169

> <Gold.Chemscore.Metal>
0.0000

> <Gold.Chemscore.Lipo>
74.8674

> <Gold.Chemscore.Internal_Hbond>
0.0000

> <Gold.Chemscore.DEClash>
0.0034

> <Gold.Chemscore.DEInternal>
0.1526

> <Gold.Chemscore.Rot>
1.7982

> <Gold.Chemscore.Internal.Correction>
   9.000000E+99

> <Gold.Chemscore.Hbonds>
donor molecule, donor type, donor heavy atom, donor atom, acceptor molecule, acceptor atom, score
      L1  H    17    34       P1  8029  0.20

> <Gold.Chemscore.Hbond.Weighted>
-0.0563

> <Gold.Chemscore.Metal.Weighted>
-0.0000

> <Gold.Chemscore.Lipo.Weighted>
-8.7595

> <Gold.Chemscore.Internal_Hbond.Weighted>
0.0000

> <Gold.Chemscore.DEClash.Weighted>
0.0034

> <Gold.Chemscore.DEInternal.Weighted>
0.1526

> <Gold.Chemscore.Rot.Weighted>
4.6035

> <Gold.Chemscore.Internal.Correction.Weighted>
   9.000000E+99

> <Gold.Protein.RotatedTorsions>
[ 6907 6896 6895 6894 ] final  122.66 input  -60.11 | X-H torsion
[ 7974 7965 7964 7962 ] final  -39.01 input  175.53 | X-H torsion
[ 8008 7997 7996 7995 ] final  -27.17 input   59.86 | X-H torsion
[ 10167 10162 10161 10158 ] final  133.58 input  -65.29 | X-H torsion
[ 10718 10713 10712 10709 ] final -170.42 input   66.30 | X-H torsion
[ 10763 10752 10751 10750 ] final  -89.08 input  -60.55 | X-H torsion
[ 11005 11000 10999 10996 ] final    9.48 input  -57.11 | X-H torsion

> <Gold.Protein.ActiveResidues>
 VAL166  LYS551  ARG553  GLY616  TRP617  ASP618  TYR619  PRO620  LYS621  CYS622 
 ASP623  PHE694  ASN695  SER759  ASP760  ASP761  ALA762  ILE779  LEU786  VAL792 
 PHE793  MET794  SER795  GLU796  ALA797  LYS798  CYS799  TRP800  GLU811  SER814 

> <Gold.Protein.RotatedAtoms>
  152.4225  133.7140  159.6494 H   0  0  0  0  0  0  0  0  0  0  0  0  # atno 6907 bound_to 6896
  150.8101  133.8426  159.3192 H   0  0  0  0  0  0  0  0  0  0  0  0  # atno 6908 bound_to 6896
  151.6139  135.1040  160.0138 H   0  0  0  0  0  0  0  0  0  0  0  0  # atno 6909 bound_to 6896
  146.0435  140.6577  142.9076 H   0  0  0  0  0  0  0  0  0  0  0  0  # atno 7974 bound_to 7965
  154.4390  140.1879  156.0891 H   0  0  0  0  0  0  0  0  0  0  0  0  # atno 8008 bound_to 7997
  156.0380  140.3323  155.7186 H   0  0  0  0  0  0  0  0  0  0  0  0  # atno 8009 bound_to 7997
  155.5742  140.0615  157.2790 H   0  0  0  0  0  0  0  0  0  0  0  0  # atno 8010 bound_to 7997
  139.5291  144.6609  151.5016 H   0  0  0  0  0  0  0  0  0  0  0  0  # atno 10167 bound_to 10162
  156.7259  130.9288  151.3101 H   0  0  0  0  0  0  0  0  0  0  0  0  # atno 10718 bound_to 10713
  154.6514  135.5354  153.7907 H   0  0  0  0  0  0  0  0  0  0  0  0  # atno 10763 bound_to 10752
  153.0388  135.6483  154.1010 H   0  0  0  0  0  0  0  0  0  0  0  0  # atno 10764 bound_to 10752
  154.0927  135.2939  155.3248 H   0  0  0  0  0  0  0  0  0  0  0  0  # atno 10765 bound_to 10752
  140.5252  134.0520  155.7856 H   0  0  0  0  0  0  0  0  0  0  0  0  # atno 11005 bound_to 11000
  144.7086  140.3951  143.7098 LP  0  0  0  0  0  0  0  0  0  0  0  0  # atno 17320 bound_to 7965
  145.6845  139.1625  143.2682 LP  0  0  0  0  0  0  0  0  0  0  0  0  # atno 17321 bound_to 7965
  140.6456  143.8800  150.6734 LP  0  0  0  0  0  0  0  0  0  0  0  0  # atno 17342 bound_to 10162
  140.2149  143.3854  152.1689 LP  0  0  0  0  0  0  0  0  0  0  0  0  # atno 17343 bound_to 10162
  157.6879  130.9204  150.0435 LP  0  0  0  0  0  0  0  0  0  0  0  0  # atno 17370 bound_to 10713
  156.1562  130.3643  149.9365 LP  0  0  0  0  0  0  0  0  0  0  0  0  # atno 17371 bound_to 10713
  141.1312  133.9299  157.2531 LP  0  0  0  0  0  0  0  0  0  0  0  0  # atno 17394 bound_to 11000
  139.9584  135.0160  156.9192 LP  0  0  0  0  0  0  0  0  0  0  0  0  # atno 17395 bound_to 11000

$$$$
