AV-unprocessed.smi:1586|AV-procd|sdf|6373|dock10
  -GOLD-   22720 7 03D 1   1.00000     0.00000
 Structure written by MMmdl.
 47 48  0  0  0  0  0  0  0  0  2 V2000
  150.4336  143.2680  158.1800 C   0  0  0  0  0  0  0  0  0  0  0  0
  150.5401  142.3115  156.9835 C   0  0  0  0  0  0  0  0  0  0  0  0
  149.2823  142.2310  156.1993 N   0  3  0  0  0  0  0  0  0  0  0  0
  148.1417  141.6600  156.9592 C   0  0  0  0  0  0  0  0  0  0  0  0
  146.8730  141.6316  156.0809 C   0  0  0  0  0  0  0  0  0  0  0  0
  147.0613  140.8147  154.8733 N   0  0  0  0  0  0  0  0  0  0  0  0
  147.2496  139.3641  155.1010 C   0  0  2  0  0  0  0  0  0  0  0  0
  147.4170  138.6259  153.7519 C   0  0  0  0  0  0  0  0  0  0  0  0
  146.0744  138.7444  155.9071 C   0  0  0  0  0  0  0  0  0  0  0  0
  146.5039  137.6544  156.7784 N   0  0  0  0  0  0  0  0  0  0  0  0
  146.5766  137.7331  158.1155 C   0  0  0  0  0  0  0  0  0  0  0  0
  146.2966  138.7518  158.7495 O   0  0  0  0  0  0  0  0  0  0  0  0
  146.9878  136.5734  158.6556 N   0  0  0  0  0  0  0  0  0  0  0  0
  147.1731  136.2808  160.0310 C   0  0  0  0  0  0  0  0  0  0  0  0
  147.2152  134.9385  160.4924 C   0  0  0  0  0  0  0  0  0  0  0  0
  147.4017  135.0814  161.8386 C   0  0  0  0  0  0  0  0  0  0  0  0
  147.5352  134.1013  162.9535 C   0  0  0  0  0  0  0  0  0  0  0  0
  147.4684  136.3992  162.1705 O   0  0  0  0  0  0  0  0  0  0  0  0
  147.3225  137.1635  161.0069 N   0  0  0  0  0  0  0  0  0  0  0  0
  148.1428  141.4641  154.1167 C   0  0  0  0  0  0  0  0  0  0  0  0
  149.4649  141.5092  154.9156 C   0  0  0  0  0  0  0  0  0  0  0  0
  151.4014  143.3753  158.6701 H   0  0  0  0  0  0  0  0  0  0  0  0
  149.7320  142.9066  158.9314 H   0  0  0  0  0  0  0  0  0  0  0  0
  150.1117  144.2611  157.8654 H   0  0  0  0  0  0  0  0  0  0  0  0
  151.3382  142.6748  156.3346 H   0  0  0  0  0  0  0  0  0  0  0  0
  150.8393  141.3157  157.3141 H   0  0  0  0  0  0  0  0  0  0  0  0
  148.3899  140.6643  157.3286 H   0  0  0  0  0  0  0  0  0  0  0  0
  147.9399  142.2732  157.8367 H   0  0  0  0  0  0  0  0  0  0  0  0
  146.0094  141.3046  156.6562 H   0  0  0  0  0  0  0  0  0  0  0  0
  146.6268  142.6499  155.7766 H   0  0  0  0  0  0  0  0  0  0  0  0
  148.1601  139.2091  155.6769 H   0  0  0  0  0  0  0  0  0  0  0  0
  147.4500  137.5445  153.8823 H   0  0  0  0  0  0  0  0  0  0  0  0
  148.3481  138.8859  153.2503 H   0  0  0  0  0  0  0  0  0  0  0  0
  146.5920  138.8466  153.0737 H   0  0  0  0  0  0  0  0  0  0  0  0
  145.5838  139.4737  156.5504 H   0  0  0  0  0  0  0  0  0  0  0  0
  145.3100  138.3642  155.2286 H   0  0  0  0  0  0  0  0  0  0  0  0
  146.7523  136.7828  156.3329 H   0  0  0  0  0  0  0  0  0  0  0  0
  147.1806  135.8163  158.0167 H   0  0  0  0  0  0  0  0  0  0  0  0
  147.1223  134.0204  159.9316 H   0  0  0  0  0  0  0  0  0  0  0  0
  147.8687  133.1323  162.5814 H   0  0  0  0  0  0  0  0  0  0  0  0
  146.5798  133.9600  163.4587 H   0  0  0  0  0  0  0  0  0  0  0  0
  148.2605  134.4468  163.6907 H   0  0  0  0  0  0  0  0  0  0  0  0
  148.2958  140.9853  153.1514 H   0  0  0  0  0  0  0  0  0  0  0  0
  147.8349  142.4828  153.8762 H   0  0  0  0  0  0  0  0  0  0  0  0
  150.2194  142.0258  154.3215 H   0  0  0  0  0  0  0  0  0  0  0  0
  149.8525  140.5064  155.0983 H   0  0  0  0  0  0  0  0  0  0  0  0
  149.0271  143.1774  155.9559 H   0  0  0  0  0  0  0  0  0  0  0  0
  1  2  1  0  0  0  0
  1 22  1  0  0  0  0
  1 23  1  0  0  0  0
  1 24  1  0  0  0  0
  2  3  1  0  0  0  0
  2 25  1  0  0  0  0
  2 26  1  0  0  0  0
  3 21  1  0  0  0  0
  3  4  1  0  0  0  0
  3 47  1  0  0  0  0
  4  5  1  0  0  0  0
  4 27  1  0  0  0  0
  4 28  1  0  0  0  0
  5  6  1  0  0  0  0
  5 29  1  0  0  0  0
  5 30  1  0  0  0  0
  6  7  1  0  0  0  0
  6 20  1  0  0  0  0
  7  8  1  0  0  0  0
  7  9  1  0  0  0  0
  7 31  1  0  0  0  0
  8 32  1  0  0  0  0
  8 33  1  0  0  0  0
  8 34  1  0  0  0  0
  9 10  1  0  0  0  0
  9 35  1  0  0  0  0
  9 36  1  0  0  0  0
 10 11  1  0  0  0  0
 10 37  1  0  0  0  0
 11 12  2  0  0  0  0
 11 13  1  0  0  0  0
 13 14  1  0  0  0  0
 13 38  1  0  0  0  0
 14 19  2  0  0  0  0
 14 15  1  0  0  0  0
 15 16  2  0  0  0  0
 15 39  1  0  0  0  0
 16 17  1  0  0  0  0
 16 18  1  0  0  0  0
 17 40  1  0  0  0  0
 17 41  1  0  0  0  0
 17 42  1  0  0  0  0
 18 19  1  0  0  0  0
 20 21  1  0  0  0  0
 20 43  1  0  0  0  0
 20 44  1  0  0  0  0
 21 45  1  0  0  0  0
 21 46  1  0  0  0  0
M  CHG  1   3   1
M  END
> <s_m_source_file>
AV-unprocessed.smi

> <i_m_source_file_index>
1586

> <i_lp_mmshare_version>
43012

> <i_f3d_flags>
0

> <s_epik_input>
W0NIM11bQ0gyXU4xW0NIMl1bQ0gyXU4oW0NIMl1bQ0gyXTEpW0NASF0oW0NIM10pW0NIMl1bTkhdQyg9TylbTkhdYzJbY0hdYyhbQ0gzXSlvbjI=

> <s_epik_cmdline>
J2VwaWtfcHl0aG9uJywgJy1waCcsICc3LjAnLCAnLXRuJywgJzgnLCAnLW1hJywgJzIwMCcsICctbWV0YWxfYmluZGluZycsICctaW1hZScsICc8aW5maWxlLm1hZT4nLCAnLW9tYWUnLCAnPG91dGZpbGUubWFlPic=

> <r_epik_Ionization_Penalty>
0.0459786

> <r_epik_Ionization_Penalty_Charging>
0.0453654

> <r_epik_Ionization_Penalty_Neutral>
0.000613264

> <r_epik_State_Penalty>
0.163057

> <r_epik_Charging_Adjusted_Penalty>
0.208422

> <i_epik_Tot_Q>
1

> <i_epik_Tot_abs_Q>
1

> <r_epik_Metal_State_Penalty>
0.17399

> <b_epik_Metal_Only>
0

> <s_lp_Force_Field>
OPLS_2005

> <r_lp_Energy>
17.9393

> <b_lp_Chiralities_Consistent>
1

> <s_lp_Variant>
AV-unprocessed.smi:1586-1

> <Gold.Version>
5.8.1

> <Gold.Id.Protein>
6NUR|6NUR_protein|mol2

> <Gold.PLP.Fitness>
38.1101

> <Gold.PLP.PLP>
-30.2294

> <Gold.PLP.part.hbond>
-4.6234

> <Gold.PLP.part.metal>
0.0000

> <Gold.PLP.part.buried>
-2.7398

> <Gold.PLP.part.nonpolar>
-22.0287

> <Gold.PLP.part.repulsive>
0.3014

> <Gold.PLP.ligand.clash>
0.0000

> <Gold.PLP.ligand.torsion>
0.5898

> <Gold.PLP.Chemscore.Hbond>
3.0000

> <Gold.PLP.Chemscore.CHOScore>
0.0000

> <Gold.PLP.Chemscore.Metal>
0.0000

> <Gold.Chemscore.Hbonds>
donor molecule, donor type, donor heavy atom, donor atom, acceptor molecule, acceptor atom, score
      L1  H     3    47       P1  8028  2.00
      P1  H  6931  6943       L1    19  0.04
      P1  H  6934  6947       L1    19  1.00

> <Gold.PLP.Chemscore.Internal.Correction>
0.0603

> <Gold.Rescore>
     Score         DG    S(hbond)    S(metal)    S(lipo)     H(rot)  DE(clash)    DE(int)     intcor
     14.05     -15.83       1.99        0.00      70.14       1.76       0.08       1.70       ----

> <Gold.Chemscore.Fitness>
14.0526

> <Gold.Chemscore.DG>
-15.8327

> <Gold.Chemscore.ZeroCoef>
-5.4800

> <Gold.Chemscore.Hbond>
1.9945

> <Gold.Chemscore.Metal>
0.0000

> <Gold.Chemscore.Lipo>
70.1373

> <Gold.Chemscore.Internal_Hbond>
0.0000

> <Gold.Chemscore.DEClash>
0.0819

> <Gold.Chemscore.DEInternal>
1.6982

> <Gold.Chemscore.Rot>
1.7637

> <Gold.Chemscore.Internal.Correction>
   9.000000E+99

> <Gold.Chemscore.Hbonds>
donor molecule, donor type, donor heavy atom, donor atom, acceptor molecule, acceptor atom, score
      L1  H     3    47       P1  8028  0.97
      P1  H  6934  6947       L1    19  0.98

> <Gold.Chemscore.Hbond.Weighted>
-6.6616

> <Gold.Chemscore.Metal.Weighted>
-0.0000

> <Gold.Chemscore.Lipo.Weighted>
-8.2061

> <Gold.Chemscore.Internal_Hbond.Weighted>
0.0000

> <Gold.Chemscore.DEClash.Weighted>
0.0819

> <Gold.Chemscore.DEInternal.Weighted>
1.6982

> <Gold.Chemscore.Rot.Weighted>
4.5150

> <Gold.Chemscore.Internal.Correction.Weighted>
   9.000000E+99

> <Gold.Protein.RotatedTorsions>
[ 6907 6896 6895 6894 ] final  103.66 input  -60.11 | X-H torsion
[ 7974 7965 7964 7962 ] final  -43.40 input  175.53 | X-H torsion
[ 8008 7997 7996 7995 ] final  -49.70 input   59.86 | X-H torsion
[ 10167 10162 10161 10158 ] final   30.17 input  -65.29 | X-H torsion
[ 10718 10713 10712 10709 ] final   87.04 input   66.30 | X-H torsion
[ 10763 10752 10751 10750 ] final -167.68 input  -60.55 | X-H torsion
[ 11005 11000 10999 10996 ] final  100.54 input  -57.11 | X-H torsion

> <Gold.Protein.ActiveResidues>
 VAL166  LYS551  ARG553  GLY616  TRP617  ASP618  TYR619  PRO620  LYS621  CYS622 
 ASP623  PHE694  ASN695  SER759  ASP760  ASP761  ALA762  ILE779  LEU786  VAL792 
 PHE793  MET794  SER795  GLU796  ALA797  LYS798  CYS799  TRP800  GLU811  SER814 

> <Gold.Protein.RotatedAtoms>
  152.5288  133.9792  159.7798 H   0  0  0  0  0  0  0  0  0  0  0  0  # atno 6907 bound_to 6896
  151.0049  133.6013  159.2697 H   0  0  0  0  0  0  0  0  0  0  0  0  # atno 6908 bound_to 6896
  151.3108  135.0800  159.9325 H   0  0  0  0  0  0  0  0  0  0  0  0  # atno 6909 bound_to 6896
  146.0022  140.7061  142.9265 H   0  0  0  0  0  0  0  0  0  0  0  0  # atno 7974 bound_to 7965
  154.4048  140.1290  156.4545 H   0  0  0  0  0  0  0  0  0  0  0  0  # atno 8008 bound_to 7997
  155.7334  140.3491  155.5050 H   0  0  0  0  0  0  0  0  0  0  0  0  # atno 8009 bound_to 7997
  155.9106  140.1035  157.1272 H   0  0  0  0  0  0  0  0  0  0  0  0  # atno 8010 bound_to 7997
  140.4702  144.0775  150.6235 H   0  0  0  0  0  0  0  0  0  0  0  0  # atno 10167 bound_to 10162
  157.6936  131.0239  150.3063 H   0  0  0  0  0  0  0  0  0  0  0  0  # atno 10718 bound_to 10713
  154.6707  135.2939  154.9746 H   0  0  0  0  0  0  0  0  0  0  0  0  # atno 10763 bound_to 10752
  154.0774  135.6609  153.4837 H   0  0  0  0  0  0  0  0  0  0  0  0  # atno 10764 bound_to 10752
  153.0485  135.5189  154.7702 H   0  0  0  0  0  0  0  0  0  0  0  0  # atno 10765 bound_to 10752
  139.8771  134.9144  156.4771 H   0  0  0  0  0  0  0  0  0  0  0  0  # atno 11005 bound_to 11000
  144.6923  140.3253  143.7225 LP  0  0  0  0  0  0  0  0  0  0  0  0  # atno 17320 bound_to 7965
  145.7470  139.1781  143.2343 LP  0  0  0  0  0  0  0  0  0  0  0  0  # atno 17321 bound_to 7965
  140.3987  143.2715  151.9974 LP  0  0  0  0  0  0  0  0  0  0  0  0  # atno 17342 bound_to 10162
  139.4817  144.6016  151.7595 LP  0  0  0  0  0  0  0  0  0  0  0  0  # atno 17343 bound_to 10162
  156.3571  130.3841  149.7281 LP  0  0  0  0  0  0  0  0  0  0  0  0  # atno 17370 bound_to 10713
  156.4739  130.8010  151.3026 LP  0  0  0  0  0  0  0  0  0  0  0  0  # atno 17371 bound_to 10713
  140.8754  133.7957  155.9409 LP  0  0  0  0  0  0  0  0  0  0  0  0  # atno 17394 bound_to 11000
  140.8909  134.2496  157.5094 LP  0  0  0  0  0  0  0  0  0  0  0  0  # atno 17395 bound_to 11000

$$$$
