AV-unprocessed.smi:2651|AV-procd|sdf|10293|dock9
  -GOLD-   2272014303D 1   1.00000     0.00000
 Structure written by MMmdl.
 43 44  0  0  0  0  0  0  0  0  1 V2000
  146.5370  135.4610  161.8243 C   0  0  0  0  0  0  0  0  0  0  0  0
  147.5446  135.6623  160.7450 C   0  0  0  0  0  0  0  0  0  0  0  0
  148.2185  136.7626  160.2944 C   0  0  0  0  0  0  0  0  0  0  0  0
  149.0171  136.2401  159.2425 C   0  0  0  0  0  0  0  0  0  0  0  0
  149.8793  137.0837  158.4965 N   0  0  0  0  0  0  0  0  0  0  0  0
  149.7314  138.3963  158.2493 C   0  0  0  0  0  0  0  0  0  0  0  0
  148.7768  139.0783  158.6202 O   0  0  0  0  0  0  0  0  0  0  0  0
  150.7670  138.8673  157.5333 N   0  0  0  0  0  0  0  0  0  0  0  0
  151.0182  140.2373  157.0594 C   0  0  2  0  0  0  0  0  0  0  0  0
  149.7568  140.5902  156.2367 C   0  0  0  0  0  0  0  0  0  0  0  0
  152.2136  140.2216  156.0581 C   0  0  0  0  0  0  0  0  0  0  0  0
  151.9800  139.4681  154.8853 O   0  0  0  0  0  0  0  0  0  0  0  0
  151.2052  141.2442  158.2529 C   0  0  0  0  0  0  0  0  0  0  0  0
  151.3103  142.7311  157.8240 C   0  0  0  0  0  0  0  0  0  0  0  0
  151.3655  143.6701  159.0404 C   0  0  0  0  0  0  0  0  0  0  0  0
  152.5277  143.3054  159.9750 C   0  0  0  0  0  0  0  0  0  0  0  0
  152.4454  141.8340  160.4063 C   0  0  0  0  0  0  0  0  0  0  0  0
  152.3920  140.8987  159.1876 C   0  0  0  0  0  0  0  0  0  0  0  0
  148.8470  134.9387  159.0676 N   0  0  0  0  0  0  0  0  0  0  0  0
  147.9025  134.5617  160.0296 O   0  0  0  0  0  0  0  0  0  0  0  0
  146.3594  136.3879  162.3699 H   0  0  0  0  0  0  0  0  0  0  0  0
  146.8779  134.7099  162.5369 H   0  0  0  0  0  0  0  0  0  0  0  0
  145.5868  135.1263  161.4077 H   0  0  0  0  0  0  0  0  0  0  0  0
  148.1478  137.7764  160.6595 H   0  0  0  0  0  0  0  0  0  0  0  0
  150.7047  136.6421  158.1196 H   0  0  0  0  0  0  0  0  0  0  0  0
  151.4802  138.1966  157.2887 H   0  0  0  0  0  0  0  0  0  0  0  0
  149.8193  141.5812  155.7888 H   0  0  0  0  0  0  0  0  0  0  0  0
  148.8484  140.5572  156.8376 H   0  0  0  0  0  0  0  0  0  0  0  0
  149.6159  139.8861  155.4153 H   0  0  0  0  0  0  0  0  0  0  0  0
  152.5050  141.2353  155.7794 H   0  0  0  0  0  0  0  0  0  0  0  0
  153.0910  139.7772  156.5294 H   0  0  0  0  0  0  0  0  0  0  0  0
  152.3658  138.6126  154.9947 H   0  0  0  0  0  0  0  0  0  0  0  0
  150.3094  141.1812  158.8710 H   0  0  0  0  0  0  0  0  0  0  0  0
  152.2021  142.8894  157.2180 H   0  0  0  0  0  0  0  0  0  0  0  0
  150.4617  143.0190  157.2040 H   0  0  0  0  0  0  0  0  0  0  0  0
  151.4680  144.7033  158.7077 H   0  0  0  0  0  0  0  0  0  0  0  0
  150.4236  143.6142  159.5878 H   0  0  0  0  0  0  0  0  0  0  0  0
  153.4761  143.4853  159.4673 H   0  0  0  0  0  0  0  0  0  0  0  0
  152.5178  143.9523  160.8525 H   0  0  0  0  0  0  0  0  0  0  0  0
  153.3031  141.5824  161.0306 H   0  0  0  0  0  0  0  0  0  0  0  0
  151.5589  141.6814  161.0232 H   0  0  0  0  0  0  0  0  0  0  0  0
  152.3212  139.8699  159.5390 H   0  0  0  0  0  0  0  0  0  0  0  0
  153.3359  140.9757  158.6486 H   0  0  0  0  0  0  0  0  0  0  0  0
  1  2  1  0  0  0  0
  1 21  1  0  0  0  0
  1 22  1  0  0  0  0
  1 23  1  0  0  0  0
  2 20  1  0  0  0  0
  2  3  2  0  0  0  0
  3  4  1  0  0  0  0
  3 24  1  0  0  0  0
  4  5  1  0  0  0  0
  4 19  2  0  0  0  0
  5  6  1  0  0  0  0
  5 25  1  0  0  0  0
  6  7  2  0  0  0  0
  6  8  1  0  0  0  0
  8  9  1  0  0  0  0
  8 26  1  0  0  0  0
  9 10  1  0  0  0  0
  9 11  1  0  0  0  0
  9 13  1  0  0  0  0
 10 27  1  0  0  0  0
 10 28  1  0  0  0  0
 10 29  1  0  0  0  0
 11 12  1  0  0  0  0
 11 30  1  0  0  0  0
 11 31  1  0  0  0  0
 12 32  1  0  0  0  0
 13 18  1  0  0  0  0
 13 14  1  0  0  0  0
 13 33  1  0  0  0  0
 14 15  1  0  0  0  0
 14 34  1  0  0  0  0
 14 35  1  0  0  0  0
 15 16  1  0  0  0  0
 15 36  1  0  0  0  0
 15 37  1  0  0  0  0
 16 17  1  0  0  0  0
 16 38  1  0  0  0  0
 16 39  1  0  0  0  0
 17 18  1  0  0  0  0
 17 40  1  0  0  0  0
 17 41  1  0  0  0  0
 18 42  1  0  0  0  0
 18 43  1  0  0  0  0
 19 20  1  0  0  0  0
M  END
> <s_m_source_file>
AV-unprocessed.smi

> <i_m_source_file_index>
2651

> <i_lp_mmshare_version>
43012

> <i_f3d_flags>
0

> <s_epik_input>
W0NIM11jMVtjSF1jKG5vMSlbTkhdQyg9TylbTkhdW0NAQF0oW0NIM10pKFtDSDJdW09IXSlbQ0hdMltDSDJdW0NIMl1bQ0gyXVtDSDJdW0NIMl0y

> <s_epik_cmdline>
J2VwaWtfcHl0aG9uJywgJy1waCcsICc3LjAnLCAnLXRuJywgJzgnLCAnLW1hJywgJzIwMCcsICctbWV0YWxfYmluZGluZycsICctaW1hZScsICc8aW5maWxlLm1hZT4nLCAnLW9tYWUnLCAnPG91dGZpbGUubWFlPic=

> <r_lp_tautomer_probability>
1

> <r_epik_Ionization_Penalty>
2.26451e-05

> <r_epik_Ionization_Penalty_Charging>
0

> <r_epik_Ionization_Penalty_Neutral>
2.26451e-05

> <r_epik_State_Penalty>
-0

> <r_epik_Charging_Adjusted_Penalty>
0

> <i_epik_Tot_Q>
0

> <i_epik_Tot_abs_Q>
0

> <r_epik_Metal_State_Penalty>
-0

> <b_epik_Metal_Only>
0

> <s_lp_Force_Field>
OPLS_2005

> <r_lp_Energy>
19.0521

> <b_lp_Chiralities_Consistent>
1

> <s_lp_Variant>
AV-unprocessed.smi:2651-2

> <Gold.Version>
5.8.1

> <Gold.Id.Protein>
6NUR|6NUR_protein|mol2

> <Gold.PLP.Fitness>
38.9686

> <Gold.PLP.PLP>
-33.4777

> <Gold.PLP.part.hbond>
-3.3240

> <Gold.PLP.part.metal>
0.0000

> <Gold.PLP.part.buried>
-2.0314

> <Gold.PLP.part.nonpolar>
-28.7066

> <Gold.PLP.part.repulsive>
0.1604

> <Gold.PLP.ligand.clash>
0.0000

> <Gold.PLP.ligand.torsion>
0.3057

> <Gold.PLP.Chemscore.Hbond>
2.0000

> <Gold.PLP.Chemscore.CHOScore>
0.0000

> <Gold.PLP.Chemscore.Metal>
0.0000

> <Gold.Chemscore.Hbonds>
donor molecule, donor type, donor heavy atom, donor atom, acceptor molecule, acceptor atom, score
      P1  H  6896  6908       L1    19  1.00
      P1  H  7989  7998       L1    12  0.94

> <Gold.PLP.Chemscore.Internal.Correction>
0.1024

> <Gold.Rescore>
     Score         DG    S(hbond)    S(metal)    S(lipo)     H(rot)  DE(clash)    DE(int)     intcor
     13.19     -16.43       1.75        0.00      89.39       2.09       0.28       2.95       ----

> <Gold.Chemscore.Fitness>
13.1924

> <Gold.Chemscore.DG>
-16.4291

> <Gold.Chemscore.ZeroCoef>
-5.4800

> <Gold.Chemscore.Hbond>
1.7516

> <Gold.Chemscore.Metal>
0.0000

> <Gold.Chemscore.Lipo>
89.3865

> <Gold.Chemscore.Internal_Hbond>
0.0000

> <Gold.Chemscore.DEClash>
0.2842

> <Gold.Chemscore.DEInternal>
2.9525

> <Gold.Chemscore.Rot>
2.0935

> <Gold.Chemscore.Internal.Correction>
   9.000000E+99

> <Gold.Chemscore.Hbonds>
donor molecule, donor type, donor heavy atom, donor atom, acceptor molecule, acceptor atom, score
      P1  H  6896  6908       L1    19  0.29
      P1  H  7989  7998       L1    12  0.40

> <Gold.Chemscore.Hbond.Weighted>
-5.8503

> <Gold.Chemscore.Metal.Weighted>
-0.0000

> <Gold.Chemscore.Lipo.Weighted>
-10.4582

> <Gold.Chemscore.Internal_Hbond.Weighted>
0.0000

> <Gold.Chemscore.DEClash.Weighted>
0.2842

> <Gold.Chemscore.DEInternal.Weighted>
2.9525

> <Gold.Chemscore.Rot.Weighted>
5.3594

> <Gold.Chemscore.Internal.Correction.Weighted>
   9.000000E+99

> <Gold.Protein.RotatedTorsions>
[ 6907 6896 6895 6894 ] final  147.16 input  -60.11 | X-H torsion
[ 7974 7965 7964 7962 ] final  -96.52 input  175.53 | X-H torsion
[ 8008 7997 7996 7995 ] final -167.65 input   59.86 | X-H torsion
[ 10167 10162 10161 10158 ] final -106.92 input  -65.29 | X-H torsion
[ 10718 10713 10712 10709 ] final -173.61 input   66.30 | X-H torsion
[ 10763 10752 10751 10750 ] final   92.35 input  -60.55 | X-H torsion
[ 11005 11000 10999 10996 ] final   76.90 input  -57.11 | X-H torsion

> <Gold.Protein.ActiveResidues>
 VAL166  LYS551  ARG553  GLY616  TRP617  ASP618  TYR619  PRO620  LYS621  CYS622 
 ASP623  PHE694  ASN695  SER759  ASP760  ASP761  ALA762  ILE779  LEU786  VAL792 
 PHE793  MET794  SER795  GLU796  ALA797  LYS798  CYS799  TRP800  GLU811  SER814 

> <Gold.Protein.RotatedAtoms>
  152.1585  133.4566  159.4848 H   0  0  0  0  0  0  0  0  0  0  0  0  # atno 6907 bound_to 6896
  150.6904  134.2101  159.4365 H   0  0  0  0  0  0  0  0  0  0  0  0  # atno 6908 bound_to 6896
  152.0002  134.9932  160.0615 H   0  0  0  0  0  0  0  0  0  0  0  0  # atno 6909 bound_to 6896
  145.3458  140.9468  143.2582 H   0  0  0  0  0  0  0  0  0  0  0  0  # atno 7974 bound_to 7965
  155.8806  140.1008  157.1488 H   0  0  0  0  0  0  0  0  0  0  0  0  # atno 8008 bound_to 7997
  154.4005  140.1329  156.4255 H   0  0  0  0  0  0  0  0  0  0  0  0  # atno 8009 bound_to 7997
  155.7647  140.3462  155.5218 H   0  0  0  0  0  0  0  0  0  0  0  0  # atno 8010 bound_to 7997
  140.1826  143.3955  152.1269 H   0  0  0  0  0  0  0  0  0  0  0  0  # atno 10167 bound_to 10162
  156.7729  130.9455  151.3120 H   0  0  0  0  0  0  0  0  0  0  0  0  # atno 10718 bound_to 10713
  153.2182  135.4364  155.0459 H   0  0  0  0  0  0  0  0  0  0  0  0  # atno 10763 bound_to 10752
  154.8236  135.3350  154.6967 H   0  0  0  0  0  0  0  0  0  0  0  0  # atno 10764 bound_to 10752
  153.7400  135.7005  153.5025 H   0  0  0  0  0  0  0  0  0  0  0  0  # atno 10765 bound_to 10752
  139.9278  134.7639  156.1454 H   0  0  0  0  0  0  0  0  0  0  0  0  # atno 11005 bound_to 11000
  144.8755  139.4977  143.6747 LP  0  0  0  0  0  0  0  0  0  0  0  0  # atno 17320 bound_to 7965
  146.2988  139.7362  142.9106 LP  0  0  0  0  0  0  0  0  0  0  0  0  # atno 17321 bound_to 7965
  139.5290  144.7136  151.5126 LP  0  0  0  0  0  0  0  0  0  0  0  0  # atno 17342 bound_to 10162
  140.6509  143.8698  150.6785 LP  0  0  0  0  0  0  0  0  0  0  0  0  # atno 17343 bound_to 10162
  157.6682  130.9027  149.9981 LP  0  0  0  0  0  0  0  0  0  0  0  0  # atno 17370 bound_to 10713
  156.1266  130.3644  149.9799 LP  0  0  0  0  0  0  0  0  0  0  0  0  # atno 17371 bound_to 10713
  141.0847  133.6739  156.2411 LP  0  0  0  0  0  0  0  0  0  0  0  0  # atno 17394 bound_to 11000
  140.6287  134.5286  157.5557 LP  0  0  0  0  0  0  0  0  0  0  0  0  # atno 17395 bound_to 11000

$$$$
