#       Name:                AV-unprocessed.smi:1734
#       Creating user name   scv26
#       Creation time:       Fri Mar 27 08:19:56 2020


#       File generated by GOLD software.
#

@<TRIPOS>MOLECULE
AV-unprocessed.smi:1734
    58    60     1
SMALL
NO_CHARGES


@<TRIPOS>ATOM
      1 ****        -4.4349   1.0526   0.3554 C.3            1 S1                 0.0000
      2 ****        -4.0804   2.4936   0.6854 C.ar           1 S1                 0.0000
      3 ****        -5.1163   3.4223   0.9220 C.ar           1 S1                 0.0000
      4 ****        -4.7872   4.7533   1.2304 C.ar           1 S1                 0.0000
      5 ****        -3.4270   5.1017   1.2895 C.ar           1 S1                 0.0000
      6 ****        -2.4308   4.2208   1.0651 N.ar           1 S1                 0.0000
      7 ****        -2.7313   2.9317   0.7672 C.ar           1 S1                 0.0000
      8 ****        -1.7321   1.9499   0.5128 N.am           1 S1                 0.0000
      9 ****        -0.3957   2.0779   0.5924 C.2            1 S1                 0.0000
     10 ****         0.2065   3.0913   0.9471 O.2            1 S1                 0.0000
     11 ****         0.2224   0.9426   0.2414 N.am           1 S1                 0.0000
     12 ****         1.6711   0.7617   0.2391 C.3            1 S1                 0.0000
     13 ****         2.1265  -0.5601  -0.4346 C.3            1 S1                 0.0000
     14 ****         1.4643  -0.8184  -1.8118 C.3            1 S1                 0.0000
     15 ****         2.0428  -1.9983  -2.5723 C.3            1 S1                 0.0000
     16 ****         1.5773  -1.7212  -3.9981 C.3            1 S1                 0.0000
     17 ****         1.5093  -0.3039  -4.1146 O.3            1 S1                 0.0000
     18 ****         1.6758   0.3000  -2.8362 C.3            1 S1                 0.0000
     19 ****         2.0238  -1.7607   0.4502 N.4            1 S1                 1.0000
     20 ****         3.0756  -1.8393   1.4937 C.3            1 S1                 0.0000
     21 ****         3.0128  -3.2020   2.2049 C.3            1 S1                 0.0000
     22 ****         1.7142  -3.3991   2.7520 O.3            1 S1                 0.0000
     23 ****         0.7041  -3.4013   1.7500 C.3            1 S1                 0.0000
     24 ****         0.6879  -2.0407   1.0341 C.3            1 S1                 0.0000
     25 ****        -5.5151   0.9096   0.3123 H              1 S1                 0.0000
     26 ****        -4.0374   0.3795   1.1157 H              1 S1                 0.0000
     27 ****        -4.0209   0.7677  -0.6122 H              1 S1                 0.0000
     28 ****        -6.1524   3.1214   0.8693 H              1 S1                 0.0000
     29 ****        -5.5568   5.4876   1.4167 H              1 S1                 0.0000
     30 ****        -3.1302   6.1137   1.5223 H              1 S1                 0.0000
     31 ****        -2.0805   1.0453   0.2334 H              1 S1                 0.0000
     32 ****        -0.3429   0.1555  -0.0407 H              1 S1                 0.0000
     33 ****         2.1138   1.5982  -0.3046 H              1 S1                 0.0000
     34 ****         2.0491   0.8374   1.2587 H              1 S1                 0.0000
     35 ****         3.1919  -0.4384  -0.6371 H              1 S1                 0.0000
     36 ****         0.3910  -0.9761  -1.6993 H              1 S1                 0.0000
     37 ****         3.1330  -1.9857  -2.5285 H              1 S1                 0.0000
     38 ****         1.6980  -2.9629  -2.1986 H              1 S1                 0.0000
     39 ****         2.2443  -2.1520  -4.7452 H              1 S1                 0.0000
     40 ****         0.5790  -2.1298  -4.1588 H              1 S1                 0.0000
     41 ****         0.9821   1.1300  -2.6995 H              1 S1                 0.0000
     42 ****         2.6904   0.6961  -2.7748 H              1 S1                 0.0000
     43 ****         4.0615  -1.7098   1.0459 H              1 S1                 0.0000
     44 ****         2.9448  -1.0379   2.2215 H              1 S1                 0.0000
     45 ****         3.2557  -4.0125   1.5157 H              1 S1                 0.0000
     46 ****         3.7455  -3.2397   3.0111 H              1 S1                 0.0000
     47 ****         0.8772  -4.2136   1.0421 H              1 S1                 0.0000
     48 ****        -0.2606  -3.5893   2.2215 H              1 S1                 0.0000
     49 ****         0.4201  -1.2637   1.7510 H              1 S1                 0.0000
     50 ****        -0.0774  -2.0470   0.2585 H              1 S1                 0.0000
     51 ****         2.2156  -2.5401  -0.1631 H              1 S1                 0.0000
     52 ****        -1.4767   4.5159   1.1180 LP             1 S1                 0.0000
     53 ****        -0.3038   3.9112   1.2066 LP             1 S1                 0.0000
     54 ****         1.2061   3.0947   0.9758 LP             1 S1                 0.0000
     55 ****         0.6191  -0.0450  -4.4893 LP             1 S1                 0.0000
     56 ****         2.2337   0.0129  -4.7270 LP             1 S1                 0.0000
     57 ****         1.5228  -2.6625   3.4008 LP             1 S1                 0.0000
     58 ****         1.6959  -4.2773   3.2299 LP             1 S1                 0.0000
@<TRIPOS>BOND
    1    1    2 1     
    2    1   25 1     
    3    1   26 1     
    4    1   27 1     
    5    2    7 ar    
    6    2    3 ar    
    7    3    4 ar    
    8    3   28 1     
    9    4    5 ar    
   10    4   29 1     
   11    5    6 ar    
   12    5   30 1     
   13    6    7 ar    
   14    7    8 1     
   15    8    9 am    
   16    8   31 1     
   17    9   10 2     
   18    9   11 am    
   19   11   12 1     
   20   11   32 1     
   21   12   13 1     
   22   12   33 1     
   23   12   34 1     
   24   13   14 1     
   25   13   19 1     
   26   13   35 1     
   27   14   18 1     
   28   14   15 1     
   29   14   36 1     
   30   15   16 1     
   31   15   37 1     
   32   15   38 1     
   33   16   17 1     
   34   16   39 1     
   35   16   40 1     
   36   17   18 1     
   37   18   41 1     
   38   18   42 1     
   39   19   24 1     
   40   19   20 1     
   41   19   51 1     
   42   20   21 1     
   43   20   43 1     
   44   20   44 1     
   45   21   22 1     
   46   21   45 1     
   47   21   46 1     
   48   22   23 1     
   49   23   24 1     
   50   23   47 1     
   51   23   48 1     
   52   24   49 1     
   53   24   50 1     
   54    6   52 1     
   55   10   53 1     
   56   10   54 1     
   57   17   55 1     
   58   17   56 1     
   59   22   57 1     
   60   22   58 1     
@<TRIPOS>SUBSTRUCTURE
      1 S1             1
@<TRIPOS>SET
LONE_PAIRS      STATIC     ATOMS    <user>   **** ""
7 52 53 54 55 56 57 58
DONOR_HYDROGENS      STATIC     ATOMS    <user>   **** ""
3 31 32 51
ATOM$BLUE        STATIC     ATOMS    COLORGROUP SYSTEM
7 52 53 54 55 56 57 58
ATOM$RED        STATIC     ATOMS    COLORGROUP SYSTEM
3 31 32 51
