AV-unprocessed.smi:221|AV-procd|sdf|1695|dock4
  -GOLD-   2262020143D 1   1.00000     0.00000
 Structure written by MMmdl.
 50 53  0  0  0  0  0  0  0  0  1 V2000
  149.8203  143.0157  158.5302 N   0  0  0  0  0  0  0  0  0  0  0  0
  150.8847  143.3391  159.2684 C   0  0  0  0  0  0  0  0  0  0  0  0
  150.7819  143.9861  160.3096 O   0  0  0  0  0  0  0  0  0  0  0  0
  152.2548  142.8626  158.7503 C   0  0  1  0  0  0  0  0  0  0  0  0
  153.4126  143.3699  159.6294 C   0  0  0  0  0  0  0  0  0  0  0  0
  153.6424  142.2617  160.6576 C   0  0  1  0  0  0  0  0  0  0  0  0
  152.8048  142.4109  161.6849 F   0  0  0  0  0  0  0  0  0  0  0  0
  153.2952  140.9870  159.8867 C   0  0  0  0  0  0  0  0  0  0  0  0
  152.4009  141.4079  158.8116 N   0  0  0  0  0  0  0  0  0  0  0  0
  151.8617  140.5243  157.9255 C   0  0  0  0  0  0  0  0  0  0  0  0
  152.1341  139.2040  158.1047 N   0  0  0  0  0  0  0  0  0  0  0  0
  151.6379  138.2824  157.2758 C   0  0  0  0  0  0  0  0  0  0  0  0
  150.8567  138.4558  156.2105 N   0  0  0  0  0  0  0  0  0  0  0  0
  150.5778  139.7752  156.0153 C   0  0  0  0  0  0  0  0  0  0  0  0
  151.0309  140.8666  156.8138 C   0  0  0  0  0  0  0  0  0  0  0  0
  150.5305  142.0547  156.2888 N   0  0  0  0  0  0  0  0  0  0  0  0
  149.8263  141.6892  155.2539 C   0  0  0  0  0  0  0  0  0  0  0  0
  149.8097  140.3363  155.0108 N   0  0  0  0  0  0  0  0  0  0  0  0
  149.1183  139.6501  153.9333 C   0  0  0  0  0  0  0  0  0  0  0  0
  147.5805  139.8402  153.9890 C   0  0  2  0  0  0  0  0  0  0  0  0
  147.1916  141.3273  153.8166 C   0  0  0  0  0  0  0  0  0  0  0  0
  145.8239  141.5349  154.1012 O   0  0  0  0  0  0  0  0  0  0  0  0
  146.9247  139.2188  155.2534 C   0  0  1  0  0  0  0  0  0  0  0  0
  147.1850  137.7374  155.4825 C   0  0  0  0  0  0  0  0  0  0  0  0
  146.9348  137.5615  156.9842 C   0  0  0  0  0  0  0  0  0  0  0  0
  146.8107  138.8720  157.5313 O   0  0  0  0  0  0  0  0  0  0  0  0
  147.3250  139.8136  156.6024 C   0  0  0  0  0  0  0  0  0  0  0  0
  152.4074  143.2226  157.7327 H   0  0  0  0  0  0  0  0  0  0  0  0
  154.6543  142.2538  161.0636 H   0  0  0  0  0  0  0  0  0  0  0  0
  148.8997  143.3028  158.8290 H   0  0  0  0  0  0  0  0  0  0  0  0
  149.9379  142.4846  157.6798 H   0  0  0  0  0  0  0  0  0  0  0  0
  154.3070  143.4791  159.0146 H   0  0  0  0  0  0  0  0  0  0  0  0
  153.2219  144.3393  160.0922 H   0  0  0  0  0  0  0  0  0  0  0  0
  154.1952  140.5528  159.4491 H   0  0  0  0  0  0  0  0  0  0  0  0
  152.8360  140.2397  160.5355 H   0  0  0  0  0  0  0  0  0  0  0  0
  151.9067  137.2601  157.4979 H   0  0  0  0  0  0  0  0  0  0  0  0
  149.3044  142.4016  154.6316 H   0  0  0  0  0  0  0  0  0  0  0  0
  149.5323  140.0219  152.9975 H   0  0  0  0  0  0  0  0  0  0  0  0
  149.3743  138.5915  153.9852 H   0  0  0  0  0  0  0  0  0  0  0  0
  147.1634  139.3060  153.1340 H   0  0  0  0  0  0  0  0  0  0  0  0
  147.7968  141.9653  154.4609 H   0  0  0  0  0  0  0  0  0  0  0  0
  147.3568  141.6632  152.7934 H   0  0  0  0  0  0  0  0  0  0  0  0
  145.3111  141.1920  153.3851 H   0  0  0  0  0  0  0  0  0  0  0  0
  145.8421  139.3221  155.1669 H   0  0  0  0  0  0  0  0  0  0  0  0
  146.5358  137.1055  154.8755 H   0  0  0  0  0  0  0  0  0  0  0  0
  148.2143  137.4653  155.2541 H   0  0  0  0  0  0  0  0  0  0  0  0
  146.0195  137.0014  157.1772 H   0  0  0  0  0  0  0  0  0  0  0  0
  147.7614  137.0319  157.4590 H   0  0  0  0  0  0  0  0  0  0  0  0
  148.4073  139.8659  156.7234 H   0  0  0  0  0  0  0  0  0  0  0  0
  146.9082  140.8065  156.7710 H   0  0  0  0  0  0  0  0  0  0  0  0
  1  2  1  0  0  0  0
  1 30  1  0  0  0  0
  1 31  1  0  0  0  0
  2  3  2  0  0  0  0
  2  4  1  0  0  0  0
  4 28  1  0  0  0  0
  4  9  1  0  0  0  0
  4  5  1  0  0  0  0
  5  6  1  0  0  0  0
  5 32  1  0  0  0  0
  5 33  1  0  0  0  0
  6 29  1  0  0  0  0
  6  7  1  0  0  0  0
  6  8  1  0  0  0  0
  8  9  1  0  0  0  0
  8 34  1  0  0  0  0
  8 35  1  0  0  0  0
  9 10  1  0  0  0  0
 10 15  1  0  0  0  0
 10 11  2  0  0  0  0
 11 12  1  0  0  0  0
 12 13  2  0  0  0  0
 12 36  1  0  0  0  0
 13 14  1  0  0  0  0
 14 18  1  0  0  0  0
 14 15  2  0  0  0  0
 15 16  1  0  0  0  0
 16 17  2  0  0  0  0
 17 18  1  0  0  0  0
 17 37  1  0  0  0  0
 18 19  1  0  0  0  0
 19 20  1  0  0  0  0
 19 38  1  0  0  0  0
 19 39  1  0  0  0  0
 20 21  1  0  0  0  0
 20 23  1  0  0  0  0
 20 40  1  0  0  0  0
 21 22  1  0  0  0  0
 21 41  1  0  0  0  0
 21 42  1  0  0  0  0
 22 43  1  0  0  0  0
 23 27  1  0  0  0  0
 23 24  1  0  0  0  0
 23 44  1  0  0  0  0
 24 25  1  0  0  0  0
 24 45  1  0  0  0  0
 24 46  1  0  0  0  0
 25 26  1  0  0  0  0
 25 47  1  0  0  0  0
 25 48  1  0  0  0  0
 26 27  1  0  0  0  0
 27 49  1  0  0  0  0
 27 50  1  0  0  0  0
M  END
> <s_m_source_file>
AV-unprocessed.smi

> <i_m_source_file_index>
221

> <i_lp_mmshare_version>
43012

> <i_f3d_flags>
0

> <s_epik_input>
W05IMl1DKD1PKVtDQEBIXTFbQ0gyXVtDQEBIXShGKVtDSDJdTjFjKG5bY0hdbjIpYyhjMjMpbltjSF1uM1tDSDJdW0NASF0oW0NIMl1bT0hdKVtDQEBIXTRbQ0gyXVtDSDJdT1tDSDJdNA==

> <s_epik_cmdline>
J2VwaWtfcHl0aG9uJywgJy1waCcsICc3LjAnLCAnLXRuJywgJzgnLCAnLW1hJywgJzIwMCcsICctbWV0YWxfYmluZGluZycsICctaW1hZScsICc8aW5maWxlLm1hZT4nLCAnLW9tYWUnLCAnPG91dGZpbGUubWFlPic=

> <r_lp_tautomer_probability>
1

> <r_epik_Ionization_Penalty>
0.000818822

> <r_epik_Ionization_Penalty_Charging>
0

> <r_epik_Ionization_Penalty_Neutral>
0.000818822

> <r_epik_State_Penalty>
0.000440551

> <r_epik_Charging_Adjusted_Penalty>
0.000440551

> <i_epik_Tot_Q>
0

> <i_epik_Tot_abs_Q>
0

> <r_epik_Metal_State_Penalty>
-0

> <b_epik_Metal_Only>
0

> <s_lp_Force_Field>
OPLS_2005

> <r_lp_Energy>
49.0425

> <b_lp_Chiralities_Consistent>
1

> <s_lp_Variant>
AV-unprocessed.smi:221-10

> <Gold.Version>
5.8.1

> <Gold.Id.Protein>
6NUR|6NUR_protein|mol2

> <Gold.PLP.Fitness>
44.3440

> <Gold.PLP.PLP>
-39.2992

> <Gold.PLP.part.hbond>
-1.4137

> <Gold.PLP.part.metal>
0.0000

> <Gold.PLP.part.buried>
-3.6450

> <Gold.PLP.part.nonpolar>
-34.2944

> <Gold.PLP.part.repulsive>
0.3296

> <Gold.PLP.ligand.clash>
0.0000

> <Gold.PLP.ligand.torsion>
0.2084

> <Gold.PLP.Chemscore.Hbond>
1.0000

> <Gold.PLP.Chemscore.CHOScore>
0.7597

> <Gold.PLP.Chemscore.Metal>
0.0000

> <Gold.Chemscore.Hbonds>
donor molecule, donor type, donor heavy atom, donor atom, acceptor molecule, acceptor atom, score
      L1  H    22    43       P1 10175  1.00
      L1  C    17    37       P1  8028  0.70

> <Gold.PLP.Chemscore.Internal.Correction>
0.1826

> <Gold.Rescore>
     Score         DG    S(hbond)    S(metal)    S(lipo)     H(rot)  DE(clash)    DE(int)     intcor
      4.36      -8.24       0.99        0.00      67.62       3.31       0.06       3.82       ----

> <Gold.Chemscore.Fitness>
4.3627

> <Gold.Chemscore.DG>
-8.2409

> <Gold.Chemscore.ZeroCoef>
-5.4800

> <Gold.Chemscore.Hbond>
0.9939

> <Gold.Chemscore.Metal>
0.0000

> <Gold.Chemscore.Lipo>
67.6241

> <Gold.Chemscore.Internal_Hbond>
0.0000

> <Gold.Chemscore.DEClash>
0.0630

> <Gold.Chemscore.DEInternal>
3.8152

> <Gold.Chemscore.Rot>
3.3089

> <Gold.Chemscore.Internal.Correction>
   9.000000E+99

> <Gold.Chemscore.Hbonds>
donor molecule, donor type, donor heavy atom, donor atom, acceptor molecule, acceptor atom, score
      L1  H    22    43       P1 10175  0.33

> <Gold.Chemscore.Hbond.Weighted>
-3.3197

> <Gold.Chemscore.Metal.Weighted>
-0.0000

> <Gold.Chemscore.Lipo.Weighted>
-7.9120

> <Gold.Chemscore.Internal_Hbond.Weighted>
0.0000

> <Gold.Chemscore.DEClash.Weighted>
0.0630

> <Gold.Chemscore.DEInternal.Weighted>
3.8152

> <Gold.Chemscore.Rot.Weighted>
8.4709

> <Gold.Chemscore.Internal.Correction.Weighted>
   9.000000E+99

> <Gold.Protein.RotatedTorsions>
[ 6907 6896 6895 6894 ] final  156.16 input  -60.11 | X-H torsion
[ 7974 7965 7964 7962 ] final  108.61 input  175.53 | X-H torsion
[ 8008 7997 7996 7995 ] final  146.56 input   59.86 | X-H torsion
[ 10167 10162 10161 10158 ] final   13.83 input  -65.29 | X-H torsion
[ 10718 10713 10712 10709 ] final -108.59 input   66.30 | X-H torsion
[ 10763 10752 10751 10750 ] final   20.09 input  -60.55 | X-H torsion
[ 11005 11000 10999 10996 ] final   22.09 input  -57.11 | X-H torsion

> <Gold.Protein.ActiveResidues>
 VAL166  LYS551  ARG553  GLY616  TRP617  ASP618  TYR619  PRO620  LYS621  CYS622 
 ASP623  PHE694  ASN695  SER759  ASP760  ASP761  ALA762  ILE779  LEU786  VAL792 
 PHE793  MET794  SER795  GLU796  ALA797  LYS798  CYS799  TRP800  GLU811  SER814 

> <Gold.Protein.RotatedAtoms>
  152.0337  133.3948  159.4307 H   0  0  0  0  0  0  0  0  0  0  0  0  # atno 6907 bound_to 6896
  150.6880  134.3492  159.4911 H   0  0  0  0  0  0  0  0  0  0  0  0  # atno 6908 bound_to 6896
  152.1281  134.9155  160.0610 H   0  0  0  0  0  0  0  0  0  0  0  0  # atno 6909 bound_to 6896
  145.2785  139.2641  143.3928 H   0  0  0  0  0  0  0  0  0  0  0  0  # atno 7974 bound_to 7965
  156.2851  140.2179  156.5396 H   0  0  0  0  0  0  0  0  0  0  0  0  # atno 8008 bound_to 7997
  154.7380  140.0490  157.0808 H   0  0  0  0  0  0  0  0  0  0  0  0  # atno 8009 bound_to 7997
  155.0267  140.3130  155.4776 H   0  0  0  0  0  0  0  0  0  0  0  0  # atno 8010 bound_to 7997
  140.5976  143.8669  150.6933 H   0  0  0  0  0  0  0  0  0  0  0  0  # atno 10167 bound_to 10162
  156.0493  130.5721  150.7983 H   0  0  0  0  0  0  0  0  0  0  0  0  # atno 10718 bound_to 10713
  153.1106  135.6696  153.9506 H   0  0  0  0  0  0  0  0  0  0  0  0  # atno 10763 bound_to 10752
  153.9051  135.3031  155.3450 H   0  0  0  0  0  0  0  0  0  0  0  0  # atno 10764 bound_to 10752
  154.7526  135.5027  153.9394 H   0  0  0  0  0  0  0  0  0  0  0  0  # atno 10765 bound_to 10752
  140.3844  134.1886  155.7663 H   0  0  0  0  0  0  0  0  0  0  0  0  # atno 11005 bound_to 11000
  146.3224  140.3246  142.8636 LP  0  0  0  0  0  0  0  0  0  0  0  0  # atno 17320 bound_to 7965
  144.9274  140.7936  143.5711 LP  0  0  0  0  0  0  0  0  0  0  0  0  # atno 17321 bound_to 7965
  140.2208  143.3811  152.1645 LP  0  0  0  0  0  0  0  0  0  0  0  0  # atno 17342 bound_to 10162
  139.5269  144.7113  151.5197 LP  0  0  0  0  0  0  0  0  0  0  0  0  # atno 17343 bound_to 10162
  157.5403  131.0940  150.9836 LP  0  0  0  0  0  0  0  0  0  0  0  0  # atno 17370 bound_to 10713
  157.0120  130.5640  149.5322 LP  0  0  0  0  0  0  0  0  0  0  0  0  # atno 17371 bound_to 10713
  141.1912  133.8199  157.0886 LP  0  0  0  0  0  0  0  0  0  0  0  0  # atno 17394 bound_to 11000
  140.0454  134.9833  157.1039 LP  0  0  0  0  0  0  0  0  0  0  0  0  # atno 17395 bound_to 11000

$$$$
