AV-unprocessed.smi:1302|AV-procd|sdf|5426|dock6
  -GOLD-   22720 4583D 1   1.00000     0.00000
 Structure written by MMmdl.
 43 44  0  0  0  0  0  0  0  0  1 V2000
  155.2066  142.2420  166.6736 C   0  0  0  0  0  0  0  0  0  0  0  0
  155.4223  143.3320  165.6145 C   0  0  0  0  0  0  0  0  0  0  0  0
  154.9147  144.6997  166.0901 C   0  0  0  0  0  0  0  0  0  0  0  0
  154.7376  142.9592  164.3797 N   0  0  0  0  0  0  0  0  0  0  0  0
  154.9381  141.8326  163.6755 C   0  0  0  0  0  0  0  0  0  0  0  0
  155.7692  140.9750  163.9743 O   0  0  0  0  0  0  0  0  0  0  0  0
  154.1133  141.6980  162.4290 C   0  0  0  0  0  0  0  0  0  0  0  0
  153.0750  142.6130  162.1515 C   0  0  0  0  0  0  0  0  0  0  0  0
  152.3355  142.4688  160.9619 C   0  0  0  0  0  0  0  0  0  0  0  0
  152.6679  141.4212  160.0786 C   0  0  0  0  0  0  0  0  0  0  0  0
  151.9313  141.2711  158.8955 N   0  0  0  0  0  0  0  0  0  0  0  0
  152.4849  140.2645  158.0014 C   0  0  0  0  0  0  0  0  0  0  0  0
  151.5307  140.0270  156.8167 C   0  0  2  0  0  0  0  0  0  0  0  0
  152.1307  139.0673  155.7841 C   0  0  0  0  0  0  0  0  0  0  0  0
  151.2618  141.2679  156.1623 O   0  0  0  0  0  0  0  0  0  0  0  0
  150.7181  142.2881  157.0045 C   0  0  1  0  0  0  0  0  0  0  0  0
  149.2597  141.9971  157.4022 C   0  0  0  0  0  0  0  0  0  0  0  0
  151.6491  142.5259  158.2096 C   0  0  0  0  0  0  0  0  0  0  0  0
  153.6698  140.5456  160.3303 N   0  0  0  0  0  0  0  0  0  0  0  0
  154.3718  140.6873  161.4749 C   0  0  0  0  0  0  0  0  0  0  0  0
  155.7165  142.4941  167.6038 H   0  0  0  0  0  0  0  0  0  0  0  0
  155.5966  141.2818  166.3344 H   0  0  0  0  0  0  0  0  0  0  0  0
  154.1477  142.1110  166.8994 H   0  0  0  0  0  0  0  0  0  0  0  0
  156.4951  143.4228  165.4375 H   0  0  0  0  0  0  0  0  0  0  0  0
  155.4177  145.0059  167.0077 H   0  0  0  0  0  0  0  0  0  0  0  0
  153.8425  144.6797  166.2887 H   0  0  0  0  0  0  0  0  0  0  0  0
  155.1017  145.4696  165.3406 H   0  0  0  0  0  0  0  0  0  0  0  0
  154.0496  143.6118  164.0328 H   0  0  0  0  0  0  0  0  0  0  0  0
  152.8390  143.4122  162.8391 H   0  0  0  0  0  0  0  0  0  0  0  0
  151.5305  143.1518  160.7327 H   0  0  0  0  0  0  0  0  0  0  0  0
  153.4590  140.5961  157.6380 H   0  0  0  0  0  0  0  0  0  0  0  0
  152.6436  139.3339  158.5476 H   0  0  0  0  0  0  0  0  0  0  0  0
  150.5977  139.5943  157.1789 H   0  0  0  0  0  0  0  0  0  0  0  0
  152.3505  138.0970  156.2303 H   0  0  0  0  0  0  0  0  0  0  0  0
  153.0585  139.4633  155.3702 H   0  0  0  0  0  0  0  0  0  0  0  0
  151.4400  138.9037  154.9567 H   0  0  0  0  0  0  0  0  0  0  0  0
  150.7059  143.2011  156.4088 H   0  0  0  0  0  0  0  0  0  0  0  0
  148.8300  142.8435  157.9383 H   0  0  0  0  0  0  0  0  0  0  0  0
  149.1727  141.1265  158.0520 H   0  0  0  0  0  0  0  0  0  0  0  0
  148.6444  141.8196  156.5201 H   0  0  0  0  0  0  0  0  0  0  0  0
  151.2017  143.2400  158.9023 H   0  0  0  0  0  0  0  0  0  0  0  0
  152.5854  142.9642  157.8611 H   0  0  0  0  0  0  0  0  0  0  0  0
  155.1661  139.9703  161.6231 H   0  0  0  0  0  0  0  0  0  0  0  0
  1  2  1  0  0  0  0
  1 21  1  0  0  0  0
  1 22  1  0  0  0  0
  1 23  1  0  0  0  0
  2  3  1  0  0  0  0
  2  4  1  0  0  0  0
  2 24  1  0  0  0  0
  3 25  1  0  0  0  0
  3 26  1  0  0  0  0
  3 27  1  0  0  0  0
  4  5  1  0  0  0  0
  4 28  1  0  0  0  0
  5  6  2  0  0  0  0
  5  7  1  0  0  0  0
  7 20  1  0  0  0  0
  7  8  2  0  0  0  0
  8  9  1  0  0  0  0
  8 29  1  0  0  0  0
  9 10  2  0  0  0  0
  9 30  1  0  0  0  0
 10 11  1  0  0  0  0
 10 19  1  0  0  0  0
 11 18  1  0  0  0  0
 11 12  1  0  0  0  0
 12 13  1  0  0  0  0
 12 31  1  0  0  0  0
 12 32  1  0  0  0  0
 13 14  1  0  0  0  0
 13 15  1  0  0  0  0
 13 33  1  0  0  0  0
 14 34  1  0  0  0  0
 14 35  1  0  0  0  0
 14 36  1  0  0  0  0
 15 16  1  0  0  0  0
 16 17  1  0  0  0  0
 16 18  1  0  0  0  0
 16 37  1  0  0  0  0
 17 38  1  0  0  0  0
 17 39  1  0  0  0  0
 17 40  1  0  0  0  0
 18 41  1  0  0  0  0
 18 42  1  0  0  0  0
 19 20  2  0  0  0  0
 20 43  1  0  0  0  0
M  END
> <s_m_source_file>
AV-unprocessed.smi

> <i_m_source_file_index>
1302

> <i_lp_mmshare_version>
43012

> <i_f3d_flags>
0

> <s_epik_input>
W0NIM11bQ0hdKFtDSDNdKVtOSF1DKD1PKWMxW2NIXVtjSF1jKG5bY0hdMSlOMltDSDJdW0NAQEhdKFtDSDNdKU9bQ0BASF0oW0NIM10pW0NIMl0y

> <s_epik_cmdline>
J2VwaWtfcHl0aG9uJywgJy1waCcsICc3LjAnLCAnLXRuJywgJzgnLCAnLW1hJywgJzIwMCcsICctbWV0YWxfYmluZGluZycsICctaW1hZScsICc8aW5maWxlLm1hZT4nLCAnLW9tYWUnLCAnPG91dGZpbGUubWFlPic=

> <r_lp_tautomer_probability>
1

> <r_epik_Ionization_Penalty>
2.23089e-05

> <r_epik_Ionization_Penalty_Charging>
0

> <r_epik_Ionization_Penalty_Neutral>
2.23089e-05

> <r_epik_State_Penalty>
-0

> <r_epik_Charging_Adjusted_Penalty>
0

> <i_epik_Tot_Q>
0

> <i_epik_Tot_abs_Q>
0

> <r_epik_Metal_State_Penalty>
-0

> <b_epik_Metal_Only>
0

> <s_lp_Force_Field>
OPLS_2005

> <r_lp_Energy>
23.1748

> <b_lp_Chiralities_Consistent>
1

> <s_lp_Variant>
AV-unprocessed.smi:1302-2

> <Gold.Version>
5.8.1

> <Gold.Id.Protein>
6NUR|6NUR_protein|mol2

> <Gold.PLP.Fitness>
38.4412

> <Gold.PLP.PLP>
-38.9906

> <Gold.PLP.part.hbond>
-1.9998

> <Gold.PLP.part.metal>
0.0000

> <Gold.PLP.part.buried>
1.3376

> <Gold.PLP.part.nonpolar>
-37.3145

> <Gold.PLP.part.repulsive>
0.1062

> <Gold.PLP.ligand.clash>
0.0000

> <Gold.PLP.ligand.torsion>
0.3288

> <Gold.PLP.Chemscore.Hbond>
0.0000

> <Gold.PLP.Chemscore.CHOScore>
0.0000

> <Gold.PLP.Chemscore.Metal>
0.0000

> <Gold.PLP.Chemscore.Internal.Correction>
0.1083

> <Gold.Rescore>
     Score         DG    S(hbond)    S(metal)    S(lipo)     H(rot)  DE(clash)    DE(int)     intcor
     14.35     -14.78       0.00        0.00     104.69       1.15       0.12       0.32       ----

> <Gold.Chemscore.Fitness>
14.3499

> <Gold.Chemscore.DG>
-14.7830

> <Gold.Chemscore.ZeroCoef>
-5.4800

> <Gold.Chemscore.Hbond>
0.0000

> <Gold.Chemscore.Metal>
0.0000

> <Gold.Chemscore.Lipo>
104.6934

> <Gold.Chemscore.Internal_Hbond>
0.0000

> <Gold.Chemscore.DEClash>
0.1155

> <Gold.Chemscore.DEInternal>
0.3176

> <Gold.Chemscore.Rot>
1.1508

> <Gold.Chemscore.Internal.Correction>
   9.000000E+99

> <Gold.Chemscore.Hbond.Weighted>
-0.0000

> <Gold.Chemscore.Metal.Weighted>
-0.0000

> <Gold.Chemscore.Lipo.Weighted>
-12.2491

> <Gold.Chemscore.Internal_Hbond.Weighted>
0.0000

> <Gold.Chemscore.DEClash.Weighted>
0.1155

> <Gold.Chemscore.DEInternal.Weighted>
0.3176

> <Gold.Chemscore.Rot.Weighted>
2.9461

> <Gold.Chemscore.Internal.Correction.Weighted>
   9.000000E+99

> <Gold.Protein.RotatedTorsions>
[ 6907 6896 6895 6894 ] final -107.94 input  -60.11 | X-H torsion
[ 7974 7965 7964 7962 ] final  166.08 input  175.53 | X-H torsion
[ 8008 7997 7996 7995 ] final -132.00 input   59.86 | X-H torsion
[ 10167 10162 10161 10158 ] final   -2.30 input  -65.29 | X-H torsion
[ 10718 10713 10712 10709 ] final -151.67 input   66.30 | X-H torsion
[ 10763 10752 10751 10750 ] final  168.39 input  -60.55 | X-H torsion
[ 11005 11000 10999 10996 ] final   58.99 input  -57.11 | X-H torsion

> <Gold.Protein.ActiveResidues>
 VAL166  LYS551  ARG553  GLY616  TRP617  ASP618  TYR619  PRO620  LYS621  CYS622 
 ASP623  PHE694  ASN695  SER759  ASP760  ASP761  ALA762  ILE779  LEU786  VAL792 
 PHE793  MET794  SER795  GLU796  ALA797  LYS798  CYS799  TRP800  GLU811  SER814 

> <Gold.Protein.RotatedAtoms>
  150.7473  133.9752  159.3558 H   0  0  0  0  0  0  0  0  0  0  0  0  # atno 6907 bound_to 6896
  151.7689  135.0789  160.0366 H   0  0  0  0  0  0  0  0  0  0  0  0  # atno 6908 bound_to 6896
  152.3353  133.5967  159.5874 H   0  0  0  0  0  0  0  0  0  0  0  0  # atno 6909 bound_to 6896
  144.7476  139.8564  143.6377 H   0  0  0  0  0  0  0  0  0  0  0  0  # atno 7974 bound_to 7965
  155.3216  140.0462  157.3039 H   0  0  0  0  0  0  0  0  0  0  0  0  # atno 8008 bound_to 7997
  154.5377  140.2277  155.8661 H   0  0  0  0  0  0  0  0  0  0  0  0  # atno 8009 bound_to 7997
  156.1850  140.3064  155.9228 H   0  0  0  0  0  0  0  0  0  0  0  0  # atno 8010 bound_to 7997
  140.6845  143.6673  150.8215 H   0  0  0  0  0  0  0  0  0  0  0  0  # atno 10167 bound_to 10162
  156.4623  130.8219  151.2450 H   0  0  0  0  0  0  0  0  0  0  0  0  # atno 10718 bound_to 10713
  154.3678  135.2753  155.2283 H   0  0  0  0  0  0  0  0  0  0  0  0  # atno 10763 bound_to 10752
  154.4444  135.5946  153.6153 H   0  0  0  0  0  0  0  0  0  0  0  0  # atno 10764 bound_to 10752
  152.9840  135.6026  154.3906 H   0  0  0  0  0  0  0  0  0  0  0  0  # atno 10765 bound_to 10752
  140.0337  134.5975  155.9473 H   0  0  0  0  0  0  0  0  0  0  0  0  # atno 11005 bound_to 11000
  146.1380  139.4430  143.0127 LP  0  0  0  0  0  0  0  0  0  0  0  0  # atno 17320 bound_to 7965
  145.7062  141.0120  143.1477 LP  0  0  0  0  0  0  0  0  0  0  0  0  # atno 17321 bound_to 7965
  140.0378  143.5377  152.2731 LP  0  0  0  0  0  0  0  0  0  0  0  0  # atno 17342 bound_to 10162
  139.6193  144.7626  151.2775 LP  0  0  0  0  0  0  0  0  0  0  0  0  # atno 17343 bound_to 10162
  157.7497  131.0103  150.3301 LP  0  0  0  0  0  0  0  0  0  0  0  0  # atno 17370 bound_to 10713
  156.3704  130.3862  149.7180 LP  0  0  0  0  0  0  0  0  0  0  0  0  # atno 17371 bound_to 10713
  141.1845  133.6553  156.5160 LP  0  0  0  0  0  0  0  0  0  0  0  0  # atno 17394 bound_to 11000
  140.4183  134.7210  157.4875 LP  0  0  0  0  0  0  0  0  0  0  0  0  # atno 17395 bound_to 11000

$$$$
