AV-unprocessed.smi:340|AV-procd|sdf|2381|dock9
  -GOLD-   2262022303D 1   1.00000     0.00000
 Structure written by MMmdl.
 34 35  0  0  0  0  0  0  0  0  2 V2000
  149.8445  134.7428  155.4216 C   0  0  0  0  0  0  0  0  0  0  0  0
  150.7946  135.1075  156.9512 S   0  0  0  0  0  0  0  0  0  0  0  0
  149.8016  135.5481  157.9443 O   0  0  0  0  0  0  0  0  0  0  0  0
  151.5515  133.8822  157.2549 O   0  0  0  0  0  0  0  0  0  0  0  0
  151.7409  136.3163  156.4325 N   0  5  0  0  0  0  0  0  0  0  0  0
  151.1514  137.3944  155.6595 C   0  0  0  0  0  0  0  0  0  0  0  0
  151.3867  138.7466  156.3169 C   0  0  0  0  0  0  0  0  0  0  0  0
  151.2334  139.9480  155.5892 C   0  0  0  0  0  0  0  0  0  0  0  0
  151.4620  141.1750  156.2427 C   0  0  0  0  0  0  0  0  0  0  0  0
  151.8339  141.1616  157.6027 C   0  0  0  0  0  0  0  0  0  0  0  0
  152.0570  142.3805  158.2583 N   0  0  0  0  0  0  0  0  0  0  0  0
  152.3653  142.2279  159.6749 C   0  0  0  0  0  0  0  0  0  0  0  0
  152.7141  143.5954  160.2873 C   0  0  0  0  0  0  0  0  0  0  0  0
  151.6456  144.5100  160.0574 O   0  0  0  0  0  0  0  0  0  0  0  0
  151.4008  144.7088  158.6678 C   0  0  0  0  0  0  0  0  0  0  0  0
  151.0139  143.3698  158.0179 C   0  0  0  0  0  0  0  0  0  0  0  0
  151.9842  140.0147  158.3070 N   0  0  0  0  0  0  0  0  0  0  0  0
  151.7640  138.8406  157.6762 C   0  0  0  0  0  0  0  0  0  0  0  0
  149.1444  133.9313  155.6173 H   0  0  0  0  0  0  0  0  0  0  0  0
  150.5311  134.4472  154.6289 H   0  0  0  0  0  0  0  0  0  0  0  0
  149.2940  135.6318  155.1151 H   0  0  0  0  0  0  0  0  0  0  0  0
  151.5578  137.4370  154.6485 H   0  0  0  0  0  0  0  0  0  0  0  0
  150.0761  137.2612  155.5362 H   0  0  0  0  0  0  0  0  0  0  0  0
  150.9441  139.9483  154.5470 H   0  0  0  0  0  0  0  0  0  0  0  0
  151.3496  142.1071  155.7084 H   0  0  0  0  0  0  0  0  0  0  0  0
  151.5085  141.7975  160.1955 H   0  0  0  0  0  0  0  0  0  0  0  0
  153.2001  141.5371  159.7997 H   0  0  0  0  0  0  0  0  0  0  0  0
  152.8733  143.4971  161.3611 H   0  0  0  0  0  0  0  0  0  0  0  0
  153.6395  143.9873  159.8623 H   0  0  0  0  0  0  0  0  0  0  0  0
  150.5945  145.4324  158.5479 H   0  0  0  0  0  0  0  0  0  0  0  0
  152.2848  145.1327  158.1884 H   0  0  0  0  0  0  0  0  0  0  0  0
  150.8689  143.5005  156.9448 H   0  0  0  0  0  0  0  0  0  0  0  0
  150.0672  143.0192  158.4317 H   0  0  0  0  0  0  0  0  0  0  0  0
  151.8956  137.9599  158.2899 H   0  0  0  0  0  0  0  0  0  0  0  0
  1  2  1  0  0  0  0
  1 19  1  0  0  0  0
  1 20  1  0  0  0  0
  1 21  1  0  0  0  0
  2  3  2  0  0  0  0
  2  4  2  0  0  0  0
  2  5  1  0  0  0  0
  5  6  1  0  0  0  0
  6  7  1  0  0  0  0
  6 22  1  0  0  0  0
  6 23  1  0  0  0  0
  7 18  1  0  0  0  0
  7  8  2  0  0  0  0
  8  9  1  0  0  0  0
  8 24  1  0  0  0  0
  9 10  2  0  0  0  0
  9 25  1  0  0  0  0
 10 11  1  0  0  0  0
 10 17  1  0  0  0  0
 11 16  1  0  0  0  0
 11 12  1  0  0  0  0
 12 13  1  0  0  0  0
 12 26  1  0  0  0  0
 12 27  1  0  0  0  0
 13 14  1  0  0  0  0
 13 28  1  0  0  0  0
 13 29  1  0  0  0  0
 14 15  1  0  0  0  0
 15 16  1  0  0  0  0
 15 30  1  0  0  0  0
 15 31  1  0  0  0  0
 16 32  1  0  0  0  0
 16 33  1  0  0  0  0
 17 18  2  0  0  0  0
 18 34  1  0  0  0  0
M  CHG  1   5  -1
M  END
> <s_m_source_file>
AV-unprocessed.smi

> <i_m_source_file_index>
340

> <i_lp_mmshare_version>
43012

> <i_f3d_flags>
0

> <s_epik_input>
W0NIM11TKD1PKSg9TylbTkhdW0NIMl1jMVtjSF1bY0hdYyhuW2NIXTEpTjJbQ0gyXVtDSDJdT1tDSDJdW0NIMl0y

> <s_epik_cmdline>
J2VwaWtfcHl0aG9uJywgJy1waCcsICc3LjAnLCAnLXRuJywgJzgnLCAnLW1hJywgJzIwMCcsICctbWV0YWxfYmluZGluZycsICctaW1hZScsICc8aW5maWxlLm1hZT4nLCAnLW9tYWUnLCAnPG91dGZpbGUubWFlPic=

> <r_lp_tautomer_probability>
1

> <r_epik_Ionization_Penalty>
5.97683

> <r_epik_Ionization_Penalty_Charging>
5.90424

> <r_epik_Ionization_Penalty_Neutral>
0.0725937

> <r_epik_State_Penalty>
5.9092

> <r_epik_Charging_Adjusted_Penalty>
11.8134

> <i_epik_Tot_Q>
-1

> <i_epik_Tot_abs_Q>
1

> <r_epik_Metal_State_Penalty>
1.87112

> <b_epik_Metal_Only>
1

> <s_lp_Force_Field>
OPLS_2005

> <r_lp_Energy>
14.5027

> <b_lp_Chiralities_Consistent>
1

> <s_lp_Variant>
AV-unprocessed.smi:340-2

> <Gold.Version>
5.8.1

> <Gold.Id.Protein>
6NUR|6NUR_protein|mol2

> <Gold.PLP.Fitness>
38.3116

> <Gold.PLP.PLP>
-30.7571

> <Gold.PLP.part.hbond>
-2.6937

> <Gold.PLP.part.metal>
0.0000

> <Gold.PLP.part.buried>
-4.7767

> <Gold.PLP.part.nonpolar>
-23.5646

> <Gold.PLP.part.repulsive>
0.0980

> <Gold.PLP.ligand.clash>
0.0000

> <Gold.PLP.ligand.torsion>
0.9568

> <Gold.PLP.Chemscore.Hbond>
2.8000

> <Gold.PLP.Chemscore.CHOScore>
0.0000

> <Gold.PLP.Chemscore.Metal>
0.0000

> <Gold.Chemscore.Hbonds>
donor molecule, donor type, donor heavy atom, donor atom, acceptor molecule, acceptor atom, score
      P1  H  6896  6907       L1     4  0.08
      P1  H  6896  6908       L1     3  0.56
      P1  H 10752 10764       L1     5  1.46

> <Gold.PLP.Chemscore.Internal.Correction>
1.0680

> <Gold.Rescore>
     Score         DG    S(hbond)    S(metal)    S(lipo)     H(rot)  DE(clash)    DE(int)     intcor
     14.13     -14.96       1.38        0.00      75.54       1.54       0.00       0.83       ----

> <Gold.Chemscore.Fitness>
14.1319

> <Gold.Chemscore.DG>
-14.9644

> <Gold.Chemscore.ZeroCoef>
-5.4800

> <Gold.Chemscore.Hbond>
1.3774

> <Gold.Chemscore.Metal>
0.0000

> <Gold.Chemscore.Lipo>
75.5408

> <Gold.Chemscore.Internal_Hbond>
0.0000

> <Gold.Chemscore.DEClash>
0.0000

> <Gold.Chemscore.DEInternal>
0.8325

> <Gold.Chemscore.Rot>
1.5448

> <Gold.Chemscore.Internal.Correction>
   9.000000E+99

> <Gold.Chemscore.Hbonds>
donor molecule, donor type, donor heavy atom, donor atom, acceptor molecule, acceptor atom, score
      P1  H  6896  6907       L1     4  0.09
      P1  H  6896  6908       L1     3  0.04
      P1  H 10752 10764       L1     5  0.15

> <Gold.Chemscore.Hbond.Weighted>
-4.6007

> <Gold.Chemscore.Metal.Weighted>
-0.0000

> <Gold.Chemscore.Lipo.Weighted>
-8.8383

> <Gold.Chemscore.Internal_Hbond.Weighted>
0.0000

> <Gold.Chemscore.DEClash.Weighted>
0.0000

> <Gold.Chemscore.DEInternal.Weighted>
0.8325

> <Gold.Chemscore.Rot.Weighted>
3.9546

> <Gold.Chemscore.Internal.Correction.Weighted>
   9.000000E+99

> <Gold.Protein.RotatedTorsions>
[ 6907 6896 6895 6894 ] final  160.08 input  -60.11 | X-H torsion
[ 7974 7965 7964 7962 ] final -140.43 input  175.53 | X-H torsion
[ 8008 7997 7996 7995 ] final   -3.91 input   59.86 | X-H torsion
[ 10167 10162 10161 10158 ] final  157.94 input  -65.29 | X-H torsion
[ 10718 10713 10712 10709 ] final   49.00 input   66.30 | X-H torsion
[ 10763 10752 10751 10750 ] final  -31.80 input  -60.55 | X-H torsion
[ 11005 11000 10999 10996 ] final -157.55 input  -57.11 | X-H torsion

> <Gold.Protein.ActiveResidues>
 VAL166  LYS551  ARG553  GLY616  TRP617  ASP618  TYR619  PRO620  LYS621  CYS622 
 ASP623  PHE694  ASN695  SER759  ASP760  ASP761  ALA762  ILE779  LEU786  VAL792 
 PHE793  MET794  SER795  GLU796  ALA797  LYS798  CYS799  TRP800  GLU811  SER814 

> <Gold.Protein.RotatedAtoms>
  151.9759  133.3741  159.4088 H   0  0  0  0  0  0  0  0  0  0  0  0  # atno 6907 bound_to 6896
  150.6942  134.4090  159.5162 H   0  0  0  0  0  0  0  0  0  0  0  0  # atno 6908 bound_to 6896
  152.1801  134.8761  160.0578 H   0  0  0  0  0  0  0  0  0  0  0  0  # atno 6909 bound_to 6896
  144.8598  140.6201  143.5336 H   0  0  0  0  0  0  0  0  0  0  0  0  # atno 7974 bound_to 7965
  154.6199  140.2497  155.7563 H   0  0  0  0  0  0  0  0  0  0  0  0  # atno 8008 bound_to 7997
  156.2420  140.2929  156.0421 H   0  0  0  0  0  0  0  0  0  0  0  0  # atno 8009 bound_to 7997
  155.1914  140.0391  157.2891 H   0  0  0  0  0  0  0  0  0  0  0  0  # atno 8010 bound_to 7997
  139.4825  144.4870  151.8362 H   0  0  0  0  0  0  0  0  0  0  0  0  # atno 10167 bound_to 10162
  157.4743  130.8275  149.8022 H   0  0  0  0  0  0  0  0  0  0  0  0  # atno 10718 bound_to 10713
  153.8034  135.6888  153.4852 H   0  0  0  0  0  0  0  0  0  0  0  0  # atno 10763 bound_to 10752
  153.1674  135.4556  154.9854 H   0  0  0  0  0  0  0  0  0  0  0  0  # atno 10764 bound_to 10752
  154.7997  135.3333  154.7520 H   0  0  0  0  0  0  0  0  0  0  0  0  # atno 10765 bound_to 10752
  140.6634  134.4325  157.5234 H   0  0  0  0  0  0  0  0  0  0  0  0  # atno 11005 bound_to 11000
  145.4335  139.1545  143.4009 LP  0  0  0  0  0  0  0  0  0  0  0  0  # atno 17320 bound_to 7965
  146.2851  140.4452  142.8761 LP  0  0  0  0  0  0  0  0  0  0  0  0  # atno 17321 bound_to 7965
  140.4351  144.2062  150.5889 LP  0  0  0  0  0  0  0  0  0  0  0  0  # atno 17342 bound_to 10162
  140.4740  143.2403  151.9049 LP  0  0  0  0  0  0  0  0  0  0  0  0  # atno 17343 bound_to 10162
  156.0089  130.3842  150.2334 LP  0  0  0  0  0  0  0  0  0  0  0  0  # atno 17370 bound_to 10713
  157.0518  131.0065  151.3251 LP  0  0  0  0  0  0  0  0  0  0  0  0  # atno 17371 bound_to 10713
  139.9005  134.8567  156.1915 LP  0  0  0  0  0  0  0  0  0  0  0  0  # atno 17394 bound_to 11000
  141.0448  133.6919  156.1663 LP  0  0  0  0  0  0  0  0  0  0  0  0  # atno 17395 bound_to 11000

$$$$
