AV-unprocessed.smi:2114|AV-procd|sdf|8619|dock2
  -GOLD-   2272011363D 1   1.00000     0.00000
 Structure written by MMmdl.
 47 48  0  0  0  0  0  0  0  0  1 V2000
  160.9105  134.9123  158.8533 C   0  0  0  0  0  0  0  0  0  0  0  0
  159.8150  134.9421  159.7506 O   0  0  0  0  0  0  0  0  0  0  0  0
  158.9295  136.0207  159.4956 C   0  0  0  0  0  0  0  0  0  0  0  0
  157.7506  135.9711  160.4830 C   0  0  2  0  0  0  0  0  0  0  0  0
  156.9596  134.6625  160.3489 C   0  0  0  0  0  0  0  0  0  0  0  0
  156.8476  137.0963  160.2532 N   0  0  0  0  0  0  0  0  0  0  0  0
  156.5614  138.0660  161.1381 C   0  0  0  0  0  0  0  0  0  0  0  0
  157.0130  138.1017  162.2826 O   0  0  0  0  0  0  0  0  0  0  0  0
  155.5830  139.1021  160.6658 C   0  0  0  0  0  0  0  0  0  0  0  0
  155.1824  140.1761  161.4901 C   0  0  0  0  0  0  0  0  0  0  0  0
  154.2443  141.1042  160.9992 C   0  0  0  0  0  0  0  0  0  0  0  0
  153.7210  140.9339  159.6960 C   0  0  0  0  0  0  0  0  0  0  0  0
  152.7825  141.8554  159.1850 N   0  0  0  0  0  0  0  0  0  0  0  0
  151.4557  141.3129  158.9070 C   0  0  0  0  0  0  0  0  0  0  0  0
  150.6249  142.2933  158.0560 C   0  0  2  0  0  0  0  0  0  0  0  0
  151.0474  142.3283  156.5763 C   0  0  0  0  0  0  0  0  0  0  0  0
  150.6311  143.5931  158.6512 O   0  0  0  0  0  0  0  0  0  0  0  0
  151.9291  144.1437  158.8722 C   0  0  1  0  0  0  0  0  0  0  0  0
  151.7561  145.5246  159.5133 C   0  0  0  0  0  0  0  0  0  0  0  0
  152.7464  143.1944  159.7660 C   0  0  0  0  0  0  0  0  0  0  0  0
  154.0931  139.8920  158.9130 N   0  0  0  0  0  0  0  0  0  0  0  0
  154.9930  139.0047  159.3877 C   0  0  0  0  0  0  0  0  0  0  0  0
  161.5569  134.0682  159.0935 H   0  0  0  0  0  0  0  0  0  0  0  0
  161.5055  135.8236  158.9275 H   0  0  0  0  0  0  0  0  0  0  0  0
  160.5733  134.7964  157.8226 H   0  0  0  0  0  0  0  0  0  0  0  0
  159.4554  136.9735  159.5784 H   0  0  0  0  0  0  0  0  0  0  0  0
  158.5583  135.9425  158.4725 H   0  0  0  0  0  0  0  0  0  0  0  0
  158.1443  136.0114  161.5003 H   0  0  0  0  0  0  0  0  0  0  0  0
  157.5962  133.7982  160.5400 H   0  0  0  0  0  0  0  0  0  0  0  0
  156.5400  134.5514  159.3484 H   0  0  0  0  0  0  0  0  0  0  0  0
  156.1357  134.6268  161.0623 H   0  0  0  0  0  0  0  0  0  0  0  0
  156.4071  137.1436  159.3463 H   0  0  0  0  0  0  0  0  0  0  0  0
  155.5768  140.2939  162.4889 H   0  0  0  0  0  0  0  0  0  0  0  0
  153.9255  141.9210  161.6291 H   0  0  0  0  0  0  0  0  0  0  0  0
  151.5043  140.3481  158.4038 H   0  0  0  0  0  0  0  0  0  0  0  0
  150.9533  141.1411  159.8599 H   0  0  0  0  0  0  0  0  0  0  0  0
  149.5888  141.9548  158.0790 H   0  0  0  0  0  0  0  0  0  0  0  0
  150.9059  141.3520  156.1123 H   0  0  0  0  0  0  0  0  0  0  0  0
  152.0966  142.5951  156.4512 H   0  0  0  0  0  0  0  0  0  0  0  0
  150.4491  143.0483  156.0178 H   0  0  0  0  0  0  0  0  0  0  0  0
  152.4390  144.2771  157.9179 H   0  0  0  0  0  0  0  0  0  0  0  0
  152.7216  145.9976  159.6941 H   0  0  0  0  0  0  0  0  0  0  0  0
  151.2338  145.4536  160.4678 H   0  0  0  0  0  0  0  0  0  0  0  0
  151.1787  146.1851  158.8658 H   0  0  0  0  0  0  0  0  0  0  0  0
  152.3064  143.1409  160.7629 H   0  0  0  0  0  0  0  0  0  0  0  0
  153.7588  143.5856  159.8762 H   0  0  0  0  0  0  0  0  0  0  0  0
  155.2493  138.1966  158.7182 H   0  0  0  0  0  0  0  0  0  0  0  0
  1  2  1  0  0  0  0
  1 23  1  0  0  0  0
  1 24  1  0  0  0  0
  1 25  1  0  0  0  0
  2  3  1  0  0  0  0
  3  4  1  0  0  0  0
  3 26  1  0  0  0  0
  3 27  1  0  0  0  0
  4  5  1  0  0  0  0
  4  6  1  0  0  0  0
  4 28  1  0  0  0  0
  5 29  1  0  0  0  0
  5 30  1  0  0  0  0
  5 31  1  0  0  0  0
  6  7  1  0  0  0  0
  6 32  1  0  0  0  0
  7  8  2  0  0  0  0
  7  9  1  0  0  0  0
  9 22  1  0  0  0  0
  9 10  2  0  0  0  0
 10 11  1  0  0  0  0
 10 33  1  0  0  0  0
 11 12  2  0  0  0  0
 11 34  1  0  0  0  0
 12 13  1  0  0  0  0
 12 21  1  0  0  0  0
 13 20  1  0  0  0  0
 13 14  1  0  0  0  0
 14 15  1  0  0  0  0
 14 35  1  0  0  0  0
 14 36  1  0  0  0  0
 15 16  1  0  0  0  0
 15 17  1  0  0  0  0
 15 37  1  0  0  0  0
 16 38  1  0  0  0  0
 16 39  1  0  0  0  0
 16 40  1  0  0  0  0
 17 18  1  0  0  0  0
 18 19  1  0  0  0  0
 18 20  1  0  0  0  0
 18 41  1  0  0  0  0
 19 42  1  0  0  0  0
 19 43  1  0  0  0  0
 19 44  1  0  0  0  0
 20 45  1  0  0  0  0
 20 46  1  0  0  0  0
 21 22  2  0  0  0  0
 22 47  1  0  0  0  0
M  END
> <s_m_source_file>
AV-unprocessed.smi

> <i_m_source_file_index>
2114

> <i_lp_mmshare_version>
43012

> <i_f3d_flags>
0

> <s_epik_input>
W0NIM11PW0NIMl1bQ0BIXShbQ0gzXSlbTkhdQyg9TyljMVtjSF1bY0hdYyhuW2NIXTEpTjJbQ0gyXVtDQEBIXShbQ0gzXSlPW0NAQEhdKFtDSDNdKVtDSDJdMg==

> <s_epik_cmdline>
J2VwaWtfcHl0aG9uJywgJy1waCcsICc3LjAnLCAnLXRuJywgJzgnLCAnLW1hJywgJzIwMCcsICctbWV0YWxfYmluZGluZycsICctaW1hZScsICc8aW5maWxlLm1hZT4nLCAnLW9tYWUnLCAnPG91dGZpbGUubWFlPic=

> <r_lp_tautomer_probability>
1

> <r_epik_Ionization_Penalty>
1.92915e-05

> <r_epik_Ionization_Penalty_Charging>
0

> <r_epik_Ionization_Penalty_Neutral>
1.92915e-05

> <r_epik_State_Penalty>
-0

> <r_epik_Charging_Adjusted_Penalty>
0

> <i_epik_Tot_Q>
0

> <i_epik_Tot_abs_Q>
0

> <r_epik_Metal_State_Penalty>
-0

> <b_epik_Metal_Only>
0

> <s_lp_Force_Field>
OPLS_2005

> <r_lp_Energy>
21.9464

> <b_lp_Chiralities_Consistent>
1

> <s_lp_Variant>
AV-unprocessed.smi:2114-3

> <Gold.Version>
5.8.1

> <Gold.Id.Protein>
6NUR|6NUR_protein|mol2

> <Gold.PLP.Fitness>
35.0427

> <Gold.PLP.PLP>
-32.5092

> <Gold.PLP.part.hbond>
-1.0000

> <Gold.PLP.part.metal>
0.0000

> <Gold.PLP.part.buried>
-3.5871

> <Gold.PLP.part.nonpolar>
-27.7997

> <Gold.PLP.part.repulsive>
0.1551

> <Gold.PLP.ligand.clash>
0.0000

> <Gold.PLP.ligand.torsion>
0.3430

> <Gold.PLP.Chemscore.Hbond>
0.9500

> <Gold.PLP.Chemscore.CHOScore>
0.0000

> <Gold.PLP.Chemscore.Metal>
0.0000

> <Gold.Chemscore.Hbonds>
donor molecule, donor type, donor heavy atom, donor atom, acceptor molecule, acceptor atom, score
      P1  H  7997  8008       L1    21  0.95

> <Gold.PLP.Chemscore.Internal.Correction>
0.3694

> <Gold.Rescore>
     Score         DG    S(hbond)    S(metal)    S(lipo)     H(rot)  DE(clash)    DE(int)     intcor
     13.73     -14.19       0.64        0.00      89.48       1.52       0.14       0.33       ----

> <Gold.Chemscore.Fitness>
13.7265

> <Gold.Chemscore.DG>
-14.1929

> <Gold.Chemscore.ZeroCoef>
-5.4800

> <Gold.Chemscore.Hbond>
0.6412

> <Gold.Chemscore.Metal>
0.0000

> <Gold.Chemscore.Lipo>
89.4809

> <Gold.Chemscore.Internal_Hbond>
0.0000

> <Gold.Chemscore.DEClash>
0.1359

> <Gold.Chemscore.DEInternal>
0.3304

> <Gold.Chemscore.Rot>
1.5226

> <Gold.Chemscore.Internal.Correction>
   9.000000E+99

> <Gold.Chemscore.Hbonds>
donor molecule, donor type, donor heavy atom, donor atom, acceptor molecule, acceptor atom, score
      P1  H  7997  8008       L1    21  0.20

> <Gold.Chemscore.Hbond.Weighted>
-2.1416

> <Gold.Chemscore.Metal.Weighted>
-0.0000

> <Gold.Chemscore.Lipo.Weighted>
-10.4693

> <Gold.Chemscore.Internal_Hbond.Weighted>
0.0000

> <Gold.Chemscore.DEClash.Weighted>
0.1359

> <Gold.Chemscore.DEInternal.Weighted>
0.3304

> <Gold.Chemscore.Rot.Weighted>
3.8980

> <Gold.Chemscore.Internal.Correction.Weighted>
   9.000000E+99

> <Gold.Protein.RotatedTorsions>
[ 6907 6896 6895 6894 ] final -125.00 input  -60.11 | X-H torsion
[ 7974 7965 7964 7962 ] final   90.07 input  175.53 | X-H torsion
[ 8008 7997 7996 7995 ] final  -95.85 input   59.86 | X-H torsion
[ 10167 10162 10161 10158 ] final -116.20 input  -65.29 | X-H torsion
[ 10718 10713 10712 10709 ] final   49.97 input   66.30 | X-H torsion
[ 10763 10752 10751 10750 ] final   29.80 input  -60.55 | X-H torsion
[ 11005 11000 10999 10996 ] final  135.12 input  -57.11 | X-H torsion

> <Gold.Protein.ActiveResidues>
 VAL166  LYS551  ARG553  GLY616  TRP617  ASP618  TYR619  PRO620  LYS621  CYS622 
 ASP623  PHE694  ASN695  SER759  ASP760  ASP761  ALA762  ILE779  LEU786  VAL792 
 PHE793  MET794  SER795  GLU796  ALA797  LYS798  CYS799  TRP800  GLU811  SER814 

> <Gold.Protein.RotatedAtoms>
  150.8823  133.7355  159.2928 H   0  0  0  0  0  0  0  0  0  0  0  0  # atno 6907 bound_to 6896
  151.4932  135.1057  159.9818 H   0  0  0  0  0  0  0  0  0  0  0  0  # atno 6908 bound_to 6896
  152.4768  133.8111  159.7059 H   0  0  0  0  0  0  0  0  0  0  0  0  # atno 6909 bound_to 6896
  145.5240  139.2280  143.2656 H   0  0  0  0  0  0  0  0  0  0  0  0  # atno 7974 bound_to 7965
  154.7668  140.0476  157.1019 H   0  0  0  0  0  0  0  0  0  0  0  0  # atno 8008 bound_to 7997
  154.9870  140.3108  155.4903 H   0  0  0  0  0  0  0  0  0  0  0  0  # atno 8009 bound_to 7997
  156.2914  140.2225  156.4972 H   0  0  0  0  0  0  0  0  0  0  0  0  # atno 8010 bound_to 7997
  140.0818  143.4781  152.1921 H   0  0  0  0  0  0  0  0  0  0  0  0  # atno 10167 bound_to 10162
  157.4839  130.8332  149.8124 H   0  0  0  0  0  0  0  0  0  0  0  0  # atno 10718 bound_to 10713
  153.0409  135.6480  154.0946 H   0  0  0  0  0  0  0  0  0  0  0  0  # atno 10763 bound_to 10752
  154.0652  135.2885  155.3319 H   0  0  0  0  0  0  0  0  0  0  0  0  # atno 10764 bound_to 10752
  154.6631  135.5384  153.8107 H   0  0  0  0  0  0  0  0  0  0  0  0  # atno 10765 bound_to 10752
  139.9959  134.9497  156.9963 H   0  0  0  0  0  0  0  0  0  0  0  0  # atno 11005 bound_to 11000
  146.2088  140.6053  142.9069 LP  0  0  0  0  0  0  0  0  0  0  0  0  # atno 17320 bound_to 7965
  144.7661  140.5533  143.6702 LP  0  0  0  0  0  0  0  0  0  0  0  0  # atno 17321 bound_to 7965
  139.5775  144.7495  151.3726 LP  0  0  0  0  0  0  0  0  0  0  0  0  # atno 17342 bound_to 10162
  140.7074  143.7479  150.7506 LP  0  0  0  0  0  0  0  0  0  0  0  0  # atno 17343 bound_to 10162
  156.0136  130.3823  150.2183 LP  0  0  0  0  0  0  0  0  0  0  0  0  # atno 17370 bound_to 10713
  157.0370  131.0024  151.3295 LP  0  0  0  0  0  0  0  0  0  0  0  0  # atno 17371 bound_to 10713
  140.4819  134.1281  155.7218 LP  0  0  0  0  0  0  0  0  0  0  0  0  # atno 17394 bound_to 11000
  141.1604  133.8804  157.1864 LP  0  0  0  0  0  0  0  0  0  0  0  0  # atno 17395 bound_to 11000

$$$$
