AV-unprocessed.smi:3153|AV-procd|sdf|12020|dock2
  -GOLD-   2272017433D 1   1.00000     0.00000
 Structure written by MMmdl.
 37 38  0  0  0  0  0  0  0  0  1 V2000
  148.8370  142.5329  154.1226 O   0  0  0  0  0  0  0  0  0  0  0  0
  148.8382  141.4169  154.9953 C   0  0  0  0  0  0  0  0  0  0  0  0
  150.2549  141.3175  155.6062 C   0  0  0  0  0  0  0  0  0  0  0  0
  150.7092  142.5795  156.1881 N   0  0  0  0  0  0  0  0  0  0  0  0
  150.8469  142.5311  157.6408 C   0  0  0  0  0  0  0  0  0  0  0  0
  151.7977  143.6251  158.1529 C   0  0  0  0  0  0  0  0  0  0  0  0
  152.1057  143.4758  159.5640 N   0  0  0  0  0  0  0  0  0  0  0  0
  152.7570  142.4361  160.1940 C   0  0  0  0  0  0  0  0  0  0  0  0
  152.8151  142.7397  161.5242 C   0  0  0  0  0  0  0  0  0  0  0  0
  152.1608  144.0004  161.6120 C   0  0  0  0  0  0  0  0  0  0  0  0
  151.7356  144.4374  160.4374 N   0  0  0  0  0  0  0  0  0  0  0  0
  147.8138  141.7033  156.1193 C   0  0  0  0  0  0  0  0  0  0  0  0
  146.3579  141.7254  155.6200 C   0  0  0  0  0  0  0  0  0  0  0  0
  146.0003  140.4264  154.8854 C   0  0  0  0  0  0  0  0  0  0  0  0
  146.9755  140.1671  153.7287 C   0  0  0  0  0  0  0  0  0  0  0  0
  148.4348  140.1379  154.2177 C   0  0  0  0  0  0  0  0  0  0  0  0
  148.8265  143.3202  154.6448 H   0  0  0  0  0  0  0  0  0  0  0  0
  150.2707  140.5326  156.3641 H   0  0  0  0  0  0  0  0  0  0  0  0
  150.9581  141.0070  154.8324 H   0  0  0  0  0  0  0  0  0  0  0  0
  150.0617  143.3195  155.9366 H   0  0  0  0  0  0  0  0  0  0  0  0
  149.8711  142.6413  158.1157 H   0  0  0  0  0  0  0  0  0  0  0  0
  151.2282  141.5545  157.9410 H   0  0  0  0  0  0  0  0  0  0  0  0
  152.7339  143.5950  157.5939 H   0  0  0  0  0  0  0  0  0  0  0  0
  151.3674  144.6139  157.9872 H   0  0  0  0  0  0  0  0  0  0  0  0
  153.1231  141.5784  159.6492 H   0  0  0  0  0  0  0  0  0  0  0  0
  153.2573  142.1510  162.3142 H   0  0  0  0  0  0  0  0  0  0  0  0
  151.9831  144.6066  162.4882 H   0  0  0  0  0  0  0  0  0  0  0  0
  147.9023  140.9357  156.8896 H   0  0  0  0  0  0  0  0  0  0  0  0
  148.0464  142.6489  156.6111 H   0  0  0  0  0  0  0  0  0  0  0  0
  145.6807  141.8725  156.4617 H   0  0  0  0  0  0  0  0  0  0  0  0
  146.2077  142.5761  154.9541 H   0  0  0  0  0  0  0  0  0  0  0  0
  146.0274  139.5890  155.5836 H   0  0  0  0  0  0  0  0  0  0  0  0
  144.9793  140.4817  154.5066 H   0  0  0  0  0  0  0  0  0  0  0  0
  146.7298  139.2225  153.2432 H   0  0  0  0  0  0  0  0  0  0  0  0
  146.8564  140.9412  152.9697 H   0  0  0  0  0  0  0  0  0  0  0  0
  149.0928  139.9825  153.3621 H   0  0  0  0  0  0  0  0  0  0  0  0
  148.5700  139.2699  154.8643 H   0  0  0  0  0  0  0  0  0  0  0  0
  1  2  1  0  0  0  0
  1 17  1  0  0  0  0
  2 16  1  0  0  0  0
  2  3  1  0  0  0  0
  2 12  1  0  0  0  0
  3  4  1  0  0  0  0
  3 18  1  0  0  0  0
  3 19  1  0  0  0  0
  4  5  1  0  0  0  0
  4 20  1  0  0  0  0
  5  6  1  0  0  0  0
  5 21  1  0  0  0  0
  5 22  1  0  0  0  0
  6  7  1  0  0  0  0
  6 23  1  0  0  0  0
  6 24  1  0  0  0  0
  7 11  1  0  0  0  0
  7  8  1  0  0  0  0
  8  9  2  0  0  0  0
  8 25  1  0  0  0  0
  9 10  1  0  0  0  0
  9 26  1  0  0  0  0
 10 11  2  0  0  0  0
 10 27  1  0  0  0  0
 12 13  1  0  0  0  0
 12 28  1  0  0  0  0
 12 29  1  0  0  0  0
 13 14  1  0  0  0  0
 13 30  1  0  0  0  0
 13 31  1  0  0  0  0
 14 15  1  0  0  0  0
 14 32  1  0  0  0  0
 14 33  1  0  0  0  0
 15 16  1  0  0  0  0
 15 34  1  0  0  0  0
 15 35  1  0  0  0  0
 16 36  1  0  0  0  0
 16 37  1  0  0  0  0
M  END
> <s_m_source_file>
AV-unprocessed.smi

> <i_m_source_file_index>
3153

> <i_lp_mmshare_version>
43012

> <i_f3d_flags>
0

> <s_epik_input>
W0NIMl0xW0NIMl1bQ0gyXVtDSDJdW0NIMl1DMShbT0hdKVtDSDJdW05IXVtDSDJdW0NIMl1uMltjSF1bY0hdW2NIXW4y

> <s_epik_cmdline>
J2VwaWtfcHl0aG9uJywgJy1waCcsICc3LjAnLCAnLXRuJywgJzgnLCAnLW1hJywgJzIwMCcsICctbWV0YWxfYmluZGluZycsICctaW1hZScsICc8aW5maWxlLm1hZT4nLCAnLW9tYWUnLCAnPG91dGZpbGUubWFlPic=

> <r_lp_tautomer_probability>
1

> <r_epik_Ionization_Penalty>
1.91265

> <r_epik_Ionization_Penalty_Charging>
0

> <r_epik_Ionization_Penalty_Neutral>
1.91265

> <r_epik_State_Penalty>
2.0334

> <r_epik_Charging_Adjusted_Penalty>
2.0334

> <i_epik_Tot_Q>
0

> <i_epik_Tot_abs_Q>
0

> <r_epik_Metal_State_Penalty>
2.03214

> <b_epik_Metal_Only>
0

> <s_lp_Force_Field>
OPLS_2005

> <r_lp_Energy>
22.2281

> <b_lp_Chiralities_Consistent>
1

> <s_lp_Variant>
AV-unprocessed.smi:3153-2

> <Gold.Version>
5.8.1

> <Gold.Id.Protein>
6NUR|6NUR_protein|mol2

> <Gold.PLP.Fitness>
43.6278

> <Gold.PLP.PLP>
-38.2604

> <Gold.PLP.part.hbond>
-3.1983

> <Gold.PLP.part.metal>
0.0000

> <Gold.PLP.part.buried>
-3.6207

> <Gold.PLP.part.nonpolar>
-31.1196

> <Gold.PLP.part.repulsive>
0.1021

> <Gold.PLP.ligand.clash>
0.0000

> <Gold.PLP.ligand.torsion>
0.5358

> <Gold.PLP.Chemscore.Hbond>
2.1248

> <Gold.PLP.Chemscore.CHOScore>
0.0000

> <Gold.PLP.Chemscore.Metal>
0.0000

> <Gold.Chemscore.Hbonds>
donor molecule, donor type, donor heavy atom, donor atom, acceptor molecule, acceptor atom, score
      L1  H     1    17       P1  8028  1.00
      L1  H     4    20       P1  8028  1.00
      P1  H  8011  8017       L1     1  0.11

> <Gold.PLP.Chemscore.Internal.Correction>
0.0646

> <Gold.Rescore>
     Score         DG    S(hbond)    S(metal)    S(lipo)     H(rot)  DE(clash)    DE(int)     intcor
     17.54     -18.14       2.20        0.00      93.06       2.18       0.06       0.54       ----

> <Gold.Chemscore.Fitness>
17.5403

> <Gold.Chemscore.DG>
-18.1362

> <Gold.Chemscore.ZeroCoef>
-5.4800

> <Gold.Chemscore.Hbond>
2.1971

> <Gold.Chemscore.Metal>
0.0000

> <Gold.Chemscore.Lipo>
93.0561

> <Gold.Chemscore.Internal_Hbond>
0.0000

> <Gold.Chemscore.DEClash>
0.0555

> <Gold.Chemscore.DEInternal>
0.5404

> <Gold.Chemscore.Rot>
2.1756

> <Gold.Chemscore.Internal.Correction>
   9.000000E+99

> <Gold.Chemscore.Hbonds>
donor molecule, donor type, donor heavy atom, donor atom, acceptor molecule, acceptor atom, score
      L1  H     1    17       P1  8028  1.00
      L1  H     4    20       P1  8028  1.00
      P1  H  8011  8017       L1     1  0.12

> <Gold.Chemscore.Hbond.Weighted>
-7.3382

> <Gold.Chemscore.Metal.Weighted>
-0.0000

> <Gold.Chemscore.Lipo.Weighted>
-10.8876

> <Gold.Chemscore.Internal_Hbond.Weighted>
0.0000

> <Gold.Chemscore.DEClash.Weighted>
0.0555

> <Gold.Chemscore.DEInternal.Weighted>
0.5404

> <Gold.Chemscore.Rot.Weighted>
5.5696

> <Gold.Chemscore.Internal.Correction.Weighted>
   9.000000E+99

> <Gold.Protein.RotatedTorsions>
[ 6907 6896 6895 6894 ] final  -53.36 input  -60.11 | X-H torsion
[ 7974 7965 7964 7962 ] final -107.68 input  175.53 | X-H torsion
[ 8008 7997 7996 7995 ] final   68.60 input   59.86 | X-H torsion
[ 10167 10162 10161 10158 ] final   50.60 input  -65.29 | X-H torsion
[ 10718 10713 10712 10709 ] final  116.39 input   66.30 | X-H torsion
[ 10763 10752 10751 10750 ] final   -3.73 input  -60.55 | X-H torsion
[ 11005 11000 10999 10996 ] final  -22.36 input  -57.11 | X-H torsion

> <Gold.Protein.ActiveResidues>
 VAL166  LYS551  ARG553  GLY616  TRP617  ASP618  TYR619  PRO620  LYS621  CYS622 
 ASP623  PHE694  ASN695  SER759  ASP760  ASP761  ALA762  ILE779  LEU786  VAL792 
 PHE793  MET794  SER795  GLU796  ALA797  LYS798  CYS799  TRP800  GLU811  SER814 

> <Gold.Protein.RotatedAtoms>
  150.8434  134.7734  159.6950 H   0  0  0  0  0  0  0  0  0  0  0  0  # atno 6907 bound_to 6896
  152.4516  134.5377  159.9839 H   0  0  0  0  0  0  0  0  0  0  0  0  # atno 6908 bound_to 6896
  151.5512  133.3379  159.2989 H   0  0  0  0  0  0  0  0  0  0  0  0  # atno 6909 bound_to 6896
  145.2023  140.9062  143.3362 H   0  0  0  0  0  0  0  0  0  0  0  0  # atno 7974 bound_to 7965
  155.7108  140.3494  155.4973 H   0  0  0  0  0  0  0  0  0  0  0  0  # atno 8008 bound_to 7997
  155.9357  140.1092  157.1118 H   0  0  0  0  0  0  0  0  0  0  0  0  # atno 8009 bound_to 7997
  154.4093  140.1222  156.4848 H   0  0  0  0  0  0  0  0  0  0  0  0  # atno 8010 bound_to 7997
  140.2707  144.3268  150.6291 H   0  0  0  0  0  0  0  0  0  0  0  0  # atno 10167 bound_to 10162
  157.6163  131.1025  150.7466 H   0  0  0  0  0  0  0  0  0  0  0  0  # atno 10718 bound_to 10713
  153.3753  135.6996  153.6607 H   0  0  0  0  0  0  0  0  0  0  0  0  # atno 10763 bound_to 10752
  153.5240  135.3606  155.2646 H   0  0  0  0  0  0  0  0  0  0  0  0  # atno 10764 bound_to 10752
  154.8686  135.4164  154.3039 H   0  0  0  0  0  0  0  0  0  0  0  0  # atno 10765 bound_to 10752
  140.8649  133.7761  156.0118 H   0  0  0  0  0  0  0  0  0  0  0  0  # atno 11005 bound_to 11000
  144.9935  139.3666  143.6203 LP  0  0  0  0  0  0  0  0  0  0  0  0  # atno 17320 bound_to 7965
  146.3415  139.9128  142.8778 LP  0  0  0  0  0  0  0  0  0  0  0  0  # atno 17321 bound_to 7965
  140.5891  143.2168  151.7286 LP  0  0  0  0  0  0  0  0  0  0  0  0  # atno 17342 bound_to 10162
  139.4989  144.3965  152.0225 LP  0  0  0  0  0  0  0  0  0  0  0  0  # atno 17343 bound_to 10162
  156.7832  130.4866  149.5397 LP  0  0  0  0  0  0  0  0  0  0  0  0  # atno 17370 bound_to 10713
  156.1287  130.6162  151.0301 LP  0  0  0  0  0  0  0  0  0  0  0  0  # atno 17371 bound_to 10713
  140.8640  134.2806  157.5221 LP  0  0  0  0  0  0  0  0  0  0  0  0  # atno 17394 bound_to 11000
  139.8709  134.9533  156.4140 LP  0  0  0  0  0  0  0  0  0  0  0  0  # atno 17395 bound_to 11000

$$$$
