AV-unprocessed.smi:1957|AV-procd|sdf|7904|dock6
  -GOLD-   2272010 63D 1   1.00000     0.00000
 Structure written by MMmdl.
 42 43  0  0  0  0  0  0  0  0  1 V2000
  154.3352  136.2684  162.2627 C   0  0  0  0  0  0  0  0  0  0  0  0
  154.3276  136.9744  161.0349 O   0  0  0  0  0  0  0  0  0  0  0  0
  153.9401  138.3303  161.1889 C   0  0  0  0  0  0  0  0  0  0  0  0
  153.9028  139.0101  159.8107 C   0  0  0  0  0  0  0  0  0  0  0  0
  153.4030  140.3868  159.8949 N   0  0  0  0  0  0  0  0  0  0  0  0
  152.3639  140.6615  159.0225 N   0  0  0  0  0  0  0  0  0  0  0  0
  151.8203  141.8354  159.0062 C   0  0  0  0  0  0  0  0  0  0  0  0
  150.6962  142.1659  158.0876 C   0  0  0  0  0  0  0  0  0  0  0  0
  150.1523  143.2716  158.0943 O   0  0  0  0  0  0  0  0  0  0  0  0
  150.3232  141.1728  157.2602 N   0  0  0  0  0  0  0  0  0  0  0  0
  149.2688  141.2435  156.2495 C   0  0  2  0  0  0  0  0  0  0  0  0
  147.9558  140.6144  156.7841 C   0  0  0  0  0  0  0  0  0  0  0  0
  146.9868  140.0566  155.7207 C   0  0  0  0  0  0  0  0  0  0  0  0
  146.5787  141.0446  154.6090 C   0  0  0  0  0  0  0  0  0  0  0  0
  147.7283  141.7225  153.8263 C   0  0  0  0  0  0  0  0  0  0  0  0
  148.9761  140.9604  153.8112 N   0  0  0  0  0  0  0  0  0  0  0  0
  149.7493  140.7159  154.8832 C   0  0  0  0  0  0  0  0  0  0  0  0
  150.7958  140.0761  154.7867 O   0  0  0  0  0  0  0  0  0  0  0  0
  152.2912  142.8857  159.8934 C   0  0  0  0  0  0  0  0  0  0  0  0
  153.3053  142.6026  160.7401 C   0  0  0  0  0  0  0  0  0  0  0  0
  153.9320  141.2803  160.7841 C   0  0  0  0  0  0  0  0  0  0  0  0
  154.8490  140.9953  161.5539 O   0  0  0  0  0  0  0  0  0  0  0  0
  154.6459  135.2381  162.0898 H   0  0  0  0  0  0  0  0  0  0  0  0
  153.3417  136.2495  162.7126 H   0  0  0  0  0  0  0  0  0  0  0  0
  155.0329  136.7162  162.9714 H   0  0  0  0  0  0  0  0  0  0  0  0
  152.9674  138.3977  161.6790 H   0  0  0  0  0  0  0  0  0  0  0  0
  154.6603  138.8434  161.8276 H   0  0  0  0  0  0  0  0  0  0  0  0
  154.9013  139.0027  159.3701 H   0  0  0  0  0  0  0  0  0  0  0  0
  153.2839  138.4225  159.1302 H   0  0  0  0  0  0  0  0  0  0  0  0
  150.8266  140.2987  157.3203 H   0  0  0  0  0  0  0  0  0  0  0  0
  149.0796  142.3060  156.0907 H   0  0  0  0  0  0  0  0  0  0  0  0
  148.1985  139.7963  157.4637 H   0  0  0  0  0  0  0  0  0  0  0  0
  147.4335  141.3537  157.3924 H   0  0  0  0  0  0  0  0  0  0  0  0
  147.4218  139.1648  155.2676 H   0  0  0  0  0  0  0  0  0  0  0  0
  146.0849  139.7048  156.2224 H   0  0  0  0  0  0  0  0  0  0  0  0
  145.9554  140.4994  153.8993 H   0  0  0  0  0  0  0  0  0  0  0  0
  145.9338  141.8180  155.0273 H   0  0  0  0  0  0  0  0  0  0  0  0
  147.4161  141.8914  152.7954 H   0  0  0  0  0  0  0  0  0  0  0  0
  147.9216  142.7159  154.2325 H   0  0  0  0  0  0  0  0  0  0  0  0
  149.2833  140.6041  152.9178 H   0  0  0  0  0  0  0  0  0  0  0  0
  151.8466  143.8703  159.8824 H   0  0  0  0  0  0  0  0  0  0  0  0
  153.6654  143.3734  161.4057 H   0  0  0  0  0  0  0  0  0  0  0  0
  1  2  1  0  0  0  0
  1 23  1  0  0  0  0
  1 24  1  0  0  0  0
  1 25  1  0  0  0  0
  2  3  1  0  0  0  0
  3  4  1  0  0  0  0
  3 26  1  0  0  0  0
  3 27  1  0  0  0  0
  4  5  1  0  0  0  0
  4 28  1  0  0  0  0
  4 29  1  0  0  0  0
  5 21  1  0  0  0  0
  5  6  1  0  0  0  0
  6  7  2  0  0  0  0
  7  8  1  0  0  0  0
  7 19  1  0  0  0  0
  8  9  2  0  0  0  0
  8 10  1  0  0  0  0
 10 11  1  0  0  0  0
 10 30  1  0  0  0  0
 11 17  1  0  0  0  0
 11 12  1  0  0  0  0
 11 31  1  0  0  0  0
 12 13  1  0  0  0  0
 12 32  1  0  0  0  0
 12 33  1  0  0  0  0
 13 14  1  0  0  0  0
 13 34  1  0  0  0  0
 13 35  1  0  0  0  0
 14 15  1  0  0  0  0
 14 36  1  0  0  0  0
 14 37  1  0  0  0  0
 15 16  1  0  0  0  0
 15 38  1  0  0  0  0
 15 39  1  0  0  0  0
 16 17  1  0  0  0  0
 16 40  1  0  0  0  0
 17 18  2  0  0  0  0
 19 20  2  0  0  0  0
 19 41  1  0  0  0  0
 20 21  1  0  0  0  0
 20 42  1  0  0  0  0
 21 22  2  0  0  0  0
M  END
> <s_m_source_file>
AV-unprocessed.smi

> <i_m_source_file_index>
1957

> <i_lp_mmshare_version>
43012

> <i_f3d_flags>
0

> <s_epik_input>
W0NIM11PW0NIMl1bQ0gyXW4xbmMoW2NIXVtjSF1jMT1PKUMoPU8pW05IXVtDQEBIXTJbQ0gyXVtDSDJdW0NIMl1bQ0gyXVtOSF1DMj1P

> <s_epik_cmdline>
J2VwaWtfcHl0aG9uJywgJy1waCcsICc3LjAnLCAnLXRuJywgJzgnLCAnLW1hJywgJzIwMCcsICctbWV0YWxfYmluZGluZycsICctaW1hZScsICc8aW5maWxlLm1hZT4nLCAnLW9tYWUnLCAnPG91dGZpbGUubWFlPic=

> <r_lp_tautomer_probability>
1

> <r_epik_Ionization_Penalty>
2.17512e-06

> <r_epik_Ionization_Penalty_Charging>
5.0222e-09

> <r_epik_Ionization_Penalty_Neutral>
2.1701e-06

> <r_epik_State_Penalty>
-0

> <r_epik_Charging_Adjusted_Penalty>
5.0222e-09

> <i_epik_Tot_Q>
0

> <i_epik_Tot_abs_Q>
0

> <r_epik_Metal_State_Penalty>
-0

> <b_epik_Metal_Only>
0

> <s_lp_Force_Field>
OPLS_2005

> <r_lp_Energy>
35.215

> <b_lp_Chiralities_Consistent>
1

> <s_lp_Variant>
AV-unprocessed.smi:1957-1

> <Gold.Version>
5.8.1

> <Gold.Id.Protein>
6NUR|6NUR_protein|mol2

> <Gold.PLP.Fitness>
43.1568

> <Gold.PLP.PLP>
-37.6346

> <Gold.PLP.part.hbond>
-3.0000

> <Gold.PLP.part.metal>
0.0000

> <Gold.PLP.part.buried>
-6.7324

> <Gold.PLP.part.nonpolar>
-27.9894

> <Gold.PLP.part.repulsive>
0.9700

> <Gold.PLP.ligand.clash>
0.0000

> <Gold.PLP.ligand.torsion>
0.2805

> <Gold.PLP.Chemscore.Hbond>
2.0000

> <Gold.PLP.Chemscore.CHOScore>
0.0000

> <Gold.PLP.Chemscore.Metal>
0.0000

> <Gold.Chemscore.Hbonds>
donor molecule, donor type, donor heavy atom, donor atom, acceptor molecule, acceptor atom, score
      L1  H    16    40       P1  7957  1.00
      P1  H  7989  7998       L1    18  1.00

> <Gold.PLP.Chemscore.Internal.Correction>
0.0832

> <Gold.Rescore>
     Score         DG    S(hbond)    S(metal)    S(lipo)     H(rot)  DE(clash)    DE(int)     intcor
     13.09     -14.63       1.87        0.00      63.75       1.78       0.06       1.48       ----

> <Gold.Chemscore.Fitness>
13.0862

> <Gold.Chemscore.DG>
-14.6257

> <Gold.Chemscore.ZeroCoef>
-5.4800

> <Gold.Chemscore.Hbond>
1.8688

> <Gold.Chemscore.Metal>
0.0000

> <Gold.Chemscore.Lipo>
63.7468

> <Gold.Chemscore.Internal_Hbond>
0.0000

> <Gold.Chemscore.DEClash>
0.0573

> <Gold.Chemscore.DEInternal>
1.4821

> <Gold.Chemscore.Rot>
1.7791

> <Gold.Chemscore.Internal.Correction>
   9.000000E+99

> <Gold.Chemscore.Hbonds>
donor molecule, donor type, donor heavy atom, donor atom, acceptor molecule, acceptor atom, score
      L1  H    16    40       P1  7957  1.00
      P1  H  7989  7998       L1    18  0.40

> <Gold.Chemscore.Hbond.Weighted>
-6.2417

> <Gold.Chemscore.Metal.Weighted>
-0.0000

> <Gold.Chemscore.Lipo.Weighted>
-7.4584

> <Gold.Chemscore.Internal_Hbond.Weighted>
0.0000

> <Gold.Chemscore.DEClash.Weighted>
0.0573

> <Gold.Chemscore.DEInternal.Weighted>
1.4821

> <Gold.Chemscore.Rot.Weighted>
4.5544

> <Gold.Chemscore.Internal.Correction.Weighted>
   9.000000E+99

> <Gold.Protein.RotatedTorsions>
[ 6907 6896 6895 6894 ] final  147.76 input  -60.11 | X-H torsion
[ 7974 7965 7964 7962 ] final   86.65 input  175.53 | X-H torsion
[ 8008 7997 7996 7995 ] final  -31.81 input   59.86 | X-H torsion
[ 10167 10162 10161 10158 ] final  -88.32 input  -65.29 | X-H torsion
[ 10718 10713 10712 10709 ] final -138.09 input   66.30 | X-H torsion
[ 10763 10752 10751 10750 ] final  101.71 input  -60.55 | X-H torsion
[ 11005 11000 10999 10996 ] final   39.96 input  -57.11 | X-H torsion

> <Gold.Protein.ActiveResidues>
 VAL166  LYS551  ARG553  GLY616  TRP617  ASP618  TYR619  PRO620  LYS621  CYS622 
 ASP623  PHE694  ASN695  SER759  ASP760  ASP761  ALA762  ILE779  LEU786  VAL792 
 PHE793  MET794  SER795  GLU796  ALA797  LYS798  CYS799  TRP800  GLU811  SER814 

> <Gold.Protein.RotatedAtoms>
  152.1505  133.4519  159.4810 H   0  0  0  0  0  0  0  0  0  0  0  0  # atno 6907 bound_to 6896
  150.6895  134.2195  159.4400 H   0  0  0  0  0  0  0  0  0  0  0  0  # atno 6908 bound_to 6896
  152.0091  134.9885  160.0618 H   0  0  0  0  0  0  0  0  0  0  0  0  # atno 6909 bound_to 6896
  145.5694  139.2312  143.2415 H   0  0  0  0  0  0  0  0  0  0  0  0  # atno 7974 bound_to 7965
  154.4201  140.1754  156.1627 H   0  0  0  0  0  0  0  0  0  0  0  0  # atno 8008 bound_to 7997
  155.9825  140.3376  155.6652 H   0  0  0  0  0  0  0  0  0  0  0  0  # atno 8009 bound_to 7997
  155.6481  140.0687  157.2587 H   0  0  0  0  0  0  0  0  0  0  0  0  # atno 8010 bound_to 7997
  140.3758  143.2772  151.9445 H   0  0  0  0  0  0  0  0  0  0  0  0  # atno 10167 bound_to 10162
  156.2954  130.7398  151.1436 H   0  0  0  0  0  0  0  0  0  0  0  0  # atno 10718 bound_to 10713
  153.3302  135.4035  155.1489 H   0  0  0  0  0  0  0  0  0  0  0  0  # atno 10763 bound_to 10752
  154.8621  135.3609  154.5480 H   0  0  0  0  0  0  0  0  0  0  0  0  # atno 10764 bound_to 10752
  153.5918  135.7073  153.5479 H   0  0  0  0  0  0  0  0  0  0  0  0  # atno 10765 bound_to 10752
  140.1977  134.3909  155.8113 H   0  0  0  0  0  0  0  0  0  0  0  0  # atno 11005 bound_to 11000
  146.1795  140.6520  142.9196 LP  0  0  0  0  0  0  0  0  0  0  0  0  # atno 17320 bound_to 7965
  144.7445  140.5031  143.6845 LP  0  0  0  0  0  0  0  0  0  0  0  0  # atno 17321 bound_to 7965
  139.4799  144.5865  151.7845 LP  0  0  0  0  0  0  0  0  0  0  0  0  # atno 17342 bound_to 10162
  140.4988  144.1201  150.5966 LP  0  0  0  0  0  0  0  0  0  0  0  0  # atno 17343 bound_to 10162
  157.7354  131.0573  150.5473 LP  0  0  0  0  0  0  0  0  0  0  0  0  # atno 17370 bound_to 10713
  156.5594  130.4252  149.6070 LP  0  0  0  0  0  0  0  0  0  0  0  0  # atno 17371 bound_to 10713
  141.2227  133.7078  156.8203 LP  0  0  0  0  0  0  0  0  0  0  0  0  # atno 17394 bound_to 11000
  140.2089  134.8842  157.3253 LP  0  0  0  0  0  0  0  0  0  0  0  0  # atno 17395 bound_to 11000

$$$$
