AV-unprocessed.smi:1504|AV-procd|sdf|6072|dock10
  -GOLD-   22720 6193D 1   1.00000     0.00000
 Structure written by MMmdl.
 39 40  0  0  0  0  0  0  0  0  1 V2000
  150.4078  140.4473  155.8093 O   0  0  0  0  0  0  0  0  0  0  0  0
  150.0364  141.6208  155.8318 C   0  0  0  0  0  0  0  0  0  0  0  0
  150.5241  142.5476  156.6680 N   0  0  0  0  0  0  0  0  0  0  0  0
  151.5586  142.3060  157.6695 C   0  0  0  0  0  0  0  0  0  0  0  0
  151.5775  143.3744  158.7803 C   0  0  0  0  0  0  0  0  0  0  0  0
  152.2051  142.8907  160.0765 C   0  0  0  0  0  0  0  0  0  0  0  0
  152.9341  141.6827  160.1197 C   0  0  0  0  0  0  0  0  0  0  0  0
  153.4960  141.2812  161.3470 C   0  0  0  0  0  0  0  0  0  0  0  0
  153.3085  142.0986  162.4784 C   0  0  0  0  0  0  0  0  0  0  0  0
  152.5656  143.2870  162.3304 C   0  0  0  0  0  0  0  0  0  0  0  0
  152.0241  143.6818  161.1580 N   0  0  0  0  0  0  0  0  0  0  0  0
  149.0978  142.1252  155.0213 N   0  0  0  0  0  0  0  0  0  0  0  0
  148.3835  141.3561  154.0103 C   0  0  0  0  0  0  0  0  0  0  0  0
  146.8634  141.4300  154.2314 C   0  0  1  0  0  0  0  0  0  0  0  0
  146.3286  140.2365  155.0466 C   0  0  0  0  0  0  0  0  0  0  0  0
  144.8812  140.5312  155.4518 C   0  0  0  0  0  0  0  0  0  0  0  0
  144.8110  142.3377  155.7420 S   0  0  0  0  0  0  0  0  0  0  0  0
  143.7109  142.9086  154.9503 O   0  0  0  0  0  0  0  0  0  0  0  0
  144.9266  142.6072  157.1831 O   0  0  0  0  0  0  0  0  0  0  0  0
  146.4122  142.7223  154.9358 C   0  0  0  0  0  0  0  0  0  0  0  0
  150.1585  143.4866  156.6075 H   0  0  0  0  0  0  0  0  0  0  0  0
  151.3705  141.3261  158.1087 H   0  0  0  0  0  0  0  0  0  0  0  0
  152.5360  142.2446  157.1887 H   0  0  0  0  0  0  0  0  0  0  0  0
  152.1223  144.2524  158.4312 H   0  0  0  0  0  0  0  0  0  0  0  0
  150.5620  143.7169  158.9830 H   0  0  0  0  0  0  0  0  0  0  0  0
  153.0616  141.0783  159.2334 H   0  0  0  0  0  0  0  0  0  0  0  0
  154.0602  140.3633  161.4190 H   0  0  0  0  0  0  0  0  0  0  0  0
  153.7233  141.8221  163.4364 H   0  0  0  0  0  0  0  0  0  0  0  0
  152.4016  143.9378  163.1765 H   0  0  0  0  0  0  0  0  0  0  0  0
  148.8589  143.1020  155.1099 H   0  0  0  0  0  0  0  0  0  0  0  0
  148.6390  141.7481  153.0250 H   0  0  0  0  0  0  0  0  0  0  0  0
  148.7132  140.3159  154.0352 H   0  0  0  0  0  0  0  0  0  0  0  0
  146.3707  141.3981  153.2584 H   0  0  0  0  0  0  0  0  0  0  0  0
  146.4031  139.3014  154.4907 H   0  0  0  0  0  0  0  0  0  0  0  0
  146.9299  140.1188  155.9494 H   0  0  0  0  0  0  0  0  0  0  0  0
  144.1963  140.2933  154.6375 H   0  0  0  0  0  0  0  0  0  0  0  0
  144.5662  139.9908  156.3446 H   0  0  0  0  0  0  0  0  0  0  0  0
  147.1161  143.0108  155.7171 H   0  0  0  0  0  0  0  0  0  0  0  0
  146.2936  143.5619  154.2508 H   0  0  0  0  0  0  0  0  0  0  0  0
  1  2  2  0  0  0  0
  2  3  1  0  0  0  0
  2 12  1  0  0  0  0
  3  4  1  0  0  0  0
  3 21  1  0  0  0  0
  4  5  1  0  0  0  0
  4 22  1  0  0  0  0
  4 23  1  0  0  0  0
  5  6  1  0  0  0  0
  5 24  1  0  0  0  0
  5 25  1  0  0  0  0
  6 11  1  0  0  0  0
  6  7  2  0  0  0  0
  7  8  1  0  0  0  0
  7 26  1  0  0  0  0
  8  9  2  0  0  0  0
  8 27  1  0  0  0  0
  9 10  1  0  0  0  0
  9 28  1  0  0  0  0
 10 11  2  0  0  0  0
 10 29  1  0  0  0  0
 12 13  1  0  0  0  0
 12 30  1  0  0  0  0
 13 14  1  0  0  0  0
 13 31  1  0  0  0  0
 13 32  1  0  0  0  0
 14 20  1  0  0  0  0
 14 15  1  0  0  0  0
 14 33  1  0  0  0  0
 15 16  1  0  0  0  0
 15 34  1  0  0  0  0
 15 35  1  0  0  0  0
 16 17  1  0  0  0  0
 16 36  1  0  0  0  0
 16 37  1  0  0  0  0
 17 18  2  0  0  0  0
 17 19  2  0  0  0  0
 17 20  1  0  0  0  0
 20 38  1  0  0  0  0
 20 39  1  0  0  0  0
M  END
> <s_m_source_file>
AV-unprocessed.smi

> <i_m_source_file_index>
1504

> <i_lp_mmshare_version>
43012

> <i_f3d_flags>
0

> <s_epik_input>
Tz1TMSg9TylbQ0gyXVtDSDJdW0NASF0oW0NIMl0xKVtDSDJdW05IXUMoPU8pW05IXVtDSDJdW0NIMl1jMltjSF1bY0hdW2NIXVtjSF1uMg==

> <s_epik_cmdline>
J2VwaWtfcHl0aG9uJywgJy1waCcsICc3LjAnLCAnLXRuJywgJzgnLCAnLW1hJywgJzIwMCcsICctbWV0YWxfYmluZGluZycsICctaW1hZScsICc8aW5maWxlLm1hZT4nLCAnLW9tYWUnLCAnPG91dGZpbGUubWFlPic=

> <r_epik_Ionization_Penalty>
0.0431785

> <r_epik_Ionization_Penalty_Charging>
0

> <r_epik_Ionization_Penalty_Neutral>
0.0431785

> <r_epik_State_Penalty>
0.0364691

> <r_epik_Charging_Adjusted_Penalty>
0.0364691

> <i_epik_Tot_Q>
0

> <i_epik_Tot_abs_Q>
0

> <r_epik_Metal_State_Penalty>
0.0339827

> <b_epik_Metal_Only>
0

> <s_lp_Force_Field>
OPLS_2005

> <r_lp_Energy>
0.935995

> <b_lp_Chiralities_Consistent>
1

> <s_lp_Variant>
AV-unprocessed.smi:1504-2

> <Gold.Version>
5.8.1

> <Gold.Id.Protein>
6NUR|6NUR_protein|mol2

> <Gold.PLP.Fitness>
45.4334

> <Gold.PLP.PLP>
-41.2402

> <Gold.PLP.part.hbond>
-2.0000

> <Gold.PLP.part.metal>
0.0000

> <Gold.PLP.part.buried>
-6.8708

> <Gold.PLP.part.nonpolar>
-32.5743

> <Gold.PLP.part.repulsive>
1.0621

> <Gold.PLP.ligand.clash>
0.0000

> <Gold.PLP.ligand.torsion>
0.8475

> <Gold.PLP.Chemscore.Hbond>
1.9600

> <Gold.PLP.Chemscore.CHOScore>
0.0000

> <Gold.PLP.Chemscore.Metal>
0.0000

> <Gold.Chemscore.Hbonds>
donor molecule, donor type, donor heavy atom, donor atom, acceptor molecule, acceptor atom, score
      L1  H     3    21       P1  8028  0.94
      L1  H    12    30       P1  8028  1.00

> <Gold.PLP.Chemscore.Internal.Correction>
0.0082

> <Gold.Rescore>
     Score         DG    S(hbond)    S(metal)    S(lipo)     H(rot)  DE(clash)    DE(int)     intcor
     17.57     -18.30       1.94        0.00      95.92       1.91       0.01       0.72       ----

> <Gold.Chemscore.Fitness>
17.5718

> <Gold.Chemscore.DG>
-18.3002

> <Gold.Chemscore.ZeroCoef>
-5.4800

> <Gold.Chemscore.Hbond>
1.9427

> <Gold.Chemscore.Metal>
0.0000

> <Gold.Chemscore.Lipo>
95.9181

> <Gold.Chemscore.Internal_Hbond>
0.0000

> <Gold.Chemscore.DEClash>
0.0121

> <Gold.Chemscore.DEInternal>
0.7162

> <Gold.Chemscore.Rot>
1.9105

> <Gold.Chemscore.Internal.Correction>
   9.000000E+99

> <Gold.Chemscore.Hbonds>
donor molecule, donor type, donor heavy atom, donor atom, acceptor molecule, acceptor atom, score
      L1  H     3    21       P1  8028  0.87
      L1  H    12    30       P1  8028  1.00

> <Gold.Chemscore.Hbond.Weighted>
-6.4886

> <Gold.Chemscore.Metal.Weighted>
-0.0000

> <Gold.Chemscore.Lipo.Weighted>
-11.2224

> <Gold.Chemscore.Internal_Hbond.Weighted>
0.0000

> <Gold.Chemscore.DEClash.Weighted>
0.0121

> <Gold.Chemscore.DEInternal.Weighted>
0.7162

> <Gold.Chemscore.Rot.Weighted>
4.8908

> <Gold.Chemscore.Internal.Correction.Weighted>
   9.000000E+99

> <Gold.Protein.RotatedTorsions>
[ 6907 6896 6895 6894 ] final -175.41 input  -60.11 | X-H torsion
[ 7974 7965 7964 7962 ] final   19.16 input  175.53 | X-H torsion
[ 8008 7997 7996 7995 ] final -100.31 input   59.86 | X-H torsion
[ 10167 10162 10161 10158 ] final  143.86 input  -65.29 | X-H torsion
[ 10718 10713 10712 10709 ] final   44.60 input   66.30 | X-H torsion
[ 10763 10752 10751 10750 ] final -111.93 input  -60.55 | X-H torsion
[ 11005 11000 10999 10996 ] final   13.69 input  -57.11 | X-H torsion

> <Gold.Protein.ActiveResidues>
 VAL166  LYS551  ARG553  GLY616  TRP617  ASP618  TYR619  PRO620  LYS621  CYS622 
 ASP623  PHE694  ASN695  SER759  ASP760  ASP761  ALA762  ILE779  LEU786  VAL792 
 PHE793  MET794  SER795  GLU796  ALA797  LYS798  CYS799  TRP800  GLU811  SER814 

> <Gold.Protein.RotatedAtoms>
  151.5881  133.3369  159.3021 H   0  0  0  0  0  0  0  0  0  0  0  0  # atno 6907 bound_to 6896
  150.8275  134.7516  159.6837 H   0  0  0  0  0  0  0  0  0  0  0  0  # atno 6908 bound_to 6896
  152.4363  134.5686  159.9966 H   0  0  0  0  0  0  0  0  0  0  0  0  # atno 6909 bound_to 6896
  146.2159  139.8352  142.8652 H   0  0  0  0  0  0  0  0  0  0  0  0  # atno 7974 bound_to 7965
  154.8268  140.0442  157.1449 H   0  0  0  0  0  0  0  0  0  0  0  0  # atno 8008 bound_to 7997
  154.9197  140.3025  155.5202 H   0  0  0  0  0  0  0  0  0  0  0  0  # atno 8009 bound_to 7997
  156.2984  140.2343  156.4245 H   0  0  0  0  0  0  0  0  0  0  0  0  # atno 8010 bound_to 7997
  139.4960  144.6011  151.6478 H   0  0  0  0  0  0  0  0  0  0  0  0  # atno 10167 bound_to 10162
  157.4286  130.8011  149.7582 H   0  0  0  0  0  0  0  0  0  0  0  0  # atno 10718 bound_to 10713
  154.8325  135.4509  154.1115 H   0  0  0  0  0  0  0  0  0  0  0  0  # atno 10763 bound_to 10752
  153.2376  135.6912  153.7825 H   0  0  0  0  0  0  0  0  0  0  0  0  # atno 10764 bound_to 10752
  153.7185  135.3345  155.3237 H   0  0  0  0  0  0  0  0  0  0  0  0  # atno 10765 bound_to 10752
  140.4780  134.0964  155.7745 H   0  0  0  0  0  0  0  0  0  0  0  0  # atno 11005 bound_to 11000
  145.2956  141.0179  143.3638 LP  0  0  0  0  0  0  0  0  0  0  0  0  # atno 17320 bound_to 7965
  144.9045  139.4607  143.6617 LP  0  0  0  0  0  0  0  0  0  0  0  0  # atno 17321 bound_to 7965
  140.5661  144.0187  150.6193 LP  0  0  0  0  0  0  0  0  0  0  0  0  # atno 17342 bound_to 10162
  140.3289  143.3090  152.0707 LP  0  0  0  0  0  0  0  0  0  0  0  0  # atno 17343 bound_to 10162
  155.9905  130.3944  150.3025 LP  0  0  0  0  0  0  0  0  0  0  0  0  # atno 17370 bound_to 10713
  157.1180  131.0239  151.3021 LP  0  0  0  0  0  0  0  0  0  0  0  0  # atno 17371 bound_to 10713
  141.1545  133.8908  157.2012 LP  0  0  0  0  0  0  0  0  0  0  0  0  # atno 17394 bound_to 11000
  139.9844  135.0087  156.9827 LP  0  0  0  0  0  0  0  0  0  0  0  0  # atno 17395 bound_to 11000

$$$$
