AV-unprocessed.smi:207|AV-procd|sdf|1604|dock5
  -GOLD-   2262019523D 1   1.00000     0.00000
 Structure written by MMmdl.
 56 59  0  0  0  0  0  0  0  0  2 V2000
  142.6609  135.1380  153.1799 C   0  0  0  0  0  0  0  0  0  0  0  0
  144.0479  134.6445  152.7071 C   0  0  0  0  0  0  0  0  0  0  0  0
  144.4644  135.4367  151.4452 C   0  0  0  0  0  0  0  0  0  0  0  0
  145.0295  134.9642  153.8637 C   0  0  0  0  0  0  0  0  0  0  0  0
  146.3369  134.3494  153.6712 N   0  0  0  0  0  0  0  0  0  0  0  0
  147.3381  134.8728  154.4218 C   0  0  0  0  0  0  0  0  0  0  0  0
  148.2449  134.0505  155.0135 N   0  0  0  0  0  0  0  0  0  0  0  0
  149.2326  134.5594  155.7559 C   0  0  0  0  0  0  0  0  0  0  0  0
  149.4984  135.8385  156.0272 N   0  0  0  0  0  0  0  0  0  0  0  0
  148.5965  136.6693  155.4299 C   0  0  0  0  0  0  0  0  0  0  0  0
  147.4939  136.2732  154.6217 C   0  0  0  0  0  0  0  0  0  0  0  0
  146.8008  137.3954  154.1839 N   0  0  0  0  0  0  0  0  0  0  0  0
  147.4546  138.3972  154.7058 C   0  0  0  0  0  0  0  0  0  0  0  0
  148.5556  138.0529  155.4575 N   0  0  0  0  0  0  0  0  0  0  0  0
  149.4653  138.9589  156.1420 C   0  0  0  0  0  0  0  0  0  0  0  0
  150.3458  139.8216  155.2109 C   0  0  0  0  0  0  0  0  0  0  0  0
  149.5772  141.0713  154.7416 C   0  0  0  0  0  0  0  0  0  0  0  0
  149.2955  141.0353  153.3564 O   0  0  0  0  0  0  0  0  0  0  0  0
  151.8001  140.0443  155.6555 C   0  0  0  0  0  0  0  0  0  0  0  0
  152.2943  139.0294  154.7573 O   0  0  0  0  0  0  0  0  0  0  0  0
  151.0159  139.0138  154.0890 C   0  0  0  0  0  0  0  0  0  0  0  0
  146.2918  132.9053  153.4926 C   0  0  0  0  0  0  0  0  0  0  0  0
  145.3750  132.5489  152.3174 C   0  0  0  0  0  0  0  0  0  0  0  0
  144.0223  133.1619  152.4490 N   0  3  2  0  0  0  0  0  0  0  0  0
  143.1126  132.7125  151.3562 C   0  0  0  0  0  0  0  0  0  0  0  0
  143.8512  132.5840  150.0138 C   0  0  0  0  0  0  0  0  0  0  0  0
  142.9619  132.1240  149.0181 O   0  0  0  0  0  0  0  0  0  0  0  0
  142.7122  136.1724  153.5222 H   0  0  0  0  0  0  0  0  0  0  0  0
  142.2898  134.5399  154.0131 H   0  0  0  0  0  0  0  0  0  0  0  0
  141.9061  135.1169  152.3955 H   0  0  0  0  0  0  0  0  0  0  0  0
  144.4961  136.5072  151.6508 H   0  0  0  0  0  0  0  0  0  0  0  0
  143.7657  135.2921  150.6214 H   0  0  0  0  0  0  0  0  0  0  0  0
  145.4552  135.1527  151.0908 H   0  0  0  0  0  0  0  0  0  0  0  0
  145.1130  136.0437  153.9906 H   0  0  0  0  0  0  0  0  0  0  0  0
  144.6262  134.5829  154.8034 H   0  0  0  0  0  0  0  0  0  0  0  0
  149.9075  133.8389  156.1943 H   0  0  0  0  0  0  0  0  0  0  0  0
  147.1485  139.4212  154.5514 H   0  0  0  0  0  0  0  0  0  0  0  0
  148.8635  139.5974  156.7902 H   0  0  0  0  0  0  0  0  0  0  0  0
  150.0910  138.3709  156.8144 H   0  0  0  0  0  0  0  0  0  0  0  0
  148.6213  141.1566  155.2590 H   0  0  0  0  0  0  0  0  0  0  0  0
  150.1294  141.9834  154.9691 H   0  0  0  0  0  0  0  0  0  0  0  0
  149.6842  140.2549  152.9914 H   0  0  0  0  0  0  0  0  0  0  0  0
  152.1946  141.0301  155.4036 H   0  0  0  0  0  0  0  0  0  0  0  0
  151.9961  139.8049  156.6998 H   0  0  0  0  0  0  0  0  0  0  0  0
  150.6198  138.0047  153.9687 H   0  0  0  0  0  0  0  0  0  0  0  0
  151.0594  139.5271  153.1271 H   0  0  0  0  0  0  0  0  0  0  0  0
  147.2930  132.5146  153.3042 H   0  0  0  0  0  0  0  0  0  0  0  0
  145.9273  132.4379  154.4085 H   0  0  0  0  0  0  0  0  0  0  0  0
  145.8362  132.8764  151.3850 H   0  0  0  0  0  0  0  0  0  0  0  0
  145.2926  131.4644  152.2530 H   0  0  0  0  0  0  0  0  0  0  0  0
  142.6448  131.7551  151.5732 H   0  0  0  0  0  0  0  0  0  0  0  0
  142.2856  133.4176  151.2599 H   0  0  0  0  0  0  0  0  0  0  0  0
  144.2320  133.5581  149.7066 H   0  0  0  0  0  0  0  0  0  0  0  0
  144.7088  131.9148  150.0779 H   0  0  0  0  0  0  0  0  0  0  0  0
  142.2047  132.6904  149.0046 H   0  0  0  0  0  0  0  0  0  0  0  0
  143.6293  132.7702  153.2933 H   0  0  0  0  0  0  0  0  0  0  0  0
  1  2  1  0  0  0  0
  1 28  1  0  0  0  0
  1 29  1  0  0  0  0
  1 30  1  0  0  0  0
  2 24  1  0  0  0  0
  2  3  1  0  0  0  0
  2  4  1  0  0  0  0
  3 31  1  0  0  0  0
  3 32  1  0  0  0  0
  3 33  1  0  0  0  0
  4  5  1  0  0  0  0
  4 34  1  0  0  0  0
  4 35  1  0  0  0  0
  5  6  1  0  0  0  0
  5 22  1  0  0  0  0
  6 11  1  0  0  0  0
  6  7  2  0  0  0  0
  7  8  1  0  0  0  0
  8  9  2  0  0  0  0
  8 36  1  0  0  0  0
  9 10  1  0  0  0  0
 10 14  1  0  0  0  0
 10 11  2  0  0  0  0
 11 12  1  0  0  0  0
 12 13  2  0  0  0  0
 13 14  1  0  0  0  0
 13 37  1  0  0  0  0
 14 15  1  0  0  0  0
 15 16  1  0  0  0  0
 15 38  1  0  0  0  0
 15 39  1  0  0  0  0
 16 21  1  0  0  0  0
 16 17  1  0  0  0  0
 16 19  1  0  0  0  0
 17 18  1  0  0  0  0
 17 40  1  0  0  0  0
 17 41  1  0  0  0  0
 18 42  1  0  0  0  0
 19 20  1  0  0  0  0
 19 43  1  0  0  0  0
 19 44  1  0  0  0  0
 20 21  1  0  0  0  0
 21 45  1  0  0  0  0
 21 46  1  0  0  0  0
 22 23  1  0  0  0  0
 22 47  1  0  0  0  0
 22 48  1  0  0  0  0
 23 24  1  0  0  0  0
 23 49  1  0  0  0  0
 23 50  1  0  0  0  0
 24 25  1  0  0  0  0
 24 56  1  0  0  0  0
 25 26  1  0  0  0  0
 25 51  1  0  0  0  0
 25 52  1  0  0  0  0
 26 27  1  0  0  0  0
 26 53  1  0  0  0  0
 26 54  1  0  0  0  0
 27 55  1  0  0  0  0
M  CHG  1  24   1
M  END
> <s_m_source_file>
AV-unprocessed.smi

> <i_m_source_file_index>
207

> <i_lp_mmshare_version>
43012

> <i_f3d_flags>
0

> <s_epik_input>
W09IXVtDSDJdW0NIMl1OMVtDSDJdW0NIMl1OKFtDSDJdQzEoW0NIM10pW0NIM10pYyhuW2NIXW4yKWMoYzIzKW5bY0hdbjNbQ0gyXUM0KFtDSDJdW09IXSlbQ0gyXU9bQ0gyXTQ=

> <s_epik_cmdline>
J2VwaWtfcHl0aG9uJywgJy1waCcsICc3LjAnLCAnLXRuJywgJzgnLCAnLW1hJywgJzIwMCcsICctbWV0YWxfYmluZGluZycsICctaW1hZScsICc8aW5maWxlLm1hZT4nLCAnLW9tYWUnLCAnPG91dGZpbGUubWFlPic=

> <r_lp_tautomer_probability>
1

> <r_epik_Ionization_Penalty>
0.416568

> <r_epik_Ionization_Penalty_Charging>
0.416506

> <r_epik_Ionization_Penalty_Neutral>
6.2219e-05

> <r_epik_State_Penalty>
0.419386

> <r_epik_Charging_Adjusted_Penalty>
0.835892

> <i_epik_Tot_Q>
1

> <i_epik_Tot_abs_Q>
1

> <r_epik_Metal_State_Penalty>
0.420232

> <b_epik_Metal_Only>
0

> <s_lp_Force_Field>
OPLS_2005

> <r_lp_Energy>
56.1561

> <b_lp_Chiralities_Consistent>
1

> <s_lp_Variant>
AV-unprocessed.smi:207-3

> <Gold.Version>
5.8.1

> <Gold.Id.Protein>
6NUR|6NUR_protein|mol2

> <Gold.PLP.Fitness>
48.8949

> <Gold.PLP.PLP>
-36.7827

> <Gold.PLP.part.hbond>
-7.7509

> <Gold.PLP.part.metal>
0.0000

> <Gold.PLP.part.buried>
-4.9674

> <Gold.PLP.part.nonpolar>
-24.8919

> <Gold.PLP.part.repulsive>
0.3322

> <Gold.PLP.ligand.clash>
0.0000

> <Gold.PLP.ligand.torsion>
2.1094

> <Gold.PLP.Chemscore.Hbond>
5.1705

> <Gold.PLP.Chemscore.CHOScore>
0.0000

> <Gold.PLP.Chemscore.Metal>
0.0000

> <Gold.Chemscore.Hbonds>
donor molecule, donor type, donor heavy atom, donor atom, acceptor molecule, acceptor atom, score
      L1  H    18    42       P1  7957  0.35
      L1  H    24    56       P1 10957  2.00
      L1  H    27    55       P1 10186  0.68
      P1  H  8011  8017       L1    18  1.00
      P1  H 10785 10796       L1    27  1.00

> <Gold.PLP.Chemscore.Internal.Correction>
0.8194

> <Gold.Rescore>
     Score         DG    S(hbond)    S(metal)    S(lipo)     H(rot)  DE(clash)    DE(int)     intcor
     12.72     -15.95       3.51        0.00      72.54       3.80       0.09       3.14       ----

> <Gold.Chemscore.Fitness>
12.7213

> <Gold.Chemscore.DG>
-15.9507

> <Gold.Chemscore.ZeroCoef>
-5.4800

> <Gold.Chemscore.Hbond>
3.5064

> <Gold.Chemscore.Metal>
0.0000

> <Gold.Chemscore.Lipo>
72.5350

> <Gold.Chemscore.Internal_Hbond>
0.0000

> <Gold.Chemscore.DEClash>
0.0890

> <Gold.Chemscore.DEInternal>
3.1404

> <Gold.Chemscore.Rot>
3.7997

> <Gold.Chemscore.Internal.Correction>
   9.000000E+99

> <Gold.Chemscore.Hbonds>
donor molecule, donor type, donor heavy atom, donor atom, acceptor molecule, acceptor atom, score
      L1  H    18    42       P1  7957  0.36
      L1  H    24    56       P1 10957  0.47
      L1  H    27    55       P1 10186  0.66
      P1  H  8011  8017       L1    18  0.58
      P1  H 10785 10796       L1    27  0.74

> <Gold.Chemscore.Hbond.Weighted>
-11.7114

> <Gold.Chemscore.Metal.Weighted>
-0.0000

> <Gold.Chemscore.Lipo.Weighted>
-8.4866

> <Gold.Chemscore.Internal_Hbond.Weighted>
0.0000

> <Gold.Chemscore.DEClash.Weighted>
0.0890

> <Gold.Chemscore.DEInternal.Weighted>
3.1404

> <Gold.Chemscore.Rot.Weighted>
9.7273

> <Gold.Chemscore.Internal.Correction.Weighted>
   9.000000E+99

> <Gold.Protein.RotatedTorsions>
[ 6907 6896 6895 6894 ] final -107.10 input  -60.11 | X-H torsion
[ 7974 7965 7964 7962 ] final -153.16 input  175.53 | X-H torsion
[ 8008 7997 7996 7995 ] final   93.73 input   59.86 | X-H torsion
[ 10167 10162 10161 10158 ] final -115.91 input  -65.29 | X-H torsion
[ 10718 10713 10712 10709 ] final -130.65 input   66.30 | X-H torsion
[ 10763 10752 10751 10750 ] final   37.97 input  -60.55 | X-H torsion
[ 11005 11000 10999 10996 ] final  -51.87 input  -57.11 | X-H torsion

> <Gold.Protein.ActiveResidues>
 VAL166  LYS551  ARG553  GLY616  TRP617  ASP618  TYR619  PRO620  LYS621  CYS622 
 ASP623  PHE694  ASN695  SER759  ASP760  ASP761  ALA762  ILE779  LEU786  VAL792 
 PHE793  MET794  SER795  GLU796  ALA797  LYS798  CYS799  TRP800  GLU811  SER814 

> <Gold.Protein.RotatedAtoms>
  150.7425  133.9876  159.3596 H   0  0  0  0  0  0  0  0  0  0  0  0  # atno 6907 bound_to 6896
  151.7822  135.0756  160.0385 H   0  0  0  0  0  0  0  0  0  0  0  0  # atno 6908 bound_to 6896
  152.3266  133.5875  159.5817 H   0  0  0  0  0  0  0  0  0  0  0  0  # atno 6909 bound_to 6896
  144.7755  140.4563  143.5876 H   0  0  0  0  0  0  0  0  0  0  0  0  # atno 7974 bound_to 7965
  156.0500  140.3309  155.7340 H   0  0  0  0  0  0  0  0  0  0  0  0  # atno 8008 bound_to 7997
  155.5615  140.0619  157.2845 H   0  0  0  0  0  0  0  0  0  0  0  0  # atno 8009 bound_to 7997
  154.4431  140.1876  156.0776 H   0  0  0  0  0  0  0  0  0  0  0  0  # atno 8010 bound_to 7997
  140.0849  143.4753  152.1904 H   0  0  0  0  0  0  0  0  0  0  0  0  # atno 10167 bound_to 10162
  156.2165  130.6952  151.0709 H   0  0  0  0  0  0  0  0  0  0  0  0  # atno 10718 bound_to 10713
  153.0018  135.6263  154.2229 H   0  0  0  0  0  0  0  0  0  0  0  0  # atno 10763 bound_to 10752
  154.1972  135.2806  155.3004 H   0  0  0  0  0  0  0  0  0  0  0  0  # atno 10764 bound_to 10752
  154.5712  135.5676  153.7156 H   0  0  0  0  0  0  0  0  0  0  0  0  # atno 10765 bound_to 10752
  141.0894  133.6636  156.3940 H   0  0  0  0  0  0  0  0  0  0  0  0  # atno 11005 bound_to 11000
  145.6198  139.1523  143.3028 LP  0  0  0  0  0  0  0  0  0  0  0  0  # atno 17320 bound_to 7965
  146.1931  140.6309  142.9136 LP  0  0  0  0  0  0  0  0  0  0  0  0  # atno 17321 bound_to 7965
  139.5758  144.7486  151.3769 LP  0  0  0  0  0  0  0  0  0  0  0  0  # atno 17342 bound_to 10162
  140.7058  143.7516  150.7480 LP  0  0  0  0  0  0  0  0  0  0  0  0  # atno 17343 bound_to 10162
  157.7066  131.0753  150.6646 LP  0  0  0  0  0  0  0  0  0  0  0  0  # atno 17370 bound_to 10713
  156.6707  130.4539  149.5658 LP  0  0  0  0  0  0  0  0  0  0  0  0  # atno 17371 bound_to 10713
  140.5287  134.6233  157.5343 LP  0  0  0  0  0  0  0  0  0  0  0  0  # atno 17394 bound_to 11000
  139.9717  134.7281  156.0028 LP  0  0  0  0  0  0  0  0  0  0  0  0  # atno 17395 bound_to 11000

$$$$
