#       Name:                AV-unprocessed.smi:720
#       Creating user name   scv26
#       Creation time:       Fri Mar 27 00:49:15 2020


#       File generated by GOLD software.
#

@<TRIPOS>MOLECULE
AV-unprocessed.smi:720
    50    52     1
SMALL
NO_CHARGES


@<TRIPOS>ATOM
      1 ****        -2.7229   5.7923  -2.6892 C.3            1 S1                 0.0000
      2 ****        -2.8132   4.9858  -1.4502 N.4            1 S1                 1.0000
      3 ****        -4.2038   4.9159  -0.9490 C.3            1 S1                 0.0000
      4 ****        -2.1984   3.6406  -1.5736 C.3            1 S1                 0.0000
      5 ****        -0.6633   3.6964  -1.6883 C.3            1 S1                 0.0000
      6 ****        -0.0730   2.3739  -1.6209 N.pl3          1 S1                 0.0000
      7 ****         0.4862   1.6253  -2.6376 C.2            1 S1                 0.0000
      8 ****         0.9158   0.4484  -2.0921 C.2            1 S1                 0.0000
      9 ****         0.5694   0.5784  -0.7191 C.2            1 S1                 0.0000
     10 ****         0.8597  -0.4581   0.2036 N.am           1 S1                 0.0000
     11 ****         0.5768  -0.4921   1.5209 C.2            1 S1                 0.0000
     12 ****        -0.0232   0.3928   2.1288 O.2            1 S1                 0.0000
     13 ****         0.9998  -1.6049   2.1471 N.am           1 S1                 0.0000
     14 ****         0.8545  -1.9534   3.5623 C.3            1 S1                 0.0000
     15 ****         1.8565  -1.2082   4.4757 C.3            1 S1                 0.0000
     16 ****         2.6161  -2.3586   5.1622 C.3            1 S1                 0.0000
     17 ****         1.6754  -3.0869   6.1414 C.3            1 S1                 0.0000
     18 ****         0.7231  -3.8488   5.1985 C.3            1 S1                 0.0000
     19 ****         1.2274  -3.4320   3.8042 C.3            1 S1                 0.0000
     20 ****         2.7353  -3.3699   4.0304 C.3            1 S1                 0.0000
     21 ****        -0.0207   1.7309  -0.4352 N.2            1 S1                 0.0000
     22 ****        -3.2335   5.2978  -3.5165 H              1 S1                 0.0000
     23 ****        -1.6869   5.9656  -2.9782 H              1 S1                 0.0000
     24 ****        -3.1829   6.7703  -2.5435 H              1 S1                 0.0000
     25 ****        -4.8487   4.3936  -1.6570 H              1 S1                 0.0000
     26 ****        -4.6082   5.9165  -0.7921 H              1 S1                 0.0000
     27 ****        -4.2479   4.3910   0.0060 H              1 S1                 0.0000
     28 ****        -2.4582   3.0619  -0.6855 H              1 S1                 0.0000
     29 ****        -2.6283   3.1099  -2.4245 H              1 S1                 0.0000
     30 ****        -0.3557   4.1580  -2.6267 H              1 S1                 0.0000
     31 ****        -0.2417   4.3003  -0.8832 H              1 S1                 0.0000
     32 ****         0.5327   1.9878  -3.6539 H              1 S1                 0.0000
     33 ****         1.4022  -0.3735  -2.5965 H              1 S1                 0.0000
     34 ****         1.3412  -1.2608  -0.1739 H              1 S1                 0.0000
     35 ****         1.4628  -2.2950   1.5731 H              1 S1                 0.0000
     36 ****        -0.1766  -1.7732   3.8723 H              1 S1                 0.0000
     37 ****         2.5461  -0.5911   3.8975 H              1 S1                 0.0000
     38 ****         1.3551  -0.5580   5.1937 H              1 S1                 0.0000
     39 ****         3.5624  -2.0527   5.6089 H              1 S1                 0.0000
     40 ****         2.2318  -3.7847   6.7683 H              1 S1                 0.0000
     41 ****         1.1465  -2.3950   6.7981 H              1 S1                 0.0000
     42 ****         0.8245  -4.9255   5.3410 H              1 S1                 0.0000
     43 ****        -0.3233  -3.5880   5.3607 H              1 S1                 0.0000
     44 ****         0.9060  -4.1079   3.0107 H              1 S1                 0.0000
     45 ****         3.2897  -2.9932   3.1690 H              1 S1                 0.0000
     46 ****         3.1660  -4.3227   4.3435 H              1 S1                 0.0000
     47 ****        -2.2865   5.4773  -0.7417 H              1 S1                 0.0000
     48 ****        -0.3375   1.2084   1.6430 LP             1 S1                 0.0000
     49 ****        -0.1968   0.2967   3.1089 LP             1 S1                 0.0000
     50 ****        -0.3511   2.0505   0.4529 LP             1 S1                 0.0000
@<TRIPOS>BOND
    1    1    2 1     
    2    1   22 1     
    3    1   23 1     
    4    1   24 1     
    5    2    3 1     
    6    2    4 1     
    7    2   47 1     
    8    3   25 1     
    9    3   26 1     
   10    3   27 1     
   11    4    5 1     
   12    4   28 1     
   13    4   29 1     
   14    5    6 1     
   15    5   30 1     
   16    5   31 1     
   17    6   21 1     
   18    6    7 1     
   19    7    8 2     
   20    7   32 1     
   21    8    9 1     
   22    8   33 1     
   23    9   10 1     
   24    9   21 2     
   25   10   11 am    
   26   10   34 1     
   27   11   12 2     
   28   11   13 am    
   29   13   14 1     
   30   13   35 1     
   31   14   19 1     
   32   14   15 1     
   33   14   36 1     
   34   15   16 1     
   35   15   37 1     
   36   15   38 1     
   37   16   20 1     
   38   16   17 1     
   39   16   39 1     
   40   17   18 1     
   41   17   40 1     
   42   17   41 1     
   43   18   19 1     
   44   18   42 1     
   45   18   43 1     
   46   19   20 1     
   47   19   44 1     
   48   20   45 1     
   49   20   46 1     
   50   12   48 1     
   51   12   49 1     
   52   21   50 1     
@<TRIPOS>SUBSTRUCTURE
      1 S1             1
@<TRIPOS>SET
LONE_PAIRS      STATIC     ATOMS    <user>   **** ""
3 48 49 50
DONOR_HYDROGENS      STATIC     ATOMS    <user>   **** ""
3 47 34 35
ATOM$BLUE        STATIC     ATOMS    COLORGROUP SYSTEM
3 48 49 50
ATOM$RED        STATIC     ATOMS    COLORGROUP SYSTEM
3 47 34 35
