AV-unprocessed.smi:1734|AV-procd|sdf|6982|dock1
  -GOLD-   22720 8193D 1   1.00000     0.00000
 Structure written by MMmdl.
 50 52  0  0  0  0  0  0  0  0  1 V2000
  147.2282  131.7606  152.8016 C   0  0  0  0  0  0  0  0  0  0  0  0
  146.1167  132.2564  151.8907 C   0  0  0  0  0  0  0  0  0  0  0  0
  145.3637  131.3215  151.1488 C   0  0  0  0  0  0  0  0  0  0  0  0
  144.3363  131.7816  150.3078 C   0  0  0  0  0  0  0  0  0  0  0  0
  144.1029  133.1660  150.2445 C   0  0  0  0  0  0  0  0  0  0  0  0
  144.8182  134.0663  150.9490 N   0  0  0  0  0  0  0  0  0  0  0  0
  145.8146  133.6390  151.7648 C   0  0  0  0  0  0  0  0  0  0  0  0
  146.6183  134.5328  152.5270 N   0  0  0  0  0  0  0  0  0  0  0  0
  146.3758  135.0419  153.7476 C   0  0  0  0  0  0  0  0  0  0  0  0
  145.4209  134.7493  154.4679 O   0  0  0  0  0  0  0  0  0  0  0  0
  147.3159  135.9326  154.0944 N   0  0  0  0  0  0  0  0  0  0  0  0
  147.3231  136.7016  155.3335 C   0  0  0  0  0  0  0  0  0  0  0  0
  148.6116  137.5545  155.5355 C   0  0  2  0  0  0  0  0  0  0  0  0
  149.2785  137.3074  156.9208 C   0  0  1  0  0  0  0  0  0  0  0  0
  148.4576  137.7126  158.1385 C   0  0  0  0  0  0  0  0  0  0  0  0
  149.0100  136.8408  159.2675 C   0  0  0  0  0  0  0  0  0  0  0  0
  149.7551  135.8030  158.6421 O   0  0  0  0  0  0  0  0  0  0  0  0
  149.5060  135.8283  157.2456 C   0  0  0  0  0  0  0  0  0  0  0  0
  148.4067  138.9910  155.2777 N   0  0  0  0  0  0  0  0  0  0  0  0
  147.7612  139.3031  154.0036 C   0  0  0  0  0  0  0  0  0  0  0  0
  147.4741  140.8087  153.8715 C   0  0  0  0  0  0  0  0  0  0  0  0
  148.6811  141.5459  154.0422 O   0  0  0  0  0  0  0  0  0  0  0  0
  149.3048  141.3015  155.2995 C   0  0  0  0  0  0  0  0  0  0  0  0
  149.6117  139.8008  155.4393 C   0  0  0  0  0  0  0  0  0  0  0  0
  147.2994  130.6727  152.7858 H   0  0  0  0  0  0  0  0  0  0  0  0
  147.0435  132.0681  153.8312 H   0  0  0  0  0  0  0  0  0  0  0  0
  148.1902  132.1648  152.4852 H   0  0  0  0  0  0  0  0  0  0  0  0
  145.5690  130.2635  151.2206 H   0  0  0  0  0  0  0  0  0  0  0  0
  143.7425  131.0914  149.7269 H   0  0  0  0  0  0  0  0  0  0  0  0
  143.3228  133.5620  149.6114 H   0  0  0  0  0  0  0  0  0  0  0  0
  147.4619  134.8477  152.0718 H   0  0  0  0  0  0  0  0  0  0  0  0
  148.0683  136.1101  153.4453 H   0  0  0  0  0  0  0  0  0  0  0  0
  146.4254  137.3191  155.3410 H   0  0  0  0  0  0  0  0  0  0  0  0
  147.2083  135.9980  156.1584 H   0  0  0  0  0  0  0  0  0  0  0  0
  149.3384  137.2176  154.7953 H   0  0  0  0  0  0  0  0  0  0  0  0
  150.2386  137.8228  156.9700 H   0  0  0  0  0  0  0  0  0  0  0  0
  148.5366  138.7743  158.3726 H   0  0  0  0  0  0  0  0  0  0  0  0
  147.4037  137.4786  157.9802 H   0  0  0  0  0  0  0  0  0  0  0  0
  149.6731  137.4093  159.9200 H   0  0  0  0  0  0  0  0  0  0  0  0
  148.2076  136.4255  159.8782 H   0  0  0  0  0  0  0  0  0  0  0  0
  148.6118  135.2403  157.0313 H   0  0  0  0  0  0  0  0  0  0  0  0
  150.3400  135.3947  156.6933 H   0  0  0  0  0  0  0  0  0  0  0  0
  148.3980  138.9917  153.1751 H   0  0  0  0  0  0  0  0  0  0  0  0
  146.8248  138.7550  153.9053 H   0  0  0  0  0  0  0  0  0  0  0  0
  147.0564  141.0303  152.8894 H   0  0  0  0  0  0  0  0  0  0  0  0
  146.7386  141.1267  154.6121 H   0  0  0  0  0  0  0  0  0  0  0  0
  150.2241  141.8840  155.3611 H   0  0  0  0  0  0  0  0  0  0  0  0
  148.6552  141.6409  156.1078 H   0  0  0  0  0  0  0  0  0  0  0  0
  150.0589  139.6124  156.4158 H   0  0  0  0  0  0  0  0  0  0  0  0
  150.3586  139.5298  154.6940 H   0  0  0  0  0  0  0  0  0  0  0  0
  1  2  1  0  0  0  0
  1 25  1  0  0  0  0
  1 26  1  0  0  0  0
  1 27  1  0  0  0  0
  2  7  1  0  0  0  0
  2  3  2  0  0  0  0
  3  4  1  0  0  0  0
  3 28  1  0  0  0  0
  4  5  2  0  0  0  0
  4 29  1  0  0  0  0
  5  6  1  0  0  0  0
  5 30  1  0  0  0  0
  6  7  2  0  0  0  0
  7  8  1  0  0  0  0
  8  9  1  0  0  0  0
  8 31  1  0  0  0  0
  9 10  2  0  0  0  0
  9 11  1  0  0  0  0
 11 12  1  0  0  0  0
 11 32  1  0  0  0  0
 12 13  1  0  0  0  0
 12 33  1  0  0  0  0
 12 34  1  0  0  0  0
 13 14  1  0  0  0  0
 13 19  1  0  0  0  0
 13 35  1  0  0  0  0
 14 18  1  0  0  0  0
 14 15  1  0  0  0  0
 14 36  1  0  0  0  0
 15 16  1  0  0  0  0
 15 37  1  0  0  0  0
 15 38  1  0  0  0  0
 16 17  1  0  0  0  0
 16 39  1  0  0  0  0
 16 40  1  0  0  0  0
 17 18  1  0  0  0  0
 18 41  1  0  0  0  0
 18 42  1  0  0  0  0
 19 24  1  0  0  0  0
 19 20  1  0  0  0  0
 20 21  1  0  0  0  0
 20 43  1  0  0  0  0
 20 44  1  0  0  0  0
 21 22  1  0  0  0  0
 21 45  1  0  0  0  0
 21 46  1  0  0  0  0
 22 23  1  0  0  0  0
 23 24  1  0  0  0  0
 23 47  1  0  0  0  0
 23 48  1  0  0  0  0
 24 49  1  0  0  0  0
 24 50  1  0  0  0  0
M  END
> <s_m_source_file>
AV-unprocessed.smi

> <i_m_source_file_index>
1734

> <i_lp_mmshare_version>
43012

> <i_f3d_flags>
0

> <s_epik_input>
W0NIM11jMVtjSF1bY0hdW2NIXW5jMVtOSF1DKD1PKVtOSF1bQ0gyXVtDQEhdKFtDQEBIXTJbQ0gyXVtDSDJdT1tDSDJdMilOM1tDSDJdW0NIMl1PW0NIMl1bQ0gyXTM=

> <s_epik_cmdline>
J2VwaWtfcHl0aG9uJywgJy1waCcsICc3LjAnLCAnLXRuJywgJzgnLCAnLW1hJywgJzIwMCcsICctbWV0YWxfYmluZGluZycsICctaW1hZScsICc8aW5maWxlLm1hZT4nLCAnLW9tYWUnLCAnPG91dGZpbGUubWFlPic=

> <r_epik_Ionization_Penalty>
0.125073

> <r_epik_Ionization_Penalty_Charging>
0

> <r_epik_Ionization_Penalty_Neutral>
0.125073

> <r_epik_State_Penalty>
0.114484

> <r_epik_Charging_Adjusted_Penalty>
0.114484

> <i_epik_Tot_Q>
0

> <i_epik_Tot_abs_Q>
0

> <r_epik_Metal_State_Penalty>
0.114483

> <b_epik_Metal_Only>
0

> <s_lp_Force_Field>
OPLS_2005

> <r_lp_Energy>
51.317

> <b_lp_Chiralities_Consistent>
1

> <s_lp_Variant>
AV-unprocessed.smi:1734-3

> <Gold.Version>
5.8.1

> <Gold.Id.Protein>
6NUR|6NUR_protein|mol2

> <Gold.PLP.Fitness>
44.9236

> <Gold.PLP.PLP>
-33.2650

> <Gold.PLP.part.hbond>
-4.2897

> <Gold.PLP.part.metal>
0.0000

> <Gold.PLP.part.buried>
-5.1962

> <Gold.PLP.part.nonpolar>
-24.7834

> <Gold.PLP.part.repulsive>
0.4722

> <Gold.PLP.ligand.clash>
0.0000

> <Gold.PLP.ligand.torsion>
1.5038

> <Gold.PLP.Chemscore.Hbond>
3.6480

> <Gold.PLP.Chemscore.CHOScore>
1.0000

> <Gold.PLP.Chemscore.Metal>
0.0000

> <Gold.Chemscore.Hbonds>
donor molecule, donor type, donor heavy atom, donor atom, acceptor molecule, acceptor atom, score
      L1  H     8    31       P1  7948  1.00
      L1  H    11    32       P1  7948  1.00
      P1  H  6896  6909       L1    17  1.00
      P1  H  8011  8017       L1    22  0.34
      L1  C     5    30       P1 10186  1.00

> <Gold.PLP.Chemscore.Internal.Correction>
0.7224

> <Gold.Rescore>
     Score         DG    S(hbond)    S(metal)    S(lipo)     H(rot)  DE(clash)    DE(int)     intcor
     20.74     -22.32       3.59        0.00      77.51       1.65       0.09       1.49       ----

> <Gold.Chemscore.Fitness>
20.7364

> <Gold.Chemscore.DG>
-22.3234

> <Gold.Chemscore.ZeroCoef>
-5.4800

> <Gold.Chemscore.Hbond>
3.5910

> <Gold.Chemscore.Metal>
0.0000

> <Gold.Chemscore.Lipo>
77.5066

> <Gold.Chemscore.Internal_Hbond>
0.0000

> <Gold.Chemscore.DEClash>
0.0934

> <Gold.Chemscore.DEInternal>
1.4936

> <Gold.Chemscore.Rot>
1.6480

> <Gold.Chemscore.Internal.Correction>
   9.000000E+99

> <Gold.Chemscore.Hbonds>
donor molecule, donor type, donor heavy atom, donor atom, acceptor molecule, acceptor atom, score
      L1  H     8    31       P1  7948  0.79
      L1  H    11    32       P1  7948  0.99
      P1  H  6896  6909       L1    17  0.95
      P1  H  8011  8017       L1    22  0.34

> <Gold.Chemscore.Hbond.Weighted>
-11.9939

> <Gold.Chemscore.Metal.Weighted>
-0.0000

> <Gold.Chemscore.Lipo.Weighted>
-9.0683

> <Gold.Chemscore.Internal_Hbond.Weighted>
0.0000

> <Gold.Chemscore.DEClash.Weighted>
0.0934

> <Gold.Chemscore.DEInternal.Weighted>
1.4936

> <Gold.Chemscore.Rot.Weighted>
4.2188

> <Gold.Chemscore.Internal.Correction.Weighted>
   9.000000E+99

> <Gold.Protein.RotatedTorsions>
[ 6907 6896 6895 6894 ] final   67.25 input  -60.11 | X-H torsion
[ 7974 7965 7964 7962 ] final  -57.09 input  175.53 | X-H torsion
[ 8008 7997 7996 7995 ] final -157.66 input   59.86 | X-H torsion
[ 10167 10162 10161 10158 ] final  129.29 input  -65.29 | X-H torsion
[ 10718 10713 10712 10709 ] final  -79.09 input   66.30 | X-H torsion
[ 10763 10752 10751 10750 ] final  -14.22 input  -60.55 | X-H torsion
[ 11005 11000 10999 10996 ] final  138.40 input  -57.11 | X-H torsion

> <Gold.Protein.ActiveResidues>
 VAL166  LYS551  ARG553  GLY616  TRP617  ASP618  TYR619  PRO620  LYS621  CYS622 
 ASP623  PHE694  ASN695  SER759  ASP760  ASP761  ALA762  ILE779  LEU786  VAL792 
 PHE793  MET794  SER795  GLU796  ALA797  LYS798  CYS799  TRP800  GLU811  SER814 

> <Gold.Protein.RotatedAtoms>
  152.4539  134.5335  159.9817 H   0  0  0  0  0  0  0  0  0  0  0  0  # atno 6907 bound_to 6896
  151.5400  133.3428  159.2941 H   0  0  0  0  0  0  0  0  0  0  0  0  # atno 6908 bound_to 6896
  150.8476  134.7821  159.7046 H   0  0  0  0  0  0  0  0  0  0  0  0  # atno 6909 bound_to 6896
  145.8551  140.8325  142.9966 H   0  0  0  0  0  0  0  0  0  0  0  0  # atno 7974 bound_to 7965
  155.7357  140.0808  157.2268 H   0  0  0  0  0  0  0  0  0  0  0  0  # atno 8008 bound_to 7997
  154.4027  140.1587  156.2614 H   0  0  0  0  0  0  0  0  0  0  0  0  # atno 8009 bound_to 7997
  155.9067  140.3406  155.6070 H   0  0  0  0  0  0  0  0  0  0  0  0  # atno 8010 bound_to 7997
  139.5485  144.6794  151.4397 H   0  0  0  0  0  0  0  0  0  0  0  0  # atno 10167 bound_to 10162
  156.0101  130.4536  150.3596 H   0  0  0  0  0  0  0  0  0  0  0  0  # atno 10718 bound_to 10713
  153.5251  135.7015  153.5712 H   0  0  0  0  0  0  0  0  0  0  0  0  # atno 10763 bound_to 10752
  153.3744  135.3936  155.1811 H   0  0  0  0  0  0  0  0  0  0  0  0  # atno 10764 bound_to 10752
  154.8690  135.3819  154.4743 H   0  0  0  0  0  0  0  0  0  0  0  0  # atno 10765 bound_to 10752
  140.0181  134.9409  157.0417 H   0  0  0  0  0  0  0  0  0  0  0  0  # atno 11005 bound_to 11000
  144.6728  140.1011  143.7460 LP  0  0  0  0  0  0  0  0  0  0  0  0  # atno 17320 bound_to 7965
  145.9313  139.2608  143.1323 LP  0  0  0  0  0  0  0  0  0  0  0  0  # atno 17321 bound_to 7965
  140.6741  143.8229  150.7036 LP  0  0  0  0  0  0  0  0  0  0  0  0  # atno 17342 bound_to 10162
  140.1662  143.4233  152.2032 LP  0  0  0  0  0  0  0  0  0  0  0  0  # atno 17343 bound_to 10162
  157.1685  131.0363  151.2807 LP  0  0  0  0  0  0  0  0  0  0  0  0  # atno 17370 bound_to 10713
  157.4250  130.7458  149.6943 LP  0  0  0  0  0  0  0  0  0  0  0  0  # atno 17371 bound_to 10713
  140.4436  134.1655  155.7175 LP  0  0  0  0  0  0  0  0  0  0  0  0  # atno 17394 bound_to 11000
  141.1756  133.8521  157.1432 LP  0  0  0  0  0  0  0  0  0  0  0  0  # atno 17395 bound_to 11000

$$$$
