#       Name:                AV-unprocessed.smi:1652
#       Creating user name   scv26
#       Creation time:       Fri Mar 27 07:34:07 2020


#       File generated by GOLD software.
#

@<TRIPOS>MOLECULE
AV-unprocessed.smi:1652
    43    45     1
SMALL
NO_CHARGES


@<TRIPOS>ATOM
      1 ****        -1.0379  -2.9540   0.7154 O.2            1 S1                 0.0000
      2 ****        -1.4609  -1.7976   0.7313 C.2            1 S1                 0.0000
      3 ****        -2.8924  -1.4588   0.7411 C.2            1 S1                 0.0000
      4 ****        -3.8995  -2.6059   0.7311 C.3            1 S1                 0.0000
      5 ****        -5.1560  -2.1593   0.7070 F              1 S1                 0.0000
      6 ****        -3.7219  -3.3787  -0.3410 F              1 S1                 0.0000
      7 ****        -3.7565  -3.3632   1.8193 F              1 S1                 0.0000
      8 ****        -3.2839  -0.1613   0.7540 C.2            1 S1                 0.0000
      9 ****        -2.2979   0.9004   0.7581 C.2            1 S1                 0.0000
     10 ****        -2.6608   2.3579   0.7623 C.3            1 S1                 0.0000
     11 ****        -3.8326   2.8994  -0.0246 C.3            1 S1                 0.0000
     12 ****        -2.4200   3.2384  -0.4418 C.3            1 S1                 0.0000
     13 ****        -1.0427   0.6012   0.7559 N.2            1 S1                 0.0000
     14 ****        -0.6268  -0.7164   0.7414 N.am           1 S1                 0.0000
     15 ****         0.8327  -0.8780   0.7164 C.3            1 S1                 0.0000
     16 ****         1.4083  -0.7336  -0.7093 C.3            1 S1                 0.0000
     17 ****         1.1792  -1.9320  -1.4242 O.3            1 S1                 0.0000
     18 ****         2.8906  -0.3926  -0.6647 C.ar           1 S1                 0.0000
     19 ****         3.3179   0.9257  -0.9336 C.ar           1 S1                 0.0000
     20 ****         4.6871   1.2526  -0.8849 C.ar           1 S1                 0.0000
     21 ****         5.6373   0.2638  -0.5649 C.ar           1 S1                 0.0000
     22 ****         6.9533   0.5788  -0.5177 F              1 S1                 0.0000
     23 ****         5.2173  -1.0521  -0.2921 C.ar           1 S1                 0.0000
     24 ****         3.8482  -1.3793  -0.3396 C.ar           1 S1                 0.0000
     25 ****        -4.3297   0.1065   0.7620 H              1 S1                 0.0000
     26 ****        -2.4810   2.7970   1.7420 H              1 S1                 0.0000
     27 ****        -4.3876   2.2149  -0.6636 H              1 S1                 0.0000
     28 ****        -4.4235   3.6880   0.4366 H              1 S1                 0.0000
     29 ****        -2.0720   4.2533  -0.2602 H              1 S1                 0.0000
     30 ****        -2.0407   2.7710  -1.3489 H              1 S1                 0.0000
     31 ****         1.2526  -0.0916   1.3468 H              1 S1                 0.0000
     32 ****         1.1621  -1.8094   1.1808 H              1 S1                 0.0000
     33 ****         0.8904   0.0680  -1.2380 H              1 S1                 0.0000
     34 ****         1.4612  -1.8074  -2.3174 H              1 S1                 0.0000
     35 ****         2.5971   1.6929  -1.1759 H              1 S1                 0.0000
     36 ****         5.0081   2.2629  -1.0916 H              1 S1                 0.0000
     37 ****         5.9452  -1.8108  -0.0444 H              1 S1                 0.0000
     38 ****         3.5347  -2.3902  -0.1231 H              1 S1                 0.0000
     39 ****        -0.0528  -3.1260   0.7095 LP             1 S1                 0.0000
     40 ****        -1.6794  -3.7210   0.7084 LP             1 S1                 0.0000
     41 ****        -0.3614   1.3331   0.7648 LP             1 S1                 0.0000
     42 ****         0.2044  -2.1543  -1.4062 LP             1 S1                 0.0000
     43 ****         1.6989  -2.6779  -1.0075 LP             1 S1                 0.0000
@<TRIPOS>BOND
    1    1    2 2     
    2    2   14 am    
    3    2    3 1     
    4    3    4 1     
    5    3    8 2     
    6    4    5 1     
    7    4    6 1     
    8    4    7 1     
    9    8    9 1     
   10    8   25 1     
   11    9   10 1     
   12    9   13 2     
   13   10   12 1     
   14   10   11 1     
   15   10   26 1     
   16   11   12 1     
   17   11   27 1     
   18   11   28 1     
   19   12   29 1     
   20   12   30 1     
   21   13   14 1     
   22   14   15 1     
   23   15   16 1     
   24   15   31 1     
   25   15   32 1     
   26   16   17 1     
   27   16   18 1     
   28   16   33 1     
   29   17   34 1     
   30   18   24 ar    
   31   18   19 ar    
   32   19   20 ar    
   33   19   35 1     
   34   20   21 ar    
   35   20   36 1     
   36   21   22 1     
   37   21   23 ar    
   38   23   24 ar    
   39   23   37 1     
   40   24   38 1     
   41    1   39 1     
   42    1   40 1     
   43   13   41 1     
   44   17   42 1     
   45   17   43 1     
@<TRIPOS>SUBSTRUCTURE
      1 S1             1
@<TRIPOS>SET
LONE_PAIRS      STATIC     ATOMS    <user>   **** ""
5 39 40 41 42 43
DONOR_HYDROGENS      STATIC     ATOMS    <user>   **** ""
1 34
ATOM$BLUE        STATIC     ATOMS    COLORGROUP SYSTEM
5 39 40 41 42 43
ATOM$RED        STATIC     ATOMS    COLORGROUP SYSTEM
1 34
