AV-unprocessed.smi:462|AV-procd|sdf|2633|dock8
  -GOLD-   2262023 43D 1   1.00000     0.00000
 Structure written by MMmdl.
 47 49  0  0  0  0  0  0  0  0  2 V2000
  154.7920  134.1103  159.1134 C   0  0  0  0  0  0  0  0  0  0  0  0
  154.2170  135.4050  159.0263 O   0  0  0  0  0  0  0  0  0  0  0  0
  154.1910  136.1883  160.1622 C   0  0  0  0  0  0  0  0  0  0  0  0
  154.5829  135.7286  161.4450 C   0  0  0  0  0  0  0  0  0  0  0  0
  154.5330  136.5889  162.5570 C   0  0  0  0  0  0  0  0  0  0  0  0
  154.0910  137.9139  162.4018 C   0  0  0  0  0  0  0  0  0  0  0  0
  153.7000  138.3807  161.1338 C   0  0  0  0  0  0  0  0  0  0  0  0
  153.7494  137.5222  160.0075 C   0  0  0  0  0  0  0  0  0  0  0  0
  153.3838  137.9073  158.7367 O   0  0  0  0  0  0  0  0  0  0  0  0
  153.1329  139.2809  158.4787 C   0  0  0  0  0  0  0  0  0  0  0  0
  151.6218  139.4887  158.2811 C   0  0  0  0  0  0  0  0  0  0  0  0
  151.2944  140.8501  157.8179 N   0  0  0  0  0  0  0  0  0  0  0  0
  150.5894  141.2839  156.7254 C   0  0  0  0  0  0  0  0  0  0  0  0
  149.9836  140.4528  155.6209 C   0  0  0  0  0  0  0  0  0  0  0  0
  149.0612  139.3570  156.1904 C   0  0  0  0  0  0  0  0  0  0  0  0
  149.2052  141.3617  154.6546 C   0  0  0  0  0  0  0  0  0  0  0  0
  150.9670  139.7709  154.8693 O   0  0  0  0  0  0  0  0  0  0  0  0
  150.5928  142.6487  156.7741 N   0  3  0  0  0  0  0  0  0  0  0  0
  151.2762  143.0904  157.9049 C   0  0  0  0  0  0  0  0  0  0  0  0
  151.5204  144.3768  158.3758 C   0  0  0  0  0  0  0  0  0  0  0  0
  152.2584  144.4832  159.5725 C   0  0  0  0  0  0  0  0  0  0  0  0
  152.7272  143.3386  160.2485 C   0  0  0  0  0  0  0  0  0  0  0  0
  152.4774  142.0408  159.7565 C   0  0  0  0  0  0  0  0  0  0  0  0
  151.7384  141.9425  158.5766 C   0  0  0  0  0  0  0  0  0  0  0  0
  154.7500  133.6339  158.1340 H   0  0  0  0  0  0  0  0  0  0  0  0
  154.2448  133.4765  159.8123 H   0  0  0  0  0  0  0  0  0  0  0  0
  155.8401  134.1588  159.4113 H   0  0  0  0  0  0  0  0  0  0  0  0
  154.9267  134.7179  161.6030 H   0  0  0  0  0  0  0  0  0  0  0  0
  154.8339  136.2308  163.5305 H   0  0  0  0  0  0  0  0  0  0  0  0
  154.0513  138.5733  163.2561 H   0  0  0  0  0  0  0  0  0  0  0  0
  153.3622  139.4024  161.0496 H   0  0  0  0  0  0  0  0  0  0  0  0
  153.4832  139.8902  159.3129 H   0  0  0  0  0  0  0  0  0  0  0  0
  153.6667  139.5988  157.5824 H   0  0  0  0  0  0  0  0  0  0  0  0
  151.2202  138.7667  157.5699 H   0  0  0  0  0  0  0  0  0  0  0  0
  151.0949  139.3102  159.2174 H   0  0  0  0  0  0  0  0  0  0  0  0
  148.2250  139.7833  156.7456 H   0  0  0  0  0  0  0  0  0  0  0  0
  149.6027  138.6914  156.8641 H   0  0  0  0  0  0  0  0  0  0  0  0
  148.6368  138.7428  155.3951 H   0  0  0  0  0  0  0  0  0  0  0  0
  148.4054  141.8919  155.1727 H   0  0  0  0  0  0  0  0  0  0  0  0
  148.7479  140.7871  153.8483 H   0  0  0  0  0  0  0  0  0  0  0  0
  149.8499  142.1119  154.1964 H   0  0  0  0  0  0  0  0  0  0  0  0
  151.3256  139.0770  155.4012 H   0  0  0  0  0  0  0  0  0  0  0  0
  151.1630  145.2550  157.8583 H   0  0  0  0  0  0  0  0  0  0  0  0
  152.4692  145.4613  159.9798 H   0  0  0  0  0  0  0  0  0  0  0  0
  153.2878  143.4564  161.1643 H   0  0  0  0  0  0  0  0  0  0  0  0
  152.8357  141.1723  160.2887 H   0  0  0  0  0  0  0  0  0  0  0  0
  150.1493  143.2343  156.0788 H   0  0  0  0  0  0  0  0  0  0  0  0
  1  2  1  0  0  0  0
  1 25  1  0  0  0  0
  1 26  1  0  0  0  0
  1 27  1  0  0  0  0
  2  3  1  0  0  0  0
  3  8  1  0  0  0  0
  3  4  2  0  0  0  0
  4  5  1  0  0  0  0
  4 28  1  0  0  0  0
  5  6  2  0  0  0  0
  5 29  1  0  0  0  0
  6  7  1  0  0  0  0
  6 30  1  0  0  0  0
  7  8  2  0  0  0  0
  7 31  1  0  0  0  0
  8  9  1  0  0  0  0
  9 10  1  0  0  0  0
 10 11  1  0  0  0  0
 10 32  1  0  0  0  0
 10 33  1  0  0  0  0
 11 12  1  0  0  0  0
 11 34  1  0  0  0  0
 11 35  1  0  0  0  0
 12 24  1  0  0  0  0
 12 13  1  0  0  0  0
 13 14  1  0  0  0  0
 13 18  2  0  0  0  0
 14 15  1  0  0  0  0
 14 16  1  0  0  0  0
 14 17  1  0  0  0  0
 15 36  1  0  0  0  0
 15 37  1  0  0  0  0
 15 38  1  0  0  0  0
 16 39  1  0  0  0  0
 16 40  1  0  0  0  0
 16 41  1  0  0  0  0
 17 42  1  0  0  0  0
 18 19  1  0  0  0  0
 18 47  1  0  0  0  0
 19 24  2  0  0  0  0
 19 20  1  0  0  0  0
 20 21  2  0  0  0  0
 20 43  1  0  0  0  0
 21 22  1  0  0  0  0
 21 44  1  0  0  0  0
 22 23  2  0  0  0  0
 22 45  1  0  0  0  0
 23 24  1  0  0  0  0
 23 46  1  0  0  0  0
M  CHG  1  18   1
M  END
> <s_m_source_file>
AV-unprocessed.smi

> <i_m_source_file_index>
462

> <i_lp_mmshare_version>
43012

> <i_f3d_flags>
0

> <s_epik_input>
W0NIM11PYzFbY0hdW2NIXVtjSF1bY0hdYzFPW0NIMl1bQ0gyXW4oYyhuMilDKFtDSDNdKShbQ0gzXSlbT0hdKWMoYzIzKVtjSF1bY0hdW2NIXVtjSF0z

> <s_epik_cmdline>
J2VwaWtfcHl0aG9uJywgJy1waCcsICc3LjAnLCAnLXRuJywgJzgnLCAnLW1hJywgJzIwMCcsICctbWV0YWxfYmluZGluZycsICctaW1hZScsICc8aW5maWxlLm1hZT4nLCAnLW9tYWUnLCAnPG91dGZpbGUubWFlPic=

> <r_lp_tautomer_probability>
1

> <r_epik_Ionization_Penalty>
1.32796

> <r_epik_Ionization_Penalty_Charging>
1.32796

> <r_epik_Ionization_Penalty_Neutral>
1.51811e-06

> <r_epik_State_Penalty>
1.40413

> <r_epik_Charging_Adjusted_Penalty>
2.73209

> <i_epik_Tot_Q>
1

> <i_epik_Tot_abs_Q>
1

> <r_epik_Metal_State_Penalty>
5.43878

> <b_epik_Metal_Only>
0

> <s_lp_Force_Field>
OPLS_2005

> <r_lp_Energy>
22.2215

> <b_lp_Chiralities_Consistent>
1

> <s_lp_Variant>
AV-unprocessed.smi:462-2

> <Gold.Version>
5.8.1

> <Gold.Id.Protein>
6NUR|6NUR_protein|mol2

> <Gold.PLP.Fitness>
53.7267

> <Gold.PLP.PLP>
-45.9999

> <Gold.PLP.part.hbond>
-2.3381

> <Gold.PLP.part.metal>
0.0000

> <Gold.PLP.part.buried>
-4.6650

> <Gold.PLP.part.nonpolar>
-39.3062

> <Gold.PLP.part.repulsive>
0.0487

> <Gold.PLP.ligand.clash>
0.0000

> <Gold.PLP.ligand.torsion>
0.6609

> <Gold.PLP.Chemscore.Hbond>
2.9840

> <Gold.PLP.Chemscore.CHOScore>
0.0000

> <Gold.PLP.Chemscore.Metal>
0.0000

> <Gold.Chemscore.Hbonds>
donor molecule, donor type, donor heavy atom, donor atom, acceptor molecule, acceptor atom, score
      L1  H    18    47       P1  8028  1.95
      P1  H  7989  7998       L1    17  1.00

> <Gold.PLP.Chemscore.Internal.Correction>
0.0966

> <Gold.Rescore>
     Score         DG    S(hbond)    S(metal)    S(lipo)     H(rot)  DE(clash)    DE(int)     intcor
     20.71     -21.20       1.90        0.00     131.23       2.33       0.08       0.41       ----

> <Gold.Chemscore.Fitness>
20.7142

> <Gold.Chemscore.DG>
-21.2015

> <Gold.Chemscore.ZeroCoef>
-5.4800

> <Gold.Chemscore.Hbond>
1.8956

> <Gold.Chemscore.Metal>
0.0000

> <Gold.Chemscore.Lipo>
131.2347

> <Gold.Chemscore.Internal_Hbond>
0.0000

> <Gold.Chemscore.DEClash>
0.0784

> <Gold.Chemscore.DEInternal>
0.4089

> <Gold.Chemscore.Rot>
2.3298

> <Gold.Chemscore.Internal.Correction>
   9.000000E+99

> <Gold.Chemscore.Hbonds>
donor molecule, donor type, donor heavy atom, donor atom, acceptor molecule, acceptor atom, score
      L1  H    18    47       P1  8028  0.90
      P1  H  7989  7998       L1    17  0.78

> <Gold.Chemscore.Hbond.Weighted>
-6.3314

> <Gold.Chemscore.Metal.Weighted>
-0.0000

> <Gold.Chemscore.Lipo.Weighted>
-15.3545

> <Gold.Chemscore.Internal_Hbond.Weighted>
0.0000

> <Gold.Chemscore.DEClash.Weighted>
0.0784

> <Gold.Chemscore.DEInternal.Weighted>
0.4089

> <Gold.Chemscore.Rot.Weighted>
5.9643

> <Gold.Chemscore.Internal.Correction.Weighted>
   9.000000E+99

> <Gold.Protein.RotatedTorsions>
[ 6907 6896 6895 6894 ] final   45.94 input  -60.11 | X-H torsion
[ 7974 7965 7964 7962 ] final   10.95 input  175.53 | X-H torsion
[ 8008 7997 7996 7995 ] final  172.27 input   59.86 | X-H torsion
[ 10167 10162 10161 10158 ] final   23.65 input  -65.29 | X-H torsion
[ 10718 10713 10712 10709 ] final  -75.15 input   66.30 | X-H torsion
[ 10763 10752 10751 10750 ] final   95.21 input  -60.55 | X-H torsion
[ 11005 11000 10999 10996 ] final  -84.51 input  -57.11 | X-H torsion

> <Gold.Protein.ActiveResidues>
 VAL166  LYS551  ARG553  GLY616  TRP617  ASP618  TYR619  PRO620  LYS621  CYS622 
 ASP623  PHE694  ASN695  SER759  ASP760  ASP761  ALA762  ILE779  LEU786  VAL792 
 PHE793  MET794  SER795  GLU796  ALA797  LYS798  CYS799  TRP800  GLU811  SER814 

> <Gold.Protein.RotatedAtoms>
  152.2505  134.8138  160.0446 H   0  0  0  0  0  0  0  0  0  0  0  0  # atno 6907 bound_to 6896
  151.8820  133.3492  159.3777 H   0  0  0  0  0  0  0  0  0  0  0  0  # atno 6908 bound_to 6896
  150.7082  134.4936  159.5571 H   0  0  0  0  0  0  0  0  0  0  0  0  # atno 6909 bound_to 6896
  146.2380  139.9558  142.8464 H   0  0  0  0  0  0  0  0  0  0  0  0  # atno 7974 bound_to 7965
  156.1191  140.1490  156.9231 H   0  0  0  0  0  0  0  0  0  0  0  0  # atno 8008 bound_to 7997
  154.4822  140.0876  156.7446 H   0  0  0  0  0  0  0  0  0  0  0  0  # atno 8009 bound_to 7997
  155.4461  140.3433  155.4297 H   0  0  0  0  0  0  0  0  0  0  0  0  # atno 8010 bound_to 7997
  140.5252  143.9936  150.6436 H   0  0  0  0  0  0  0  0  0  0  0  0  # atno 10167 bound_to 10162
  156.0217  130.4434  150.2999 H   0  0  0  0  0  0  0  0  0  0  0  0  # atno 10718 bound_to 10713
  153.2506  135.4262  155.0793 H   0  0  0  0  0  0  0  0  0  0  0  0  # atno 10763 bound_to 10752
  154.8380  135.3425  154.6518 H   0  0  0  0  0  0  0  0  0  0  0  0  # atno 10764 bound_to 10752
  153.6940  135.7032  153.5139 H   0  0  0  0  0  0  0  0  0  0  0  0  # atno 10765 bound_to 10752
  141.1650  133.7350  156.8878 H   0  0  0  0  0  0  0  0  0  0  0  0  # atno 11005 bound_to 11000
  145.1818  140.9770  143.4262 LP  0  0  0  0  0  0  0  0  0  0  0  0  # atno 17320 bound_to 7965
  144.9936  139.3666  143.6203 LP  0  0  0  0  0  0  0  0  0  0  0  0  # atno 17321 bound_to 7965
  140.3295  143.3086  152.0701 LP  0  0  0  0  0  0  0  0  0  0  0  0  # atno 17342 bound_to 10162
  139.4936  144.6519  151.6658 LP  0  0  0  0  0  0  0  0  0  0  0  0  # atno 17343 bound_to 10162
  157.1102  131.0219  151.3051 LP  0  0  0  0  0  0  0  0  0  0  0  0  # atno 17370 bound_to 10713
  157.4711  130.7709  149.7324 LP  0  0  0  0  0  0  0  0  0  0  0  0  # atno 17371 bound_to 10713
  140.1670  134.9126  157.2786 LP  0  0  0  0  0  0  0  0  0  0  0  0  # atno 17394 bound_to 11000
  140.2546  134.3643  155.7429 LP  0  0  0  0  0  0  0  0  0  0  0  0  # atno 17395 bound_to 11000

$$$$
