AV-unprocessed.smi:45|AV-procd|sdf|415|dock9
  -GOLD-   2262016283D 1   1.00000     0.00000
 Structure written by MMmdl.
 60 63  0  0  0  0  0  0  0  0  3 V2000
  153.6376  141.5327  160.2011 C   0  0  0  0  0  0  0  0  0  0  0  0
  153.5368  140.1164  160.2224 O   0  0  0  0  0  0  0  0  0  0  0  0
  152.4923  139.5258  159.5416 C   0  0  0  0  0  0  0  0  0  0  0  0
  151.6236  140.2274  158.6671 C   0  0  0  0  0  0  0  0  0  0  0  0
  150.5790  139.5550  158.0044 C   0  0  0  0  0  0  0  0  0  0  0  0
  150.3840  138.1738  158.2024 C   0  0  0  0  0  0  0  0  0  0  0  0
  149.2609  137.4513  157.4863 C   0  0  0  0  0  0  0  0  0  0  0  0
  149.5390  136.0393  157.2684 N   0  0  0  0  0  0  0  0  0  0  0  0
  148.6061  135.0446  157.6092 C   0  0  0  0  0  0  0  0  0  0  0  0
  148.2906  134.8975  158.9161 N   0  0  0  0  0  0  0  0  0  0  0  0
  147.3991  133.9750  159.3014 C   0  0  0  0  0  0  0  0  0  0  0  0
  147.0853  133.8516  160.6542 N   0  0  0  0  0  0  0  0  0  0  0  0
  146.5537  132.6072  161.1993 C   0  0  0  0  0  0  0  0  0  0  0  0
  145.6095  133.0123  162.3300 C   0  0  0  0  0  0  0  0  0  0  0  0
  146.2076  134.3248  162.8191 C   0  0  0  0  0  0  0  0  0  0  0  0
  146.7480  134.9716  161.5351 C   0  0  1  0  0  0  0  0  0  0  0  0
  147.9381  135.9171  161.8037 C   0  0  0  0  0  0  0  0  0  0  0  0
  147.7874  137.1074  161.0591 O   0  0  0  0  0  0  0  0  0  0  0  0
  146.7856  133.1696  158.4204 N   0  3  0  0  0  0  0  0  0  0  0  0
  147.0647  133.2758  157.0986 C   0  0  0  0  0  0  0  0  0  0  0  0
  147.9934  134.2288  156.6257 C   0  0  0  0  0  0  0  0  0  0  0  0
  148.3207  134.3188  155.1565 C   0  0  0  0  0  0  0  0  0  0  0  0
  149.4496  134.6978  154.8262 O   0  0  0  0  0  0  0  0  0  0  0  0
  147.2569  133.9699  154.3805 N   0  5  0  0  0  0  0  0  0  0  0  0
  146.6059  134.8704  153.4272 C   0  0  0  0  0  0  0  0  0  0  0  0
  146.0364  134.1306  152.2218 C   0  0  0  0  0  0  0  0  0  0  0  0
  146.9013  133.4272  151.4799 N   0  0  0  0  0  0  0  0  0  0  0  0
  146.4020  132.7776  150.4060 C   0  0  0  0  0  0  0  0  0  0  0  0
  145.0329  132.8323  150.0758 C   0  0  0  0  0  0  0  0  0  0  0  0
  144.2173  133.6030  150.9284 C   0  0  0  0  0  0  0  0  0  0  0  0
  144.7213  134.2503  152.0015 N   0  0  0  0  0  0  0  0  0  0  0  0
  151.2417  137.4703  159.0704 C   0  0  0  0  0  0  0  0  0  0  0  0
  152.2864  138.1414  159.7357 C   0  0  0  0  0  0  0  0  0  0  0  0
  153.3190  137.2488  160.7946 Cl  0  0  0  0  0  0  0  0  0  0  0  0
  145.9414  135.5290  161.0557 H   0  0  0  0  0  0  0  0  0  0  0  0
  154.5151  141.8389  160.7705 H   0  0  0  0  0  0  0  0  0  0  0  0
  152.7666  142.0017  160.6606 H   0  0  0  0  0  0  0  0  0  0  0  0
  153.7577  141.9089  159.1842 H   0  0  0  0  0  0  0  0  0  0  0  0
  151.7366  141.2857  158.4870 H   0  0  0  0  0  0  0  0  0  0  0  0
  149.9255  140.1039  157.3417 H   0  0  0  0  0  0  0  0  0  0  0  0
  148.3519  137.5525  158.0807 H   0  0  0  0  0  0  0  0  0  0  0  0
  149.0711  137.9328  156.5260 H   0  0  0  0  0  0  0  0  0  0  0  0
  150.4067  135.7740  156.8233 H   0  0  0  0  0  0  0  0  0  0  0  0
  146.0299  132.0142  160.4485 H   0  0  0  0  0  0  0  0  0  0  0  0
  147.3833  132.0130  161.5839 H   0  0  0  0  0  0  0  0  0  0  0  0
  144.6092  133.1901  161.9321 H   0  0  0  0  0  0  0  0  0  0  0  0
  145.5333  132.2571  163.1127 H   0  0  0  0  0  0  0  0  0  0  0  0
  145.4830  134.9543  163.3365 H   0  0  0  0  0  0  0  0  0  0  0  0
  147.0220  134.1123  163.5136 H   0  0  0  0  0  0  0  0  0  0  0  0
  148.0087  136.1620  162.8642 H   0  0  0  0  0  0  0  0  0  0  0  0
  148.8866  135.4644  161.5179 H   0  0  0  0  0  0  0  0  0  0  0  0
  147.7722  136.8890  160.1395 H   0  0  0  0  0  0  0  0  0  0  0  0
  146.5348  132.5851  156.4583 H   0  0  0  0  0  0  0  0  0  0  0  0
  145.7863  135.4097  153.9037 H   0  0  0  0  0  0  0  0  0  0  0  0
  147.2827  135.6525  153.0780 H   0  0  0  0  0  0  0  0  0  0  0  0
  147.0988  132.2099  149.8073 H   0  0  0  0  0  0  0  0  0  0  0  0
  144.6317  132.3131  149.2183 H   0  0  0  0  0  0  0  0  0  0  0  0
  143.1567  133.6993  150.7500 H   0  0  0  0  0  0  0  0  0  0  0  0
  151.0999  136.4115  159.2308 H   0  0  0  0  0  0  0  0  0  0  0  0
  146.1090  132.4734  158.7326 H   0  0  0  0  0  0  0  0  0  0  0  0
  1  2  1  0  0  0  0
  1 36  1  0  0  0  0
  1 37  1  0  0  0  0
  1 38  1  0  0  0  0
  2  3  1  0  0  0  0
  3 33  1  0  0  0  0
  3  4  2  0  0  0  0
  4  5  1  0  0  0  0
  4 39  1  0  0  0  0
  5  6  2  0  0  0  0
  5 40  1  0  0  0  0
  6  7  1  0  0  0  0
  6 32  1  0  0  0  0
  7  8  1  0  0  0  0
  7 41  1  0  0  0  0
  7 42  1  0  0  0  0
  8  9  1  0  0  0  0
  8 43  1  0  0  0  0
  9 21  1  0  0  0  0
  9 10  2  0  0  0  0
 10 11  1  0  0  0  0
 11 12  1  0  0  0  0
 11 19  2  0  0  0  0
 12 16  1  0  0  0  0
 12 13  1  0  0  0  0
 13 14  1  0  0  0  0
 13 44  1  0  0  0  0
 13 45  1  0  0  0  0
 14 15  1  0  0  0  0
 14 46  1  0  0  0  0
 14 47  1  0  0  0  0
 15 16  1  0  0  0  0
 15 48  1  0  0  0  0
 15 49  1  0  0  0  0
 16 35  1  0  0  0  0
 16 17  1  0  0  0  0
 17 18  1  0  0  0  0
 17 50  1  0  0  0  0
 17 51  1  0  0  0  0
 18 52  1  0  0  0  0
 19 20  1  0  0  0  0
 19 60  1  0  0  0  0
 20 21  2  0  0  0  0
 20 53  1  0  0  0  0
 21 22  1  0  0  0  0
 22 23  2  0  0  0  0
 22 24  1  0  0  0  0
 24 25  1  0  0  0  0
 25 26  1  0  0  0  0
 25 54  1  0  0  0  0
 25 55  1  0  0  0  0
 26 31  1  0  0  0  0
 26 27  2  0  0  0  0
 27 28  1  0  0  0  0
 28 29  2  0  0  0  0
 28 56  1  0  0  0  0
 29 30  1  0  0  0  0
 29 57  1  0  0  0  0
 30 31  2  0  0  0  0
 30 58  1  0  0  0  0
 32 33  2  0  0  0  0
 32 59  1  0  0  0  0
 33 34  1  0  0  0  0
M  CHG  1  19   1
M  CHG  1  24  -1
M  END
> <s_m_source_file>
AV-unprocessed.smi

> <i_m_source_file_index>
45

> <i_lp_mmshare_version>
43012

> <i_f3d_flags>
0

> <s_epik_input>
W0NIM11PYzFbY0hdW2NIXWMoW2NIXWMxQ2wpW0NIMl1bTkhdYzJuYyhOM1tDSDJdW0NIMl1bQ0gyXVtDQEhdM1tDSDJdW09IXSluW2NIXWMyQyg9TylbTkhdW0NIMl1jNG5bY0hdW2NIXVtjSF1uNA==

> <s_epik_cmdline>
J2VwaWtfcHl0aG9uJywgJy1waCcsICc3LjAnLCAnLXRuJywgJzgnLCAnLW1hJywgJzIwMCcsICctbWV0YWxfYmluZGluZycsICctaW1hZScsICc8aW5maWxlLm1hZT4nLCAnLW9tYWUnLCAnPG91dGZpbGUubWFlPic=

> <r_lp_tautomer_probability>
0.575011

> <r_epik_Ionization_Penalty>
6.73124

> <r_epik_Ionization_Penalty_Charging>
6.73106

> <r_epik_Ionization_Penalty_Neutral>
0.000179426

> <r_epik_State_Penalty>
8.26145

> <r_epik_Charging_Adjusted_Penalty>
14.9925

> <i_epik_Tot_Q>
0

> <i_epik_Tot_abs_Q>
2

> <r_epik_Metal_State_Penalty>
4.22532

> <b_epik_Metal_Only>
1

> <s_epik_Chemistry_Notes>
This compound contains an electron-poor aromatic ring that is susceptible to covalent hydrolysis at low pH, typically resulting in measured values for nitrogen ring protonation that are around two units higher than predicted values.

> <s_lp_Force_Field>
OPLS_2005

> <r_lp_Energy>
44.6193

> <b_lp_Chiralities_Consistent>
1

> <s_lp_Variant>
AV-unprocessed.smi:45-9

> <Gold.Version>
5.8.1

> <Gold.Id.Protein>
6NUR|6NUR_protein|mol2

> <Gold.PLP.Fitness>
49.7076

> <Gold.PLP.PLP>
-44.7484

> <Gold.PLP.part.hbond>
-2.0000

> <Gold.PLP.part.metal>
0.0000

> <Gold.PLP.part.buried>
-6.6898

> <Gold.PLP.part.nonpolar>
-36.8902

> <Gold.PLP.part.repulsive>
0.5559

> <Gold.PLP.ligand.clash>
0.0000

> <Gold.PLP.ligand.torsion>
3.4112

> <Gold.PLP.Chemscore.Hbond>
1.6976

> <Gold.PLP.Chemscore.CHOScore>
2.0000

> <Gold.PLP.Chemscore.Metal>
0.0000

> <Gold.Chemscore.Hbonds>
donor molecule, donor type, donor heavy atom, donor atom, acceptor molecule, acceptor atom, score
      P1  H  6931  6943       L1    18  0.96
      P1  H  6934  6947       L1    18  0.81
      L1  C    28    56       P1 10747  1.00
      L1  C    30    58       P1 10186  0.92

> <Gold.PLP.Chemscore.Internal.Correction>
0.6887

> <Gold.Rescore>
     Score         DG    S(hbond)    S(metal)    S(lipo)     H(rot)  DE(clash)    DE(int)     intcor
      9.73     -14.81       0.95        0.00     115.96       2.90       0.02       5.07       ----

> <Gold.Chemscore.Fitness>
9.7270

> <Gold.Chemscore.DG>
-14.8146

> <Gold.Chemscore.ZeroCoef>
-5.4800

> <Gold.Chemscore.Hbond>
0.9547

> <Gold.Chemscore.Metal>
0.0000

> <Gold.Chemscore.Lipo>
115.9558

> <Gold.Chemscore.Internal_Hbond>
0.0000

> <Gold.Chemscore.DEClash>
0.0202

> <Gold.Chemscore.DEInternal>
5.0674

> <Gold.Chemscore.Rot>
2.8988

> <Gold.Chemscore.Internal.Correction>
   9.000000E+99

> <Gold.Chemscore.Hbonds>
donor molecule, donor type, donor heavy atom, donor atom, acceptor molecule, acceptor atom, score
      P1  H  6931  6943       L1    18  0.32
      P1  H  6934  6947       L1    18  0.17

> <Gold.Chemscore.Hbond.Weighted>
-3.1886

> <Gold.Chemscore.Metal.Weighted>
-0.0000

> <Gold.Chemscore.Lipo.Weighted>
-13.5668

> <Gold.Chemscore.Internal_Hbond.Weighted>
0.0000

> <Gold.Chemscore.DEClash.Weighted>
0.0202

> <Gold.Chemscore.DEInternal.Weighted>
5.0674

> <Gold.Chemscore.Rot.Weighted>
7.4209

> <Gold.Chemscore.Internal.Correction.Weighted>
   9.000000E+99

> <Gold.Protein.RotatedTorsions>
[ 6907 6896 6895 6894 ] final   67.11 input  -60.11 | X-H torsion
[ 7974 7965 7964 7962 ] final -176.01 input  175.53 | X-H torsion
[ 8008 7997 7996 7995 ] final -129.68 input   59.86 | X-H torsion
[ 10167 10162 10161 10158 ] final  -92.87 input  -65.29 | X-H torsion
[ 10718 10713 10712 10709 ] final   12.71 input   66.30 | X-H torsion
[ 10763 10752 10751 10750 ] final  -74.57 input  -60.55 | X-H torsion
[ 11005 11000 10999 10996 ] final   10.11 input  -57.11 | X-H torsion

> <Gold.Protein.ActiveResidues>
 VAL166  LYS551  ARG553  GLY616  TRP617  ASP618  TYR619  PRO620  LYS621  CYS622 
 ASP623  PHE694  ASN695  SER759  ASP760  ASP761  ALA762  ILE779  LEU786  VAL792 
 PHE793  MET794  SER795  GLU796  ALA797  LYS798  CYS799  TRP800  GLU811  SER814 

> <Gold.Protein.RotatedAtoms>
  152.4529  134.5355  159.9823 H   0  0  0  0  0  0  0  0  0  0  0  0  # atno 6907 bound_to 6896
  151.5423  133.3425  159.2945 H   0  0  0  0  0  0  0  0  0  0  0  0  # atno 6908 bound_to 6896
  150.8463  134.7805  159.7036 H   0  0  0  0  0  0  0  0  0  0  0  0  # atno 6909 bound_to 6896
  144.7127  140.1234  143.6403 H   0  0  0  0  0  0  0  0  0  0  0  0  # atno 7974 bound_to 7965
  155.2831  140.0445  157.3017 H   0  0  0  0  0  0  0  0  0  0  0  0  # atno 8008 bound_to 7997
  154.5585  140.2339  155.8341 H   0  0  0  0  0  0  0  0  0  0  0  0  # atno 8009 bound_to 7997
  156.2027  140.3021  155.9568 H   0  0  0  0  0  0  0  0  0  0  0  0  # atno 8010 bound_to 7997
  140.3304  143.2998  151.9948 H   0  0  0  0  0  0  0  0  0  0  0  0  # atno 10167 bound_to 10162
  157.0141  130.6129  149.5712 H   0  0  0  0  0  0  0  0  0  0  0  0  # atno 10718 bound_to 10713
  154.4748  135.5860  153.6347 H   0  0  0  0  0  0  0  0  0  0  0  0  # atno 10763 bound_to 10752
  152.9839  135.6075  154.3320 H   0  0  0  0  0  0  0  0  0  0  0  0  # atno 10764 bound_to 10752
  154.3206  135.2843  155.2500 H   0  0  0  0  0  0  0  0  0  0  0  0  # atno 10765 bound_to 10752
  140.5182  134.0585  155.7837 H   0  0  0  0  0  0  0  0  0  0  0  0  # atno 11005 bound_to 11000
  145.9351  139.2631  143.1302 LP  0  0  0  0  0  0  0  0  0  0  0  0  # atno 17320 bound_to 7965
  145.9483  140.8928  143.0272 LP  0  0  0  0  0  0  0  0  0  0  0  0  # atno 17321 bound_to 7965
  139.4857  144.6239  151.7202 LP  0  0  0  0  0  0  0  0  0  0  0  0  # atno 17342 bound_to 10162
  140.5402  144.0591  150.6085 LP  0  0  0  0  0  0  0  0  0  0  0  0  # atno 17343 bound_to 10162
  156.0125  130.5218  150.8034 LP  0  0  0  0  0  0  0  0  0  0  0  0  # atno 17370 bound_to 10713
  157.5298  131.0936  150.9969 LP  0  0  0  0  0  0  0  0  0  0  0  0  # atno 17371 bound_to 10713
  141.1349  133.9239  157.2456 LP  0  0  0  0  0  0  0  0  0  0  0  0  # atno 17394 bound_to 11000
  139.9620  135.0151  156.9288 LP  0  0  0  0  0  0  0  0  0  0  0  0  # atno 17395 bound_to 11000

$$$$
