AV-unprocessed.smi:2836|AV-procd|sdf|10919|dock7
  -GOLD-   2272015363D 1   1.00000     0.00000
 Structure written by MMmdl.
 30 31  0  0  0  0  0  0  0  0  1 V2000
  146.2177  140.9999  153.6221 N   0  0  0  0  0  0  0  0  0  0  0  0
  146.9551  141.7563  154.4401 C   0  0  0  0  0  0  0  0  0  0  0  0
  146.5602  142.8275  154.8948 O   0  0  0  0  0  0  0  0  0  0  0  0
  148.3336  141.2512  154.7316 C   0  0  0  0  0  0  0  0  0  0  0  0
  149.0729  140.3246  153.9504 C   0  0  0  0  0  0  0  0  0  0  0  0
  150.2715  140.1157  154.4752 N   0  0  0  0  0  0  0  0  0  0  0  0
  150.3207  140.9116  155.5740 N   0  0  0  0  0  0  0  0  0  0  0  0
  151.5232  140.9422  156.3858 C   0  0  0  0  0  0  0  0  0  0  0  0
  151.2291  141.3531  157.8356 C   0  0  0  0  0  0  0  0  0  0  0  0
  152.4064  141.1935  158.6156 O   0  0  0  0  0  0  0  0  0  0  0  0
  152.5296  141.9165  159.7828 C   0  0  0  0  0  0  0  0  0  0  0  0
  151.8766  143.1529  160.0197 C   0  0  0  0  0  0  0  0  0  0  0  0
  152.0506  143.8292  161.2426 C   0  0  0  0  0  0  0  0  0  0  0  0
  152.8765  143.2822  162.2413 C   0  0  0  0  0  0  0  0  0  0  0  0
  153.0422  143.9334  163.4168 F   0  0  0  0  0  0  0  0  0  0  0  0
  153.5299  142.0569  162.0158 C   0  0  0  0  0  0  0  0  0  0  0  0
  153.3571  141.3782  160.7936 C   0  0  0  0  0  0  0  0  0  0  0  0
  154.1727  139.8766  160.5394 Cl  0  0  0  0  0  0  0  0  0  0  0  0
  149.1531  141.6264  155.7555 C   0  0  0  0  0  0  0  0  0  0  0  0
  145.2804  141.2894  153.3830 H   0  0  0  0  0  0  0  0  0  0  0  0
  146.5993  140.1461  153.2422 H   0  0  0  0  0  0  0  0  0  0  0  0
  148.7881  139.8080  153.0456 H   0  0  0  0  0  0  0  0  0  0  0  0
  151.9829  139.9536  156.3607 H   0  0  0  0  0  0  0  0  0  0  0  0
  152.2375  141.6332  155.9352 H   0  0  0  0  0  0  0  0  0  0  0  0
  150.8978  142.3926  157.8612 H   0  0  0  0  0  0  0  0  0  0  0  0
  150.4249  140.7317  158.2323 H   0  0  0  0  0  0  0  0  0  0  0  0
  151.2334  143.6033  159.2794 H   0  0  0  0  0  0  0  0  0  0  0  0
  151.5478  144.7695  161.4147 H   0  0  0  0  0  0  0  0  0  0  0  0
  154.1644  141.6369  162.7824 H   0  0  0  0  0  0  0  0  0  0  0  0
  149.0164  142.3198  156.5723 H   0  0  0  0  0  0  0  0  0  0  0  0
  1  2  1  0  0  0  0
  1 20  1  0  0  0  0
  1 21  1  0  0  0  0
  2  3  2  0  0  0  0
  2  4  1  0  0  0  0
  4 19  2  0  0  0  0
  4  5  1  0  0  0  0
  5  6  2  0  0  0  0
  5 22  1  0  0  0  0
  6  7  1  0  0  0  0
  7  8  1  0  0  0  0
  7 19  1  0  0  0  0
  8  9  1  0  0  0  0
  8 23  1  0  0  0  0
  8 24  1  0  0  0  0
  9 10  1  0  0  0  0
  9 25  1  0  0  0  0
  9 26  1  0  0  0  0
 10 11  1  0  0  0  0
 11 17  1  0  0  0  0
 11 12  2  0  0  0  0
 12 13  1  0  0  0  0
 12 27  1  0  0  0  0
 13 14  2  0  0  0  0
 13 28  1  0  0  0  0
 14 15  1  0  0  0  0
 14 16  1  0  0  0  0
 16 17  2  0  0  0  0
 16 29  1  0  0  0  0
 17 18  1  0  0  0  0
 19 30  1  0  0  0  0
M  END
> <s_m_source_file>
AV-unprocessed.smi

> <i_m_source_file_index>
2836

> <i_lp_mmshare_version>
43012

> <i_f3d_flags>
0

> <s_epik_input>
W05IMl1DKD1PKWMxW2NIXW5uKFtjSF0xKVtDSDJdW0NIMl1PYzJbY0hdW2NIXWMoRilbY0hdYzJDbA==

> <s_epik_cmdline>
J2VwaWtfcHl0aG9uJywgJy1waCcsICc3LjAnLCAnLXRuJywgJzgnLCAnLW1hJywgJzIwMCcsICctbWV0YWxfYmluZGluZycsICctaW1hZScsICc8aW5maWxlLm1hZT4nLCAnLW9tYWUnLCAnPG91dGZpbGUubWFlPic=

> <r_lp_tautomer_probability>
1

> <r_epik_Ionization_Penalty>
2.53738e-06

> <r_epik_Ionization_Penalty_Charging>
0

> <r_epik_Ionization_Penalty_Neutral>
2.53738e-06

> <r_epik_State_Penalty>
-0

> <r_epik_Charging_Adjusted_Penalty>
0

> <i_epik_Tot_Q>
0

> <i_epik_Tot_abs_Q>
0

> <r_epik_Metal_State_Penalty>
-0

> <b_epik_Metal_Only>
0

> <s_lp_Force_Field>
OPLS_2005

> <r_lp_Energy>
11.0812

> <b_lp_Chiralities_Consistent>
1

> <s_lp_Variant>
AV-unprocessed.smi:2836-1

> <Gold.Version>
5.8.1

> <Gold.Id.Protein>
6NUR|6NUR_protein|mol2

> <Gold.PLP.Fitness>
51.6414

> <Gold.PLP.PLP>
-43.8672

> <Gold.PLP.part.hbond>
-2.0000

> <Gold.PLP.part.metal>
0.0000

> <Gold.PLP.part.buried>
-2.0804

> <Gold.PLP.part.nonpolar>
-39.7470

> <Gold.PLP.part.repulsive>
0.9663

> <Gold.PLP.ligand.clash>
0.0000

> <Gold.PLP.ligand.torsion>
1.0315

> <Gold.PLP.Chemscore.Hbond>
1.7144

> <Gold.PLP.Chemscore.CHOScore>
1.5485

> <Gold.PLP.Chemscore.Metal>
0.0000

> <Gold.Chemscore.Hbonds>
donor molecule, donor type, donor heavy atom, donor atom, acceptor molecule, acceptor atom, score
      L1  H     1    20       P1 10175  0.73
      P1  H  7989  7998       L1     6  1.00
      L1  C     5    22       P1  7957  0.95
      L1  C    19    30       P1  8028  0.54

> <Gold.PLP.Chemscore.Internal.Correction>
0.0487

> <Gold.Rescore>
     Score         DG    S(hbond)    S(metal)    S(lipo)     H(rot)  DE(clash)    DE(int)     intcor
     16.58     -18.17       1.51        0.00     106.70       1.89       0.70       0.89       ----

> <Gold.Chemscore.Fitness>
16.5773

> <Gold.Chemscore.DG>
-18.1669

> <Gold.Chemscore.ZeroCoef>
-5.4800

> <Gold.Chemscore.Hbond>
1.5061

> <Gold.Chemscore.Metal>
0.0000

> <Gold.Chemscore.Lipo>
106.7026

> <Gold.Chemscore.Internal_Hbond>
0.0000

> <Gold.Chemscore.DEClash>
0.6977

> <Gold.Chemscore.DEInternal>
0.8920

> <Gold.Chemscore.Rot>
1.8857

> <Gold.Chemscore.Internal.Correction>
   9.000000E+99

> <Gold.Chemscore.Hbonds>
donor molecule, donor type, donor heavy atom, donor atom, acceptor molecule, acceptor atom, score
      L1  H     1    20       P1 10175  0.16
      P1  H  7989  7998       L1     6  0.22

> <Gold.Chemscore.Hbond.Weighted>
-5.0302

> <Gold.Chemscore.Metal.Weighted>
-0.0000

> <Gold.Chemscore.Lipo.Weighted>
-12.4842

> <Gold.Chemscore.Internal_Hbond.Weighted>
0.0000

> <Gold.Chemscore.DEClash.Weighted>
0.6977

> <Gold.Chemscore.DEInternal.Weighted>
0.8920

> <Gold.Chemscore.Rot.Weighted>
4.8275

> <Gold.Chemscore.Internal.Correction.Weighted>
   9.000000E+99

> <Gold.Protein.RotatedTorsions>
[ 6907 6896 6895 6894 ] final  -90.71 input  -60.11 | X-H torsion
[ 7974 7965 7964 7962 ] final   -8.94 input  175.53 | X-H torsion
[ 8008 7997 7996 7995 ] final   80.34 input   59.86 | X-H torsion
[ 10167 10162 10161 10158 ] final -102.04 input  -65.29 | X-H torsion
[ 10718 10713 10712 10709 ] final -164.43 input   66.30 | X-H torsion
[ 10763 10752 10751 10750 ] final  153.36 input  -60.55 | X-H torsion
[ 11005 11000 10999 10996 ] final -175.70 input  -57.11 | X-H torsion

> <Gold.Protein.ActiveResidues>
 VAL166  LYS551  ARG553  GLY616  TRP617  ASP618  TYR619  PRO620  LYS621  CYS622 
 ASP623  PHE694  ASN695  SER759  ASP760  ASP761  ALA762  ILE779  LEU786  VAL792 
 PHE793  MET794  SER795  GLU796  ALA797  LYS798  CYS799  TRP800  GLU811  SER814 

> <Gold.Protein.RotatedAtoms>
  150.6884  134.2389  159.4464 H   0  0  0  0  0  0  0  0  0  0  0  0  # atno 6907 bound_to 6896
  152.0335  134.9751  160.0582 H   0  0  0  0  0  0  0  0  0  0  0  0  # atno 6908 bound_to 6896
  152.1281  133.4357  159.4744 H   0  0  0  0  0  0  0  0  0  0  0  0  # atno 6909 bound_to 6896
  146.2266  140.2543  142.8348 H   0  0  0  0  0  0  0  0  0  0  0  0  # atno 7974 bound_to 7965
  155.8822  140.3443  155.5896 H   0  0  0  0  0  0  0  0  0  0  0  0  # atno 8008 bound_to 7997
  155.7707  140.0845  157.2128 H   0  0  0  0  0  0  0  0  0  0  0  0  # atno 8009 bound_to 7997
  154.4025  140.1519  156.2926 H   0  0  0  0  0  0  0  0  0  0  0  0  # atno 8010 bound_to 7997
  140.2349  143.3580  152.0854 H   0  0  0  0  0  0  0  0  0  0  0  0  # atno 10167 bound_to 10162
  156.6389  130.8961  151.2992 H   0  0  0  0  0  0  0  0  0  0  0  0  # atno 10718 bound_to 10713
  154.1350  135.2824  155.3175 H   0  0  0  0  0  0  0  0  0  0  0  0  # atno 10763 bound_to 10752
  154.6328  135.5429  153.7703 H   0  0  0  0  0  0  0  0  0  0  0  0  # atno 10764 bound_to 10752
  153.0269  135.6467  154.1499 H   0  0  0  0  0  0  0  0  0  0  0  0  # atno 10765 bound_to 10752
  140.4603  134.6260  157.4840 H   0  0  0  0  0  0  0  0  0  0  0  0  # atno 11005 bound_to 11000
  144.9388  140.8056  143.5643 LP  0  0  0  0  0  0  0  0  0  0  0  0  # atno 17320 bound_to 7965
  145.2492  139.2039  143.4951 LP  0  0  0  0  0  0  0  0  0  0  0  0  # atno 17321 bound_to 7965
  139.5097  144.6872  151.5857 LP  0  0  0  0  0  0  0  0  0  0  0  0  # atno 17342 bound_to 10162
  140.6157  143.9352  150.6487 LP  0  0  0  0  0  0  0  0  0  0  0  0  # atno 17343 bound_to 10162
  157.7177  130.9518  150.1317 LP  0  0  0  0  0  0  0  0  0  0  0  0  # atno 17370 bound_to 10713
  156.2174  130.3671  149.8596 LP  0  0  0  0  0  0  0  0  0  0  0  0  # atno 17371 bound_to 10713
  139.9949  134.6926  155.9626 LP  0  0  0  0  0  0  0  0  0  0  0  0  # atno 17394 bound_to 11000
  141.1624  133.6538  156.4364 LP  0  0  0  0  0  0  0  0  0  0  0  0  # atno 17395 bound_to 11000

$$$$
