#       Name:                AV-unprocessed.smi:1586
#       Creating user name   scv26
#       Creation time:       Fri Mar 27 07:00:46 2020


#       File generated by GOLD software.
#

@<TRIPOS>MOLECULE
AV-unprocessed.smi:1586
    53    54     1
SMALL
NO_CHARGES


@<TRIPOS>ATOM
      1 ****        -2.5796  -3.9536  -4.3833 C.3            1 S1                 0.0000
      2 ****        -2.9797  -2.4807  -4.2133 C.3            1 S1                 0.0000
      3 ****        -2.3815  -1.8097  -3.0610 N.3            1 S1                 0.0000
      4 ****        -0.9360  -1.6403  -3.1979 C.3            1 S1                 0.0000
      5 ****        -0.3278  -0.9326  -1.9727 C.3            1 S1                 0.0000
      6 ****        -0.9109   0.3982  -1.7392 N.3            1 S1                 0.0000
      7 ****        -0.3385   1.0708  -0.5499 C.3            1 S1                 0.0000
      8 ****        -0.9903   2.4488  -0.2695 C.3            1 S1                 0.0000
      9 ****         1.2053   1.2550  -0.6287 C.3            1 S1                 0.0000
     10 ****         1.7791   1.8678   0.5667 N.am           1 S1                 0.0000
     11 ****         1.9668   1.2415   1.7375 C.2            1 S1                 0.0000
     12 ****         1.6763   0.0605   1.9274 O.2            1 S1                 0.0000
     13 ****         2.5021   2.0688   2.6511 N.am           1 S1                 0.0000
     14 ****         2.8452   1.7904   3.9994 C.2            1 S1                 0.0000
     15 ****         2.6825   0.5445   4.6726 C.2            1 S1                 0.0000
     16 ****         3.1599   0.8088   5.9251 C.2            1 S1                 0.0000
     17 ****         3.3001  -0.0233   7.1534 C.3            1 S1                 0.0000
     18 ****         3.5757   2.1008   6.0111 O.3            1 S1                 0.0000
     19 ****         3.3708   2.7219   4.7737 N.2            1 S1                 0.0000
     20 ****        -2.3682   0.2226  -1.6363 C.3            1 S1                 0.0000
     21 ****        -2.9659  -0.4868  -2.8650 C.3            1 S1                 0.0000
     22 ****        -3.1456  -4.4124  -5.1941 H              1 S1                 0.0000
     23 ****        -2.7813  -4.5227  -3.4755 H              1 S1                 0.0000
     24 ****        -1.5228  -4.0642  -4.6248 H              1 S1                 0.0000
     25 ****        -2.7470  -1.9313  -5.1268 H              1 S1                 0.0000
     26 ****        -4.0654  -2.4478  -4.1128 H              1 S1                 0.0000
     27 ****        -0.4527  -2.6102  -3.3095 H              1 S1                 0.0000
     28 ****        -0.7083  -1.0715  -4.1010 H              1 S1                 0.0000
     29 ****        -0.4524  -1.5573  -1.0867 H              1 S1                 0.0000
     30 ****         0.7411  -0.8573  -2.1588 H              1 S1                 0.0000
     31 ****        -0.5442   0.4412   0.3171 H              1 S1                 0.0000
     32 ****        -0.5291   2.9647   0.5716 H              1 S1                 0.0000
     33 ****        -2.0428   2.3614  -0.0037 H              1 S1                 0.0000
     34 ****        -0.9140   3.1047  -1.1372 H              1 S1                 0.0000
     35 ****         1.7259   0.3095  -0.7731 H              1 S1                 0.0000
     36 ****         1.4602   1.8793  -1.4855 H              1 S1                 0.0000
     37 ****         2.0457   2.8389   0.4957 H              1 S1                 0.0000
     38 ****         2.6868   3.0132   2.3466 H              1 S1                 0.0000
     39 ****         2.2864  -0.3935   4.3145 H              1 S1                 0.0000
     40 ****         3.1557  -1.0797   6.9265 H              1 S1                 0.0000
     41 ****         2.5627   0.2660   7.9021 H              1 S1                 0.0000
     42 ****         4.2917   0.0950   7.5904 H              1 S1                 0.0000
     43 ****        -2.6154  -0.3362  -0.7322 H              1 S1                 0.0000
     44 ****        -2.8651   1.1877  -1.5573 H              1 S1                 0.0000
     45 ****        -2.8122   0.1273  -3.7540 H              1 S1                 0.0000
     46 ****        -4.0446  -0.5774  -2.7331 H              1 S1                 0.0000
     47 ****        -2.5694  -2.4006  -2.2764 LP             1 S1                 0.0000
     48 ****        -0.6891   1.0063  -2.5015 LP             1 S1                 0.0000
     49 ****         1.2787  -0.4819   1.1873 LP             1 S1                 0.0000
     50 ****         1.8380  -0.3566   2.8218 LP             1 S1                 0.0000
     51 ****         4.5480   2.1265   6.2436 LP             1 S1                 0.0000
     52 ****         3.0515   2.5766   6.7173 LP             1 S1                 0.0000
     53 ****         3.5782   3.6689   4.5284 LP             1 S1                 0.0000
@<TRIPOS>BOND
    1    1    2 1     
    2    1   22 1     
    3    1   23 1     
    4    1   24 1     
    5    2    3 1     
    6    2   25 1     
    7    2   26 1     
    8    3   21 1     
    9    3    4 1     
   10    4    5 1     
   11    4   27 1     
   12    4   28 1     
   13    5    6 1     
   14    5   29 1     
   15    5   30 1     
   16    6    7 1     
   17    6   20 1     
   18    7    8 1     
   19    7    9 1     
   20    7   31 1     
   21    8   32 1     
   22    8   33 1     
   23    8   34 1     
   24    9   10 1     
   25    9   35 1     
   26    9   36 1     
   27   10   11 am    
   28   10   37 1     
   29   11   12 2     
   30   11   13 am    
   31   13   14 1     
   32   13   38 1     
   33   14   19 2     
   34   14   15 1     
   35   15   16 2     
   36   15   39 1     
   37   16   17 1     
   38   16   18 1     
   39   17   40 1     
   40   17   41 1     
   41   17   42 1     
   42   18   19 1     
   43   20   21 1     
   44   20   43 1     
   45   20   44 1     
   46   21   45 1     
   47   21   46 1     
   48    3   47 1     
   49    6   48 1     
   50   12   49 1     
   51   12   50 1     
   52   18   51 1     
   53   18   52 1     
   54   19   53 1     
@<TRIPOS>SUBSTRUCTURE
      1 S1             1
@<TRIPOS>SET
LONE_PAIRS      STATIC     ATOMS    <user>   **** ""
7 47 48 49 50 51 52 53
DONOR_HYDROGENS      STATIC     ATOMS    <user>   **** ""
2 37 38
ATOM$BLUE        STATIC     ATOMS    COLORGROUP SYSTEM
7 47 48 49 50 51 52 53
ATOM$RED        STATIC     ATOMS    COLORGROUP SYSTEM
2 37 38
