#       Name:                AV-unprocessed.smi:1360
#       Creating user name   scv26
#       Creation time:       Fri Mar 27 05:14:38 2020


#       File generated by GOLD software.
#

@<TRIPOS>MOLECULE
AV-unprocessed.smi:1360
    39    40     1
SMALL
NO_CHARGES


@<TRIPOS>ATOM
      1 ****        -0.2756  -2.2314   1.7511 C.3            1 S1                 0.0000
      2 ****         0.1665  -1.5384   0.4516 C.3            1 S1                 0.0000
      3 ****         1.6954  -1.5726   0.2328 C.3            1 S1                 0.0000
      4 ****         2.2437  -2.9166   0.2643 N.pl3          1 S1                 0.0000
      5 ****         3.0520  -3.4906   1.2231 C.2            1 S1                 0.0000
      6 ****         3.3149  -4.7686   0.8205 C.2            1 S1                 0.0000
      7 ****         2.6196  -4.8831  -0.4158 C.2            1 S1                 0.0000
      8 ****         1.9814  -3.7724  -0.7470 N.2            1 S1                 0.0000
      9 ****        -0.3084  -0.1577   0.4615 N.am           1 S1                 0.0000
     10 ****        -0.5963   0.5750  -0.6259 C.2            1 S1                 0.0000
     11 ****        -0.4782   0.1511  -1.7760 O.2            1 S1                 0.0000
     12 ****        -1.0959   2.0045  -0.3761 C.3            1 S1                 0.0000
     13 ****        -0.1498   3.0503  -1.0111 C.3            1 S1                 0.0000
     14 ****        -0.7505   4.4451  -1.0065 C.2            1 S1                 0.0000
     15 ****        -2.0560   4.6873  -0.7977 C.2            1 S1                 0.0000
     16 ****        -3.0787   3.5933  -0.5466 C.3            1 S1                 0.0000
     17 ****        -2.5350   2.1946  -0.8955 C.3            1 S1                 0.0000
     18 ****        -0.0248  -3.2923   1.7445 H              1 S1                 0.0000
     19 ****        -1.3552  -2.1581   1.8863 H              1 S1                 0.0000
     20 ****         0.2010  -1.7815   2.6225 H              1 S1                 0.0000
     21 ****        -0.3149  -2.0651  -0.3747 H              1 S1                 0.0000
     22 ****         1.9547  -1.1218  -0.7264 H              1 S1                 0.0000
     23 ****         2.1977  -0.9809   0.9994 H              1 S1                 0.0000
     24 ****         3.3661  -2.9494   2.1036 H              1 S1                 0.0000
     25 ****         3.9136  -5.5085   1.3305 H              1 S1                 0.0000
     26 ****         2.5606  -5.7341  -1.0781 H              1 S1                 0.0000
     27 ****        -0.4334   0.2727   1.3661 H              1 S1                 0.0000
     28 ****        -1.1106   2.1760   0.7022 H              1 S1                 0.0000
     29 ****         0.7922   3.0763  -0.4623 H              1 S1                 0.0000
     30 ****         0.0919   2.7943  -2.0436 H              1 S1                 0.0000
     31 ****        -0.0755   5.2670  -1.1957 H              1 S1                 0.0000
     32 ****        -2.4196   5.7044  -0.7934 H              1 S1                 0.0000
     33 ****        -3.3644   3.6350   0.5047 H              1 S1                 0.0000
     34 ****        -3.9775   3.7985  -1.1285 H              1 S1                 0.0000
     35 ****        -2.5506   2.0657  -1.9790 H              1 S1                 0.0000
     36 ****        -3.1987   1.4318  -0.4860 H              1 S1                 0.0000
     37 ****         1.4286  -3.6043  -1.5632 LP             1 S1                 0.0000
     38 ****        -0.1538  -0.7815  -1.9343 LP             1 S1                 0.0000
     39 ****        -0.7068   0.7394  -2.5516 LP             1 S1                 0.0000
@<TRIPOS>BOND
    1    1    2 1     
    2    1   18 1     
    3    1   19 1     
    4    1   20 1     
    5    2    3 1     
    6    2    9 1     
    7    2   21 1     
    8    3    4 1     
    9    3   22 1     
   10    3   23 1     
   11    4    8 1     
   12    4    5 1     
   13    5    6 2     
   14    5   24 1     
   15    6    7 1     
   16    6   25 1     
   17    7    8 2     
   18    7   26 1     
   19    9   10 am    
   20    9   27 1     
   21   10   11 2     
   22   10   12 1     
   23   12   17 1     
   24   12   13 1     
   25   12   28 1     
   26   13   14 1     
   27   13   29 1     
   28   13   30 1     
   29   14   15 2     
   30   14   31 1     
   31   15   16 1     
   32   15   32 1     
   33   16   17 1     
   34   16   33 1     
   35   16   34 1     
   36   17   35 1     
   37   17   36 1     
   38    8   37 1     
   39   11   38 1     
   40   11   39 1     
@<TRIPOS>SUBSTRUCTURE
      1 S1             1
@<TRIPOS>SET
LONE_PAIRS      STATIC     ATOMS    <user>   **** ""
3 37 38 39
DONOR_HYDROGENS      STATIC     ATOMS    <user>   **** ""
1 27
ATOM$BLUE        STATIC     ATOMS    COLORGROUP SYSTEM
3 37 38 39
ATOM$RED        STATIC     ATOMS    COLORGROUP SYSTEM
1 27
