AV-unprocessed.smi:1584|AV-procd|sdf|6365|dock2
  -GOLD-   22720 6593D 1   1.00000     0.00000
 Structure written by MMmdl.
 39 40  0  0  0  0  0  0  0  0  1 V2000
  155.1687  141.2985  159.7816 C   0  0  0  0  0  0  0  0  0  0  0  0
  154.0279  140.7567  160.6563 C   0  0  2  0  0  0  0  0  0  0  0  0
  153.4881  141.8359  161.6147 C   0  0  0  0  0  0  0  0  0  0  0  0
  152.7308  142.8628  160.9210 N   0  0  0  0  0  0  0  0  0  0  0  0
  153.0840  143.5747  159.7937 C   0  0  0  0  0  0  0  0  0  0  0  0
  152.0590  144.4338  159.5183 C   0  0  0  0  0  0  0  0  0  0  0  0
  151.1107  144.1687  160.5454 C   0  0  0  0  0  0  0  0  0  0  0  0
  151.5151  143.2271  161.3827 N   0  0  0  0  0  0  0  0  0  0  0  0
  154.4932  139.6006  161.4197 N   0  0  0  0  0  0  0  0  0  0  0  0
  154.6700  138.3629  160.9328 C   0  0  0  0  0  0  0  0  0  0  0  0
  154.4832  138.0671  159.7520 O   0  0  0  0  0  0  0  0  0  0  0  0
  155.1287  137.2970  161.9369 C   0  0  2  0  0  0  0  0  0  0  0  0
  155.1818  135.9144  161.2759 C   0  0  0  0  0  0  0  0  0  0  0  0
  155.7115  134.8775  162.2747 C   0  0  0  0  0  0  0  0  0  0  0  0
  155.0603  134.9423  163.5909 N   0  0  0  0  0  0  0  0  0  0  0  0
  155.2341  133.7510  164.4240 C   0  0  0  0  0  0  0  0  0  0  0  0
  154.3975  136.0240  164.0678 C   0  0  0  0  0  0  0  0  0  0  0  0
  153.9191  136.0580  165.2020 O   0  0  0  0  0  0  0  0  0  0  0  0
  154.1936  137.2504  163.1621 C   0  0  0  0  0  0  0  0  0  0  0  0
  154.8367  142.1528  159.1910 H   0  0  0  0  0  0  0  0  0  0  0  0
  155.5272  140.5395  159.0853 H   0  0  0  0  0  0  0  0  0  0  0  0
  156.0153  141.6219  160.3879 H   0  0  0  0  0  0  0  0  0  0  0  0
  153.2129  140.4523  159.9965 H   0  0  0  0  0  0  0  0  0  0  0  0
  152.8516  141.3880  162.3794 H   0  0  0  0  0  0  0  0  0  0  0  0
  154.3125  142.3194  162.1410 H   0  0  0  0  0  0  0  0  0  0  0  0
  154.0261  143.4150  159.2899 H   0  0  0  0  0  0  0  0  0  0  0  0
  151.9962  145.1440  158.7071 H   0  0  0  0  0  0  0  0  0  0  0  0
  150.1468  144.6286  160.7063 H   0  0  0  0  0  0  0  0  0  0  0  0
  154.6758  139.7502  162.4015 H   0  0  0  0  0  0  0  0  0  0  0  0
  156.1336  137.5528  162.2788 H   0  0  0  0  0  0  0  0  0  0  0  0
  154.1863  135.6184  160.9399 H   0  0  0  0  0  0  0  0  0  0  0  0
  155.8176  135.9313  160.3895 H   0  0  0  0  0  0  0  0  0  0  0  0
  155.5941  133.8808  161.8468 H   0  0  0  0  0  0  0  0  0  0  0  0
  156.7815  135.0293  162.4230 H   0  0  0  0  0  0  0  0  0  0  0  0
  155.6423  134.0120  165.4017 H   0  0  0  0  0  0  0  0  0  0  0  0
  155.9174  133.0303  163.9730 H   0  0  0  0  0  0  0  0  0  0  0  0
  154.2762  133.2513  164.5751 H   0  0  0  0  0  0  0  0  0  0  0  0
  154.3250  138.1538  163.7592 H   0  0  0  0  0  0  0  0  0  0  0  0
  153.1496  137.2402  162.8455 H   0  0  0  0  0  0  0  0  0  0  0  0
  1  2  1  0  0  0  0
  1 20  1  0  0  0  0
  1 21  1  0  0  0  0
  1 22  1  0  0  0  0
  2  3  1  0  0  0  0
  2  9  1  0  0  0  0
  2 23  1  0  0  0  0
  3  4  1  0  0  0  0
  3 24  1  0  0  0  0
  3 25  1  0  0  0  0
  4  8  1  0  0  0  0
  4  5  1  0  0  0  0
  5  6  2  0  0  0  0
  5 26  1  0  0  0  0
  6  7  1  0  0  0  0
  6 27  1  0  0  0  0
  7  8  2  0  0  0  0
  7 28  1  0  0  0  0
  9 10  1  0  0  0  0
  9 29  1  0  0  0  0
 10 11  2  0  0  0  0
 10 12  1  0  0  0  0
 12 19  1  0  0  0  0
 12 13  1  0  0  0  0
 12 30  1  0  0  0  0
 13 14  1  0  0  0  0
 13 31  1  0  0  0  0
 13 32  1  0  0  0  0
 14 15  1  0  0  0  0
 14 33  1  0  0  0  0
 14 34  1  0  0  0  0
 15 16  1  0  0  0  0
 15 17  1  0  0  0  0
 16 35  1  0  0  0  0
 16 36  1  0  0  0  0
 16 37  1  0  0  0  0
 17 18  2  0  0  0  0
 17 19  1  0  0  0  0
 19 38  1  0  0  0  0
 19 39  1  0  0  0  0
M  END
> <s_m_source_file>
AV-unprocessed.smi

> <i_m_source_file_index>
1584

> <i_lp_mmshare_version>
43012

> <i_f3d_flags>
0

> <s_epik_input>
bjFbY0hdW2NIXVtjSF1uMVtDSDJdW0NAQEhdKFtDSDNdKVtOSF1DKD1PKVtDQEBIXTJbQ0gyXVtDSDJdTihbQ0gzXSlDKD1PKVtDSDJdMg==

> <s_epik_cmdline>
J2VwaWtfcHl0aG9uJywgJy1waCcsICc3LjAnLCAnLXRuJywgJzgnLCAnLW1hJywgJzIwMCcsICctbWV0YWxfYmluZGluZycsICctaW1hZScsICc8aW5maWxlLm1hZT4nLCAnLW9tYWUnLCAnPG91dGZpbGUubWFlPic=

> <r_lp_tautomer_probability>
1

> <r_epik_Ionization_Penalty>
0.000299422

> <r_epik_Ionization_Penalty_Charging>
0

> <r_epik_Ionization_Penalty_Neutral>
0.000299422

> <r_epik_State_Penalty>
-0

> <r_epik_Charging_Adjusted_Penalty>
0

> <i_epik_Tot_Q>
0

> <i_epik_Tot_abs_Q>
0

> <r_epik_Metal_State_Penalty>
-0

> <b_epik_Metal_Only>
0

> <s_lp_Force_Field>
OPLS_2005

> <r_lp_Energy>
13.4891

> <b_lp_Chiralities_Consistent>
1

> <s_lp_Variant>
AV-unprocessed.smi:1584-1

> <Gold.Version>
5.8.1

> <Gold.Id.Protein>
6NUR|6NUR_protein|mol2

> <Gold.PLP.Fitness>
39.1978

> <Gold.PLP.PLP>
-39.7907

> <Gold.PLP.part.hbond>
-2.0792

> <Gold.PLP.part.metal>
0.0000

> <Gold.PLP.part.buried>
-5.2808

> <Gold.PLP.part.nonpolar>
-37.4392

> <Gold.PLP.part.repulsive>
4.4463

> <Gold.PLP.ligand.clash>
0.0000

> <Gold.PLP.ligand.torsion>
0.5016

> <Gold.PLP.Chemscore.Hbond>
0.1264

> <Gold.PLP.Chemscore.CHOScore>
0.0000

> <Gold.PLP.Chemscore.Metal>
0.0000

> <Gold.Chemscore.Hbonds>
donor molecule, donor type, donor heavy atom, donor atom, acceptor molecule, acceptor atom, score
      P1  H  6933  6945       L1     8  0.22

> <Gold.PLP.Chemscore.Internal.Correction>
0.0311

> <Gold.Rescore>
     Score         DG    S(hbond)    S(metal)    S(lipo)     H(rot)  DE(clash)    DE(int)     intcor
     11.62     -13.55       0.35        0.00      95.60       1.67       1.48       0.45       ----

> <Gold.Chemscore.Fitness>
11.6225

> <Gold.Chemscore.DG>
-13.5492

> <Gold.Chemscore.ZeroCoef>
-5.4800

> <Gold.Chemscore.Hbond>
0.3498

> <Gold.Chemscore.Metal>
0.0000

> <Gold.Chemscore.Lipo>
95.5976

> <Gold.Chemscore.Internal_Hbond>
0.0000

> <Gold.Chemscore.DEClash>
1.4794

> <Gold.Chemscore.DEInternal>
0.4474

> <Gold.Chemscore.Rot>
1.6734

> <Gold.Chemscore.Internal.Correction>
   9.000000E+99

> <Gold.Chemscore.Hbonds>
donor molecule, donor type, donor heavy atom, donor atom, acceptor molecule, acceptor atom, score
      P1  H  6933  6945       L1     8  0.21

> <Gold.Chemscore.Hbond.Weighted>
-1.1683

> <Gold.Chemscore.Metal.Weighted>
-0.0000

> <Gold.Chemscore.Lipo.Weighted>
-11.1849

> <Gold.Chemscore.Internal_Hbond.Weighted>
0.0000

> <Gold.Chemscore.DEClash.Weighted>
1.4794

> <Gold.Chemscore.DEInternal.Weighted>
0.4474

> <Gold.Chemscore.Rot.Weighted>
4.2840

> <Gold.Chemscore.Internal.Correction.Weighted>
   9.000000E+99

> <Gold.Protein.RotatedTorsions>
[ 6907 6896 6895 6894 ] final  115.44 input  -60.11 | X-H torsion
[ 7974 7965 7964 7962 ] final -176.06 input  175.53 | X-H torsion
[ 8008 7997 7996 7995 ] final -164.15 input   59.86 | X-H torsion
[ 10167 10162 10161 10158 ] final  -72.84 input  -65.29 | X-H torsion
[ 10718 10713 10712 10709 ] final  178.80 input   66.30 | X-H torsion
[ 10763 10752 10751 10750 ] final  -12.29 input  -60.55 | X-H torsion
[ 11005 11000 10999 10996 ] final  138.01 input  -57.11 | X-H torsion

> <Gold.Protein.ActiveResidues>
 VAL166  LYS551  ARG553  GLY616  TRP617  ASP618  TYR619  PRO620  LYS621  CYS622 
 ASP623  PHE694  ASN695  SER759  ASP760  ASP761  ALA762  ILE779  LEU786  VAL792 
 PHE793  MET794  SER795  GLU796  ALA797  LYS798  CYS799  TRP800  GLU811  SER814 

> <Gold.Protein.RotatedAtoms>
  152.4741  133.8097  159.6996 H   0  0  0  0  0  0  0  0  0  0  0  0  # atno 6907 bound_to 6896
  150.8747  133.7446  159.2957 H   0  0  0  0  0  0  0  0  0  0  0  0  # atno 6908 bound_to 6896
  151.4970  135.1063  159.9871 H   0  0  0  0  0  0  0  0  0  0  0  0  # atno 6909 bound_to 6896
  144.7127  140.1227  143.6404 H   0  0  0  0  0  0  0  0  0  0  0  0  # atno 7974 bound_to 7965
  155.8315  140.0934  157.1789 H   0  0  0  0  0  0  0  0  0  0  0  0  # atno 8008 bound_to 7997
  154.3980  140.1418  156.3680 H   0  0  0  0  0  0  0  0  0  0  0  0  # atno 8009 bound_to 7997
  155.8161  140.3448  155.5488 H   0  0  0  0  0  0  0  0  0  0  0  0  # atno 8010 bound_to 7997
  140.5159  143.2338  151.7513 H   0  0  0  0  0  0  0  0  0  0  0  0  # atno 10167 bound_to 10162
  156.8852  130.9829  151.3057 H   0  0  0  0  0  0  0  0  0  0  0  0  # atno 10718 bound_to 10713
  153.4964  135.7017  153.5856 H   0  0  0  0  0  0  0  0  0  0  0  0  # atno 10763 bound_to 10752
  153.4006  135.3873  155.1985 H   0  0  0  0  0  0  0  0  0  0  0  0  # atno 10764 bound_to 10752
  154.8713  135.3880  154.4429 H   0  0  0  0  0  0  0  0  0  0  0  0  # atno 10765 bound_to 10752
  140.0153  134.9421  157.0364 H   0  0  0  0  0  0  0  0  0  0  0  0  # atno 11005 bound_to 11000
  145.9356  139.2635  143.1299 LP  0  0  0  0  0  0  0  0  0  0  0  0  # atno 17320 bound_to 7965
  145.9477  140.8932  143.0275 LP  0  0  0  0  0  0  0  0  0  0  0  0  # atno 17321 bound_to 7965
  139.4909  144.4324  151.9857 LP  0  0  0  0  0  0  0  0  0  0  0  0  # atno 17342 bound_to 10162
  140.3418  144.3194  150.5966 LP  0  0  0  0  0  0  0  0  0  0  0  0  # atno 17343 bound_to 10162
  157.6116  130.8587  149.8961 LP  0  0  0  0  0  0  0  0  0  0  0  0  # atno 17370 bound_to 10713
  156.0657  130.3692  150.0885 LP  0  0  0  0  0  0  0  0  0  0  0  0  # atno 17371 bound_to 10713
  140.4481  134.1611  155.7179 LP  0  0  0  0  0  0  0  0  0  0  0  0  # atno 17394 bound_to 11000
  141.1739  133.8554  157.1485 LP  0  0  0  0  0  0  0  0  0  0  0  0  # atno 17395 bound_to 11000

$$$$
