#       Name:                AV-unprocessed.smi:1544
#       Creating user name   scv26
#       Creation time:       Fri Mar 27 06:38:21 2020


#       File generated by GOLD software.
#

@<TRIPOS>MOLECULE
AV-unprocessed.smi:1544
    48    49     1
SMALL
NO_CHARGES


@<TRIPOS>ATOM
      1 ****        -0.0789   1.5223   0.0784 O.2            1 S1                 0.0000
      2 ****        -0.4533   0.3508   0.1247 C.2            1 S1                 0.0000
      3 ****         0.3571  -0.7205   0.1737 N.am           1 S1                 0.0000
      4 ****         1.7774  -0.7491   0.1432 C.ar           1 S1                 0.0000
      5 ****         2.5785   0.2646  -0.4340 C.ar           1 S1                 0.0000
      6 ****         3.9784   0.1158  -0.4196 C.ar           1 S1                 0.0000
      7 ****         4.5355  -1.0401   0.1621 C.ar           1 S1                 0.0000
      8 ****         5.9083  -1.1743   0.1758 O.3            1 S1                 0.0000
      9 ****         6.4724  -2.3373   0.7759 C.3            1 S1                 0.0000
     10 ****         8.0009  -2.2607   0.6831 C.3            1 S1                 0.0000
     11 ****         8.5306  -3.3461   1.2456 F              1 S1                 0.0000
     12 ****         8.3835  -2.2104  -0.5927 F              1 S1                 0.0000
     13 ****         8.4488  -1.1831   1.3273 F              1 S1                 0.0000
     14 ****         3.7737  -2.0229   0.7030 N.ar           1 S1                 0.0000
     15 ****         2.4321  -1.8748   0.6844 C.ar           1 S1                 0.0000
     16 ****        -1.7435  -0.0137   0.1550 N.am           1 S1                 0.0000
     17 ****        -2.8792   0.9044   0.1492 C.3            1 S1                 0.0000
     18 ****        -4.1204   0.1941   0.7229 C.3            1 S1                 0.0000
     19 ****        -5.3565   1.1078   0.6920 C.3            1 S1                 0.0000
     20 ****        -5.6290   1.6237  -0.7313 C.3            1 S1                 0.0000
     21 ****        -6.7238   2.5149  -0.7069 O.3            1 S1                 0.0000
     22 ****        -4.3949   2.3408  -1.3047 C.3            1 S1                 0.0000
     23 ****        -3.1595   1.4266  -1.2761 C.3            1 S1                 0.0000
     24 ****        -0.0927  -1.6143   0.3075 H              1 S1                 0.0000
     25 ****         2.1500   1.1403  -0.8964 H              1 S1                 0.0000
     26 ****         4.6142   0.8753  -0.8504 H              1 S1                 0.0000
     27 ****         6.1719  -2.4062   1.8228 H              1 S1                 0.0000
     28 ****         6.1185  -3.2351   0.2660 H              1 S1                 0.0000
     29 ****         1.8631  -2.6815   1.1233 H              1 S1                 0.0000
     30 ****        -1.9576  -0.9993   0.1977 H              1 S1                 0.0000
     31 ****        -2.6461   1.7528   0.7959 H              1 S1                 0.0000
     32 ****        -4.3272  -0.7106   0.1493 H              1 S1                 0.0000
     33 ****        -3.9282  -0.1268   1.7474 H              1 S1                 0.0000
     34 ****        -6.2258   0.5663   1.0671 H              1 S1                 0.0000
     35 ****        -5.2007   1.9497   1.3683 H              1 S1                 0.0000
     36 ****        -5.8926   0.7845  -1.3764 H              1 S1                 0.0000
     37 ****        -6.8955   2.8046  -1.5899 H              1 S1                 0.0000
     38 ****        -4.5895   2.6657  -2.3274 H              1 S1                 0.0000
     39 ****        -4.1882   3.2429  -0.7268 H              1 S1                 0.0000
     40 ****        -2.2960   1.9738  -1.6561 H              1 S1                 0.0000
     41 ****        -3.3153   0.5866  -1.9547 H              1 S1                 0.0000
     42 ****         0.8982   1.7352   0.0753 LP             1 S1                 0.0000
     43 ****        -0.7518   2.2612   0.0440 LP             1 S1                 0.0000
     44 ****         6.2774  -0.3826   0.6626 LP             1 S1                 0.0000
     45 ****         6.2163  -1.1541  -0.7753 LP             1 S1                 0.0000
     46 ****         4.1947  -2.8360   1.1051 LP             1 S1                 0.0000
     47 ****        -6.5049   3.3021  -0.1304 LP             1 S1                 0.0000
     48 ****        -7.5299   2.0487  -0.3423 LP             1 S1                 0.0000
@<TRIPOS>BOND
    1    1    2 2     
    2    2    3 am    
    3    2   16 am    
    4    3    4 1     
    5    3   24 1     
    6    4   15 ar    
    7    4    5 ar    
    8    5    6 ar    
    9    5   25 1     
   10    6    7 ar    
   11    6   26 1     
   12    7    8 1     
   13    7   14 ar    
   14    8    9 1     
   15    9   10 1     
   16    9   27 1     
   17    9   28 1     
   18   10   11 1     
   19   10   12 1     
   20   10   13 1     
   21   14   15 ar    
   22   15   29 1     
   23   16   17 1     
   24   16   30 1     
   25   17   23 1     
   26   17   18 1     
   27   17   31 1     
   28   18   19 1     
   29   18   32 1     
   30   18   33 1     
   31   19   20 1     
   32   19   34 1     
   33   19   35 1     
   34   20   21 1     
   35   20   22 1     
   36   20   36 1     
   37   21   37 1     
   38   22   23 1     
   39   22   38 1     
   40   22   39 1     
   41   23   40 1     
   42   23   41 1     
   43    1   42 1     
   44    1   43 1     
   45    8   44 1     
   46    8   45 1     
   47   14   46 1     
   48   21   47 1     
   49   21   48 1     
@<TRIPOS>SUBSTRUCTURE
      1 S1             1
@<TRIPOS>SET
LONE_PAIRS      STATIC     ATOMS    <user>   **** ""
7 42 43 44 45 46 47 48
DONOR_HYDROGENS      STATIC     ATOMS    <user>   **** ""
3 24 30 37
ATOM$BLUE        STATIC     ATOMS    COLORGROUP SYSTEM
7 42 43 44 45 46 47 48
ATOM$RED        STATIC     ATOMS    COLORGROUP SYSTEM
3 24 30 37
