AV-unprocessed.smi:3140|AV-procd|sdf|11960|dock10
  -GOLD-   2272017363D 1   1.00000     0.00000
 Structure written by MMmdl.
 37 38  0  0  0  0  0  0  0  0  1 V2000
  151.7659  140.3594  156.5608 C   0  0  0  0  0  0  0  0  0  0  0  0
  150.3979  141.0214  156.3297 C   0  0  2  0  0  0  0  0  0  0  0  0
  149.8047  140.7016  154.9329 C   0  0  0  0  0  0  0  0  0  0  0  0
  148.4615  141.2207  154.7256 N   0  0  0  0  0  0  0  0  0  0  0  0
  147.7098  141.2224  153.5692 C   0  0  0  0  0  0  0  0  0  0  0  0
  146.5131  141.8110  153.8618 C   0  0  0  0  0  0  0  0  0  0  0  0
  146.6244  142.1345  155.2428 C   0  0  0  0  0  0  0  0  0  0  0  0
  147.7886  141.7756  155.7575 N   0  0  0  0  0  0  0  0  0  0  0  0
  150.5646  142.4550  156.5390 N   0  0  0  0  0  0  0  0  0  0  0  0
  150.7223  142.8053  157.9436 C   0  0  0  0  0  0  0  0  0  0  0  0
  152.2184  142.8809  158.2927 C   0  0  0  0  0  0  0  0  0  0  0  0
  152.4360  142.9860  159.7352 N   0  0  0  0  0  0  0  0  0  0  0  0
  151.9121  144.1175  160.4820 C   0  0  0  0  0  0  0  0  0  0  0  0
  152.3343  143.8796  161.9398 C   0  0  0  0  0  0  0  0  0  0  0  0
  153.1003  142.5519  161.9564 C   0  0  0  0  0  0  0  0  0  0  0  0
  153.0991  142.1132  160.5026 C   0  0  0  0  0  0  0  0  0  0  0  0
  153.6451  141.0798  160.1190 O   0  0  0  0  0  0  0  0  0  0  0  0
  151.7084  139.2814  156.4076 H   0  0  0  0  0  0  0  0  0  0  0  0
  152.1147  140.5260  157.5804 H   0  0  0  0  0  0  0  0  0  0  0  0
  152.5276  140.7515  155.8859 H   0  0  0  0  0  0  0  0  0  0  0  0
  149.7172  140.6411  157.0926 H   0  0  0  0  0  0  0  0  0  0  0  0
  150.4475  141.1328  154.1647 H   0  0  0  0  0  0  0  0  0  0  0  0
  149.7995  139.6296  154.7358 H   0  0  0  0  0  0  0  0  0  0  0  0
  148.0872  140.8123  152.6440 H   0  0  0  0  0  0  0  0  0  0  0  0
  145.6836  141.9829  153.1920 H   0  0  0  0  0  0  0  0  0  0  0  0
  145.8983  142.6136  155.8830 H   0  0  0  0  0  0  0  0  0  0  0  0
  151.3706  142.7825  156.0261 H   0  0  0  0  0  0  0  0  0  0  0  0
  150.2394  143.7535  158.1753 H   0  0  0  0  0  0  0  0  0  0  0  0
  150.2368  142.0422  158.5526 H   0  0  0  0  0  0  0  0  0  0  0  0
  152.7206  141.9831  157.9296 H   0  0  0  0  0  0  0  0  0  0  0  0
  152.6909  143.7195  157.7791 H   0  0  0  0  0  0  0  0  0  0  0  0
  152.3246  145.0504  160.0963 H   0  0  0  0  0  0  0  0  0  0  0  0
  150.8261  144.1596  160.3884 H   0  0  0  0  0  0  0  0  0  0  0  0
  152.9656  144.6941  162.2967 H   0  0  0  0  0  0  0  0  0  0  0  0
  151.4619  143.8337  162.5929 H   0  0  0  0  0  0  0  0  0  0  0  0
  154.1220  142.6782  162.3157 H   0  0  0  0  0  0  0  0  0  0  0  0
  152.6005  141.8055  162.5749 H   0  0  0  0  0  0  0  0  0  0  0  0
  1  2  1  0  0  0  0
  1 18  1  0  0  0  0
  1 19  1  0  0  0  0
  1 20  1  0  0  0  0
  2  3  1  0  0  0  0
  2  9  1  0  0  0  0
  2 21  1  0  0  0  0
  3  4  1  0  0  0  0
  3 22  1  0  0  0  0
  3 23  1  0  0  0  0
  4  8  1  0  0  0  0
  4  5  1  0  0  0  0
  5  6  2  0  0  0  0
  5 24  1  0  0  0  0
  6  7  1  0  0  0  0
  6 25  1  0  0  0  0
  7  8  2  0  0  0  0
  7 26  1  0  0  0  0
  9 10  1  0  0  0  0
  9 27  1  0  0  0  0
 10 11  1  0  0  0  0
 10 28  1  0  0  0  0
 10 29  1  0  0  0  0
 11 12  1  0  0  0  0
 11 30  1  0  0  0  0
 11 31  1  0  0  0  0
 12 16  1  0  0  0  0
 12 13  1  0  0  0  0
 13 14  1  0  0  0  0
 13 32  1  0  0  0  0
 13 33  1  0  0  0  0
 14 15  1  0  0  0  0
 14 34  1  0  0  0  0
 14 35  1  0  0  0  0
 15 16  1  0  0  0  0
 15 36  1  0  0  0  0
 15 37  1  0  0  0  0
 16 17  2  0  0  0  0
M  END
> <s_m_source_file>
AV-unprocessed.smi

> <i_m_source_file_index>
3140

> <i_lp_mmshare_version>
43012

> <i_f3d_flags>
0

> <s_epik_input>
bjFbY0hdW2NIXVtjSF1uMVtDSDJdW0NAQEhdKFtDSDNdKVtOSF1bQ0gyXVtDSDJdTjJbQ0gyXVtDSDJdW0NIMl1DMj1P

> <s_epik_cmdline>
J2VwaWtfcHl0aG9uJywgJy1waCcsICc3LjAnLCAnLXRuJywgJzgnLCAnLW1hJywgJzIwMCcsICctbWV0YWxfYmluZGluZycsICctaW1hZScsICc8aW5maWxlLm1hZT4nLCAnLW9tYWUnLCAnPG91dGZpbGUubWFlPic=

> <r_lp_tautomer_probability>
1

> <r_epik_Ionization_Penalty>
2.53587

> <r_epik_Ionization_Penalty_Charging>
0

> <r_epik_Ionization_Penalty_Neutral>
2.53587

> <r_epik_State_Penalty>
2.70334

> <r_epik_Charging_Adjusted_Penalty>
2.70334

> <i_epik_Tot_Q>
0

> <i_epik_Tot_abs_Q>
0

> <r_epik_Metal_State_Penalty>
2.7033

> <b_epik_Metal_Only>
0

> <s_lp_Force_Field>
OPLS_2005

> <r_lp_Energy>
23.3858

> <b_lp_Chiralities_Consistent>
1

> <s_lp_Variant>
AV-unprocessed.smi:3140-3

> <Gold.Version>
5.8.1

> <Gold.Id.Protein>
6NUR|6NUR_protein|mol2

> <Gold.PLP.Fitness>
46.2565

> <Gold.PLP.PLP>
-44.0929

> <Gold.PLP.part.hbond>
-1.0000

> <Gold.PLP.part.metal>
0.0000

> <Gold.PLP.part.buried>
-5.3986

> <Gold.PLP.part.nonpolar>
-38.1616

> <Gold.PLP.part.repulsive>
1.0201

> <Gold.PLP.ligand.clash>
0.0000

> <Gold.PLP.ligand.torsion>
0.4324

> <Gold.PLP.Chemscore.Hbond>
0.0000

> <Gold.PLP.Chemscore.CHOScore>
1.0000

> <Gold.PLP.Chemscore.Metal>
0.0000

> <Gold.Chemscore.Hbonds>
donor molecule, donor type, donor heavy atom, donor atom, acceptor molecule, acceptor atom, score
      L1  C     5    24       P1  7957  1.00

> <Gold.PLP.Chemscore.Internal.Correction>
0.0285

> <Gold.Rescore>
     Score         DG    S(hbond)    S(metal)    S(lipo)     H(rot)  DE(clash)    DE(int)     intcor
     10.42     -11.08       0.00        0.00      91.01       1.97       0.11       0.55       ----

> <Gold.Chemscore.Fitness>
10.4206

> <Gold.Chemscore.DG>
-11.0792

> <Gold.Chemscore.ZeroCoef>
-5.4800

> <Gold.Chemscore.Hbond>
0.0000

> <Gold.Chemscore.Metal>
0.0000

> <Gold.Chemscore.Lipo>
91.0082

> <Gold.Chemscore.Internal_Hbond>
0.0000

> <Gold.Chemscore.DEClash>
0.1068

> <Gold.Chemscore.DEInternal>
0.5519

> <Gold.Chemscore.Rot>
1.9722

> <Gold.Chemscore.Internal.Correction>
   9.000000E+99

> <Gold.Chemscore.Hbond.Weighted>
-0.0000

> <Gold.Chemscore.Metal.Weighted>
-0.0000

> <Gold.Chemscore.Lipo.Weighted>
-10.6480

> <Gold.Chemscore.Internal_Hbond.Weighted>
0.0000

> <Gold.Chemscore.DEClash.Weighted>
0.1068

> <Gold.Chemscore.DEInternal.Weighted>
0.5519

> <Gold.Chemscore.Rot.Weighted>
5.0487

> <Gold.Chemscore.Internal.Correction.Weighted>
   9.000000E+99

> <Gold.Protein.RotatedTorsions>
[ 6907 6896 6895 6894 ] final  125.98 input  -60.11 | X-H torsion
[ 7974 7965 7964 7962 ] final   24.76 input  175.53 | X-H torsion
[ 8008 7997 7996 7995 ] final    4.81 input   59.86 | X-H torsion
[ 10167 10162 10161 10158 ] final  -48.19 input  -65.29 | X-H torsion
[ 10718 10713 10712 10709 ] final  128.12 input   66.30 | X-H torsion
[ 10763 10752 10751 10750 ] final  -51.11 input  -60.55 | X-H torsion
[ 11005 11000 10999 10996 ] final   56.72 input  -57.11 | X-H torsion

> <Gold.Protein.ActiveResidues>
 VAL166  LYS551  ARG553  GLY616  TRP617  ASP618  TYR619  PRO620  LYS621  CYS622 
 ASP623  PHE694  ASN695  SER759  ASP760  ASP761  ALA762  ILE779  LEU786  VAL792 
 PHE793  MET794  SER795  GLU796  ALA797  LYS798  CYS799  TRP800  GLU811  SER814 

> <Gold.Protein.RotatedAtoms>
  152.3944  133.6726  159.6264 H   0  0  0  0  0  0  0  0  0  0  0  0  # atno 6907 bound_to 6896
  150.7846  133.8899  159.3319 H   0  0  0  0  0  0  0  0  0  0  0  0  # atno 6908 bound_to 6896
  151.6678  135.0982  160.0243 H   0  0  0  0  0  0  0  0  0  0  0  0  # atno 6909 bound_to 6896
  146.1922  139.7560  142.8823 H   0  0  0  0  0  0  0  0  0  0  0  0  # atno 7974 bound_to 7965
  154.7206  140.2711  155.6545 H   0  0  0  0  0  0  0  0  0  0  0  0  # atno 8008 bound_to 7997
  156.2822  140.2735  156.1800 H   0  0  0  0  0  0  0  0  0  0  0  0  # atno 8009 bound_to 7997
  155.0513  140.0371  157.2534 H   0  0  0  0  0  0  0  0  0  0  0  0  # atno 8010 bound_to 7997
  140.6742  143.2751  151.4036 H   0  0  0  0  0  0  0  0  0  0  0  0  # atno 10167 bound_to 10162
  157.5273  131.1098  150.9063 H   0  0  0  0  0  0  0  0  0  0  0  0  # atno 10718 bound_to 10713
  154.1212  135.6534  153.4903 H   0  0  0  0  0  0  0  0  0  0  0  0  # atno 10763 bound_to 10752
  153.0225  135.5270  154.7095 H   0  0  0  0  0  0  0  0  0  0  0  0  # atno 10764 bound_to 10752
  154.6303  135.2975  155.0194 H   0  0  0  0  0  0  0  0  0  0  0  0  # atno 10765 bound_to 10752
  140.0508  134.5740  155.9267 H   0  0  0  0  0  0  0  0  0  0  0  0  # atno 11005 bound_to 11000
  145.3757  141.0350  143.3206 LP  0  0  0  0  0  0  0  0  0  0  0  0  # atno 17320 bound_to 7965
  144.8509  139.5324  143.6857 LP  0  0  0  0  0  0  0  0  0  0  0  0  # atno 17321 bound_to 7965
  139.6025  144.1266  152.2213 LP  0  0  0  0  0  0  0  0  0  0  0  0  # atno 17342 bound_to 10162
  140.0654  144.5822  150.7231 LP  0  0  0  0  0  0  0  0  0  0  0  0  # atno 17343 bound_to 10162
  156.9655  130.5471  149.5288 LP  0  0  0  0  0  0  0  0  0  0  0  0  # atno 17370 bound_to 10713
  156.0396  130.5480  150.8739 LP  0  0  0  0  0  0  0  0  0  0  0  0  # atno 17371 bound_to 10713
  141.1929  133.6577  156.5523 LP  0  0  0  0  0  0  0  0  0  0  0  0  # atno 17394 bound_to 11000
  140.3921  134.7431  157.4728 LP  0  0  0  0  0  0  0  0  0  0  0  0  # atno 17395 bound_to 11000

$$$$
