AV-unprocessed.smi:3089|AV-procd|sdf|11770|dock2
  -GOLD-   2272017153D 1   1.00000     0.00000
 Structure written by MMmdl.
 25 25  0  0  0  0  0  0  0  0  2 V2000
  153.2174  137.6505  156.7463 C   0  0  0  0  0  0  0  0  0  0  0  0
  152.1792  138.0727  155.8304 N   0  0  0  0  0  0  0  0  0  0  0  0
  151.2642  139.0922  155.9765 C   0  0  0  0  0  0  0  0  0  0  0  0
  150.4831  139.1143  154.8532 C   0  0  0  0  0  0  0  0  0  0  0  0
  149.3300  140.0392  154.5234 C   0  0  1  0  0  0  0  0  0  0  0  0
  149.0786  141.0044  155.6946 C   0  0  0  0  0  0  0  0  0  0  0  0
  149.6124  140.8565  153.4025 O   0  0  0  0  0  0  0  0  0  0  0  0
  148.0489  139.2396  154.1978 C   0  0  0  0  0  0  0  0  0  0  0  0
  147.9939  138.8242  152.7835 N   0  3  0  0  0  0  0  0  0  0  0  0
  151.0191  138.0508  154.0678 C   0  0  0  0  0  0  0  0  0  0  0  0
  152.0269  137.4286  154.6564 N   0  0  0  0  0  0  0  0  0  0  0  0
  153.2022  138.2718  157.6421 H   0  0  0  0  0  0  0  0  0  0  0  0
  154.1926  137.7435  156.2677 H   0  0  0  0  0  0  0  0  0  0  0  0
  153.0568  136.6109  157.0338 H   0  0  0  0  0  0  0  0  0  0  0  0
  151.2428  139.7128  156.8604 H   0  0  0  0  0  0  0  0  0  0  0  0
  148.8156  140.4654  156.6055 H   0  0  0  0  0  0  0  0  0  0  0  0
  148.2615  141.6936  155.4774 H   0  0  0  0  0  0  0  0  0  0  0  0
  149.9643  141.6030  155.9124 H   0  0  0  0  0  0  0  0  0  0  0  0
  149.6084  140.3187  152.6250 H   0  0  0  0  0  0  0  0  0  0  0  0
  147.9981  138.3409  154.8137 H   0  0  0  0  0  0  0  0  0  0  0  0
  147.1578  139.8260  154.4258 H   0  0  0  0  0  0  0  0  0  0  0  0
  148.4707  139.5040  152.2089 H   0  0  0  0  0  0  0  0  0  0  0  0
  147.0289  138.7525  152.4939 H   0  0  0  0  0  0  0  0  0  0  0  0
  150.7035  137.7110  153.0923 H   0  0  0  0  0  0  0  0  0  0  0  0
  148.4394  137.9230  152.6839 H   0  0  0  0  0  0  0  0  0  0  0  0
  1  2  1  0  0  0  0
  1 12  1  0  0  0  0
  1 13  1  0  0  0  0
  1 14  1  0  0  0  0
  2 11  1  0  0  0  0
  2  3  1  0  0  0  0
  3  4  2  0  0  0  0
  3 15  1  0  0  0  0
  4  5  1  0  0  0  0
  4 10  1  0  0  0  0
  5  6  1  0  0  0  0
  5  7  1  0  0  0  0
  5  8  1  0  0  0  0
  6 16  1  0  0  0  0
  6 17  1  0  0  0  0
  6 18  1  0  0  0  0
  7 19  1  0  0  0  0
  8  9  1  0  0  0  0
  8 20  1  0  0  0  0
  8 21  1  0  0  0  0
  9 22  1  0  0  0  0
  9 23  1  0  0  0  0
  9 25  1  0  0  0  0
 10 11  2  0  0  0  0
 10 24  1  0  0  0  0
M  CHG  1   9   1
M  END
> <s_m_source_file>
AV-unprocessed.smi

> <i_m_source_file_index>
3089

> <i_lp_mmshare_version>
43012

> <i_f3d_flags>
0

> <s_epik_input>
W0NIM11uMVtjSF1jKFtjSF1uMSlbQ0BAXShbQ0gzXSkoW09IXSlbQ0gyXVtOSDJd

> <s_epik_cmdline>
J2VwaWtfcHl0aG9uJywgJy1waCcsICc3LjAnLCAnLXRuJywgJzgnLCAnLW1hJywgJzIwMCcsICctbWV0YWxfYmluZGluZycsICctaW1hZScsICc8aW5maWxlLm1hZT4nLCAnLW9tYWUnLCAnPG91dGZpbGUubWFlPic=

> <r_lp_tautomer_probability>
1

> <r_epik_Ionization_Penalty>
0.0140512

> <r_epik_Ionization_Penalty_Charging>
0.0140431

> <r_epik_Ionization_Penalty_Neutral>
8.10489e-06

> <r_epik_State_Penalty>
0.0109628

> <r_epik_Charging_Adjusted_Penalty>
0.0250059

> <i_epik_Tot_Q>
1

> <i_epik_Tot_abs_Q>
1

> <r_epik_Metal_State_Penalty>
0.0109638

> <b_epik_Metal_Only>
0

> <s_lp_Force_Field>
OPLS_2005

> <r_lp_Energy>
3.27267

> <b_lp_Chiralities_Consistent>
1

> <s_lp_Variant>
AV-unprocessed.smi:3089-1

> <Gold.Version>
5.8.1

> <Gold.Id.Protein>
6NUR|6NUR_protein|mol2

> <Gold.PLP.Fitness>
41.5402

> <Gold.PLP.PLP>
-22.1972

> <Gold.PLP.part.hbond>
-5.1961

> <Gold.PLP.part.metal>
0.0000

> <Gold.PLP.part.buried>
-3.6359

> <Gold.PLP.part.nonpolar>
-14.5048

> <Gold.PLP.part.repulsive>
0.1585

> <Gold.PLP.ligand.clash>
0.0000

> <Gold.PLP.ligand.torsion>
0.4688

> <Gold.PLP.Chemscore.Hbond>
5.6391

> <Gold.PLP.Chemscore.CHOScore>
1.1155

> <Gold.PLP.Chemscore.Metal>
0.0000

> <Gold.Chemscore.Hbonds>
donor molecule, donor type, donor heavy atom, donor atom, acceptor molecule, acceptor atom, score
      L1  H     7    19       P1  7957  0.89
      L1  H     9    22       P1  7957  1.00
      L1  H     9    25       P1  7948  2.00
      P1  H  7989  7998       L1     7  0.17
      P1  H  8011  8017       L1     7  0.50
      P1  H 10752 10765       L1    11  0.86
      L1  C    10    24       P1  7948  0.37
      L1  C    10    24       P1  7949  0.71

> <Gold.PLP.Chemscore.Internal.Correction>
0.0166

> <Gold.Rescore>
     Score         DG    S(hbond)    S(metal)    S(lipo)     H(rot)  DE(clash)    DE(int)     intcor
     18.20     -18.78       3.85        0.00      45.20       1.89       0.00       0.58       ----

> <Gold.Chemscore.Fitness>
18.1987

> <Gold.Chemscore.DG>
-18.7836

> <Gold.Chemscore.ZeroCoef>
-5.4800

> <Gold.Chemscore.Hbond>
3.8473

> <Gold.Chemscore.Metal>
0.0000

> <Gold.Chemscore.Lipo>
45.1951

> <Gold.Chemscore.Internal_Hbond>
0.0000

> <Gold.Chemscore.DEClash>
0.0004

> <Gold.Chemscore.DEInternal>
0.5845

> <Gold.Chemscore.Rot>
1.8883

> <Gold.Chemscore.Internal.Correction>
   9.000000E+99

> <Gold.Chemscore.Hbonds>
donor molecule, donor type, donor heavy atom, donor atom, acceptor molecule, acceptor atom, score
      L1  H     7    19       P1  7957  0.86
      L1  H     9    22       P1  7957  0.98
      L1  H     9    25       P1  7948  0.99
      P1  H  8011  8017       L1     7  0.02
      P1  H 10752 10765       L1    11  0.78

> <Gold.Chemscore.Hbond.Weighted>
-12.8499

> <Gold.Chemscore.Metal.Weighted>
-0.0000

> <Gold.Chemscore.Lipo.Weighted>
-5.2878

> <Gold.Chemscore.Internal_Hbond.Weighted>
0.0000

> <Gold.Chemscore.DEClash.Weighted>
0.0004

> <Gold.Chemscore.DEInternal.Weighted>
0.5845

> <Gold.Chemscore.Rot.Weighted>
4.8341

> <Gold.Chemscore.Internal.Correction.Weighted>
   9.000000E+99

> <Gold.Protein.RotatedTorsions>
[ 6907 6896 6895 6894 ] final -125.75 input  -60.11 | X-H torsion
[ 7974 7965 7964 7962 ] final  -57.78 input  175.53 | X-H torsion
[ 8008 7997 7996 7995 ] final  120.20 input   59.86 | X-H torsion
[ 10167 10162 10161 10158 ] final -152.34 input  -65.29 | X-H torsion
[ 10718 10713 10712 10709 ] final   41.98 input   66.30 | X-H torsion
[ 10763 10752 10751 10750 ] final  167.23 input  -60.55 | X-H torsion
[ 11005 11000 10999 10996 ] final -135.37 input  -57.11 | X-H torsion

> <Gold.Protein.ActiveResidues>
 VAL166  LYS551  ARG553  GLY616  TRP617  ASP618  TYR619  PRO620  LYS621  CYS622 
 ASP623  PHE694  ASN695  SER759  ASP760  ASP761  ALA762  ILE779  LEU786  VAL792 
 PHE793  MET794  SER795  GLU796  ALA797  LYS798  CYS799  TRP800  GLU811  SER814 

> <Gold.Protein.RotatedAtoms>
  150.8899  133.7257  159.2907 H   0  0  0  0  0  0  0  0  0  0  0  0  # atno 6907 bound_to 6896
  151.4810  135.1051  159.9787 H   0  0  0  0  0  0  0  0  0  0  0  0  # atno 6908 bound_to 6896
  152.4814  133.8216  159.7112 H   0  0  0  0  0  0  0  0  0  0  0  0  # atno 6909 bound_to 6896
  145.8470  140.8378  143.0005 H   0  0  0  0  0  0  0  0  0  0  0  0  # atno 7974 bound_to 7965
  156.2632  140.2836  156.1112 H   0  0  0  0  0  0  0  0  0  0  0  0  # atno 8008 bound_to 7997
  155.1255  140.0393  157.2778 H   0  0  0  0  0  0  0  0  0  0  0  0  # atno 8009 bound_to 7997
  154.6639  140.2572  155.7086 H   0  0  0  0  0  0  0  0  0  0  0  0  # atno 8010 bound_to 7997
  139.7190  143.8988  152.2496 H   0  0  0  0  0  0  0  0  0  0  0  0  # atno 10167 bound_to 10162
  157.3997  130.7853  149.7338 H   0  0  0  0  0  0  0  0  0  0  0  0  # atno 10718 bound_to 10713
  154.3508  135.2753  155.2373 H   0  0  0  0  0  0  0  0  0  0  0  0  # atno 10763 bound_to 10752
  154.4603  135.5909  153.6255 H   0  0  0  0  0  0  0  0  0  0  0  0  # atno 10764 bound_to 10752
  152.9850  135.6063  154.3718 H   0  0  0  0  0  0  0  0  0  0  0  0  # atno 10765 bound_to 10752
  140.8904  134.1819  157.4531 H   0  0  0  0  0  0  0  0  0  0  0  0  # atno 11005 bound_to 11000
  144.6731  140.0896  143.7466 LP  0  0  0  0  0  0  0  0  0  0  0  0  # atno 17320 bound_to 7965
  145.9401  139.2663  143.1274 LP  0  0  0  0  0  0  0  0  0  0  0  0  # atno 17321 bound_to 7965
  139.8878  144.6982  150.8804 LP  0  0  0  0  0  0  0  0  0  0  0  0  # atno 17342 bound_to 10162
  140.7749  143.3610  151.1829 LP  0  0  0  0  0  0  0  0  0  0  0  0  # atno 17343 bound_to 10162
  155.9820  130.4014  150.3441 LP  0  0  0  0  0  0  0  0  0  0  0  0  # atno 17370 bound_to 10713
  157.1567  131.0334  151.2860 LP  0  0  0  0  0  0  0  0  0  0  0  0  # atno 17371 bound_to 10713
  139.8729  134.9856  156.5288 LP  0  0  0  0  0  0  0  0  0  0  0  0  # atno 17394 bound_to 11000
  140.8354  133.8247  155.9023 LP  0  0  0  0  0  0  0  0  0  0  0  0  # atno 17395 bound_to 11000

$$$$
