#       Name:                AV-unprocessed.smi:3308
#       Creating user name   scv26
#       Creation time:       Fri Mar 27 19:04:50 2020


#       File generated by GOLD software.
#

@<TRIPOS>MOLECULE
AV-unprocessed.smi:3308
    44    45     1
SMALL
NO_CHARGES


@<TRIPOS>ATOM
      1 ****        -1.5933  -0.3275  -2.3704 C.3            1 S1                 0.0000
      2 ****        -1.1261  -0.2160  -0.9034 C.3            1 S1                 0.0000
      3 ****         0.3305  -0.2703  -0.8105 N.3            1 S1                 0.0000
      4 ****         0.9972   0.9544  -1.2701 C.3            1 S1                 0.0000
      5 ****         2.5038   0.9004  -0.9963 C.2            1 S1                 0.0000
      6 ****         3.2580   0.5717  -1.9121 O.2            1 S1                 0.0000
      7 ****         2.9582   1.2095   0.2368 N.am           1 S1                 0.0000
      8 ****         2.1368   1.5962   1.3841 C.3            1 S1                 0.0000
      9 ****         3.0805   1.5975   2.5870 C.3            1 S1                 0.0000
     10 ****         4.4556   1.8416   1.9819 C.3            1 S1                 0.0000
     11 ****         4.3743   1.1948   0.5992 C.3            1 S1                 0.0000
     12 ****        -1.7227  -1.2979   0.0372 C.3            1 S1                 0.0000
     13 ****        -1.3195  -2.7435  -0.3247 C.3            1 S1                 0.0000
     14 ****        -3.1723  -1.1655   0.1470 N.pl3          1 S1                 0.0000
     15 ****        -4.1709  -1.8007  -0.5679 C.2            1 S1                 0.0000
     16 ****        -5.3669  -1.3136  -0.1256 C.2            1 S1                 0.0000
     17 ****        -4.9980  -0.3618   0.8643 C.2            1 S1                 0.0000
     18 ****        -3.6876  -0.2698   1.0186 N.2            1 S1                 0.0000
     19 ****        -2.6803  -0.3236  -2.4435 H              1 S1                 0.0000
     20 ****        -1.2317  -1.2414  -2.8415 H              1 S1                 0.0000
     21 ****        -1.2437   0.5118  -2.9707 H              1 S1                 0.0000
     22 ****        -1.4497   0.7521  -0.5171 H              1 S1                 0.0000
     23 ****         0.6721  -1.0873  -1.2964 H              1 S1                 0.0000
     24 ****         0.8466   1.0795  -2.3422 H              1 S1                 0.0000
     25 ****         0.5621   1.8311  -0.7891 H              1 S1                 0.0000
     26 ****         1.7363   2.5965   1.2145 H              1 S1                 0.0000
     27 ****         1.2997   0.9160   1.5464 H              1 S1                 0.0000
     28 ****         2.8097   2.3411   3.3368 H              1 S1                 0.0000
     29 ****         3.0625   0.6179   3.0661 H              1 S1                 0.0000
     30 ****         4.6209   2.9145   1.8742 H              1 S1                 0.0000
     31 ****         5.2647   1.4382   2.5914 H              1 S1                 0.0000
     32 ****         4.7185   0.1603   0.6389 H              1 S1                 0.0000
     33 ****         4.9903   1.7299  -0.1251 H              1 S1                 0.0000
     34 ****        -1.3241  -1.1127   1.0369 H              1 S1                 0.0000
     35 ****        -0.2396  -2.8813  -0.2707 H              1 S1                 0.0000
     36 ****        -1.6357  -3.0195  -1.3303 H              1 S1                 0.0000
     37 ****        -1.7665  -3.4565   0.3688 H              1 S1                 0.0000
     38 ****        -3.9549  -2.5379  -1.3267 H              1 S1                 0.0000
     39 ****        -6.3547  -1.5909  -0.4623 H              1 S1                 0.0000
     40 ****        -5.6388   0.2640   1.4678 H              1 S1                 0.0000
     41 ****         0.5624  -0.3410   0.1596 LP             1 S1                 0.0000
     42 ****         2.8837   0.3468  -2.8118 LP             1 S1                 0.0000
     43 ****         4.2449   0.5295  -1.7564 LP             1 S1                 0.0000
     44 ****        -3.1878   0.3305   1.6429 LP             1 S1                 0.0000
@<TRIPOS>BOND
    1    1    2 1     
    2    1   19 1     
    3    1   20 1     
    4    1   21 1     
    5    2    3 1     
    6    2   12 1     
    7    2   22 1     
    8    3    4 1     
    9    3   23 1     
   10    4    5 1     
   11    4   24 1     
   12    4   25 1     
   13    5    6 2     
   14    5    7 am    
   15    7   11 1     
   16    7    8 1     
   17    8    9 1     
   18    8   26 1     
   19    8   27 1     
   20    9   10 1     
   21    9   28 1     
   22    9   29 1     
   23   10   11 1     
   24   10   30 1     
   25   10   31 1     
   26   11   32 1     
   27   11   33 1     
   28   12   13 1     
   29   12   14 1     
   30   12   34 1     
   31   13   35 1     
   32   13   36 1     
   33   13   37 1     
   34   14   18 1     
   35   14   15 1     
   36   15   16 2     
   37   15   38 1     
   38   16   17 1     
   39   16   39 1     
   40   17   18 2     
   41   17   40 1     
   42    3   41 1     
   43    6   42 1     
   44    6   43 1     
   45   18   44 1     
@<TRIPOS>SUBSTRUCTURE
      1 S1             1
@<TRIPOS>SET
LONE_PAIRS      STATIC     ATOMS    <user>   **** ""
4 41 42 43 44
DONOR_HYDROGENS      STATIC     ATOMS    <user>   **** ""
1 23
ATOM$BLUE        STATIC     ATOMS    COLORGROUP SYSTEM
4 41 42 43 44
ATOM$RED        STATIC     ATOMS    COLORGROUP SYSTEM
1 23
