AV-unprocessed.smi:2331|AV-procd|sdf|9314|dock8
  -GOLD-   2272012533D 1   1.00000     0.00000
 Structure written by MMmdl.
 49 50  0  0  0  0  0  0  0  0  1 V2000
  146.4237  139.2205  152.2579 C   0  0  0  0  0  0  0  0  0  0  0  0
  146.7520  138.8775  153.7314 C   0  0  0  0  0  0  0  0  0  0  0  0
  145.5943  139.4331  154.5877 C   0  0  0  0  0  0  0  0  0  0  0  0
  146.7955  137.3327  153.8915 C   0  0  0  0  0  0  0  0  0  0  0  0
  145.6352  136.6720  153.2979 N   0  0  0  0  0  0  0  0  0  0  0  0
  145.4807  135.3495  153.1206 C   0  0  0  0  0  0  0  0  0  0  0  0
  146.3808  134.5389  153.3384 O   0  0  0  0  0  0  0  0  0  0  0  0
  144.2739  135.0158  152.6070 N   0  0  0  0  0  0  0  0  0  0  0  0
  143.0436  135.7359  152.9594 C   0  0  0  0  0  0  0  0  0  0  0  0
  141.9510  134.6776  153.0123 C   0  0  0  0  0  0  0  0  0  0  0  0
  142.4088  133.6588  151.9864 C   0  0  0  0  0  0  0  0  0  0  0  0
  143.9489  133.6861  152.0500 C   0  0  1  0  0  0  0  0  0  0  0  0
  144.6217  133.3750  150.6707 C   0  0  0  0  0  0  0  0  0  0  0  0
  146.1613  133.4234  150.7583 C   0  0  0  0  0  0  0  0  0  0  0  0
  144.1559  132.0502  150.0334 C   0  0  0  0  0  0  0  0  0  0  0  0
  144.3116  134.4192  149.7693 O   0  0  0  0  0  0  0  0  0  0  0  0
  148.0834  139.4987  154.1985 C   0  0  0  0  0  0  0  0  0  0  0  0
  149.2097  138.7191  154.5611 C   0  0  0  0  0  0  0  0  0  0  0  0
  150.3781  139.3692  155.0051 C   0  0  0  0  0  0  0  0  0  0  0  0
  150.4912  140.7092  155.1063 N   0  0  0  0  0  0  0  0  0  0  0  0
  149.4219  141.4547  154.7611 C   0  0  0  0  0  0  0  0  0  0  0  0
  148.2076  140.9038  154.3073 C   0  0  0  0  0  0  0  0  0  0  0  0
  145.4811  138.7675  151.9486 H   0  0  0  0  0  0  0  0  0  0  0  0
  147.1875  138.8605  151.5686 H   0  0  0  0  0  0  0  0  0  0  0  0
  146.3252  140.2964  152.1092 H   0  0  0  0  0  0  0  0  0  0  0  0
  144.6346  139.0256  154.2681 H   0  0  0  0  0  0  0  0  0  0  0  0
  145.5311  140.5191  154.5093 H   0  0  0  0  0  0  0  0  0  0  0  0
  145.7084  139.1878  155.6436 H   0  0  0  0  0  0  0  0  0  0  0  0
  147.6717  136.9315  153.3814 H   0  0  0  0  0  0  0  0  0  0  0  0
  146.9169  137.0532  154.9396 H   0  0  0  0  0  0  0  0  0  0  0  0
  144.8574  137.2671  153.0519 H   0  0  0  0  0  0  0  0  0  0  0  0
  143.1053  136.2635  153.9131 H   0  0  0  0  0  0  0  0  0  0  0  0
  142.8327  136.4700  152.1807 H   0  0  0  0  0  0  0  0  0  0  0  0
  141.9272  134.2199  154.0020 H   0  0  0  0  0  0  0  0  0  0  0  0
  140.9595  135.0792  152.8016 H   0  0  0  0  0  0  0  0  0  0  0  0
  141.9978  132.6664  152.1729 H   0  0  0  0  0  0  0  0  0  0  0  0
  142.0563  133.9828  151.0070 H   0  0  0  0  0  0  0  0  0  0  0  0
  144.2527  132.9330  152.7802 H   0  0  0  0  0  0  0  0  0  0  0  0
  146.5629  132.6079  151.3594 H   0  0  0  0  0  0  0  0  0  0  0  0
  146.5042  134.3594  151.2012 H   0  0  0  0  0  0  0  0  0  0  0  0
  146.6197  133.3408  149.7717 H   0  0  0  0  0  0  0  0  0  0  0  0
  144.3576  131.2018  150.6873 H   0  0  0  0  0  0  0  0  0  0  0  0
  144.6696  131.8633  149.0899 H   0  0  0  0  0  0  0  0  0  0  0  0
  143.0870  132.0543  149.8194 H   0  0  0  0  0  0  0  0  0  0  0  0
  145.0621  134.5737  149.2165 H   0  0  0  0  0  0  0  0  0  0  0  0
  149.2049  137.6412  154.5169 H   0  0  0  0  0  0  0  0  0  0  0  0
  151.2465  138.7940  155.2901 H   0  0  0  0  0  0  0  0  0  0  0  0
  149.5350  142.5249  154.8525 H   0  0  0  0  0  0  0  0  0  0  0  0
  147.3863  141.5583  154.0562 H   0  0  0  0  0  0  0  0  0  0  0  0
  1  2  1  0  0  0  0
  1 23  1  0  0  0  0
  1 24  1  0  0  0  0
  1 25  1  0  0  0  0
  2  3  1  0  0  0  0
  2  4  1  0  0  0  0
  2 17  1  0  0  0  0
  3 26  1  0  0  0  0
  3 27  1  0  0  0  0
  3 28  1  0  0  0  0
  4  5  1  0  0  0  0
  4 29  1  0  0  0  0
  4 30  1  0  0  0  0
  5  6  1  0  0  0  0
  5 31  1  0  0  0  0
  6  7  2  0  0  0  0
  6  8  1  0  0  0  0
  8 12  1  0  0  0  0
  8  9  1  0  0  0  0
  9 10  1  0  0  0  0
  9 32  1  0  0  0  0
  9 33  1  0  0  0  0
 10 11  1  0  0  0  0
 10 34  1  0  0  0  0
 10 35  1  0  0  0  0
 11 12  1  0  0  0  0
 11 36  1  0  0  0  0
 11 37  1  0  0  0  0
 12 13  1  0  0  0  0
 12 38  1  0  0  0  0
 13 14  1  0  0  0  0
 13 15  1  0  0  0  0
 13 16  1  0  0  0  0
 14 39  1  0  0  0  0
 14 40  1  0  0  0  0
 14 41  1  0  0  0  0
 15 42  1  0  0  0  0
 15 43  1  0  0  0  0
 15 44  1  0  0  0  0
 16 45  1  0  0  0  0
 17 22  1  0  0  0  0
 17 18  2  0  0  0  0
 18 19  1  0  0  0  0
 18 46  1  0  0  0  0
 19 20  2  0  0  0  0
 19 47  1  0  0  0  0
 20 21  1  0  0  0  0
 21 22  2  0  0  0  0
 21 48  1  0  0  0  0
 22 49  1  0  0  0  0
M  END
> <s_m_source_file>
AV-unprocessed.smi

> <i_m_source_file_index>
2331

> <i_lp_mmshare_version>
43012

> <i_f3d_flags>
0

> <s_epik_input>
W2NIXTFbY0hdbltjSF1bY0hdYzFDKFtDSDNdKShbQ0gzXSlbQ0gyXVtOSF1DKD1PKU4yW0NIMl1bQ0gyXVtDSDJdW0NASF0yQyhbQ0gzXSkoW0NIM10pW09IXQ==

> <s_epik_cmdline>
J2VwaWtfcHl0aG9uJywgJy1waCcsICc3LjAnLCAnLXRuJywgJzgnLCAnLW1hJywgJzIwMCcsICctbWV0YWxfYmluZGluZycsICctaW1hZScsICc8aW5maWxlLm1hZT4nLCAnLW9tYWUnLCAnPG91dGZpbGUubWFlPic=

> <r_epik_Ionization_Penalty>
0.0581496

> <r_epik_Ionization_Penalty_Charging>
0

> <r_epik_Ionization_Penalty_Neutral>
0.0581496

> <r_epik_State_Penalty>
0.0501956

> <r_epik_Charging_Adjusted_Penalty>
0.0501956

> <i_epik_Tot_Q>
0

> <i_epik_Tot_abs_Q>
0

> <r_epik_Metal_State_Penalty>
0.0456895

> <b_epik_Metal_Only>
0

> <s_lp_Force_Field>
OPLS_2005

> <r_lp_Energy>
47.1334

> <b_lp_Chiralities_Consistent>
1

> <s_lp_Variant>
AV-unprocessed.smi:2331-1

> <Gold.Version>
5.8.1

> <Gold.Id.Protein>
6NUR|6NUR_protein|mol2

> <Gold.PLP.Fitness>
41.9478

> <Gold.PLP.PLP>
-34.2415

> <Gold.PLP.part.hbond>
-2.3207

> <Gold.PLP.part.metal>
0.0000

> <Gold.PLP.part.buried>
1.4609

> <Gold.PLP.part.nonpolar>
-33.8271

> <Gold.PLP.part.repulsive>
0.1657

> <Gold.PLP.ligand.clash>
0.0000

> <Gold.PLP.ligand.torsion>
0.5484

> <Gold.PLP.Chemscore.Hbond>
1.8784

> <Gold.PLP.Chemscore.CHOScore>
0.9097

> <Gold.PLP.Chemscore.Metal>
0.0000

> <Gold.Chemscore.Hbonds>
donor molecule, donor type, donor heavy atom, donor atom, acceptor molecule, acceptor atom, score
      L1  H    16    45       P1  7921  1.00
      P1  H  7989  7998       L1    20  0.66
      L1  C    21    48       P1  8028  1.00

> <Gold.PLP.Chemscore.Internal.Correction>
0.4390

> <Gold.Rescore>
     Score         DG    S(hbond)    S(metal)    S(lipo)     H(rot)  DE(clash)    DE(int)     intcor
     12.46     -14.94       1.00        0.00      94.65       1.94       0.67       1.81       ----

> <Gold.Chemscore.Fitness>
12.4612

> <Gold.Chemscore.DG>
-14.9442

> <Gold.Chemscore.ZeroCoef>
-5.4800

> <Gold.Chemscore.Hbond>
1.0013

> <Gold.Chemscore.Metal>
0.0000

> <Gold.Chemscore.Lipo>
94.6451

> <Gold.Chemscore.Internal_Hbond>
0.0000

> <Gold.Chemscore.DEClash>
0.6711

> <Gold.Chemscore.DEInternal>
1.8119

> <Gold.Chemscore.Rot>
1.9350

> <Gold.Chemscore.Internal.Correction>
   9.000000E+99

> <Gold.Chemscore.Hbonds>
donor molecule, donor type, donor heavy atom, donor atom, acceptor molecule, acceptor atom, score
      L1  H    16    45       P1  7921  0.99
      P1  H  7989  7998       L1    20  0.02

> <Gold.Chemscore.Hbond.Weighted>
-3.3444

> <Gold.Chemscore.Metal.Weighted>
-0.0000

> <Gold.Chemscore.Lipo.Weighted>
-11.0735

> <Gold.Chemscore.Internal_Hbond.Weighted>
0.0000

> <Gold.Chemscore.DEClash.Weighted>
0.6711

> <Gold.Chemscore.DEInternal.Weighted>
1.8119

> <Gold.Chemscore.Rot.Weighted>
4.9536

> <Gold.Chemscore.Internal.Correction.Weighted>
   9.000000E+99

> <Gold.Protein.RotatedTorsions>
[ 6907 6896 6895 6894 ] final  -11.46 input  -60.11 | X-H torsion
[ 7974 7965 7964 7962 ] final  114.41 input  175.53 | X-H torsion
[ 8008 7997 7996 7995 ] final   -2.32 input   59.86 | X-H torsion
[ 10167 10162 10161 10158 ] final -173.82 input  -65.29 | X-H torsion
[ 10718 10713 10712 10709 ] final  171.54 input   66.30 | X-H torsion
[ 10763 10752 10751 10750 ] final   89.75 input  -60.55 | X-H torsion
[ 11005 11000 10999 10996 ] final  -50.93 input  -57.11 | X-H torsion

> <Gold.Protein.ActiveResidues>
 VAL166  LYS551  ARG553  GLY616  TRP617  ASP618  TYR619  PRO620  LYS621  CYS622 
 ASP623  PHE694  ASN695  SER759  ASP760  ASP761  ALA762  ILE779  LEU786  VAL792 
 PHE793  MET794  SER795  GLU796  ALA797  LYS798  CYS799  TRP800  GLU811  SER814 

> <Gold.Protein.RotatedAtoms>
  151.3858  135.0947  159.9510 H   0  0  0  0  0  0  0  0  0  0  0  0  # atno 6907 bound_to 6896
  152.5094  133.9027  159.7459 H   0  0  0  0  0  0  0  0  0  0  0  0  # atno 6908 bound_to 6896
  150.9470  133.6536  159.2808 H   0  0  0  0  0  0  0  0  0  0  0  0  # atno 6909 bound_to 6896
  145.2048  139.2935  143.4299 H   0  0  0  0  0  0  0  0  0  0  0  0  # atno 7974 bound_to 7965
  154.6370  140.2537  155.7367 H   0  0  0  0  0  0  0  0  0  0  0  0  # atno 8008 bound_to 7997
  156.2509  140.2895  156.0667 H   0  0  0  0  0  0  0  0  0  0  0  0  # atno 8009 bound_to 7997
  155.1656  140.0385  157.2842 H   0  0  0  0  0  0  0  0  0  0  0  0  # atno 8010 bound_to 7997
  139.5667  144.1738  152.1323 H   0  0  0  0  0  0  0  0  0  0  0  0  # atno 10167 bound_to 10162
  156.9921  131.0151  151.2854 H   0  0  0  0  0  0  0  0  0  0  0  0  # atno 10718 bound_to 10713
  153.1903  135.4459  155.0141 H   0  0  0  0  0  0  0  0  0  0  0  0  # atno 10763 bound_to 10752
  154.8086  135.3285  154.7367 H   0  0  0  0  0  0  0  0  0  0  0  0  # atno 10764 bound_to 10752
  153.7822  135.6976  153.4941 H   0  0  0  0  0  0  0  0  0  0  0  0  # atno 10765 bound_to 10752
  141.0843  133.6646  156.3803 H   0  0  0  0  0  0  0  0  0  0  0  0  # atno 11005 bound_to 11000
  146.3410  140.2304  142.8593 LP  0  0  0  0  0  0  0  0  0  0  0  0  # atno 17320 bound_to 7965
  144.9913  140.8549  143.5338 LP  0  0  0  0  0  0  0  0  0  0  0  0  # atno 17321 bound_to 7965
  140.1263  144.5329  150.6831 LP  0  0  0  0  0  0  0  0  0  0  0  0  # atno 17342 bound_to 10162
  140.6951  143.2399  151.5024 LP  0  0  0  0  0  0  0  0  0  0  0  0  # atno 17343 bound_to 10162
  157.5451  130.8145  149.8076 LP  0  0  0  0  0  0  0  0  0  0  0  0  # atno 17370 bound_to 10713
  156.0203  130.3798  150.1982 LP  0  0  0  0  0  0  0  0  0  0  0  0  # atno 17371 bound_to 10713
  140.5398  134.6131  157.5376 LP  0  0  0  0  0  0  0  0  0  0  0  0  # atno 17394 bound_to 11000
  139.9660  134.7373  156.0138 LP  0  0  0  0  0  0  0  0  0  0  0  0  # atno 17395 bound_to 11000

$$$$
