AV-unprocessed.smi:72|AV-procd|sdf|754|dock2
  -GOLD-   2262017 93D 1   1.00000     0.00000
 Structure written by MMmdl.
 29 30  0  0  0  0  0  0  0  0  1 V2000
  153.4562  137.4160  156.0878 N   0  0  0  0  0  0  0  0  0  0  0  0
  152.5557  138.4352  155.8605 C   0  0  0  0  0  0  0  0  0  0  0  0
  151.7913  138.3417  154.6906 N   0  0  0  0  0  0  0  0  0  0  0  0
  150.9232  139.2816  154.4901 C   0  0  0  0  0  0  0  0  0  0  0  0
  150.7171  140.3489  155.4588 N   0  0  0  0  0  0  0  0  0  0  0  0
  149.7289  141.4820  155.2059 C   0  0  1  0  0  0  0  0  0  0  0  0
  149.2011  141.3667  153.9117 O   0  0  0  0  0  0  0  0  0  0  0  0
  147.8629  140.8709  153.9243 C   0  0  1  0  0  0  0  0  0  0  0  0
  147.8414  139.3252  153.8856 C   0  0  0  0  0  0  0  0  0  0  0  0
  148.4770  138.8652  152.7121 O   0  0  0  0  0  0  0  0  0  0  0  0
  147.3242  141.4970  155.2145 C   0  0  1  0  0  0  0  0  0  0  0  0
  146.2056  140.8118  155.7434 O   0  0  0  0  0  0  0  0  0  0  0  0
  148.5139  141.4509  156.1655 C   0  0  2  0  0  0  0  0  0  0  0  0
  148.4762  142.5866  157.0071 O   0  0  0  0  0  0  0  0  0  0  0  0
  151.6037  140.4306  156.5718 C   0  0  0  0  0  0  0  0  0  0  0  0
  151.5618  141.3959  157.3336 O   0  0  0  0  0  0  0  0  0  0  0  0
  152.5126  139.3818  156.7523 N   0  0  0  0  0  0  0  0  0  0  0  0
  150.3336  142.3877  155.2776 H   0  0  0  0  0  0  0  0  0  0  0  0
  147.3138  141.2600  153.0656 H   0  0  0  0  0  0  0  0  0  0  0  0
  147.0446  142.5314  155.0063 H   0  0  0  0  0  0  0  0  0  0  0  0
  148.5093  140.5264  156.7454 H   0  0  0  0  0  0  0  0  0  0  0  0
  154.0623  137.3804  156.8945 H   0  0  0  0  0  0  0  0  0  0  0  0
  153.5767  136.6308  155.4646 H   0  0  0  0  0  0  0  0  0  0  0  0
  150.3041  139.3236  153.5936 H   0  0  0  0  0  0  0  0  0  0  0  0
  148.2922  138.8769  154.7695 H   0  0  0  0  0  0  0  0  0  0  0  0
  146.8160  138.9588  153.8403 H   0  0  0  0  0  0  0  0  0  0  0  0
  148.4271  137.9216  152.6934 H   0  0  0  0  0  0  0  0  0  0  0  0
  145.8906  141.2918  156.4943 H   0  0  0  0  0  0  0  0  0  0  0  0
  148.5830  143.3593  156.4736 H   0  0  0  0  0  0  0  0  0  0  0  0
  1  2  1  0  0  0  0
  1 22  1  0  0  0  0
  1 23  1  0  0  0  0
  2 17  2  0  0  0  0
  2  3  1  0  0  0  0
  3  4  2  0  0  0  0
  4  5  1  0  0  0  0
  4 24  1  0  0  0  0
  5  6  1  0  0  0  0
  5 15  1  0  0  0  0
  6 18  1  0  0  0  0
  6 13  1  0  0  0  0
  6  7  1  0  0  0  0
  7  8  1  0  0  0  0
  8 19  1  0  0  0  0
  8  9  1  0  0  0  0
  8 11  1  0  0  0  0
  9 10  1  0  0  0  0
  9 25  1  0  0  0  0
  9 26  1  0  0  0  0
 10 27  1  0  0  0  0
 11 20  1  0  0  0  0
 11 12  1  0  0  0  0
 11 13  1  0  0  0  0
 12 28  1  0  0  0  0
 13 21  1  0  0  0  0
 13 14  1  0  0  0  0
 14 29  1  0  0  0  0
 15 16  2  0  0  0  0
 15 17  1  0  0  0  0
M  END
> <s_m_source_file>
AV-unprocessed.smi

> <i_m_source_file_index>
72

> <i_lp_mmshare_version>
43012

> <i_f3d_flags>
0

> <s_epik_input>
W05IMl1jMW5bY0hdbihjKD1PKW4xKVtDQEBIXTJPW0NASF0oW0NIMl1bT0hdKVtDQEBIXShbT0hdKVtDQEhdMltPSF0=

> <s_epik_cmdline>
J2VwaWtfcHl0aG9uJywgJy1waCcsICc3LjAnLCAnLXRuJywgJzgnLCAnLW1hJywgJzIwMCcsICctbWV0YWxfYmluZGluZycsICctaW1hZScsICc8aW5maWxlLm1hZT4nLCAnLW9tYWUnLCAnPG91dGZpbGUubWFlPic=

> <r_lp_tautomer_probability>
4.77166e-05

> <r_epik_Ionization_Penalty>
1.3546

> <r_epik_Ionization_Penalty_Charging>
1.46833e-10

> <r_epik_Ionization_Penalty_Neutral>
1.3546

> <r_epik_State_Penalty>
3.51908

> <r_epik_Charging_Adjusted_Penalty>
3.51908

> <i_epik_Tot_Q>
0

> <i_epik_Tot_abs_Q>
0

> <r_epik_Metal_State_Penalty>
3.44088

> <b_epik_Metal_Only>
1

> <s_epik_Chemistry_Notes>
This compound contains an acetal/aminal-like group ( X-CH(R)-Y where X, Y are N, S, or O) that may be acid/base labile, releasing an aldehyde.

> <s_lp_Force_Field>
OPLS_2005

> <r_lp_Energy>
28.0207

> <b_lp_Chiralities_Consistent>
1

> <s_lp_Variant>
AV-unprocessed.smi:72-92

> <Gold.Version>
5.8.1

> <Gold.Id.Protein>
6NUR|6NUR_protein|mol2

> <Gold.PLP.Fitness>
35.8429

> <Gold.PLP.PLP>
-22.4650

> <Gold.PLP.part.hbond>
-5.0185

> <Gold.PLP.part.metal>
0.0000

> <Gold.PLP.part.buried>
-0.9211

> <Gold.PLP.part.nonpolar>
-18.6839

> <Gold.PLP.part.repulsive>
2.9773

> <Gold.PLP.ligand.clash>
0.0000

> <Gold.PLP.ligand.torsion>
0.2437

> <Gold.PLP.Chemscore.Hbond>
3.7440

> <Gold.PLP.Chemscore.CHOScore>
0.8444

> <Gold.PLP.Chemscore.Metal>
0.0000

> <Gold.Chemscore.Hbonds>
donor molecule, donor type, donor heavy atom, donor atom, acceptor molecule, acceptor atom, score
      L1  H    10    27       P1  7948  0.94
      L1  H    14    29       P1  8028  1.00
      P1  H  7997  8008       L1    17  0.95
      P1  H  8011  8017       L1     7  0.77
      L1  C     4    24       P1  7957  0.77

> <Gold.PLP.Chemscore.Internal.Correction>
0.1001

> <Gold.Rescore>
     Score         DG    S(hbond)    S(metal)    S(lipo)     H(rot)  DE(clash)    DE(int)     intcor
      5.28      -7.09       2.87        0.00      20.60       4.06       1.53       0.28       ----

> <Gold.Chemscore.Fitness>
5.2826

> <Gold.Chemscore.DG>
-7.0926

> <Gold.Chemscore.ZeroCoef>
-5.4800

> <Gold.Chemscore.Hbond>
2.8729

> <Gold.Chemscore.Metal>
0.0000

> <Gold.Chemscore.Lipo>
20.6035

> <Gold.Chemscore.Internal_Hbond>
0.0000

> <Gold.Chemscore.DEClash>
1.5318

> <Gold.Chemscore.DEInternal>
0.2782

> <Gold.Chemscore.Rot>
4.0600

> <Gold.Chemscore.Internal.Correction>
   9.000000E+99

> <Gold.Chemscore.Hbonds>
donor molecule, donor type, donor heavy atom, donor atom, acceptor molecule, acceptor atom, score
      L1  H    10    27       P1  7948  0.92
      L1  H    14    29       P1  8028  0.73
      P1  H  7997  8008       L1    17  0.15
      P1  H  8011  8017       L1     7  0.72

> <Gold.Chemscore.Hbond.Weighted>
-9.5956

> <Gold.Chemscore.Metal.Weighted>
-0.0000

> <Gold.Chemscore.Lipo.Weighted>
-2.4106

> <Gold.Chemscore.Internal_Hbond.Weighted>
0.0000

> <Gold.Chemscore.DEClash.Weighted>
1.5318

> <Gold.Chemscore.DEInternal.Weighted>
0.2782

> <Gold.Chemscore.Rot.Weighted>
10.3936

> <Gold.Chemscore.Internal.Correction.Weighted>
   9.000000E+99

> <Gold.Protein.RotatedTorsions>
[ 6907 6896 6895 6894 ] final -133.37 input  -60.11 | X-H torsion
[ 7974 7965 7964 7962 ] final  -12.36 input  175.53 | X-H torsion
[ 8008 7997 7996 7995 ] final  -53.68 input   59.86 | X-H torsion
[ 10167 10162 10161 10158 ] final -122.59 input  -65.29 | X-H torsion
[ 10718 10713 10712 10709 ] final  -24.74 input   66.30 | X-H torsion
[ 10763 10752 10751 10750 ] final   40.08 input  -60.55 | X-H torsion
[ 11005 11000 10999 10996 ] final   50.92 input  -57.11 | X-H torsion

> <Gold.Protein.ActiveResidues>
 VAL166  LYS551  ARG553  GLY616  TRP617  ASP618  TYR619  PRO620  LYS621  CYS622 
 ASP623  PHE694  ASN695  SER759  ASP760  ASP761  ALA762  ILE779  LEU786  VAL792 
 PHE793  MET794  SER795  GLU796  ALA797  LYS798  CYS799  TRP800  GLU811  SER814 

> <Gold.Protein.RotatedAtoms>
  150.9732  133.6322  159.2734 H   0  0  0  0  0  0  0  0  0  0  0  0  # atno 6907 bound_to 6896
  151.3603  135.0901  159.9442 H   0  0  0  0  0  0  0  0  0  0  0  0  # atno 6908 bound_to 6896
  152.5190  133.9307  159.7634 H   0  0  0  0  0  0  0  0  0  0  0  0  # atno 6909 bound_to 6896
  146.2154  140.3046  142.8378 H   0  0  0  0  0  0  0  0  0  0  0  0  # atno 7974 bound_to 7965
  154.4140  140.1194  156.5193 H   0  0  0  0  0  0  0  0  0  0  0  0  # atno 8008 bound_to 7997
  155.6719  140.3496  155.4802 H   0  0  0  0  0  0  0  0  0  0  0  0  # atno 8009 bound_to 7997
  155.9625  140.1126  157.0873 H   0  0  0  0  0  0  0  0  0  0  0  0  # atno 8010 bound_to 7997
  140.0127  143.5425  152.2256 H   0  0  0  0  0  0  0  0  0  0  0  0  # atno 10167 bound_to 10162
  156.4737  130.4530  149.6854 H   0  0  0  0  0  0  0  0  0  0  0  0  # atno 10718 bound_to 10713
  152.9947  135.6202  154.2569 H   0  0  0  0  0  0  0  0  0  0  0  0  # atno 10763 bound_to 10752
  154.2306  135.2792  155.2893 H   0  0  0  0  0  0  0  0  0  0  0  0  # atno 10764 bound_to 10752
  154.5453  135.5749  153.6932 H   0  0  0  0  0  0  0  0  0  0  0  0  # atno 10765 bound_to 10752
  140.0976  134.5124  155.8792 H   0  0  0  0  0  0  0  0  0  0  0  0  # atno 11005 bound_to 11000
  144.9032  140.7668  143.5854 LP  0  0  0  0  0  0  0  0  0  0  0  0  # atno 17320 bound_to 7965
  145.2973  139.1862  143.4708 LP  0  0  0  0  0  0  0  0  0  0  0  0  # atno 17321 bound_to 7965
  139.6194  144.7626  151.2774 LP  0  0  0  0  0  0  0  0  0  0  0  0  # atno 17342 bound_to 10162
  140.7375  143.6676  150.8109 LP  0  0  0  0  0  0  0  0  0  0  0  0  # atno 17343 bound_to 10162
  156.3592  130.7473  151.2443 LP  0  0  0  0  0  0  0  0  0  0  0  0  # atno 17370 bound_to 10713
  157.7489  131.0355  150.4365 LP  0  0  0  0  0  0  0  0  0  0  0  0  # atno 17371 bound_to 10713
  141.2096  133.6686  156.6454 LP  0  0  0  0  0  0  0  0  0  0  0  0  # atno 17394 bound_to 11000
  140.3264  134.7965  157.4293 LP  0  0  0  0  0  0  0  0  0  0  0  0  # atno 17395 bound_to 11000

$$$$
