AV-unprocessed.smi:332|AV-procd|sdf|2356|dock4
  -GOLD-   2262022263D 1   1.00000     0.00000
 Structure written by MMmdl.
 42 44  0  0  0  0  0  0  0  0  1 V2000
  150.4650  134.9462  155.9265 C   0  0  0  0  0  0  0  0  0  0  0  0
  150.2897  136.3518  156.5261 C   0  0  2  0  0  0  0  0  0  0  0  0
  149.1563  136.3664  157.4440 N   0  0  0  0  0  0  0  0  0  0  0  0
  149.2115  136.5839  158.7685 C   0  0  0  0  0  0  0  0  0  0  0  0
  150.2702  136.7077  159.3827 O   0  0  0  0  0  0  0  0  0  0  0  0
  147.8804  136.7067  159.5302 C   0  0  0  0  0  0  0  0  0  0  0  0
  147.7062  135.7286  160.6205 N   0  0  0  0  0  0  0  0  0  0  0  0
  147.7263  134.3644  160.2680 C   0  0  0  0  0  0  0  0  0  0  0  0
  147.5599  133.3933  161.1797 C   0  0  0  0  0  0  0  0  0  0  0  0
  147.3564  133.7767  162.5566 C   0  0  0  0  0  0  0  0  0  0  0  0
  147.3307  135.0787  162.9042 C   0  0  0  0  0  0  0  0  0  0  0  0
  147.5077  136.1439  161.9106 C   0  0  0  0  0  0  0  0  0  0  0  0
  147.4690  137.3358  162.2166 O   0  0  0  0  0  0  0  0  0  0  0  0
  150.0725  137.4257  155.4346 C   0  0  2  0  0  0  0  0  0  0  0  0
  151.2337  137.5672  154.4257 C   0  0  0  0  0  0  0  0  0  0  0  0
  151.5071  139.0831  154.4245 C   0  0  2  0  0  0  0  0  0  0  0  0
  152.2107  139.4695  155.7389 C   0  0  0  0  0  0  0  0  0  0  0  0
  151.0767  139.3616  156.7745 C   0  0  0  0  0  0  0  0  0  0  0  0
  149.8827  138.8854  155.9227 C   0  0  1  0  0  0  0  0  0  0  0  0
  150.1120  139.6623  154.6308 C   0  0  0  0  0  0  0  0  0  0  0  0
  151.3200  134.9089  155.2513 H   0  0  0  0  0  0  0  0  0  0  0  0
  149.5829  134.6414  155.3624 H   0  0  0  0  0  0  0  0  0  0  0  0
  150.6352  134.2026  156.7055 H   0  0  0  0  0  0  0  0  0  0  0  0
  151.1952  136.5963  157.0838 H   0  0  0  0  0  0  0  0  0  0  0  0
  148.2419  136.2686  157.0266 H   0  0  0  0  0  0  0  0  0  0  0  0
  147.8079  137.7236  159.9179 H   0  0  0  0  0  0  0  0  0  0  0  0
  147.0607  136.6192  158.8149 H   0  0  0  0  0  0  0  0  0  0  0  0
  147.8760  134.1629  159.2171 H   0  0  0  0  0  0  0  0  0  0  0  0
  147.5735  132.3529  160.8899 H   0  0  0  0  0  0  0  0  0  0  0  0
  147.2237  133.0161  163.3118 H   0  0  0  0  0  0  0  0  0  0  0  0
  147.1753  135.3470  163.9391 H   0  0  0  0  0  0  0  0  0  0  0  0
  149.1718  137.1562  154.8794 H   0  0  0  0  0  0  0  0  0  0  0  0
  152.1197  136.9978  154.7093 H   0  0  0  0  0  0  0  0  0  0  0  0
  150.9239  137.2248  153.4375 H   0  0  0  0  0  0  0  0  0  0  0  0
  152.0259  139.4333  153.5318 H   0  0  0  0  0  0  0  0  0  0  0  0
  153.0483  138.8103  155.9698 H   0  0  0  0  0  0  0  0  0  0  0  0
  152.5919  140.4903  155.6928 H   0  0  0  0  0  0  0  0  0  0  0  0
  151.3169  138.6903  157.5984 H   0  0  0  0  0  0  0  0  0  0  0  0
  150.8660  140.3403  157.2076 H   0  0  0  0  0  0  0  0  0  0  0  0
  148.9148  139.0691  156.3902 H   0  0  0  0  0  0  0  0  0  0  0  0
  150.1078  140.7449  154.7689 H   0  0  0  0  0  0  0  0  0  0  0  0
  149.4118  139.4008  153.8355 H   0  0  0  0  0  0  0  0  0  0  0  0
  1  2  1  0  0  0  0
  1 21  1  0  0  0  0
  1 22  1  0  0  0  0
  1 23  1  0  0  0  0
  2  3  1  0  0  0  0
  2 14  1  0  0  0  0
  2 24  1  0  0  0  0
  3  4  1  0  0  0  0
  3 25  1  0  0  0  0
  4  5  2  0  0  0  0
  4  6  1  0  0  0  0
  6  7  1  0  0  0  0
  6 26  1  0  0  0  0
  6 27  1  0  0  0  0
  7 12  1  0  0  0  0
  7  8  1  0  0  0  0
  8  9  2  0  0  0  0
  8 28  1  0  0  0  0
  9 10  1  0  0  0  0
  9 29  1  0  0  0  0
 10 11  2  0  0  0  0
 10 30  1  0  0  0  0
 11 12  1  0  0  0  0
 11 31  1  0  0  0  0
 12 13  2  0  0  0  0
 14 19  1  0  0  0  0
 14 15  1  0  0  0  0
 14 32  1  0  0  0  0
 15 16  1  0  0  0  0
 15 33  1  0  0  0  0
 15 34  1  0  0  0  0
 16 20  1  0  0  0  0
 16 17  1  0  0  0  0
 16 35  1  0  0  0  0
 17 18  1  0  0  0  0
 17 36  1  0  0  0  0
 17 37  1  0  0  0  0
 18 19  1  0  0  0  0
 18 38  1  0  0  0  0
 18 39  1  0  0  0  0
 19 20  1  0  0  0  0
 19 40  1  0  0  0  0
 20 41  1  0  0  0  0
 20 42  1  0  0  0  0
M  END
> <s_m_source_file>
AV-unprocessed.smi

> <i_m_source_file_index>
332

> <i_lp_mmshare_version>
43012

> <i_f3d_flags>
0

> <s_epik_input>
W0NIMl0xW0NIMl1bQ0BIXShbQ0gyXTIpW0NAQEhdKFtDSDJdW0NAQEhdMTIpW0NASF0oW0NIM10pW05IXUMoPU8pW0NIMl1uM1tjSF1bY0hdW2NIXVtjSF1jMz1P

> <s_epik_cmdline>
J2VwaWtfcHl0aG9uJywgJy1waCcsICc3LjAnLCAnLXRuJywgJzgnLCAnLW1hJywgJzIwMCcsICctbWV0YWxfYmluZGluZycsICctaW1hZScsICc8aW5maWxlLm1hZT4nLCAnLW9tYWUnLCAnPG91dGZpbGUubWFlPic=

> <r_lp_tautomer_probability>
1

> <r_epik_Ionization_Penalty>
4.05802e-07

> <r_epik_Ionization_Penalty_Charging>
3.84175e-07

> <r_epik_Ionization_Penalty_Neutral>
2.16269e-08

> <r_epik_State_Penalty>
-0

> <r_epik_Charging_Adjusted_Penalty>
3.84175e-07

> <i_epik_Tot_Q>
0

> <i_epik_Tot_abs_Q>
0

> <r_epik_Metal_State_Penalty>
-0

> <b_epik_Metal_Only>
0

> <s_lp_Force_Field>
OPLS_2005

> <r_lp_Energy>
59.3935

> <b_lp_Chiralities_Consistent>
1

> <s_lp_Variant>
AV-unprocessed.smi:332-5

> <Gold.Version>
5.8.1

> <Gold.Id.Protein>
6NUR|6NUR_protein|mol2

> <Gold.PLP.Fitness>
45.5355

> <Gold.PLP.PLP>
-38.0878

> <Gold.PLP.part.hbond>
-3.0000

> <Gold.PLP.part.metal>
0.0000

> <Gold.PLP.part.buried>
-2.2287

> <Gold.PLP.part.nonpolar>
-32.4088

> <Gold.PLP.part.repulsive>
0.0493

> <Gold.PLP.ligand.clash>
0.0000

> <Gold.PLP.ligand.torsion>
0.0173

> <Gold.PLP.Chemscore.Hbond>
2.4880

> <Gold.PLP.Chemscore.CHOScore>
0.0000

> <Gold.PLP.Chemscore.Metal>
0.0000

> <Gold.Chemscore.Hbonds>
donor molecule, donor type, donor heavy atom, donor atom, acceptor molecule, acceptor atom, score
      P1  H  6896  6908       L1     5  1.00
      P1  H  6931  6943       L1    13  0.82
      P1  H  6934  6947       L1    13  0.44

> <Gold.PLP.Chemscore.Internal.Correction>
0.0182

> <Gold.Rescore>
     Score         DG    S(hbond)    S(metal)    S(lipo)     H(rot)  DE(clash)    DE(int)     intcor
     18.60     -18.93       2.31        0.00      82.63       1.54       0.24       0.09       ----

> <Gold.Chemscore.Fitness>
18.6032

> <Gold.Chemscore.DG>
-18.9312

> <Gold.Chemscore.ZeroCoef>
-5.4800

> <Gold.Chemscore.Hbond>
2.3131

> <Gold.Chemscore.Metal>
0.0000

> <Gold.Chemscore.Lipo>
82.6268

> <Gold.Chemscore.Internal_Hbond>
0.0000

> <Gold.Chemscore.DEClash>
0.2373

> <Gold.Chemscore.DEInternal>
0.0907

> <Gold.Chemscore.Rot>
1.5398

> <Gold.Chemscore.Internal.Correction>
   9.000000E+99

> <Gold.Chemscore.Hbonds>
donor molecule, donor type, donor heavy atom, donor atom, acceptor molecule, acceptor atom, score
      P1  H  6896  6908       L1     5  0.82
      P1  H  6931  6943       L1    13  0.74
      P1  H  6934  6947       L1    13  0.44

> <Gold.Chemscore.Hbond.Weighted>
-7.7258

> <Gold.Chemscore.Metal.Weighted>
-0.0000

> <Gold.Chemscore.Lipo.Weighted>
-9.6673

> <Gold.Chemscore.Internal_Hbond.Weighted>
0.0000

> <Gold.Chemscore.DEClash.Weighted>
0.2373

> <Gold.Chemscore.DEInternal.Weighted>
0.0907

> <Gold.Chemscore.Rot.Weighted>
3.9419

> <Gold.Chemscore.Internal.Correction.Weighted>
   9.000000E+99

> <Gold.Protein.RotatedTorsions>
[ 6907 6896 6895 6894 ] final -154.17 input  -60.11 | X-H torsion
[ 7974 7965 7964 7962 ] final  -34.17 input  175.53 | X-H torsion
[ 8008 7997 7996 7995 ] final  121.51 input   59.86 | X-H torsion
[ 10167 10162 10161 10158 ] final  136.56 input  -65.29 | X-H torsion
[ 10718 10713 10712 10709 ] final   16.75 input   66.30 | X-H torsion
[ 10763 10752 10751 10750 ] final    3.72 input  -60.55 | X-H torsion
[ 11005 11000 10999 10996 ] final  124.71 input  -57.11 | X-H torsion

> <Gold.Protein.ActiveResidues>
 VAL166  LYS551  ARG553  GLY616  TRP617  ASP618  TYR619  PRO620  LYS621  CYS622 
 ASP623  PHE694  ASN695  SER759  ASP760  ASP761  ALA762  ILE779  LEU786  VAL792 
 PHE793  MET794  SER795  GLU796  ALA797  LYS798  CYS799  TRP800  GLU811  SER814 

> <Gold.Protein.RotatedAtoms>
  151.2535  133.4338  159.2612 H   0  0  0  0  0  0  0  0  0  0  0  0  # atno 6907 bound_to 6896
  151.0596  134.9728  159.8263 H   0  0  0  0  0  0  0  0  0  0  0  0  # atno 6908 bound_to 6896
  152.5396  134.2486  159.8942 H   0  0  0  0  0  0  0  0  0  0  0  0  # atno 6909 bound_to 6896
  146.0851  140.6005  142.8890 H   0  0  0  0  0  0  0  0  0  0  0  0  # atno 7974 bound_to 7965
  156.2689  140.2806  156.1320 H   0  0  0  0  0  0  0  0  0  0  0  0  # atno 8008 bound_to 7997
  155.1044  140.0390  157.2724 H   0  0  0  0  0  0  0  0  0  0  0  0  # atno 8009 bound_to 7997
  154.6790  140.2604  155.6933 H   0  0  0  0  0  0  0  0  0  0  0  0  # atno 8010 bound_to 7997
  139.5175  144.6458  151.5444 H   0  0  0  0  0  0  0  0  0  0  0  0  # atno 10167 bound_to 10162
  157.0723  130.6353  149.5808 H   0  0  0  0  0  0  0  0  0  0  0  0  # atno 10718 bound_to 10713
  153.2799  135.6939  153.7396 H   0  0  0  0  0  0  0  0  0  0  0  0  # atno 10763 bound_to 10752
  153.6388  135.3397  155.3065 H   0  0  0  0  0  0  0  0  0  0  0  0  # atno 10764 bound_to 10752
  154.8491  135.4426  154.1848 H   0  0  0  0  0  0  0  0  0  0  0  0  # atno 10765 bound_to 10752
  139.9372  134.9638  156.8450 H   0  0  0  0  0  0  0  0  0  0  0  0  # atno 11005 bound_to 11000
  144.7320  140.4700  143.6931 LP  0  0  0  0  0  0  0  0  0  0  0  0  # atno 17320 bound_to 7965
  145.6144  139.1517  143.3057 LP  0  0  0  0  0  0  0  0  0  0  0  0  # atno 17321 bound_to 7965
  140.6242  143.9200  150.6551 LP  0  0  0  0  0  0  0  0  0  0  0  0  # atno 17342 bound_to 10162
  140.2484  143.3612  152.1427 LP  0  0  0  0  0  0  0  0  0  0  0  0  # atno 17343 bound_to 10162
  155.9947  130.5011  150.7429 LP  0  0  0  0  0  0  0  0  0  0  0  0  # atno 17370 bound_to 10713
  157.4868  131.0907  151.0473 LP  0  0  0  0  0  0  0  0  0  0  0  0  # atno 17371 bound_to 10713
  140.6046  134.0140  155.7551 LP  0  0  0  0  0  0  0  0  0  0  0  0  # atno 17394 bound_to 11000
  141.0991  133.9797  157.3110 LP  0  0  0  0  0  0  0  0  0  0  0  0  # atno 17395 bound_to 11000

$$$$
