AV-unprocessed.smi:1421|AV-procd|sdf|5790|dock10
  -GOLD-   22720 5433D 1   1.00000     0.00000
 Structure written by MMmdl.
 45 46  0  0  0  0  0  0  0  0  1 V2000
  146.4490  132.4848  151.3965 C   0  0  0  0  0  0  0  0  0  0  0  0
  144.7785  132.6054  150.6402 S   0  0  0  0  0  0  0  0  0  0  0  0
  144.7859  131.8533  149.3763 O   0  0  0  0  0  0  0  0  0  0  0  0
  143.7660  132.3143  151.6662 O   0  0  0  0  0  0  0  0  0  0  0  0
  144.6643  134.2868  150.2639 N   0  0  0  0  0  0  0  0  0  0  0  0
  144.5902  135.2543  151.3603 C   0  0  0  0  0  0  0  0  0  0  0  0
  145.9873  135.7978  151.7142 C   0  0  0  0  0  0  0  0  0  0  0  0
  146.0055  136.5789  153.0313 C   0  0  0  0  0  0  0  0  0  0  0  0
  144.9518  136.8708  153.5970 O   0  0  0  0  0  0  0  0  0  0  0  0
  147.2167  136.8972  153.5144 N   0  0  0  0  0  0  0  0  0  0  0  0
  147.4795  137.5838  154.7760 C   0  0  0  0  0  0  0  0  0  0  0  0
  147.4361  139.0999  154.6329 C   0  0  0  0  0  0  0  0  0  0  0  0
  146.2012  139.7382  154.3881 C   0  0  0  0  0  0  0  0  0  0  0  0
  146.1659  141.1370  154.2434 C   0  0  0  0  0  0  0  0  0  0  0  0
  147.3746  141.8485  154.3494 C   0  0  0  0  0  0  0  0  0  0  0  0
  148.5627  141.2547  154.5846 N   0  0  0  0  0  0  0  0  0  0  0  0
  148.6012  139.9069  154.7243 C   0  0  0  0  0  0  0  0  0  0  0  0
  149.8499  139.3217  154.9922 N   0  0  0  0  0  0  0  0  0  0  0  0
  150.3183  138.3468  154.0144 C   0  0  0  0  0  0  0  0  0  0  0  0
  151.5971  137.6663  154.5306 C   0  0  0  0  0  0  0  0  0  0  0  0
  152.5798  138.6579  154.8152 O   0  0  0  0  0  0  0  0  0  0  0  0
  152.1472  139.5695  155.8217 C   0  0  0  0  0  0  0  0  0  0  0  0
  150.8710  140.2939  155.3578 C   0  0  0  0  0  0  0  0  0  0  0  0
  146.6423  131.4517  151.6843 H   0  0  0  0  0  0  0  0  0  0  0  0
  146.4976  133.1209  152.2798 H   0  0  0  0  0  0  0  0  0  0  0  0
  147.2002  132.8058  150.6754 H   0  0  0  0  0  0  0  0  0  0  0  0
  145.3842  134.5560  149.5937 H   0  0  0  0  0  0  0  0  0  0  0  0
  143.9102  136.0621  151.0857 H   0  0  0  0  0  0  0  0  0  0  0  0
  144.1541  134.7522  152.2245 H   0  0  0  0  0  0  0  0  0  0  0  0
  146.6952  134.9727  151.8001 H   0  0  0  0  0  0  0  0  0  0  0  0
  146.3554  136.4410  150.9149 H   0  0  0  0  0  0  0  0  0  0  0  0
  148.0244  136.6182  152.9767 H   0  0  0  0  0  0  0  0  0  0  0  0
  146.7260  137.2606  155.4948 H   0  0  0  0  0  0  0  0  0  0  0  0
  148.4406  137.2974  155.2052 H   0  0  0  0  0  0  0  0  0  0  0  0
  145.2892  139.1650  154.3079 H   0  0  0  0  0  0  0  0  0  0  0  0
  145.2354  141.6514  154.0540 H   0  0  0  0  0  0  0  0  0  0  0  0
  147.3882  142.9233  154.2432 H   0  0  0  0  0  0  0  0  0  0  0  0
  149.5421  137.6021  153.8359 H   0  0  0  0  0  0  0  0  0  0  0  0
  150.5223  138.8410  153.0633 H   0  0  0  0  0  0  0  0  0  0  0  0
  151.3909  137.0741  155.4239 H   0  0  0  0  0  0  0  0  0  0  0  0
  151.9896  136.9826  153.7778 H   0  0  0  0  0  0  0  0  0  0  0  0
  151.9746  139.0359  156.7572 H   0  0  0  0  0  0  0  0  0  0  0  0
  152.9408  140.2922  156.0114 H   0  0  0  0  0  0  0  0  0  0  0  0
  151.0922  140.9259  154.4966 H   0  0  0  0  0  0  0  0  0  0  0  0
  150.5024  140.9463  156.1501 H   0  0  0  0  0  0  0  0  0  0  0  0
  1  2  1  0  0  0  0
  1 24  1  0  0  0  0
  1 25  1  0  0  0  0
  1 26  1  0  0  0  0
  2  3  2  0  0  0  0
  2  4  2  0  0  0  0
  2  5  1  0  0  0  0
  5  6  1  0  0  0  0
  5 27  1  0  0  0  0
  6  7  1  0  0  0  0
  6 28  1  0  0  0  0
  6 29  1  0  0  0  0
  7  8  1  0  0  0  0
  7 30  1  0  0  0  0
  7 31  1  0  0  0  0
  8  9  2  0  0  0  0
  8 10  1  0  0  0  0
 10 11  1  0  0  0  0
 10 32  1  0  0  0  0
 11 12  1  0  0  0  0
 11 33  1  0  0  0  0
 11 34  1  0  0  0  0
 12 17  1  0  0  0  0
 12 13  2  0  0  0  0
 13 14  1  0  0  0  0
 13 35  1  0  0  0  0
 14 15  2  0  0  0  0
 14 36  1  0  0  0  0
 15 16  1  0  0  0  0
 15 37  1  0  0  0  0
 16 17  2  0  0  0  0
 17 18  1  0  0  0  0
 18 23  1  0  0  0  0
 18 19  1  0  0  0  0
 19 20  1  0  0  0  0
 19 38  1  0  0  0  0
 19 39  1  0  0  0  0
 20 21  1  0  0  0  0
 20 40  1  0  0  0  0
 20 41  1  0  0  0  0
 21 22  1  0  0  0  0
 22 23  1  0  0  0  0
 22 42  1  0  0  0  0
 22 43  1  0  0  0  0
 23 44  1  0  0  0  0
 23 45  1  0  0  0  0
M  END
> <s_m_source_file>
AV-unprocessed.smi

> <i_m_source_file_index>
1421

> <i_lp_mmshare_version>
43012

> <i_f3d_flags>
0

> <s_epik_input>
W0NIM11TKD1PKSg9TylbTkhdW0NIMl1bQ0gyXUMoPU8pW05IXVtDSDJdYzFbY0hdW2NIXVtjSF1uYzFOMltDSDJdW0NIMl1PW0NIMl1bQ0gyXTI=

> <s_epik_cmdline>
J2VwaWtfcHl0aG9uJywgJy1waCcsICc3LjAnLCAnLXRuJywgJzgnLCAnLW1hJywgJzIwMCcsICctbWV0YWxfYmluZGluZycsICctaW1hZScsICc8aW5maWxlLm1hZT4nLCAnLW9tYWUnLCAnPG91dGZpbGUubWFlPic=

> <r_lp_tautomer_probability>
1

> <r_epik_Ionization_Penalty>
0.00479902

> <r_epik_Ionization_Penalty_Charging>
0

> <r_epik_Ionization_Penalty_Neutral>
0.00479902

> <r_epik_State_Penalty>
0.00346804

> <r_epik_Charging_Adjusted_Penalty>
0.00346804

> <i_epik_Tot_Q>
0

> <i_epik_Tot_abs_Q>
0

> <r_epik_Metal_State_Penalty>
0.0135183

> <b_epik_Metal_Only>
0

> <s_lp_Force_Field>
OPLS_2005

> <r_lp_Energy>
16.2215

> <b_lp_Chiralities_Consistent>
1

> <s_lp_Variant>
AV-unprocessed.smi:1421-1

> <Gold.Version>
5.8.1

> <Gold.Id.Protein>
6NUR|6NUR_protein|mol2

> <Gold.PLP.Fitness>
40.2405

> <Gold.PLP.PLP>
-32.7328

> <Gold.PLP.part.hbond>
-2.0363

> <Gold.PLP.part.metal>
0.0000

> <Gold.PLP.part.buried>
-4.1100

> <Gold.PLP.part.nonpolar>
-28.2027

> <Gold.PLP.part.repulsive>
0.8432

> <Gold.PLP.ligand.clash>
0.0000

> <Gold.PLP.ligand.torsion>
0.8820

> <Gold.PLP.Chemscore.Hbond>
2.0000

> <Gold.PLP.Chemscore.CHOScore>
1.0000

> <Gold.PLP.Chemscore.Metal>
0.0000

> <Gold.Chemscore.Hbonds>
donor molecule, donor type, donor heavy atom, donor atom, acceptor molecule, acceptor atom, score
      L1  H     5    27       P1  7921  0.80
      L1  H    10    32       P1  7948  0.93
      P1  H 10785 10796       L1     3  0.02
      L1  C    15    37       P1  8028  0.60

> <Gold.PLP.Chemscore.Internal.Correction>
0.2718

> <Gold.Rescore>
     Score         DG    S(hbond)    S(metal)    S(lipo)     H(rot)  DE(clash)    DE(int)     intcor
     11.33     -12.62       1.93        0.00      69.45       2.90       0.06       1.23       ----

> <Gold.Chemscore.Fitness>
11.3282

> <Gold.Chemscore.DG>
-12.6168

> <Gold.Chemscore.ZeroCoef>
-5.4800

> <Gold.Chemscore.Hbond>
1.9277

> <Gold.Chemscore.Metal>
0.0000

> <Gold.Chemscore.Lipo>
69.4545

> <Gold.Chemscore.Internal_Hbond>
0.0000

> <Gold.Chemscore.DEClash>
0.0628

> <Gold.Chemscore.DEInternal>
1.2257

> <Gold.Chemscore.Rot>
2.9015

> <Gold.Chemscore.Internal.Correction>
   9.000000E+99

> <Gold.Chemscore.Hbonds>
donor molecule, donor type, donor heavy atom, donor atom, acceptor molecule, acceptor atom, score
      L1  H     5    27       P1  7921  0.74
      L1  H    10    32       P1  7948  0.88
      P1  H 10785 10796       L1     3  0.04

> <Gold.Chemscore.Hbond.Weighted>
-6.4384

> <Gold.Chemscore.Metal.Weighted>
-0.0000

> <Gold.Chemscore.Lipo.Weighted>
-8.1262

> <Gold.Chemscore.Internal_Hbond.Weighted>
0.0000

> <Gold.Chemscore.DEClash.Weighted>
0.0628

> <Gold.Chemscore.DEInternal.Weighted>
1.2257

> <Gold.Chemscore.Rot.Weighted>
7.4278

> <Gold.Chemscore.Internal.Correction.Weighted>
   9.000000E+99

> <Gold.Protein.RotatedTorsions>
[ 6907 6896 6895 6894 ] final  164.20 input  -60.11 | X-H torsion
[ 7974 7965 7964 7962 ] final  123.58 input  175.53 | X-H torsion
[ 8008 7997 7996 7995 ] final  -34.82 input   59.86 | X-H torsion
[ 10167 10162 10161 10158 ] final  -98.86 input  -65.29 | X-H torsion
[ 10718 10713 10712 10709 ] final   73.25 input   66.30 | X-H torsion
[ 10763 10752 10751 10750 ] final  170.73 input  -60.55 | X-H torsion
[ 11005 11000 10999 10996 ] final -178.95 input  -57.11 | X-H torsion

> <Gold.Protein.ActiveResidues>
 VAL166  LYS551  ARG553  GLY616  TRP617  ASP618  TYR619  PRO620  LYS621  CYS622 
 ASP623  PHE694  ASN695  SER759  ASP760  ASP761  ALA762  ILE779  LEU786  VAL792 
 PHE793  MET794  SER795  GLU796  ALA797  LYS798  CYS799  TRP800  GLU811  SER814 

> <Gold.Protein.RotatedAtoms>
  151.9135  133.3567  159.3871 H   0  0  0  0  0  0  0  0  0  0  0  0  # atno 6907 bound_to 6896
  150.7053  134.4708  159.5434 H   0  0  0  0  0  0  0  0  0  0  0  0  # atno 6908 bound_to 6896
  152.2318  134.8314  160.0523 H   0  0  0  0  0  0  0  0  0  0  0  0  # atno 6909 bound_to 6896
  145.0943  139.3564  143.4844 H   0  0  0  0  0  0  0  0  0  0  0  0  # atno 7974 bound_to 7965
  154.4111  140.1674  156.2111 H   0  0  0  0  0  0  0  0  0  0  0  0  # atno 8008 bound_to 7997
  155.9443  140.3405  155.6331 H   0  0  0  0  0  0  0  0  0  0  0  0  # atno 8009 bound_to 7997
  155.6949  140.0738  157.2424 H   0  0  0  0  0  0  0  0  0  0  0  0  # atno 8010 bound_to 7997
  140.2685  143.3359  152.0557 H   0  0  0  0  0  0  0  0  0  0  0  0  # atno 10167 bound_to 10162
  157.6539  130.9619  150.1043 H   0  0  0  0  0  0  0  0  0  0  0  0  # atno 10718 bound_to 10713
  154.4019  135.2755  155.2091 H   0  0  0  0  0  0  0  0  0  0  0  0  # atno 10763 bound_to 10752
  154.4114  135.6021  153.5958 H   0  0  0  0  0  0  0  0  0  0  0  0  # atno 10764 bound_to 10752
  152.9831  135.5950  154.4288 H   0  0  0  0  0  0  0  0  0  0  0  0  # atno 10765 bound_to 10752
  140.4240  134.6579  157.4679 H   0  0  0  0  0  0  0  0  0  0  0  0  # atno 11005 bound_to 11000
  146.3531  140.0792  142.8618 LP  0  0  0  0  0  0  0  0  0  0  0  0  # atno 17320 bound_to 7965
  145.1029  140.9357  143.4702 LP  0  0  0  0  0  0  0  0  0  0  0  0  # atno 17321 bound_to 7965
  139.4995  144.6672  151.6329 LP  0  0  0  0  0  0  0  0  0  0  0  0  # atno 17342 bound_to 10162
  140.5908  143.9782  150.6324 LP  0  0  0  0  0  0  0  0  0  0  0  0  # atno 17343 bound_to 10162
  156.1957  130.3657  149.8853 LP  0  0  0  0  0  0  0  0  0  0  0  0  # atno 17370 bound_to 10713
  156.6769  130.8843  151.3570 LP  0  0  0  0  0  0  0  0  0  0  0  0  # atno 17371 bound_to 10713
  140.0180  134.6590  155.9281 LP  0  0  0  0  0  0  0  0  0  0  0  0  # atno 17394 bound_to 11000
  141.1772  133.6542  156.4877 LP  0  0  0  0  0  0  0  0  0  0  0  0  # atno 17395 bound_to 11000

$$$$
