AV-unprocessed.smi:1047|AV-procd|sdf|4560|dock8
  -GOLD-   22720 3 03D 1   1.00000     0.00000
 Structure written by MMmdl.
 57 59  0  0  0  0  0  0  0  0  3 V2000
  149.2461  130.2612  153.8176 C   0  0  0  0  0  0  0  0  0  0  0  0
  148.8370  131.7374  153.7119 C   0  0  0  0  0  0  0  0  0  0  0  0
  149.3087  132.5442  154.8653 N   0  3  1  0  0  0  0  0  0  0  0  0
  150.6409  132.1092  155.3487 C   0  0  0  0  0  0  0  0  0  0  0  0
  151.0614  132.9261  156.5818 C   0  0  0  0  0  0  0  0  0  0  0  0
  151.0621  134.3121  156.2617 O   0  0  0  0  0  0  0  0  0  0  0  0
  149.7759  134.7756  155.8647 C   0  0  1  0  0  0  0  0  0  0  0  0
  149.8384  136.2998  155.6633 C   0  0  0  0  0  0  0  0  0  0  0  0
  150.4341  136.6643  154.3610 N   0  3  0  0  0  0  0  0  0  0  0  0
  150.9627  138.0415  154.2995 C   0  0  0  0  0  0  0  0  0  0  0  0
  149.9231  139.0550  154.8045 C   0  0  2  0  0  0  0  0  0  0  0  0
  148.9499  139.2459  153.7954 O   0  0  0  0  0  0  0  0  0  0  0  0
  150.5604  140.4116  155.1621 C   0  0  0  0  0  0  0  0  0  0  0  0
  151.3845  140.3363  156.3554 N   0  0  0  0  0  0  0  0  0  0  0  0
  152.2735  139.3750  156.6723 C   0  0  0  0  0  0  0  0  0  0  0  0
  152.9314  139.5095  157.8201 N   0  0  0  0  0  0  0  0  0  0  0  0
  152.4023  140.6915  158.3092 C   0  0  0  0  0  0  0  0  0  0  0  0
  152.6797  141.3977  159.5001 C   0  0  0  0  0  0  0  0  0  0  0  0
  152.0074  142.6037  159.8010 C   0  0  0  0  0  0  0  0  0  0  0  0
  152.3373  143.3305  161.0928 C   0  0  0  0  0  0  0  0  0  0  0  0
  151.0385  143.1204  158.9034 C   0  0  0  0  0  0  0  0  0  0  0  0
  150.3002  144.4118  159.2085 C   0  0  0  0  0  0  0  0  0  0  0  0
  150.7514  142.4292  157.7078 C   0  0  0  0  0  0  0  0  0  0  0  0
  151.4284  141.2311  157.4190 C   0  0  0  0  0  0  0  0  0  0  0  0
  149.3055  134.0069  154.6112 C   0  0  0  0  0  0  0  0  0  0  0  0
  148.9683  129.7218  152.9116 H   0  0  0  0  0  0  0  0  0  0  0  0
  148.7579  129.7591  154.6522 H   0  0  0  0  0  0  0  0  0  0  0  0
  150.3242  130.1581  153.9440 H   0  0  0  0  0  0  0  0  0  0  0  0
  149.2729  132.1394  152.7960 H   0  0  0  0  0  0  0  0  0  0  0  0
  147.7550  131.8294  153.6054 H   0  0  0  0  0  0  0  0  0  0  0  0
  150.6152  131.0492  155.6048 H   0  0  0  0  0  0  0  0  0  0  0  0
  151.3772  132.2284  154.5521 H   0  0  0  0  0  0  0  0  0  0  0  0
  150.3947  132.7340  157.4241 H   0  0  0  0  0  0  0  0  0  0  0  0
  152.0638  132.6377  156.8983 H   0  0  0  0  0  0  0  0  0  0  0  0
  149.0740  134.5806  156.6778 H   0  0  0  0  0  0  0  0  0  0  0  0
  148.8366  136.7255  155.7344 H   0  0  0  0  0  0  0  0  0  0  0  0
  150.4315  136.7492  156.4612 H   0  0  0  0  0  0  0  0  0  0  0  0
  151.1967  136.0297  154.1684 H   0  0  0  0  0  0  0  0  0  0  0  0
  151.8604  138.0935  154.9172 H   0  0  0  0  0  0  0  0  0  0  0  0
  151.2633  138.2797  153.2780 H   0  0  0  0  0  0  0  0  0  0  0  0
  149.4249  138.6523  155.6876 H   0  0  0  0  0  0  0  0  0  0  0  0
  149.3840  139.2420  152.9551 H   0  0  0  0  0  0  0  0  0  0  0  0
  151.1853  140.7650  154.3409 H   0  0  0  0  0  0  0  0  0  0  0  0
  149.7891  141.1682  155.3159 H   0  0  0  0  0  0  0  0  0  0  0  0
  152.4533  138.5323  156.0206 H   0  0  0  0  0  0  0  0  0  0  0  0
  153.4168  141.0031  160.1841 H   0  0  0  0  0  0  0  0  0  0  0  0
  151.4521  143.4063  161.7245 H   0  0  0  0  0  0  0  0  0  0  0  0
  152.7014  144.3364  160.8832 H   0  0  0  0  0  0  0  0  0  0  0  0
  153.1087  142.8076  161.6591 H   0  0  0  0  0  0  0  0  0  0  0  0
  149.5811  144.6542  158.4255 H   0  0  0  0  0  0  0  0  0  0  0  0
  151.0014  145.2429  159.2886 H   0  0  0  0  0  0  0  0  0  0  0  0
  149.7542  144.3276  160.1485 H   0  0  0  0  0  0  0  0  0  0  0  0
  150.0164  142.8124  157.0158 H   0  0  0  0  0  0  0  0  0  0  0  0
  149.9561  134.2233  153.7625 H   0  0  0  0  0  0  0  0  0  0  0  0
  148.3045  134.3416  154.3406 H   0  0  0  0  0  0  0  0  0  0  0  0
  149.7364  136.5576  153.6390 H   0  0  0  0  0  0  0  0  0  0  0  0
  148.6617  132.3704  155.6218 H   0  0  0  0  0  0  0  0  0  0  0  0
  1  2  1  0  0  0  0
  1 26  1  0  0  0  0
  1 27  1  0  0  0  0
  1 28  1  0  0  0  0
  2  3  1  0  0  0  0
  2 29  1  0  0  0  0
  2 30  1  0  0  0  0
  3 25  1  0  0  0  0
  3  4  1  0  0  0  0
  3 57  1  0  0  0  0
  4  5  1  0  0  0  0
  4 31  1  0  0  0  0
  4 32  1  0  0  0  0
  5  6  1  0  0  0  0
  5 33  1  0  0  0  0
  5 34  1  0  0  0  0
  6  7  1  0  0  0  0
  7  8  1  0  0  0  0
  7 25  1  0  0  0  0
  7 35  1  0  0  0  0
  8  9  1  0  0  0  0
  8 36  1  0  0  0  0
  8 37  1  0  0  0  0
  9 10  1  0  0  0  0
  9 38  1  0  0  0  0
  9 56  1  0  0  0  0
 10 11  1  0  0  0  0
 10 39  1  0  0  0  0
 10 40  1  0  0  0  0
 11 12  1  0  0  0  0
 11 13  1  0  0  0  0
 11 41  1  0  0  0  0
 12 42  1  0  0  0  0
 13 14  1  0  0  0  0
 13 43  1  0  0  0  0
 13 44  1  0  0  0  0
 14 24  1  0  0  0  0
 14 15  1  0  0  0  0
 15 16  2  0  0  0  0
 15 45  1  0  0  0  0
 16 17  1  0  0  0  0
 17 24  2  0  0  0  0
 17 18  1  0  0  0  0
 18 19  2  0  0  0  0
 18 46  1  0  0  0  0
 19 20  1  0  0  0  0
 19 21  1  0  0  0  0
 20 47  1  0  0  0  0
 20 48  1  0  0  0  0
 20 49  1  0  0  0  0
 21 22  1  0  0  0  0
 21 23  2  0  0  0  0
 22 50  1  0  0  0  0
 22 51  1  0  0  0  0
 22 52  1  0  0  0  0
 23 24  1  0  0  0  0
 23 53  1  0  0  0  0
 25 54  1  0  0  0  0
 25 55  1  0  0  0  0
M  CHG  1   3   1
M  CHG  1   9   1
M  END
> <s_m_source_file>
AV-unprocessed.smi

> <i_m_source_file_index>
1047

> <i_lp_mmshare_version>
43012

> <i_f3d_flags>
0

> <s_epik_input>
W0NIM11bQ0gyXU4xW0NIMl1bQ0gyXU9bQ0BIXShbQ0gyXTEpW0NIMl1bTkhdW0NIMl1bQ0BIXShbT0hdKVtDSDJdbihbY0hdbjIpYyhjMjMpW2NIXWMoW0NIM10pYyhbY0hdMylbQ0gzXQ==

> <s_epik_cmdline>
J2VwaWtfcHl0aG9uJywgJy1waCcsICc3LjAnLCAnLXRuJywgJzgnLCAnLW1hJywgJzIwMCcsICctbWV0YWxfYmluZGluZycsICctaW1hZScsICc8aW5maWxlLm1hZT4nLCAnLW9tYWUnLCAnPG91dGZpbGUubWFlPic=

> <r_epik_Ionization_Penalty>
0.528991

> <r_epik_Ionization_Penalty_Charging>
0.438567

> <r_epik_Ionization_Penalty_Neutral>
0.0904237

> <r_epik_State_Penalty>
0.533036

> <r_epik_Charging_Adjusted_Penalty>
0.971603

> <i_epik_Tot_Q>
2

> <i_epik_Tot_abs_Q>
2

> <r_epik_Metal_State_Penalty>
0.448985

> <b_epik_Metal_Only>
0

> <s_lp_Force_Field>
OPLS_2005

> <r_lp_Energy>
32.0872

> <b_lp_Chiralities_Consistent>
1

> <s_lp_Variant>
AV-unprocessed.smi:1047-1

> <Gold.Version>
5.8.1

> <Gold.Id.Protein>
6NUR|6NUR_protein|mol2

> <Gold.PLP.Fitness>
58.8825

> <Gold.PLP.PLP>
-48.5377

> <Gold.PLP.part.hbond>
-4.0000

> <Gold.PLP.part.metal>
0.0000

> <Gold.PLP.part.buried>
-4.3997

> <Gold.PLP.part.nonpolar>
-40.4476

> <Gold.PLP.part.repulsive>
0.0678

> <Gold.PLP.ligand.clash>
0.0000

> <Gold.PLP.ligand.torsion>
0.8912

> <Gold.PLP.Chemscore.Hbond>
4.0000

> <Gold.PLP.Chemscore.CHOScore>
0.0000

> <Gold.PLP.Chemscore.Metal>
0.0000

> <Gold.Chemscore.Hbonds>
donor molecule, donor type, donor heavy atom, donor atom, acceptor molecule, acceptor atom, score
      L1  H     9    56       P1  7948  2.00
      L1  H    12    42       P1  7957  0.99
      P1  H  7997  8009       L1    16  0.80

> <Gold.PLP.Chemscore.Internal.Correction>
0.1272

> <Gold.Rescore>
     Score         DG    S(hbond)    S(metal)    S(lipo)     H(rot)  DE(clash)    DE(int)     intcor
     16.73     -18.91       1.66        0.00     126.57       2.70       0.44       1.74       ----

> <Gold.Chemscore.Fitness>
16.7336

> <Gold.Chemscore.DG>
-18.9140

> <Gold.Chemscore.ZeroCoef>
-5.4800

> <Gold.Chemscore.Hbond>
1.6566

> <Gold.Chemscore.Metal>
0.0000

> <Gold.Chemscore.Lipo>
126.5746

> <Gold.Chemscore.Internal_Hbond>
0.0000

> <Gold.Chemscore.DEClash>
0.4393

> <Gold.Chemscore.DEInternal>
1.7411

> <Gold.Chemscore.Rot>
2.6985

> <Gold.Chemscore.Internal.Correction>
   9.000000E+99

> <Gold.Chemscore.Hbonds>
donor molecule, donor type, donor heavy atom, donor atom, acceptor molecule, acceptor atom, score
      L1  H     9    56       P1  7948  0.44
      L1  H    12    42       P1  7957  0.93
      P1  H  7997  8009       L1    16  0.05

> <Gold.Chemscore.Hbond.Weighted>
-5.5329

> <Gold.Chemscore.Metal.Weighted>
-0.0000

> <Gold.Chemscore.Lipo.Weighted>
-14.8092

> <Gold.Chemscore.Internal_Hbond.Weighted>
0.0000

> <Gold.Chemscore.DEClash.Weighted>
0.4393

> <Gold.Chemscore.DEInternal.Weighted>
1.7411

> <Gold.Chemscore.Rot.Weighted>
6.9081

> <Gold.Chemscore.Internal.Correction.Weighted>
   9.000000E+99

> <Gold.Protein.RotatedTorsions>
[ 6907 6896 6895 6894 ] final   73.27 input  -60.11 | X-H torsion
[ 7974 7965 7964 7962 ] final   82.87 input  175.53 | X-H torsion
[ 8008 7997 7996 7995 ] final  152.01 input   59.86 | X-H torsion
[ 10167 10162 10161 10158 ] final  159.18 input  -65.29 | X-H torsion
[ 10718 10713 10712 10709 ] final -176.31 input   66.30 | X-H torsion
[ 10763 10752 10751 10750 ] final  -92.70 input  -60.55 | X-H torsion
[ 11005 11000 10999 10996 ] final  102.18 input  -57.11 | X-H torsion

> <Gold.Protein.ActiveResidues>
 VAL166  LYS551  ARG553  GLY616  TRP617  ASP618  TYR619  PRO620  LYS621  CYS622 
 ASP623  PHE694  ASN695  SER759  ASP760  ASP761  ALA762  ILE779  LEU786  VAL792 
 PHE793  MET794  SER795  GLU796  ALA797  LYS798  CYS799  TRP800  GLU811  SER814 

> <Gold.Protein.RotatedAtoms>
  152.4914  134.4447  159.9554 H   0  0  0  0  0  0  0  0  0  0  0  0  # atno 6907 bound_to 6896
  151.4434  133.3631  159.2793 H   0  0  0  0  0  0  0  0  0  0  0  0  # atno 6908 bound_to 6896
  150.9072  134.8511  159.7460 H   0  0  0  0  0  0  0  0  0  0  0  0  # atno 6909 bound_to 6896
  145.6193  139.2383  143.2147 H   0  0  0  0  0  0  0  0  0  0  0  0  # atno 7974 bound_to 7965
  156.2648  140.2032  156.6266 H   0  0  0  0  0  0  0  0  0  0  0  0  # atno 8008 bound_to 7997
  154.6715  140.0549  157.0195 H   0  0  0  0  0  0  0  0  0  0  0  0  # atno 8009 bound_to 7997
  155.1129  140.3217  155.4519 H   0  0  0  0  0  0  0  0  0  0  0  0  # atno 8010 bound_to 7997
  139.4831  144.4755  151.8518 H   0  0  0  0  0  0  0  0  0  0  0  0  # atno 10167 bound_to 10162
  156.8128  130.9592  151.3115 H   0  0  0  0  0  0  0  0  0  0  0  0  # atno 10718 bound_to 10713
  154.6887  135.5221  153.8362 H   0  0  0  0  0  0  0  0  0  0  0  0  # atno 10763 bound_to 10752
  153.0616  135.6570  154.0459 H   0  0  0  0  0  0  0  0  0  0  0  0  # atno 10764 bound_to 10752
  154.0336  135.2983  155.3345 H   0  0  0  0  0  0  0  0  0  0  0  0  # atno 10765 bound_to 10752
  139.8776  134.9213  156.5019 H   0  0  0  0  0  0  0  0  0  0  0  0  # atno 11005 bound_to 11000
  146.1443  140.7014  142.9352 LP  0  0  0  0  0  0  0  0  0  0  0  0  # atno 17320 bound_to 7965
  144.7237  140.4458  143.6989 LP  0  0  0  0  0  0  0  0  0  0  0  0  # atno 17321 bound_to 7965
  140.4226  144.2222  150.5887 LP  0  0  0  0  0  0  0  0  0  0  0  0  # atno 17342 bound_to 10162
  140.4858  143.2363  151.8890 LP  0  0  0  0  0  0  0  0  0  0  0  0  # atno 17343 bound_to 10162
  157.6497  130.8874  149.9609 LP  0  0  0  0  0  0  0  0  0  0  0  0  # atno 17370 bound_to 10713
  156.1034  130.3654  150.0176 LP  0  0  0  0  0  0  0  0  0  0  0  0  # atno 17371 bound_to 10713
  140.8583  133.8079  155.9239 LP  0  0  0  0  0  0  0  0  0  0  0  0  # atno 17394 bound_to 11000
  140.9075  134.2302  157.5006 LP  0  0  0  0  0  0  0  0  0  0  0  0  # atno 17395 bound_to 11000

$$$$
