#       Name:                AV-unprocessed.smi:1046
#       Creating user name   scv26
#       Creation time:       Fri Mar 27 02:57:25 2020


#       File generated by GOLD software.
#

@<TRIPOS>MOLECULE
AV-unprocessed.smi:1046
    59    61     1
SMALL
NO_CHARGES


@<TRIPOS>ATOM
      1 ****        -6.4606   2.3331   3.3736 C.3            1 S1                 0.0000
      2 ****        -5.2429   2.2074   2.4751 C.ar           1 S1                 0.0000
      3 ****        -5.4302   2.0026   1.0896 C.ar           1 S1                 0.0000
      4 ****        -4.3247   1.8786   0.2202 C.ar           1 S1                 0.0000
      5 ****        -4.2760   1.6744  -1.1481 N.2            1 S1                 0.0000
      6 ****        -2.9653   1.6466  -1.3686 C.2            1 S1                 0.0000
      7 ****        -2.1569   1.8078  -0.3034 N.pl3          1 S1                 0.0000
      8 ****        -0.7050   1.8093  -0.3038 C.3            1 S1                 0.0000
      9 ****        -0.1163   0.3857  -0.2866 C.3            1 S1                 0.0000
     10 ****        -0.5331  -0.2822   0.8895 O.3            1 S1                 0.0000
     11 ****         1.4244   0.4027  -0.3307 C.3            1 S1                 0.0000
     12 ****         2.0104  -0.9565  -0.4557 N.4            1 S1                 1.0000
     13 ****         3.4131  -1.0154   0.0305 C.3            1 S1                 0.0000
     14 ****         3.9503  -2.4593  -0.0482 C.3            1 S1                 0.0000
     15 ****         3.8756  -3.0315  -1.3923 N.3            1 S1                 0.0000
     16 ****         4.8536  -2.4448  -2.3142 C.3            1 S1                 0.0000
     17 ****         4.9993  -3.1790  -3.6567 C.3            1 S1                 0.0000
     18 ****         6.0360  -2.5836  -4.4054 O.3            1 S1                 0.0000
     19 ****         2.4864  -2.9591  -1.8516 C.3            1 S1                 0.0000
     20 ****         1.9066  -1.5301  -1.8245 C.3            1 S1                 0.0000
     21 ****        -3.0159   1.9675   0.7788 C.ar           1 S1                 0.0000
     22 ****        -2.8168   2.1723   2.1555 C.ar           1 S1                 0.0000
     23 ****        -3.9325   2.2932   3.0102 C.ar           1 S1                 0.0000
     24 ****        -3.7078   2.5128   4.4956 C.3            1 S1                 0.0000
     25 ****        -7.3858   2.2099   2.8099 H              1 S1                 0.0000
     26 ****        -6.4854   3.3144   3.8476 H              1 S1                 0.0000
     27 ****        -6.4413   1.5718   4.1536 H              1 S1                 0.0000
     28 ****        -6.4281   1.9378   0.6814 H              1 S1                 0.0000
     29 ****        -2.5685   1.4972  -2.3621 H              1 S1                 0.0000
     30 ****        -0.3682   2.3442  -1.1928 H              1 S1                 0.0000
     31 ****        -0.3537   2.3833   0.5548 H              1 S1                 0.0000
     32 ****        -0.5136  -0.1583  -1.1428 H              1 S1                 0.0000
     33 ****        -0.3001   0.2456   1.6384 H              1 S1                 0.0000
     34 ****         1.7774   1.0205  -1.1580 H              1 S1                 0.0000
     35 ****         1.7913   0.8789   0.5802 H              1 S1                 0.0000
     36 ****         4.0372  -0.3340  -0.5492 H              1 S1                 0.0000
     37 ****         3.4545  -0.6748   1.0657 H              1 S1                 0.0000
     38 ****         4.9790  -2.4919   0.3123 H              1 S1                 0.0000
     39 ****         3.3776  -3.0860   0.6367 H              1 S1                 0.0000
     40 ****         4.6245  -1.3960  -2.5008 H              1 S1                 0.0000
     41 ****         5.8309  -2.4513  -1.8297 H              1 S1                 0.0000
     42 ****         5.2347  -4.2317  -3.4975 H              1 S1                 0.0000
     43 ****         4.0825  -3.1296  -4.2434 H              1 S1                 0.0000
     44 ****         6.1241  -3.0509  -5.2223 H              1 S1                 0.0000
     45 ****         2.3913  -3.3811  -2.8512 H              1 S1                 0.0000
     46 ****         1.8723  -3.5952  -1.2127 H              1 S1                 0.0000
     47 ****         0.8647  -1.5713  -2.1386 H              1 S1                 0.0000
     48 ****         2.4216  -0.8882  -2.5403 H              1 S1                 0.0000
     49 ****        -1.8142   2.2351   2.5511 H              1 S1                 0.0000
     50 ****        -2.6452   2.5717   4.7331 H              1 S1                 0.0000
     51 ****        -4.1344   1.6910   5.0710 H              1 S1                 0.0000
     52 ****        -4.1746   3.4431   4.8200 H              1 S1                 0.0000
     53 ****         1.4758  -1.5565   0.1567 H              1 S1                 0.0000
     54 ****        -5.0284   1.5742  -1.7991 LP             1 S1                 0.0000
     55 ****        -0.0787  -1.1710   0.9502 LP             1 S1                 0.0000
     56 ****        -1.5239  -0.4152   0.8673 LP             1 S1                 0.0000
     57 ****         4.1398  -3.9956  -1.3656 LP             1 S1                 0.0000
     58 ****         6.8936  -2.6349  -3.8936 LP             1 S1                 0.0000
     59 ****         5.8132  -1.6259  -4.5873 LP             1 S1                 0.0000
@<TRIPOS>BOND
    1    1    2 1     
    2    1   25 1     
    3    1   26 1     
    4    1   27 1     
    5    2   23 ar    
    6    2    3 ar    
    7    3    4 ar    
    8    3   28 1     
    9    4   21 ar    
   10    4    5 1     
   11    5    6 2     
   12    6    7 1     
   13    6   29 1     
   14    7    8 1     
   15    7   21 1     
   16    8    9 1     
   17    8   30 1     
   18    8   31 1     
   19    9   10 1     
   20    9   11 1     
   21    9   32 1     
   22   10   33 1     
   23   11   12 1     
   24   11   34 1     
   25   11   35 1     
   26   12   20 1     
   27   12   13 1     
   28   12   53 1     
   29   13   14 1     
   30   13   36 1     
   31   13   37 1     
   32   14   15 1     
   33   14   38 1     
   34   14   39 1     
   35   15   16 1     
   36   15   19 1     
   37   16   17 1     
   38   16   40 1     
   39   16   41 1     
   40   17   18 1     
   41   17   42 1     
   42   17   43 1     
   43   18   44 1     
   44   19   20 1     
   45   19   45 1     
   46   19   46 1     
   47   20   47 1     
   48   20   48 1     
   49   21   22 ar    
   50   22   23 ar    
   51   22   49 1     
   52   23   24 1     
   53   24   50 1     
   54   24   51 1     
   55   24   52 1     
   56    5   54 1     
   57   10   55 1     
   58   10   56 1     
   59   15   57 1     
   60   18   58 1     
   61   18   59 1     
@<TRIPOS>SUBSTRUCTURE
      1 S1             1
@<TRIPOS>SET
LONE_PAIRS      STATIC     ATOMS    <user>   **** ""
6 54 55 56 57 58 59
DONOR_HYDROGENS      STATIC     ATOMS    <user>   **** ""
3 33 53 44
ATOM$BLUE        STATIC     ATOMS    COLORGROUP SYSTEM
6 54 55 56 57 58 59
ATOM$RED        STATIC     ATOMS    COLORGROUP SYSTEM
3 33 53 44
