AV-unprocessed.smi:1231|AV-procd|sdf|5161|dock1
  -GOLD-   22720 4233D 1   1.00000     0.00000
 Structure written by MMmdl.
 42 43  0  0  0  0  0  0  0  0  1 V2000
  150.7139  142.5059  156.1023 C   0  0  0  0  0  0  0  0  0  0  0  0
  150.1800  141.1134  155.7512 C   0  0  1  0  0  0  0  0  0  0  0  0
  149.1515  141.1562  154.6046 C   0  0  0  0  0  0  0  0  0  0  0  0
  148.7062  139.8196  154.2189 N   0  0  0  0  0  0  0  0  0  0  0  0
  147.7474  139.8426  153.1158 C   0  0  0  0  0  0  0  0  0  0  0  0
  146.5351  138.9085  153.2891 C   0  0  0  0  0  0  0  0  0  0  0  0
  146.8010  137.5866  152.7350 N   0  0  0  0  0  0  0  0  0  0  0  0
  145.8639  136.6760  152.4343 C   0  0  0  0  0  0  0  0  0  0  0  0
  144.6578  136.8654  152.5963 O   0  0  0  0  0  0  0  0  0  0  0  0
  146.4167  135.5521  151.9448 N   0  0  0  0  0  0  0  0  0  0  0  0
  145.7622  134.3668  151.5158 C   0  0  0  0  0  0  0  0  0  0  0  0
  146.6225  133.3160  151.1242 C   0  0  0  0  0  0  0  0  0  0  0  0
  146.0715  132.0979  150.6814 C   0  0  0  0  0  0  0  0  0  0  0  0
  144.6724  131.9613  150.6423 C   0  0  0  0  0  0  0  0  0  0  0  0
  143.8877  133.0555  151.0508 C   0  0  0  0  0  0  0  0  0  0  0  0
  144.4137  134.2239  151.4747 N   0  0  0  0  0  0  0  0  0  0  0  0
  149.8731  139.0139  153.8769 C   0  0  0  0  0  0  0  0  0  0  0  0
  150.8993  138.9651  155.0247 C   0  0  1  0  0  0  0  0  0  0  0  0
  152.1606  138.1835  154.6425 C   0  0  0  0  0  0  0  0  0  0  0  0
  151.2804  140.2957  155.3623 O   0  0  0  0  0  0  0  0  0  0  0  0
  149.9079  143.1657  156.4242 H   0  0  0  0  0  0  0  0  0  0  0  0
  151.2038  142.9683  155.2450 H   0  0  0  0  0  0  0  0  0  0  0  0
  151.4414  142.4504  156.9124 H   0  0  0  0  0  0  0  0  0  0  0  0
  149.7170  140.6818  156.6403 H   0  0  0  0  0  0  0  0  0  0  0  0
  148.3023  141.7596  154.9234 H   0  0  0  0  0  0  0  0  0  0  0  0
  149.5890  141.6618  153.7422 H   0  0  0  0  0  0  0  0  0  0  0  0
  147.4016  140.8642  152.9499 H   0  0  0  0  0  0  0  0  0  0  0  0
  148.2656  139.5513  152.2011 H   0  0  0  0  0  0  0  0  0  0  0  0
  146.2634  138.8258  154.3427 H   0  0  0  0  0  0  0  0  0  0  0  0
  145.6624  139.3050  152.7713 H   0  0  0  0  0  0  0  0  0  0  0  0
  147.7682  137.3490  152.5703 H   0  0  0  0  0  0  0  0  0  0  0  0
  147.4232  135.5428  151.8706 H   0  0  0  0  0  0  0  0  0  0  0  0
  147.6955  133.4377  151.1608 H   0  0  0  0  0  0  0  0  0  0  0  0
  146.7119  131.2831  150.3773 H   0  0  0  0  0  0  0  0  0  0  0  0
  144.2125  131.0430  150.3087 H   0  0  0  0  0  0  0  0  0  0  0  0
  142.8095  132.9919  151.0370 H   0  0  0  0  0  0  0  0  0  0  0  0
  149.5597  137.9982  153.6321 H   0  0  0  0  0  0  0  0  0  0  0  0
  150.3490  139.4166  152.9811 H   0  0  0  0  0  0  0  0  0  0  0  0
  150.4473  138.4938  155.8993 H   0  0  0  0  0  0  0  0  0  0  0  0
  151.9192  137.1521  154.3842 H   0  0  0  0  0  0  0  0  0  0  0  0
  152.8702  138.1613  155.4698 H   0  0  0  0  0  0  0  0  0  0  0  0
  152.6613  138.6356  153.7858 H   0  0  0  0  0  0  0  0  0  0  0  0
  1  2  1  0  0  0  0
  1 21  1  0  0  0  0
  1 22  1  0  0  0  0
  1 23  1  0  0  0  0
  2 20  1  0  0  0  0
  2  3  1  0  0  0  0
  2 24  1  0  0  0  0
  3  4  1  0  0  0  0
  3 25  1  0  0  0  0
  3 26  1  0  0  0  0
  4  5  1  0  0  0  0
  4 17  1  0  0  0  0
  5  6  1  0  0  0  0
  5 27  1  0  0  0  0
  5 28  1  0  0  0  0
  6  7  1  0  0  0  0
  6 29  1  0  0  0  0
  6 30  1  0  0  0  0
  7  8  1  0  0  0  0
  7 31  1  0  0  0  0
  8  9  2  0  0  0  0
  8 10  1  0  0  0  0
 10 11  1  0  0  0  0
 10 32  1  0  0  0  0
 11 16  1  0  0  0  0
 11 12  2  0  0  0  0
 12 13  1  0  0  0  0
 12 33  1  0  0  0  0
 13 14  2  0  0  0  0
 13 34  1  0  0  0  0
 14 15  1  0  0  0  0
 14 35  1  0  0  0  0
 15 16  2  0  0  0  0
 15 36  1  0  0  0  0
 17 18  1  0  0  0  0
 17 37  1  0  0  0  0
 17 38  1  0  0  0  0
 18 19  1  0  0  0  0
 18 20  1  0  0  0  0
 18 39  1  0  0  0  0
 19 40  1  0  0  0  0
 19 41  1  0  0  0  0
 19 42  1  0  0  0  0
M  END
> <s_m_source_file>
AV-unprocessed.smi

> <i_m_source_file_index>
1231

> <i_lp_mmshare_version>
43012

> <i_f3d_flags>
0

> <s_epik_input>
W0NIM11bQ0BASF0xW0NIMl1OKFtDSDJdW0NASF0oTzEpW0NIM10pW0NIMl1bQ0gyXVtOSF1DKD1PKVtOSF1jMltjSF1bY0hdW2NIXVtjSF1uMg==

> <s_epik_cmdline>
J2VwaWtfcHl0aG9uJywgJy1waCcsICc3LjAnLCAnLXRuJywgJzgnLCAnLW1hJywgJzIwMCcsICctbWV0YWxfYmluZGluZycsICctaW1hZScsICc8aW5maWxlLm1hZT4nLCAnLW9tYWUnLCAnPG91dGZpbGUubWFlPic=

> <r_epik_Ionization_Penalty>
0.266037

> <r_epik_Ionization_Penalty_Charging>
0

> <r_epik_Ionization_Penalty_Neutral>
0.266037

> <r_epik_State_Penalty>
0.257924

> <r_epik_Charging_Adjusted_Penalty>
0.257924

> <i_epik_Tot_Q>
0

> <i_epik_Tot_abs_Q>
0

> <r_epik_Metal_State_Penalty>
0.257923

> <b_epik_Metal_Only>
0

> <s_lp_Force_Field>
OPLS_2005

> <r_lp_Energy>
20.5827

> <b_lp_Chiralities_Consistent>
1

> <s_lp_Variant>
AV-unprocessed.smi:1231-2

> <Gold.Version>
5.8.1

> <Gold.Id.Protein>
6NUR|6NUR_protein|mol2

> <Gold.PLP.Fitness>
45.9124

> <Gold.PLP.PLP>
-35.9985

> <Gold.PLP.part.hbond>
-3.0000

> <Gold.PLP.part.metal>
0.0000

> <Gold.PLP.part.buried>
-0.9439

> <Gold.PLP.part.nonpolar>
-32.8659

> <Gold.PLP.part.repulsive>
0.6050

> <Gold.PLP.ligand.clash>
0.0000

> <Gold.PLP.ligand.torsion>
0.9138

> <Gold.PLP.Chemscore.Hbond>
2.9000

> <Gold.PLP.Chemscore.CHOScore>
1.0000

> <Gold.PLP.Chemscore.Metal>
0.0000

> <Gold.Chemscore.Hbonds>
donor molecule, donor type, donor heavy atom, donor atom, acceptor molecule, acceptor atom, score
      L1  H     7    31       P1  7948  0.98
      L1  H    10    32       P1  7948  1.00
      P1  H  7989  7998       L1    20  0.79
      L1  C    15    36       P1 10186  0.49

> <Gold.PLP.Chemscore.Internal.Correction>
0.0414

> <Gold.Rescore>
     Score         DG    S(hbond)    S(metal)    S(lipo)     H(rot)  DE(clash)    DE(int)     intcor
     15.60     -17.88       1.89        0.00      85.10       1.52       0.03       2.26       ----

> <Gold.Chemscore.Fitness>
15.5969

> <Gold.Chemscore.DG>
-17.8835

> <Gold.Chemscore.ZeroCoef>
-5.4800

> <Gold.Chemscore.Hbond>
1.8946

> <Gold.Chemscore.Metal>
0.0000

> <Gold.Chemscore.Lipo>
85.1016

> <Gold.Chemscore.Internal_Hbond>
0.0000

> <Gold.Chemscore.DEClash>
0.0287

> <Gold.Chemscore.DEInternal>
2.2580

> <Gold.Chemscore.Rot>
1.5162

> <Gold.Chemscore.Internal.Correction>
   9.000000E+99

> <Gold.Chemscore.Hbonds>
donor molecule, donor type, donor heavy atom, donor atom, acceptor molecule, acceptor atom, score
      L1  H     7    31       P1  7948  0.93
      L1  H    10    32       P1  7948  0.98
      P1  H  7989  7998       L1    20  0.04

> <Gold.Chemscore.Hbond.Weighted>
-6.3281

> <Gold.Chemscore.Metal.Weighted>
-0.0000

> <Gold.Chemscore.Lipo.Weighted>
-9.9569

> <Gold.Chemscore.Internal_Hbond.Weighted>
0.0000

> <Gold.Chemscore.DEClash.Weighted>
0.0287

> <Gold.Chemscore.DEInternal.Weighted>
2.2580

> <Gold.Chemscore.Rot.Weighted>
3.8814

> <Gold.Chemscore.Internal.Correction.Weighted>
   9.000000E+99

> <Gold.Protein.RotatedTorsions>
[ 6907 6896 6895 6894 ] final -123.05 input  -60.11 | X-H torsion
[ 7974 7965 7964 7962 ] final  -74.48 input  175.53 | X-H torsion
[ 8008 7997 7996 7995 ] final  -64.91 input   59.86 | X-H torsion
[ 10167 10162 10161 10158 ] final  -61.66 input  -65.29 | X-H torsion
[ 10718 10713 10712 10709 ] final  112.20 input   66.30 | X-H torsion
[ 10763 10752 10751 10750 ] final -106.90 input  -60.55 | X-H torsion
[ 11005 11000 10999 10996 ] final   91.99 input  -57.11 | X-H torsion

> <Gold.Protein.ActiveResidues>
 VAL166  LYS551  ARG553  GLY616  TRP617  ASP618  TYR619  PRO620  LYS621  CYS622 
 ASP623  PHE694  ASN695  SER759  ASP760  ASP761  ALA762  ILE779  LEU786  VAL792 
 PHE793  MET794  SER795  GLU796  ALA797  LYS798  CYS799  TRP800  GLU811  SER814 

> <Gold.Protein.RotatedAtoms>
  150.8634  133.7610  159.2984 H   0  0  0  0  0  0  0  0  0  0  0  0  # atno 6907 bound_to 6896
  151.5245  135.1066  159.9896 H   0  0  0  0  0  0  0  0  0  0  0  0  # atno 6908 bound_to 6896
  152.4643  133.7844  159.6924 H   0  0  0  0  0  0  0  0  0  0  0  0  # atno 6909 bound_to 6896
  145.6386  140.9317  143.1048 H   0  0  0  0  0  0  0  0  0  0  0  0  # atno 7974 bound_to 7965
  154.4640  140.0944  156.6970 H   0  0  0  0  0  0  0  0  0  0  0  0  # atno 8008 bound_to 7997
  155.4911  140.3471  155.4337 H   0  0  0  0  0  0  0  0  0  0  0  0  # atno 8009 bound_to 7997
  156.0922  140.1400  156.9565 H   0  0  0  0  0  0  0  0  0  0  0  0  # atno 8010 bound_to 7997
  140.5991  143.2357  151.5969 H   0  0  0  0  0  0  0  0  0  0  0  0  # atno 10167 bound_to 10162
  157.6405  131.0963  150.6860 H   0  0  0  0  0  0  0  0  0  0  0  0  # atno 10718 bound_to 10713
  154.8042  135.4695  154.0350 H   0  0  0  0  0  0  0  0  0  0  0  0  # atno 10763 bound_to 10752
  153.1832  135.6844  153.8457 H   0  0  0  0  0  0  0  0  0  0  0  0  # atno 10764 bound_to 10752
  153.8000  135.3231  155.3366 H   0  0  0  0  0  0  0  0  0  0  0  0  # atno 10765 bound_to 10752
  139.8830  134.8706  156.3507 H   0  0  0  0  0  0  0  0  0  0  0  0  # atno 11005 bound_to 11000
  144.7166  139.8175  143.7396 LP  0  0  0  0  0  0  0  0  0  0  0  0  # atno 17320 bound_to 7965
  146.1299  139.4333  143.0175 LP  0  0  0  0  0  0  0  0  0  0  0  0  # atno 17321 bound_to 7965
  139.5278  144.3005  152.1077 LP  0  0  0  0  0  0  0  0  0  0  0  0  # atno 17342 bound_to 10162
  140.2183  144.4493  150.6354 LP  0  0  0  0  0  0  0  0  0  0  0  0  # atno 17343 bound_to 10162
  156.7185  130.4673  149.5529 LP  0  0  0  0  0  0  0  0  0  0  0  0  # atno 17370 bound_to 10713
  156.1682  130.6419  151.0804 LP  0  0  0  0  0  0  0  0  0  0  0  0  # atno 17371 bound_to 10713
  140.9596  133.7397  156.0383 LP  0  0  0  0  0  0  0  0  0  0  0  0  # atno 17394 bound_to 11000
  140.8006  134.3513  157.5440 LP  0  0  0  0  0  0  0  0  0  0  0  0  # atno 17395 bound_to 11000

$$$$
