AV-unprocessed.smi:73|AV-procd|sdf|762|dock7
  -GOLD-   2262017103D 1   1.00000     0.00000
 Structure written by MMmdl.
 35 36  0  0  0  0  0  0  0  0  2 V2000
  150.8303  138.7224  154.8127 C   0  0  0  0  0  0  0  0  0  0  0  0
  150.0097  139.2308  156.0088 C   0  0  0  0  0  0  0  0  0  0  0  0
  148.5424  139.0960  155.9031 N   0  0  0  0  0  0  0  0  0  0  0  0
  148.1848  137.6781  156.0885 C   0  0  0  0  0  0  0  0  0  0  0  0
  148.6657  137.0976  157.3813 C   0  0  0  0  0  0  0  0  0  0  0  0
  149.9239  136.8074  157.7222 N   0  0  0  0  0  0  0  0  0  0  0  0
  149.8568  136.2949  158.9987 N   0  0  0  0  0  0  0  0  0  0  0  0
  148.5639  136.3167  159.3315 C   0  0  0  0  0  0  0  0  0  0  0  0
  147.9524  135.8740  160.6164 C   0  0  0  0  0  0  0  0  0  0  0  0
  147.7621  136.8143  158.3546 O   0  0  0  0  0  0  0  0  0  0  0  0
  148.0075  139.5870  154.6119 C   0  0  1  0  0  0  0  0  0  0  0  0
  146.4530  139.6302  154.5613 C   0  0  0  0  0  0  0  0  0  0  0  0
  146.0413  141.0024  154.2281 N   0  3  0  0  0  0  0  0  0  0  0  0
  147.1672  141.6183  153.5287 C   0  0  0  0  0  0  0  0  0  0  0  0
  148.3936  141.0344  154.2223 C   0  0  2  0  0  0  0  0  0  0  0  0
  149.4904  141.0647  153.3315 O   0  0  0  0  0  0  0  0  0  0  0  0
  148.5880  141.6384  155.1081 H   0  0  0  0  0  0  0  0  0  0  0  0
  151.8410  139.1290  154.8542 H   0  0  0  0  0  0  0  0  0  0  0  0
  150.3903  139.0434  153.8681 H   0  0  0  0  0  0  0  0  0  0  0  0
  150.9392  137.6411  154.7921 H   0  0  0  0  0  0  0  0  0  0  0  0
  150.3664  138.7759  156.9337 H   0  0  0  0  0  0  0  0  0  0  0  0
  150.2776  140.2834  156.0990 H   0  0  0  0  0  0  0  0  0  0  0  0
  147.1075  137.5279  156.0750 H   0  0  0  0  0  0  0  0  0  0  0  0
  148.5778  137.0822  155.2631 H   0  0  0  0  0  0  0  0  0  0  0  0
  148.5011  135.0233  161.0213 H   0  0  0  0  0  0  0  0  0  0  0  0
  146.9147  135.5777  160.4603 H   0  0  0  0  0  0  0  0  0  0  0  0
  147.9804  136.6877  161.3412 H   0  0  0  0  0  0  0  0  0  0  0  0
  148.3382  138.9171  153.8156 H   0  0  0  0  0  0  0  0  0  0  0  0
  146.0825  138.9476  153.7958 H   0  0  0  0  0  0  0  0  0  0  0  0
  145.9740  139.3666  155.5043 H   0  0  0  0  0  0  0  0  0  0  0  0
  145.1991  141.0168  153.6708 H   0  0  0  0  0  0  0  0  0  0  0  0
  147.1266  141.3146  152.4811 H   0  0  0  0  0  0  0  0  0  0  0  0
  147.1297  142.7072  153.5713 H   0  0  0  0  0  0  0  0  0  0  0  0
  149.3584  140.4032  152.6689 H   0  0  0  0  0  0  0  0  0  0  0  0
  145.8923  141.5059  155.0911 H   0  0  0  0  0  0  0  0  0  0  0  0
  1  2  1  0  0  0  0
  1 18  1  0  0  0  0
  1 19  1  0  0  0  0
  1 20  1  0  0  0  0
  2  3  1  0  0  0  0
  2 21  1  0  0  0  0
  2 22  1  0  0  0  0
  3  4  1  0  0  0  0
  3 11  1  0  0  0  0
  4  5  1  0  0  0  0
  4 23  1  0  0  0  0
  4 24  1  0  0  0  0
  5 10  1  0  0  0  0
  5  6  2  0  0  0  0
  6  7  1  0  0  0  0
  7  8  2  0  0  0  0
  8  9  1  0  0  0  0
  8 10  1  0  0  0  0
  9 25  1  0  0  0  0
  9 26  1  0  0  0  0
  9 27  1  0  0  0  0
 11 15  1  0  0  0  0
 11 12  1  0  0  0  0
 11 28  1  0  0  0  0
 12 13  1  0  0  0  0
 12 29  1  0  0  0  0
 12 30  1  0  0  0  0
 13 14  1  0  0  0  0
 13 31  1  0  0  0  0
 13 35  1  0  0  0  0
 14 15  1  0  0  0  0
 14 32  1  0  0  0  0
 14 33  1  0  0  0  0
 15 17  1  0  0  0  0
 15 16  1  0  0  0  0
 16 34  1  0  0  0  0
M  CHG  1  13   1
M  END
> <s_m_source_file>
AV-unprocessed.smi

> <i_m_source_file_index>
73

> <i_lp_mmshare_version>
43012

> <i_f3d_flags>
0

> <s_epik_input>
W09IXVtDQEBIXTFbQ0gyXVtOSF1bQ0gyXVtDQEhdMU4oW0NIMl1bQ0gzXSlbQ0gyXWMybm5jKG8yKVtDSDNd

> <s_epik_cmdline>
J2VwaWtfcHl0aG9uJywgJy1waCcsICc3LjAnLCAnLXRuJywgJzgnLCAnLW1hJywgJzIwMCcsICctbWV0YWxfYmluZGluZycsICctaW1hZScsICc8aW5maWxlLm1hZT4nLCAnLW9tYWUnLCAnPG91dGZpbGUubWFlPic=

> <r_lp_tautomer_probability>
1

> <r_epik_Ionization_Penalty>
0.00160433

> <r_epik_Ionization_Penalty_Charging>
0.000122314

> <r_epik_Ionization_Penalty_Neutral>
0.00148202

> <r_epik_State_Penalty>
-0

> <r_epik_Charging_Adjusted_Penalty>
0.000122314

> <i_epik_Tot_Q>
1

> <i_epik_Tot_abs_Q>
1

> <r_epik_Metal_State_Penalty>
-0

> <b_epik_Metal_Only>
0

> <s_lp_Force_Field>
OPLS_2005

> <r_lp_Energy>
41.961

> <b_lp_Chiralities_Consistent>
1

> <s_lp_Variant>
AV-unprocessed.smi:73-4

> <Gold.Version>
5.8.1

> <Gold.Id.Protein>
6NUR|6NUR_protein|mol2

> <Gold.PLP.Fitness>
34.7012

> <Gold.PLP.PLP>
-20.3542

> <Gold.PLP.part.hbond>
-4.5105

> <Gold.PLP.part.metal>
0.0000

> <Gold.PLP.part.buried>
-4.2928

> <Gold.PLP.part.nonpolar>
-11.6220

> <Gold.PLP.part.repulsive>
0.0000

> <Gold.PLP.ligand.clash>
0.0000

> <Gold.PLP.ligand.torsion>
0.2440

> <Gold.PLP.Chemscore.Hbond>
4.9358

> <Gold.PLP.Chemscore.CHOScore>
0.0000

> <Gold.PLP.Chemscore.Metal>
0.0000

> <Gold.Chemscore.Hbonds>
donor molecule, donor type, donor heavy atom, donor atom, acceptor molecule, acceptor atom, score
      L1  H    13    31       P1 10175  2.00
      L1  H    16    34       P1  7957  0.88
      P1  H  6896  6907       L1     7  0.98
      P1  H  7989  7998       L1    16  0.12
      P1  H  8011  8017       L1    16  0.95

> <Gold.PLP.Chemscore.Internal.Correction>
0.0275

> <Gold.Rescore>
     Score         DG    S(hbond)    S(metal)    S(lipo)     H(rot)  DE(clash)    DE(int)     intcor
     12.86     -14.13       3.19        0.00      37.61       2.51       0.00       1.27       ----

> <Gold.Chemscore.Fitness>
12.8596

> <Gold.Chemscore.DG>
-14.1284

> <Gold.Chemscore.ZeroCoef>
-5.4800

> <Gold.Chemscore.Hbond>
3.1921

> <Gold.Chemscore.Metal>
0.0000

> <Gold.Chemscore.Lipo>
37.6059

> <Gold.Chemscore.Internal_Hbond>
0.0000

> <Gold.Chemscore.DEClash>
0.0015

> <Gold.Chemscore.DEInternal>
1.2673

> <Gold.Chemscore.Rot>
2.5051

> <Gold.Chemscore.Internal.Correction>
   9.000000E+99

> <Gold.Chemscore.Hbonds>
donor molecule, donor type, donor heavy atom, donor atom, acceptor molecule, acceptor atom, score
      L1  H    13    31       P1 10175  0.68
      L1  H    16    34       P1  7957  0.84
      P1  H  6896  6907       L1     7  0.72
      P1  H  7989  7998       L1    16  0.02
      P1  H  8011  8017       L1    16  0.21

> <Gold.Chemscore.Hbond.Weighted>
-10.6616

> <Gold.Chemscore.Metal.Weighted>
-0.0000

> <Gold.Chemscore.Lipo.Weighted>
-4.3999

> <Gold.Chemscore.Internal_Hbond.Weighted>
0.0000

> <Gold.Chemscore.DEClash.Weighted>
0.0015

> <Gold.Chemscore.DEInternal.Weighted>
1.2673

> <Gold.Chemscore.Rot.Weighted>
6.4131

> <Gold.Chemscore.Internal.Correction.Weighted>
   9.000000E+99

> <Gold.Protein.RotatedTorsions>
[ 6907 6896 6895 6894 ] final  -68.68 input  -60.11 | X-H torsion
[ 7974 7965 7964 7962 ] final  110.86 input  175.53 | X-H torsion
[ 8008 7997 7996 7995 ] final   15.83 input   59.86 | X-H torsion
[ 10167 10162 10161 10158 ] final  152.76 input  -65.29 | X-H torsion
[ 10718 10713 10712 10709 ] final -130.93 input   66.30 | X-H torsion
[ 10763 10752 10751 10750 ] final -172.28 input  -60.55 | X-H torsion
[ 11005 11000 10999 10996 ] final  147.61 input  -57.11 | X-H torsion

> <Gold.Protein.ActiveResidues>
 VAL166  LYS551  ARG553  GLY616  TRP617  ASP618  TYR619  PRO620  LYS621  CYS622 
 ASP623  PHE694  ASN695  SER759  ASP760  ASP761  ALA762  ILE779  LEU786  VAL792 
 PHE793  MET794  SER795  GLU796  ALA797  LYS798  CYS799  TRP800  GLU811  SER814 

> <Gold.Protein.RotatedAtoms>
  150.7344  134.5705  159.5887 H   0  0  0  0  0  0  0  0  0  0  0  0  # atno 6907 bound_to 6896
  152.3145  134.7454  160.0337 H   0  0  0  0  0  0  0  0  0  0  0  0  # atno 6908 bound_to 6896
  151.7990  133.3332  159.3558 H   0  0  0  0  0  0  0  0  0  0  0  0  # atno 6909 bound_to 6896
  145.2496  139.2745  143.4074 H   0  0  0  0  0  0  0  0  0  0  0  0  # atno 7974 bound_to 7965
  154.8683  140.2955  155.5497 H   0  0  0  0  0  0  0  0  0  0  0  0  # atno 8008 bound_to 7997
  156.3021  140.2465  156.3601 H   0  0  0  0  0  0  0  0  0  0  0  0  # atno 8009 bound_to 7997
  154.8844  140.0396  157.1791 H   0  0  0  0  0  0  0  0  0  0  0  0  # atno 8010 bound_to 7997
  139.4831  144.5330  151.7691 H   0  0  0  0  0  0  0  0  0  0  0  0  # atno 10167 bound_to 10162
  156.2193  130.6968  151.0738 H   0  0  0  0  0  0  0  0  0  0  0  0  # atno 10718 bound_to 10713
  154.6211  135.2875  155.0325 H   0  0  0  0  0  0  0  0  0  0  0  0  # atno 10763 bound_to 10752
  154.1519  135.6502  153.4969 H   0  0  0  0  0  0  0  0  0  0  0  0  # atno 10764 bound_to 10752
  153.0236  135.5358  154.7001 H   0  0  0  0  0  0  0  0  0  0  0  0  # atno 10765 bound_to 10752
  140.0890  134.9052  157.1621 H   0  0  0  0  0  0  0  0  0  0  0  0  # atno 11005 bound_to 11000
  146.3306  140.2883  142.8614 LP  0  0  0  0  0  0  0  0  0  0  0  0  # atno 17320 bound_to 7965
  144.9515  140.8183  143.5569 LP  0  0  0  0  0  0  0  0  0  0  0  0  # atno 17321 bound_to 7965
  140.4859  144.1381  150.5941 LP  0  0  0  0  0  0  0  0  0  0  0  0  # atno 17342 bound_to 10162
  140.4226  143.2605  151.9697 LP  0  0  0  0  0  0  0  0  0  0  0  0  # atno 17343 bound_to 10162
  157.7079  131.0748  150.6603 LP  0  0  0  0  0  0  0  0  0  0  0  0  # atno 17370 bound_to 10713
  156.6665  130.4527  149.5670 LP  0  0  0  0  0  0  0  0  0  0  0  0  # atno 17371 bound_to 10713
  140.3379  134.2736  155.7217 LP  0  0  0  0  0  0  0  0  0  0  0  0  # atno 17394 bound_to 11000
  141.2072  133.7813  157.0134 LP  0  0  0  0  0  0  0  0  0  0  0  0  # atno 17395 bound_to 11000

$$$$
