AV-unprocessed.smi:1872|AV-procd|sdf|7604|dock10
  -GOLD-   22720 9323D 1   1.00000     0.00000
 Structure written by MMmdl.
 39 41  0  0  0  0  0  0  0  0  1 V2000
  149.6982  141.4364  155.5288 C   0  0  0  0  0  0  0  0  0  0  0  0
  150.6141  141.7035  156.6813 C   0  0  0  0  0  0  0  0  0  0  0  0
  151.0090  142.9348  157.0052 N   0  0  0  0  0  0  0  0  0  0  0  0
  151.8171  142.7142  158.1041 C   0  0  0  0  0  0  0  0  0  0  0  0
  152.5379  143.6234  158.9113 C   0  0  0  0  0  0  0  0  0  0  0  0
  153.3073  143.1585  159.9980 C   0  0  0  0  0  0  0  0  0  0  0  0
  153.3676  141.7810  160.2924 C   0  0  0  0  0  0  0  0  0  0  0  0
  152.6570  140.8582  159.5011 C   0  0  0  0  0  0  0  0  0  0  0  0
  151.8896  141.3273  158.4180 C   0  0  0  0  0  0  0  0  0  0  0  0
  151.0911  140.7041  157.4634 N   0  0  0  0  0  0  0  0  0  0  0  0
  150.8325  139.2753  157.3489 C   0  0  0  0  0  0  0  0  0  0  0  0
  150.9900  138.7485  155.9084 C   0  0  1  0  0  0  0  0  0  0  0  0
  152.3072  138.9801  155.4463 O   0  0  0  0  0  0  0  0  0  0  0  0
  150.5919  137.2834  155.8167 C   0  0  0  0  0  0  0  0  0  0  0  0
  151.4080  136.2965  156.4071 C   0  0  0  0  0  0  0  0  0  0  0  0
  151.0562  134.9361  156.3163 C   0  0  0  0  0  0  0  0  0  0  0  0
  149.8926  134.5394  155.6272 C   0  0  0  0  0  0  0  0  0  0  0  0
  149.5982  133.1954  155.5834 O   0  0  0  0  0  0  0  0  0  0  0  0
  149.5463  132.5628  154.3808 C   0  0  0  0  0  0  0  0  0  0  0  0
  149.4966  131.2221  154.5701 F   0  0  0  0  0  0  0  0  0  0  0  0
  148.4276  132.9223  153.7044 F   0  0  0  0  0  0  0  0  0  0  0  0
  149.0697  135.5314  155.0418 C   0  0  0  0  0  0  0  0  0  0  0  0
  149.4212  136.8921  155.1313 C   0  0  0  0  0  0  0  0  0  0  0  0
  149.4452  142.3662  155.0182 H   0  0  0  0  0  0  0  0  0  0  0  0
  148.7737  140.9762  155.8780 H   0  0  0  0  0  0  0  0  0  0  0  0
  150.1756  140.7720  154.8092 H   0  0  0  0  0  0  0  0  0  0  0  0
  152.4986  144.6806  158.6938 H   0  0  0  0  0  0  0  0  0  0  0  0
  153.8542  143.8624  160.6082 H   0  0  0  0  0  0  0  0  0  0  0  0
  153.9604  141.4330  161.1256 H   0  0  0  0  0  0  0  0  0  0  0  0
  152.7035  139.8021  159.7217 H   0  0  0  0  0  0  0  0  0  0  0  0
  151.5105  138.7457  158.0196 H   0  0  0  0  0  0  0  0  0  0  0  0
  149.8268  139.0717  157.7176 H   0  0  0  0  0  0  0  0  0  0  0  0
  150.3327  139.3162  155.2494 H   0  0  0  0  0  0  0  0  0  0  0  0
  152.5992  138.2132  154.9776 H   0  0  0  0  0  0  0  0  0  0  0  0
  152.3094  136.5791  156.9310 H   0  0  0  0  0  0  0  0  0  0  0  0
  151.6880  134.1896  156.7749 H   0  0  0  0  0  0  0  0  0  0  0  0
  150.4246  132.7799  153.7723 H   0  0  0  0  0  0  0  0  0  0  0  0
  148.1618  135.2629  154.5226 H   0  0  0  0  0  0  0  0  0  0  0  0
  148.7862  137.6342  154.6699 H   0  0  0  0  0  0  0  0  0  0  0  0
  1  2  1  0  0  0  0
  1 24  1  0  0  0  0
  1 25  1  0  0  0  0
  1 26  1  0  0  0  0
  2 10  1  0  0  0  0
  2  3  2  0  0  0  0
  3  4  1  0  0  0  0
  4  9  2  0  0  0  0
  4  5  1  0  0  0  0
  5  6  2  0  0  0  0
  5 27  1  0  0  0  0
  6  7  1  0  0  0  0
  6 28  1  0  0  0  0
  7  8  2  0  0  0  0
  7 29  1  0  0  0  0
  8  9  1  0  0  0  0
  8 30  1  0  0  0  0
  9 10  1  0  0  0  0
 10 11  1  0  0  0  0
 11 12  1  0  0  0  0
 11 31  1  0  0  0  0
 11 32  1  0  0  0  0
 12 13  1  0  0  0  0
 12 14  1  0  0  0  0
 12 33  1  0  0  0  0
 13 34  1  0  0  0  0
 14 23  1  0  0  0  0
 14 15  2  0  0  0  0
 15 16  1  0  0  0  0
 15 35  1  0  0  0  0
 16 17  2  0  0  0  0
 16 36  1  0  0  0  0
 17 18  1  0  0  0  0
 17 22  1  0  0  0  0
 18 19  1  0  0  0  0
 19 20  1  0  0  0  0
 19 21  1  0  0  0  0
 19 37  1  0  0  0  0
 22 23  2  0  0  0  0
 22 38  1  0  0  0  0
 23 39  1  0  0  0  0
M  END
> <s_m_source_file>
AV-unprocessed.smi

> <i_m_source_file_index>
1872

> <i_lp_mmshare_version>
43012

> <i_f3d_flags>
0

> <s_epik_input>
W2NIXTFbY0hdW2NIXVtjSF1jKGMxMiluKGMobjIpW0NIM10pW0NIMl1bQ0BIXShbT0hdKWMzW2NIXVtjSF1jKE9bQ0hdKEYpRilbY0hdW2NIXTM=

> <s_epik_cmdline>
J2VwaWtfcHl0aG9uJywgJy1waCcsICc3LjAnLCAnLXRuJywgJzgnLCAnLW1hJywgJzIwMCcsICctbWV0YWxfYmluZGluZycsICctaW1hZScsICc8aW5maWxlLm1hZT4nLCAnLW9tYWUnLCAnPG91dGZpbGUubWFlPic=

> <r_lp_tautomer_probability>
1

> <r_epik_Ionization_Penalty>
0.129663

> <r_epik_Ionization_Penalty_Charging>
0

> <r_epik_Ionization_Penalty_Neutral>
0.129663

> <r_epik_State_Penalty>
0.119073

> <r_epik_Charging_Adjusted_Penalty>
0.119073

> <i_epik_Tot_Q>
0

> <i_epik_Tot_abs_Q>
0

> <r_epik_Metal_State_Penalty>
0.000131867

> <b_epik_Metal_Only>
0

> <s_lp_Force_Field>
OPLS_2005

> <r_lp_Energy>
11.3105

> <b_lp_Chiralities_Consistent>
1

> <s_lp_Variant>
AV-unprocessed.smi:1872-2

> <Gold.Version>
5.8.1

> <Gold.Id.Protein>
6NUR|6NUR_protein|mol2

> <Gold.PLP.Fitness>
42.3330

> <Gold.PLP.PLP>
-43.0105

> <Gold.PLP.part.hbond>
-0.0092

> <Gold.PLP.part.metal>
0.0000

> <Gold.PLP.part.buried>
-6.7084

> <Gold.PLP.part.nonpolar>
-37.7649

> <Gold.PLP.part.repulsive>
0.5839

> <Gold.PLP.ligand.clash>
0.0000

> <Gold.PLP.ligand.torsion>
0.3623

> <Gold.PLP.Chemscore.Hbond>
0.0000

> <Gold.PLP.Chemscore.CHOScore>
0.0000

> <Gold.PLP.Chemscore.Metal>
0.0000

> <Gold.PLP.Chemscore.Internal.Correction>
0.0470

> <Gold.Rescore>
     Score         DG    S(hbond)    S(metal)    S(lipo)     H(rot)  DE(clash)    DE(int)     intcor
     12.02     -12.25       0.00        0.00     107.19       2.25       0.02       0.22       ----

> <Gold.Chemscore.Fitness>
12.0179

> <Gold.Chemscore.DG>
-12.2517

> <Gold.Chemscore.ZeroCoef>
-5.4800

> <Gold.Chemscore.Hbond>
0.0000

> <Gold.Chemscore.Metal>
0.0000

> <Gold.Chemscore.Lipo>
107.1913

> <Gold.Chemscore.Internal_Hbond>
0.0000

> <Gold.Chemscore.DEClash>
0.0163

> <Gold.Chemscore.DEInternal>
0.2175

> <Gold.Chemscore.Rot>
2.2538

> <Gold.Chemscore.Internal.Correction>
   9.000000E+99

> <Gold.Chemscore.Hbond.Weighted>
-0.0000

> <Gold.Chemscore.Metal.Weighted>
-0.0000

> <Gold.Chemscore.Lipo.Weighted>
-12.5414

> <Gold.Chemscore.Internal_Hbond.Weighted>
0.0000

> <Gold.Chemscore.DEClash.Weighted>
0.0163

> <Gold.Chemscore.DEInternal.Weighted>
0.2175

> <Gold.Chemscore.Rot.Weighted>
5.7697

> <Gold.Chemscore.Internal.Correction.Weighted>
   9.000000E+99

> <Gold.Protein.RotatedTorsions>
[ 6907 6896 6895 6894 ] final -156.25 input  -60.11 | X-H torsion
[ 7974 7965 7964 7962 ] final   76.94 input  175.53 | X-H torsion
[ 8008 7997 7996 7995 ] final    8.88 input   59.86 | X-H torsion
[ 10167 10162 10161 10158 ] final  126.37 input  -65.29 | X-H torsion
[ 10718 10713 10712 10709 ] final  170.36 input   66.30 | X-H torsion
[ 10763 10752 10751 10750 ] final   41.87 input  -60.55 | X-H torsion
[ 11005 11000 10999 10996 ] final -110.42 input  -57.11 | X-H torsion

> <Gold.Protein.ActiveResidues>
 VAL166  LYS551  ARG553  GLY616  TRP617  ASP618  TYR619  PRO620  LYS621  CYS622 
 ASP623  PHE694  ASN695  SER759  ASP760  ASP761  ALA762  ILE779  LEU786  VAL792 
 PHE793  MET794  SER795  GLU796  ALA797  LYS798  CYS799  TRP800  GLU811  SER814 

> <Gold.Protein.RotatedAtoms>
  151.2849  133.4192  159.2629 H   0  0  0  0  0  0  0  0  0  0  0  0  # atno 6907 bound_to 6896
  151.0328  134.9552  159.8131 H   0  0  0  0  0  0  0  0  0  0  0  0  # atno 6908 bound_to 6896
  152.5349  134.2809  159.9059 H   0  0  0  0  0  0  0  0  0  0  0  0  # atno 6909 bound_to 6896
  145.6963  139.2568  143.1730 H   0  0  0  0  0  0  0  0  0  0  0  0  # atno 7974 bound_to 7965
  154.7726  140.2804  155.6126 H   0  0  0  0  0  0  0  0  0  0  0  0  # atno 8008 bound_to 7997
  156.2936  140.2638  156.2460 H   0  0  0  0  0  0  0  0  0  0  0  0  # atno 8009 bound_to 7997
  154.9881  140.0374  157.2297 H   0  0  0  0  0  0  0  0  0  0  0  0  # atno 8010 bound_to 7997
  139.5635  144.6896  151.3977 H   0  0  0  0  0  0  0  0  0  0  0  0  # atno 10167 bound_to 10162
  157.0093  131.0199  151.2808 H   0  0  0  0  0  0  0  0  0  0  0  0  # atno 10718 bound_to 10713
  152.9897  135.6149  154.2857 H   0  0  0  0  0  0  0  0  0  0  0  0  # atno 10763 bound_to 10752
  154.2585  135.2783  155.2789 H   0  0  0  0  0  0  0  0  0  0  0  0  # atno 10764 bound_to 10752
  154.5227  135.5810  153.6751 H   0  0  0  0  0  0  0  0  0  0  0  0  # atno 10765 bound_to 10752
  141.0793  133.9248  157.2324 H   0  0  0  0  0  0  0  0  0  0  0  0  # atno 11005 bound_to 11000
  146.0837  140.7735  142.9629 LP  0  0  0  0  0  0  0  0  0  0  0  0  # atno 17320 bound_to 7965
  144.6981  140.3529  143.7178 LP  0  0  0  0  0  0  0  0  0  0  0  0  # atno 17321 bound_to 7965
  140.6916  143.7847  150.7264 LP  0  0  0  0  0  0  0  0  0  0  0  0  # atno 17342 bound_to 10162
  140.1331  143.4508  152.2242 LP  0  0  0  0  0  0  0  0  0  0  0  0  # atno 17343 bound_to 10162
  157.5332  130.8072  149.7941 LP  0  0  0  0  0  0  0  0  0  0  0  0  # atno 17370 bound_to 10713
  156.0142  130.3820  150.2165 LP  0  0  0  0  0  0  0  0  0  0  0  0  # atno 17371 bound_to 10713
  139.9606  135.0155  156.9249 LP  0  0  0  0  0  0  0  0  0  0  0  0  # atno 17394 bound_to 11000
  140.5505  134.0632  155.7368 LP  0  0  0  0  0  0  0  0  0  0  0  0  # atno 17395 bound_to 11000

$$$$
