#       Name:                AV-unprocessed.smi:1229
#       Creating user name   scv26
#       Creation time:       Fri Mar 27 04:22:06 2020


#       File generated by GOLD software.
#

@<TRIPOS>MOLECULE
AV-unprocessed.smi:1229
    51    52     1
SMALL
NO_CHARGES


@<TRIPOS>ATOM
      1 ****        -3.7622   4.5554  -0.9022 C.3            1 S1                 0.0000
      2 ****        -3.4028   4.3469   0.5600 C.ar           1 S1                 0.0000
      3 ****        -3.6538   5.3814   1.4864 C.ar           1 S1                 0.0000
      4 ****        -3.3212   5.1873   2.8379 C.ar           1 S1                 0.0000
      5 ****        -2.7466   3.9593   3.2079 C.ar           1 S1                 0.0000
      6 ****        -2.5026   2.9655   2.3293 N.ar           1 S1                 0.0000
      7 ****        -2.8190   3.1363   1.0208 C.ar           1 S1                 0.0000
      8 ****        -2.5893   2.1323   0.0378 N.am           1 S1                 0.0000
      9 ****        -2.0558   0.9087   0.2004 C.2            1 S1                 0.0000
     10 ****        -1.6692   0.4326   1.2683 O.2            1 S1                 0.0000
     11 ****        -1.9842   0.2502  -0.9661 N.am           1 S1                 0.0000
     12 ****        -1.4565  -1.1009  -1.1323 C.3            1 S1                 0.0000
     13 ****         0.0854  -1.1290  -1.0854 C.3            1 S1                 0.0000
     14 ****         0.5711  -0.7193  -2.3489 O.3            1 S1                 0.0000
     15 ****         0.6200  -2.5506  -0.8182 C.3            1 S1                 0.0000
     16 ****         2.0948  -2.5773  -0.6418 N.4            1 S1                 1.0000
     17 ****         2.6846  -3.8933  -1.0003 C.3            1 S1                 0.0000
     18 ****         4.2215  -3.8445  -0.9530 C.3            1 S1                 0.0000
     19 ****         4.7172  -3.3792   0.4223 C.3            1 S1                 0.0000
     20 ****         4.0669  -2.0387   0.7881 C.3            1 S1                 0.0000
     21 ****         2.5340  -2.1318   0.7083 C.3            1 S1                 0.0000
     22 ****        -4.2166   5.5332  -1.0640 H              1 S1                 0.0000
     23 ****        -4.4726   3.7973  -1.2335 H              1 S1                 0.0000
     24 ****        -2.8705   4.4928  -1.5266 H              1 S1                 0.0000
     25 ****        -4.0965   6.3141   1.1686 H              1 S1                 0.0000
     26 ****        -3.5014   5.9595   3.5713 H              1 S1                 0.0000
     27 ****        -2.4757   3.7689   4.2359 H              1 S1                 0.0000
     28 ****        -2.8619   2.3800  -0.9016 H              1 S1                 0.0000
     29 ****        -2.3252   0.7118  -1.7968 H              1 S1                 0.0000
     30 ****        -1.8670  -1.7257  -0.3370 H              1 S1                 0.0000
     31 ****        -1.8278  -1.5240  -2.0668 H              1 S1                 0.0000
     32 ****         0.4482  -0.4402  -0.3235 H              1 S1                 0.0000
     33 ****         0.2504   0.1528  -2.5250 H              1 S1                 0.0000
     34 ****         0.1497  -2.9794   0.0681 H              1 S1                 0.0000
     35 ****         0.3305  -3.1916  -1.6528 H              1 S1                 0.0000
     36 ****         2.3089  -4.6601  -0.3209 H              1 S1                 0.0000
     37 ****         2.3699  -4.1771  -2.0054 H              1 S1                 0.0000
     38 ****         4.6334  -4.8272  -1.1848 H              1 S1                 0.0000
     39 ****         4.5890  -3.1655  -1.7236 H              1 S1                 0.0000
     40 ****         4.4704  -4.1274   1.1767 H              1 S1                 0.0000
     41 ****         5.8034  -3.2840   0.4201 H              1 S1                 0.0000
     42 ****         4.3707  -1.7390   1.7915 H              1 S1                 0.0000
     43 ****         4.4223  -1.2602   0.1116 H              1 S1                 0.0000
     44 ****         2.1092  -1.1579   0.9480 H              1 S1                 0.0000
     45 ****         2.1628  -2.8293   1.4611 H              1 S1                 0.0000
     46 ****         2.4659  -1.9146  -1.3079 H              1 S1                 0.0000
     47 ****        -2.0914   2.1086   2.6400 LP             1 S1                 0.0000
     48 ****        -1.7403   0.9686   2.1095 LP             1 S1                 0.0000
     49 ****        -1.2842  -0.4899   1.2942 LP             1 S1                 0.0000
     50 ****         0.2454  -1.3476  -3.0555 LP             1 S1                 0.0000
     51 ****         1.5710  -0.7158  -2.3411 LP             1 S1                 0.0000
@<TRIPOS>BOND
    1    1    2 1     
    2    1   22 1     
    3    1   23 1     
    4    1   24 1     
    5    2    7 ar    
    6    2    3 ar    
    7    3    4 ar    
    8    3   25 1     
    9    4    5 ar    
   10    4   26 1     
   11    5    6 ar    
   12    5   27 1     
   13    6    7 ar    
   14    7    8 1     
   15    8    9 am    
   16    8   28 1     
   17    9   10 2     
   18    9   11 am    
   19   11   12 1     
   20   11   29 1     
   21   12   13 1     
   22   12   30 1     
   23   12   31 1     
   24   13   14 1     
   25   13   15 1     
   26   13   32 1     
   27   14   33 1     
   28   15   16 1     
   29   15   34 1     
   30   15   35 1     
   31   16   21 1     
   32   16   17 1     
   33   16   46 1     
   34   17   18 1     
   35   17   36 1     
   36   17   37 1     
   37   18   19 1     
   38   18   38 1     
   39   18   39 1     
   40   19   20 1     
   41   19   40 1     
   42   19   41 1     
   43   20   21 1     
   44   20   42 1     
   45   20   43 1     
   46   21   44 1     
   47   21   45 1     
   48    6   47 1     
   49   10   48 1     
   50   10   49 1     
   51   14   50 1     
   52   14   51 1     
@<TRIPOS>SUBSTRUCTURE
      1 S1             1
@<TRIPOS>SET
LONE_PAIRS      STATIC     ATOMS    <user>   **** ""
5 47 48 49 50 51
DONOR_HYDROGENS      STATIC     ATOMS    <user>   **** ""
4 28 29 33 46
ATOM$BLUE        STATIC     ATOMS    COLORGROUP SYSTEM
5 47 48 49 50 51
ATOM$RED        STATIC     ATOMS    COLORGROUP SYSTEM
4 28 29 33 46
