#       Name:                AV-unprocessed.smi:699
#       Creating user name   scv26
#       Creation time:       Fri Mar 27 00:38:24 2020


#       File generated by GOLD software.
#

@<TRIPOS>MOLECULE
AV-unprocessed.smi:699
    39    40     1
SMALL
NO_CHARGES


@<TRIPOS>ATOM
      1 ****        -2.0777   0.1173  -2.9609 N.am           1 S1                 0.0000
      2 ****        -2.7796  -0.0666  -1.8401 C.2            1 S1                 0.0000
      3 ****        -3.8048   0.5684  -1.6003 O.2            1 S1                 0.0000
      4 ****        -2.2506  -1.1130  -0.8470 C.3            1 S1                 0.0000
      5 ****        -3.2510  -2.2557  -0.6045 C.3            1 S1                 0.0000
      6 ****        -2.9651  -2.7274   0.8176 C.3            1 S1                 0.0000
      7 ****        -2.6356  -1.4447   1.5766 C.3            1 S1                 0.0000
      8 ****        -1.9505  -0.5190   0.5567 C.3            1 S1                 0.0000
      9 ****        -0.5143  -0.4363   0.8189 N.am           1 S1                 0.0000
     10 ****         0.3007   0.5279   0.3676 C.2            1 S1                 0.0000
     11 ****        -0.0755   1.4547  -0.3492 O.2            1 S1                 0.0000
     12 ****         1.5644   0.3316   0.7823 N.am           1 S1                 0.0000
     13 ****         2.7101   1.1387   0.5430 C.ar           1 S1                 0.0000
     14 ****         3.9785   0.5325   0.6829 C.ar           1 S1                 0.0000
     15 ****         5.1433   1.2986   0.4726 C.ar           1 S1                 0.0000
     16 ****         5.0392   2.6054   0.1491 N.pl3          1 S1                 1.0000
     17 ****         3.8505   3.2322   0.0178 C.ar           1 S1                 0.0000
     18 ****         2.6515   2.5179   0.2167 C.ar           1 S1                 0.0000
     19 ****        -2.3884   0.7978  -3.6390 H              1 S1                 0.0000
     20 ****        -1.2391  -0.4197  -3.1265 H              1 S1                 0.0000
     21 ****        -1.3389  -1.5581  -1.2510 H              1 S1                 0.0000
     22 ****        -4.2816  -1.9024  -0.6670 H              1 S1                 0.0000
     23 ****        -3.1372  -3.0628  -1.3289 H              1 S1                 0.0000
     24 ****        -3.8020  -3.2718   1.2560 H              1 S1                 0.0000
     25 ****        -2.0979  -3.3889   0.8184 H              1 S1                 0.0000
     26 ****        -3.5651  -0.9821   1.9118 H              1 S1                 0.0000
     27 ****        -2.0339  -1.6336   2.4667 H              1 S1                 0.0000
     28 ****        -2.3742   0.4811   0.6737 H              1 S1                 0.0000
     29 ****        -0.1190  -1.1638   1.3964 H              1 S1                 0.0000
     30 ****         1.7346  -0.5229   1.2923 H              1 S1                 0.0000
     31 ****         4.0622  -0.5126   0.9444 H              1 S1                 0.0000
     32 ****         6.1473   0.9086   0.5557 H              1 S1                 0.0000
     33 ****         3.8928   4.2820  -0.2339 H              1 S1                 0.0000
     34 ****         1.7138   3.0448   0.1277 H              1 S1                 0.0000
     35 ****         5.8941   3.1433   0.0031 H              1 S1                 0.0000
     36 ****        -4.1369   1.2476  -2.2548 LP             1 S1                 0.0000
     37 ****        -4.3066   0.4056  -0.7507 LP             1 S1                 0.0000
     38 ****        -1.0349   1.5160  -0.6247 LP             1 S1                 0.0000
     39 ****         0.5781   2.1464  -0.6562 LP             1 S1                 0.0000
@<TRIPOS>BOND
    1    1    2 am    
    2    1   19 1     
    3    1   20 1     
    4    2    3 2     
    5    2    4 1     
    6    4    8 1     
    7    4    5 1     
    8    4   21 1     
    9    5    6 1     
   10    5   22 1     
   11    5   23 1     
   12    6    7 1     
   13    6   24 1     
   14    6   25 1     
   15    7    8 1     
   16    7   26 1     
   17    7   27 1     
   18    8    9 1     
   19    8   28 1     
   20    9   10 am    
   21    9   29 1     
   22   10   11 2     
   23   10   12 am    
   24   12   13 1     
   25   12   30 1     
   26   13   18 ar    
   27   13   14 ar    
   28   14   15 ar    
   29   14   31 1     
   30   15   16 ar    
   31   15   32 1     
   32   16   17 ar    
   33   16   35 1     
   34   17   18 ar    
   35   17   33 1     
   36   18   34 1     
   37    3   36 1     
   38    3   37 1     
   39   11   38 1     
   40   11   39 1     
@<TRIPOS>SUBSTRUCTURE
      1 S1             1
@<TRIPOS>SET
LONE_PAIRS      STATIC     ATOMS    <user>   **** ""
4 36 37 38 39
DONOR_HYDROGENS      STATIC     ATOMS    <user>   **** ""
5 19 20 29 30 35
ATOM$BLUE        STATIC     ATOMS    COLORGROUP SYSTEM
4 36 37 38 39
ATOM$RED        STATIC     ATOMS    COLORGROUP SYSTEM
5 19 20 29 30 35
