AV-unprocessed.smi:218|AV-procd|sdf|1672|dock5
  -GOLD-   2262020 93D 1   1.00000     0.00000
 Structure written by MMmdl.
 54 57  0  0  0  0  0  0  0  0  1 V2000
  152.9195  142.7038  161.3815 C   0  0  0  0  0  0  0  0  0  0  0  0
  152.4896  142.7760  159.9115 C   0  0  0  0  0  0  0  0  0  0  0  0
  151.9107  144.1593  159.5679 C   0  0  0  0  0  0  0  0  0  0  0  0
  151.4993  141.7641  159.7189 O   0  0  0  0  0  0  0  0  0  0  0  0
  150.9340  141.5739  158.4726 C   0  0  0  0  0  0  0  0  0  0  0  0
  150.1849  140.4003  158.2517 C   0  0  0  0  0  0  0  0  0  0  0  0
  149.6039  140.1912  156.9847 C   0  0  0  0  0  0  0  0  0  0  0  0
  148.7770  138.9529  156.7136 C   0  0  0  0  0  0  0  0  0  0  0  0
  147.5240  138.9447  157.4547 N   0  0  0  0  0  0  0  0  0  0  0  0
  146.5222  138.1207  157.0823 C   0  0  0  0  0  0  0  0  0  0  0  0
  145.5608  137.7427  157.9653 N   0  0  0  0  0  0  0  0  0  0  0  0
  144.5789  136.9246  157.5737 C   0  0  0  0  0  0  0  0  0  0  0  0
  144.3766  136.3785  156.3722 N   0  0  0  0  0  0  0  0  0  0  0  0
  145.3418  136.7554  155.4841 C   0  0  0  0  0  0  0  0  0  0  0  0
  146.4376  137.6188  155.7581 C   0  0  0  0  0  0  0  0  0  0  0  0
  147.2082  137.7766  154.6138 N   0  0  0  0  0  0  0  0  0  0  0  0
  146.5994  137.0447  153.7193 C   0  0  0  0  0  0  0  0  0  0  0  0
  145.4641  136.3949  154.1595 N   0  0  0  0  0  0  0  0  0  0  0  0
  144.5331  135.4802  153.4158 C   0  0  2  0  0  0  0  0  0  0  0  0
  145.2450  134.3335  153.0712 O   0  0  0  0  0  0  0  0  0  0  0  0
  145.6743  134.3646  151.7069 C   0  0  1  0  0  0  0  0  0  0  0  0
  145.0738  133.1104  151.0378 C   0  0  0  0  0  0  0  0  0  0  0  0
  145.7371  132.8560  149.8177 O   0  0  0  0  0  0  0  0  0  0  0  0
  145.1783  135.7208  151.1541 C   0  0  1  0  0  0  0  0  0  0  0  0
  144.7224  135.6620  149.8156 O   0  0  0  0  0  0  0  0  0  0  0  0
  144.0512  136.1034  152.0993 C   0  0  2  0  0  0  0  0  0  0  0  0
  143.8793  137.5075  152.1570 O   0  0  0  0  0  0  0  0  0  0  0  0
  149.7953  141.1644  155.9841 C   0  0  0  0  0  0  0  0  0  0  0  0
  150.5617  142.3036  156.2977 C   0  0  0  0  0  0  0  0  0  0  0  0
  151.1206  142.5102  157.5092 N   0  0  0  0  0  0  0  0  0  0  0  0
  143.7350  135.2577  154.1247 H   0  0  0  0  0  0  0  0  0  0  0  0
  146.7630  134.3266  151.6492 H   0  0  0  0  0  0  0  0  0  0  0  0
  145.9875  136.4501  151.2212 H   0  0  0  0  0  0  0  0  0  0  0  0
  143.1183  135.6134  151.8164 H   0  0  0  0  0  0  0  0  0  0  0  0
  153.6859  143.4468  161.6040 H   0  0  0  0  0  0  0  0  0  0  0  0
  153.3310  141.7225  161.6186 H   0  0  0  0  0  0  0  0  0  0  0  0
  152.0767  142.8817  162.0501 H   0  0  0  0  0  0  0  0  0  0  0  0
  153.3768  142.5816  159.3068 H   0  0  0  0  0  0  0  0  0  0  0  0
  152.6430  144.9458  159.7514 H   0  0  0  0  0  0  0  0  0  0  0  0
  151.0299  144.3771  160.1725 H   0  0  0  0  0  0  0  0  0  0  0  0
  151.6168  144.2263  158.5207 H   0  0  0  0  0  0  0  0  0  0  0  0
  150.0569  139.6758  159.0428 H   0  0  0  0  0  0  0  0  0  0  0  0
  148.5691  138.8831  155.6450 H   0  0  0  0  0  0  0  0  0  0  0  0
  149.3664  138.0760  156.9848 H   0  0  0  0  0  0  0  0  0  0  0  0
  147.4515  139.6027  158.2175 H   0  0  0  0  0  0  0  0  0  0  0  0
  143.8522  136.6706  158.3314 H   0  0  0  0  0  0  0  0  0  0  0  0
  146.9724  136.9610  152.7096 H   0  0  0  0  0  0  0  0  0  0  0  0
  145.1338  132.2402  151.6921 H   0  0  0  0  0  0  0  0  0  0  0  0
  144.0237  133.2601  150.7878 H   0  0  0  0  0  0  0  0  0  0  0  0
  145.6678  133.6238  149.2712 H   0  0  0  0  0  0  0  0  0  0  0  0
  145.3765  135.2242  149.2928 H   0  0  0  0  0  0  0  0  0  0  0  0
  143.9751  137.8581  151.2847 H   0  0  0  0  0  0  0  0  0  0  0  0
  149.3642  141.0456  155.0008 H   0  0  0  0  0  0  0  0  0  0  0  0
  150.7287  143.0707  155.5563 H   0  0  0  0  0  0  0  0  0  0  0  0
  1  2  1  0  0  0  0
  1 35  1  0  0  0  0
  1 36  1  0  0  0  0
  1 37  1  0  0  0  0
  2  3  1  0  0  0  0
  2  4  1  0  0  0  0
  2 38  1  0  0  0  0
  3 39  1  0  0  0  0
  3 40  1  0  0  0  0
  3 41  1  0  0  0  0
  4  5  1  0  0  0  0
  5 30  1  0  0  0  0
  5  6  2  0  0  0  0
  6  7  1  0  0  0  0
  6 42  1  0  0  0  0
  7  8  1  0  0  0  0
  7 28  2  0  0  0  0
  8  9  1  0  0  0  0
  8 43  1  0  0  0  0
  8 44  1  0  0  0  0
  9 10  1  0  0  0  0
  9 45  1  0  0  0  0
 10 15  1  0  0  0  0
 10 11  2  0  0  0  0
 11 12  1  0  0  0  0
 12 13  2  0  0  0  0
 12 46  1  0  0  0  0
 13 14  1  0  0  0  0
 14 18  1  0  0  0  0
 14 15  2  0  0  0  0
 15 16  1  0  0  0  0
 16 17  2  0  0  0  0
 17 18  1  0  0  0  0
 17 47  1  0  0  0  0
 18 19  1  0  0  0  0
 19 31  1  0  0  0  0
 19 26  1  0  0  0  0
 19 20  1  0  0  0  0
 20 21  1  0  0  0  0
 21 32  1  0  0  0  0
 21 22  1  0  0  0  0
 21 24  1  0  0  0  0
 22 23  1  0  0  0  0
 22 48  1  0  0  0  0
 22 49  1  0  0  0  0
 23 50  1  0  0  0  0
 24 33  1  0  0  0  0
 24 25  1  0  0  0  0
 24 26  1  0  0  0  0
 25 51  1  0  0  0  0
 26 34  1  0  0  0  0
 26 27  1  0  0  0  0
 27 52  1  0  0  0  0
 28 29  1  0  0  0  0
 28 53  1  0  0  0  0
 29 30  2  0  0  0  0
 29 54  1  0  0  0  0
M  END
> <s_m_source_file>
AV-unprocessed.smi

> <i_m_source_file_index>
218

> <i_lp_mmshare_version>
43012

> <i_f3d_flags>
0

> <s_epik_input>
W0NIM11bQ0hdKFtDSDNdKU9jMVtjSF1jKFtjSF1bY0hdbjEpW0NIMl1bTkhdYyhuW2NIXW4yKWMoYzIzKW5bY0hdbjNbQ0BASF00T1tDQEhdKFtDSDJdW09IXSlbQ0BASF0oW09IXSlbQ0BIXTRbT0hd

> <s_epik_cmdline>
J2VwaWtfcHl0aG9uJywgJy1waCcsICc3LjAnLCAnLXRuJywgJzgnLCAnLW1hJywgJzIwMCcsICctbWV0YWxfYmluZGluZycsICctaW1hZScsICc8aW5maWxlLm1hZT4nLCAnLW9tYWUnLCAnPG91dGZpbGUubWFlPic=

> <r_lp_tautomer_probability>
1

> <r_epik_Ionization_Penalty>
0.00457014

> <r_epik_Ionization_Penalty_Charging>
0

> <r_epik_Ionization_Penalty_Neutral>
0.00457014

> <r_epik_State_Penalty>
-0

> <r_epik_Charging_Adjusted_Penalty>
0

> <i_epik_Tot_Q>
0

> <i_epik_Tot_abs_Q>
0

> <r_epik_Metal_State_Penalty>
-0

> <b_epik_Metal_Only>
0

> <s_epik_Chemistry_Notes>
This compound contains an acetal/aminal-like group ( X-CH(R)-Y where X, Y are N, S, or O) that may be acid/base labile, releasing an aldehyde.

> <s_lp_Force_Field>
OPLS_2005

> <r_lp_Energy>
43.2146

> <b_lp_Chiralities_Consistent>
1

> <s_lp_Variant>
AV-unprocessed.smi:218-11

> <Gold.Version>
5.8.1

> <Gold.Id.Protein>
6NUR|6NUR_protein|mol2

> <Gold.PLP.Fitness>
50.1558

> <Gold.PLP.PLP>
-37.4616

> <Gold.PLP.part.hbond>
-5.5044

> <Gold.PLP.part.metal>
0.0000

> <Gold.PLP.part.buried>
-5.6999

> <Gold.PLP.part.nonpolar>
-26.8937

> <Gold.PLP.part.repulsive>
0.3118

> <Gold.PLP.ligand.clash>
0.0000

> <Gold.PLP.ligand.torsion>
0.7096

> <Gold.PLP.Chemscore.Hbond>
3.0000

> <Gold.PLP.Chemscore.CHOScore>
1.6444

> <Gold.PLP.Chemscore.Metal>
0.0000

> <Gold.Chemscore.Hbonds>
donor molecule, donor type, donor heavy atom, donor atom, acceptor molecule, acceptor atom, score
      L1  H    23    50       P1  7921  0.91
      L1  H    25    51       P1  7921  1.00
      L1  H    27    52       P1 10171  1.00
      L1  C    17    47       P1  7948  1.00
      L1  C    29    54       P1  8028  0.60

> <Gold.PLP.Chemscore.Internal.Correction>
0.1803

> <Gold.Rescore>
     Score         DG    S(hbond)    S(metal)    S(lipo)     H(rot)  DE(clash)    DE(int)     intcor
      7.33     -10.55       2.55        0.00      77.77       4.90       0.06       3.16       ----

> <Gold.Chemscore.Fitness>
7.3297

> <Gold.Chemscore.DG>
-10.5484

> <Gold.Chemscore.ZeroCoef>
-5.4800

> <Gold.Chemscore.Hbond>
2.5511

> <Gold.Chemscore.Metal>
0.0000

> <Gold.Chemscore.Lipo>
77.7697

> <Gold.Chemscore.Internal_Hbond>
0.0000

> <Gold.Chemscore.DEClash>
0.0621

> <Gold.Chemscore.DEInternal>
3.1565

> <Gold.Chemscore.Rot>
4.9029

> <Gold.Chemscore.Internal.Correction>
   9.000000E+99

> <Gold.Chemscore.Hbonds>
donor molecule, donor type, donor heavy atom, donor atom, acceptor molecule, acceptor atom, score
      L1  H    23    50       P1  7921  0.22
      L1  H    25    51       P1  7921  0.95
      L1  H    27    52       P1 10171  1.00

> <Gold.Chemscore.Hbond.Weighted>
-8.5208

> <Gold.Chemscore.Metal.Weighted>
-0.0000

> <Gold.Chemscore.Lipo.Weighted>
-9.0990

> <Gold.Chemscore.Internal_Hbond.Weighted>
0.0000

> <Gold.Chemscore.DEClash.Weighted>
0.0621

> <Gold.Chemscore.DEInternal.Weighted>
3.1565

> <Gold.Chemscore.Rot.Weighted>
12.5515

> <Gold.Chemscore.Internal.Correction.Weighted>
   9.000000E+99

> <Gold.Protein.RotatedTorsions>
[ 6907 6896 6895 6894 ] final  -81.45 input  -60.11 | X-H torsion
[ 7974 7965 7964 7962 ] final   33.53 input  175.53 | X-H torsion
[ 8008 7997 7996 7995 ] final -138.31 input   59.86 | X-H torsion
[ 10167 10162 10161 10158 ] final  -77.20 input  -65.29 | X-H torsion
[ 10718 10713 10712 10709 ] final  -65.15 input   66.30 | X-H torsion
[ 10763 10752 10751 10750 ] final -127.37 input  -60.55 | X-H torsion
[ 11005 11000 10999 10996 ] final   53.52 input  -57.11 | X-H torsion

> <Gold.Protein.ActiveResidues>
 VAL166  LYS551  ARG553  GLY616  TRP617  ASP618  TYR619  PRO620  LYS621  CYS622 
 ASP623  PHE694  ASN695  SER759  ASP760  ASP761  ALA762  ILE779  LEU786  VAL792 
 PHE793  MET794  SER795  GLU796  ALA797  LYS798  CYS799  TRP800  GLU811  SER814 

> <Gold.Protein.RotatedAtoms>
  150.6912  134.3816  159.5036 H   0  0  0  0  0  0  0  0  0  0  0  0  # atno 6907 bound_to 6896
  152.1617  134.8904  160.0550 H   0  0  0  0  0  0  0  0  0  0  0  0  # atno 6908 bound_to 6896
  151.9963  133.3774  159.4201 H   0  0  0  0  0  0  0  0  0  0  0  0  # atno 6909 bound_to 6896
  146.1414  139.6385  142.9160 H   0  0  0  0  0  0  0  0  0  0  0  0  # atno 7974 bound_to 7965
  155.4263  140.0522  157.3022 H   0  0  0  0  0  0  0  0  0  0  0  0  # atno 8008 bound_to 7997
  154.4880  140.2108  155.9571 H   0  0  0  0  0  0  0  0  0  0  0  0  # atno 8009 bound_to 7997
  156.1302  140.3173  155.8342 H   0  0  0  0  0  0  0  0  0  0  0  0  # atno 8010 bound_to 7997
  140.4791  143.2407  151.8087 H   0  0  0  0  0  0  0  0  0  0  0  0  # atno 10167 bound_to 10162
  156.0686  130.4243  150.1523 H   0  0  0  0  0  0  0  0  0  0  0  0  # atno 10718 bound_to 10713
  154.8752  135.3964  154.3582 H   0  0  0  0  0  0  0  0  0  0  0  0  # atno 10763 bound_to 10752
  153.4358  135.7026  153.6206 H   0  0  0  0  0  0  0  0  0  0  0  0  # atno 10764 bound_to 10752
  153.4808  135.3769  155.2410 H   0  0  0  0  0  0  0  0  0  0  0  0  # atno 10765 bound_to 10752
  140.0760  134.5403  155.8996 H   0  0  0  0  0  0  0  0  0  0  0  0  # atno 11005 bound_to 11000
  145.5038  141.0437  143.2526 LP  0  0  0  0  0  0  0  0  0  0  0  0  # atno 17320 bound_to 7965
  144.7797  139.6553  143.7160 LP  0  0  0  0  0  0  0  0  0  0  0  0  # atno 17321 bound_to 7965
  139.4830  144.4796  151.9324 LP  0  0  0  0  0  0  0  0  0  0  0  0  # atno 17342 bound_to 10162
  140.3881  144.2650  150.5902 LP  0  0  0  0  0  0  0  0  0  0  0  0  # atno 17343 bound_to 10162
  156.9578  130.9795  151.3485 LP  0  0  0  0  0  0  0  0  0  0  0  0  # atno 17370 bound_to 10713
  157.5744  130.8332  149.8435 LP  0  0  0  0  0  0  0  0  0  0  0  0  # atno 17371 bound_to 10713
  141.2030  133.6628  156.6036 LP  0  0  0  0  0  0  0  0  0  0  0  0  # atno 17394 bound_to 11000
  140.3557  134.7731  157.4498 LP  0  0  0  0  0  0  0  0  0  0  0  0  # atno 17395 bound_to 11000

$$$$
