#       Name:                AV-unprocessed.smi:2871
#       Creating user name   scv26
#       Creation time:       Fri Mar 27 15:49:39 2020


#       File generated by GOLD software.
#

@<TRIPOS>MOLECULE
AV-unprocessed.smi:2871
    42    44     1
SMALL
NO_CHARGES


@<TRIPOS>ATOM
      1 ****        -3.3197  -0.7793  -0.6409 C.3            1 S1                 0.0000
      2 ****        -2.5758  -0.5814  -1.8806 N.pl3          1 S1                 0.0000
      3 ****        -3.2815  -0.4904  -3.1525 C.3            1 S1                 0.0000
      4 ****        -1.1680  -0.4762  -1.8426 C.ar           1 S1                 0.0000
      5 ****        -0.3983  -0.2581  -3.0114 C.ar           1 S1                 0.0000
      6 ****         1.0026  -0.1679  -2.8493 C.ar           1 S1                 0.0000
      7 ****         1.9394   0.0616  -4.0258 C.3            1 S1                 0.0000
      8 ****         2.7669  -0.9764  -4.1486 F              1 S1                 0.0000
      9 ****         1.2678   0.2043  -5.1690 F              1 S1                 0.0000
     10 ****         2.6599   1.1643  -3.8198 F              1 S1                 0.0000
     11 ****         1.5826  -0.2853  -1.6338 N.ar           1 S1                 0.0000
     12 ****         0.7744  -0.4867  -0.5940 C.ar           1 S1                 0.0000
     13 ****         1.4002  -0.5909   0.6344 N.pl3          1 S1                 0.0000
     14 ****         0.7026  -0.6521   1.9140 C.3            1 S1                 0.0000
     15 ****         1.6402  -0.8860   3.1005 C.3            1 S1                 0.0000
     16 ****         1.2655   0.2766   4.0310 C.3            1 S1                 0.0000
     17 ****         1.8285   1.6097   3.5217 C.3            1 S1                 0.0000
     18 ****         0.9296   1.8864   2.3182 C.3            1 S1                 0.0000
     19 ****         0.0025   0.6589   2.3241 C.3            1 S1                 0.0000
     20 ****        -0.1082   0.4411   3.7204 O.3            1 S1                 0.0000
     21 ****        -0.5572  -0.5889  -0.6386 N.ar           1 S1                 0.0000
     22 ****        -3.0279  -1.7160  -0.1649 H              1 S1                 0.0000
     23 ****        -4.3938  -0.8172  -0.8224 H              1 S1                 0.0000
     24 ****        -3.1277   0.0373   0.0562 H              1 S1                 0.0000
     25 ****        -2.9409  -1.2682  -3.8367 H              1 S1                 0.0000
     26 ****        -3.1107   0.4817  -3.6160 H              1 S1                 0.0000
     27 ****        -4.3568  -0.6123  -3.0203 H              1 S1                 0.0000
     28 ****        -0.8470  -0.1624  -3.9884 H              1 S1                 0.0000
     29 ****         2.4047  -0.4925   0.6465 H              1 S1                 0.0000
     30 ****        -0.0307  -1.4592   1.8804 H              1 S1                 0.0000
     31 ****         1.4228  -1.8463   3.5694 H              1 S1                 0.0000
     32 ****         2.6986  -0.8713   2.8360 H              1 S1                 0.0000
     33 ****         1.4693   0.0847   5.0846 H              1 S1                 0.0000
     34 ****         1.7140   2.3927   4.2720 H              1 S1                 0.0000
     35 ****         2.8839   1.5414   3.2565 H              1 S1                 0.0000
     36 ****         0.3550   2.7994   2.4780 H              1 S1                 0.0000
     37 ****         1.4855   1.9998   1.3872 H              1 S1                 0.0000
     38 ****        -0.9527   0.8262   1.8256 H              1 S1                 0.0000
     39 ****         2.5742  -0.2237  -1.5202 LP             1 S1                 0.0000
     40 ****        -0.5073   1.2275   4.1917 LP             1 S1                 0.0000
     41 ****        -0.6406  -0.3789   3.9306 LP             1 S1                 0.0000
     42 ****        -1.0885  -0.7444   0.1942 LP             1 S1                 0.0000
@<TRIPOS>BOND
    1    1    2 1     
    2    1   22 1     
    3    1   23 1     
    4    1   24 1     
    5    2    3 1     
    6    2    4 1     
    7    3   25 1     
    8    3   26 1     
    9    3   27 1     
   10    4   21 ar    
   11    4    5 ar    
   12    5    6 ar    
   13    5   28 1     
   14    6    7 1     
   15    6   11 ar    
   16    7    8 1     
   17    7    9 1     
   18    7   10 1     
   19   11   12 ar    
   20   12   13 1     
   21   12   21 ar    
   22   13   14 1     
   23   13   29 1     
   24   14   19 1     
   25   14   15 1     
   26   14   30 1     
   27   15   16 1     
   28   15   31 1     
   29   15   32 1     
   30   16   20 1     
   31   16   17 1     
   32   16   33 1     
   33   17   18 1     
   34   17   34 1     
   35   17   35 1     
   36   18   19 1     
   37   18   36 1     
   38   18   37 1     
   39   19   20 1     
   40   19   38 1     
   41   11   39 1     
   42   20   40 1     
   43   20   41 1     
   44   21   42 1     
@<TRIPOS>SUBSTRUCTURE
      1 S1             1
@<TRIPOS>SET
LONE_PAIRS      STATIC     ATOMS    <user>   **** ""
4 39 40 41 42
DONOR_HYDROGENS      STATIC     ATOMS    <user>   **** ""
1 29
ATOM$BLUE        STATIC     ATOMS    COLORGROUP SYSTEM
4 39 40 41 42
ATOM$RED        STATIC     ATOMS    COLORGROUP SYSTEM
1 29
