AV-unprocessed.smi:3354|AV-procd|sdf|12959|dock10
  -GOLD-   2272019393D 1   1.00000     0.00000
 Structure written by MMmdl.
 38 40  0  0  0  0  0  0  0  0  1 V2000
  144.8928  131.5390  150.7845 C   0  0  0  0  0  0  0  0  0  0  0  0
  144.4192  132.7912  151.4896 C   0  0  2  0  0  0  0  0  0  0  0  0
  142.9965  133.2675  151.3055 C   0  0  0  0  0  0  0  0  0  0  0  0
  144.1346  134.0637  150.7122 C   0  0  1  0  0  0  0  0  0  0  0  0
  144.4147  135.3514  151.2720 N   0  0  0  0  0  0  0  0  0  0  0  0
  145.6133  136.0548  150.8475 C   0  0  0  0  0  0  0  0  0  0  0  0
  145.6273  137.3666  151.6508 C   0  0  2  0  0  0  0  0  0  0  0  0
  146.9641  137.6474  152.1669 N   0  0  0  0  0  0  0  0  0  0  0  0
  147.2618  138.6330  153.0248 C   0  0  0  0  0  0  0  0  0  0  0  0
  146.4227  139.4095  153.4811 O   0  0  0  0  0  0  0  0  0  0  0  0
  148.5721  138.6371  153.3241 N   0  0  0  0  0  0  0  0  0  0  0  0
  149.2857  139.5295  154.1692 C   0  0  0  0  0  0  0  0  0  0  0  0
  148.8116  140.8035  154.5662 C   0  0  0  0  0  0  0  0  0  0  0  0
  149.6245  141.6043  155.3912 C   0  0  0  0  0  0  0  0  0  0  0  0
  150.8817  141.1064  155.7845 C   0  0  0  0  0  0  0  0  0  0  0  0
  151.3515  139.8998  155.4039 N   0  0  0  0  0  0  0  0  0  0  0  0
  150.5672  139.1381  154.6117 C   0  0  0  0  0  0  0  0  0  0  0  0
  144.5924  137.1685  152.7698 C   0  0  0  0  0  0  0  0  0  0  0  0
  143.8958  135.8723  152.3925 C   0  0  0  0  0  0  0  0  0  0  0  0
  142.9904  135.3902  153.0715 O   0  0  0  0  0  0  0  0  0  0  0  0
  144.4666  131.4721  149.7831 H   0  0  0  0  0  0  0  0  0  0  0  0
  144.5940  130.6560  151.3495 H   0  0  0  0  0  0  0  0  0  0  0  0
  145.9794  131.5476  150.7000 H   0  0  0  0  0  0  0  0  0  0  0  0
  144.8148  132.8966  152.4979 H   0  0  0  0  0  0  0  0  0  0  0  0
  142.3602  132.7162  150.6161 H   0  0  0  0  0  0  0  0  0  0  0  0
  142.4908  133.6753  152.1788 H   0  0  0  0  0  0  0  0  0  0  0  0
  144.2487  133.9957  149.6318 H   0  0  0  0  0  0  0  0  0  0  0  0
  146.4835  135.4329  151.0656 H   0  0  0  0  0  0  0  0  0  0  0  0
  145.5961  136.2437  149.7733 H   0  0  0  0  0  0  0  0  0  0  0  0
  145.3037  138.1822  151.0009 H   0  0  0  0  0  0  0  0  0  0  0  0
  147.7126  137.0500  151.8472 H   0  0  0  0  0  0  0  0  0  0  0  0
  149.1182  137.8822  152.9351 H   0  0  0  0  0  0  0  0  0  0  0  0
  147.8560  141.1883  154.2463 H   0  0  0  0  0  0  0  0  0  0  0  0
  149.2932  142.5811  155.7113 H   0  0  0  0  0  0  0  0  0  0  0  0
  151.5295  141.6962  156.4162 H   0  0  0  0  0  0  0  0  0  0  0  0
  150.9774  138.1810  154.3246 H   0  0  0  0  0  0  0  0  0  0  0  0
  145.0553  137.0541  153.7509 H   0  0  0  0  0  0  0  0  0  0  0  0
  143.8817  137.9944  152.8170 H   0  0  0  0  0  0  0  0  0  0  0  0
  1  2  1  0  0  0  0
  1 21  1  0  0  0  0
  1 22  1  0  0  0  0
  1 23  1  0  0  0  0
  2  4  1  0  0  0  0
  2  3  1  0  0  0  0
  2 24  1  0  0  0  0
  3  4  1  0  0  0  0
  3 25  1  0  0  0  0
  3 26  1  0  0  0  0
  4  5  1  0  0  0  0
  4 27  1  0  0  0  0
  5 19  1  0  0  0  0
  5  6  1  0  0  0  0
  6  7  1  0  0  0  0
  6 28  1  0  0  0  0
  6 29  1  0  0  0  0
  7  8  1  0  0  0  0
  7 18  1  0  0  0  0
  7 30  1  0  0  0  0
  8  9  1  0  0  0  0
  8 31  1  0  0  0  0
  9 10  2  0  0  0  0
  9 11  1  0  0  0  0
 11 12  1  0  0  0  0
 11 32  1  0  0  0  0
 12 17  1  0  0  0  0
 12 13  2  0  0  0  0
 13 14  1  0  0  0  0
 13 33  1  0  0  0  0
 14 15  2  0  0  0  0
 14 34  1  0  0  0  0
 15 16  1  0  0  0  0
 15 35  1  0  0  0  0
 16 17  2  0  0  0  0
 17 36  1  0  0  0  0
 18 19  1  0  0  0  0
 18 37  1  0  0  0  0
 18 38  1  0  0  0  0
 19 20  2  0  0  0  0
M  END
> <s_m_source_file>
AV-unprocessed.smi

> <i_m_source_file_index>
3354

> <i_lp_mmshare_version>
43012

> <i_f3d_flags>
0

> <s_epik_input>
W0NIM11bQ0BASF0xW0NIMl1bQ0BIXTFOMltDSDJdW0NASF0oW0NIMl1DMj1PKVtOSF1DKD1PKVtOSF1jM1tjSF1bY0hdW2NIXW5bY0hdMw==

> <s_epik_cmdline>
J2VwaWtfcHl0aG9uJywgJy1waCcsICc3LjAnLCAnLXRuJywgJzgnLCAnLW1hJywgJzIwMCcsICctbWV0YWxfYmluZGluZycsICctaW1hZScsICc8aW5maWxlLm1hZT4nLCAnLW9tYWUnLCAnPG91dGZpbGUubWFlPic=

> <r_epik_Ionization_Penalty>
0.00456191

> <r_epik_Ionization_Penalty_Charging>
0

> <r_epik_Ionization_Penalty_Neutral>
0.00456191

> <r_epik_State_Penalty>
0.00327094

> <r_epik_Charging_Adjusted_Penalty>
0.00327094

> <i_epik_Tot_Q>
0

> <i_epik_Tot_abs_Q>
0

> <r_epik_Metal_State_Penalty>
-0

> <b_epik_Metal_Only>
0

> <s_lp_Force_Field>
OPLS_2005

> <r_lp_Energy>
40.1113

> <b_lp_Chiralities_Consistent>
1

> <s_lp_Variant>
AV-unprocessed.smi:3354-5

> <Gold.Version>
5.8.1

> <Gold.Id.Protein>
6NUR|6NUR_protein|mol2

> <Gold.PLP.Fitness>
42.7285

> <Gold.PLP.PLP>
-37.4694

> <Gold.PLP.part.hbond>
-3.8436

> <Gold.PLP.part.metal>
0.0000

> <Gold.PLP.part.buried>
-2.1985

> <Gold.PLP.part.nonpolar>
-32.9315

> <Gold.PLP.part.repulsive>
0.4233

> <Gold.PLP.ligand.clash>
0.0000

> <Gold.PLP.ligand.torsion>
0.3175

> <Gold.PLP.Chemscore.Hbond>
1.8393

> <Gold.PLP.Chemscore.CHOScore>
0.0000

> <Gold.PLP.Chemscore.Metal>
0.0000

> <Gold.Chemscore.Hbonds>
donor molecule, donor type, donor heavy atom, donor atom, acceptor molecule, acceptor atom, score
      L1  H     8    31       P1  7948  0.83
      L1  H    11    32       P1  7948  0.86

> <Gold.PLP.Chemscore.Internal.Correction>
0.3763

> <Gold.Rescore>
     Score         DG    S(hbond)    S(metal)    S(lipo)     H(rot)  DE(clash)    DE(int)     intcor
     13.25     -18.07       1.65        0.00      87.52       1.24       1.00       3.82       ----

> <Gold.Chemscore.Fitness>
13.2509

> <Gold.Chemscore.DG>
-18.0725

> <Gold.Chemscore.ZeroCoef>
-5.4800

> <Gold.Chemscore.Hbond>
1.6517

> <Gold.Chemscore.Metal>
0.0000

> <Gold.Chemscore.Lipo>
87.5212

> <Gold.Chemscore.Internal_Hbond>
0.0000

> <Gold.Chemscore.DEClash>
0.9980

> <Gold.Chemscore.DEInternal>
3.8236

> <Gold.Chemscore.Rot>
1.2361

> <Gold.Chemscore.Internal.Correction>
   9.000000E+99

> <Gold.Chemscore.Hbonds>
donor molecule, donor type, donor heavy atom, donor atom, acceptor molecule, acceptor atom, score
      L1  H     8    31       P1  7948  0.80
      L1  H    11    32       P1  7948  0.84

> <Gold.Chemscore.Hbond.Weighted>
-5.5168

> <Gold.Chemscore.Metal.Weighted>
-0.0000

> <Gold.Chemscore.Lipo.Weighted>
-10.2400

> <Gold.Chemscore.Internal_Hbond.Weighted>
0.0000

> <Gold.Chemscore.DEClash.Weighted>
0.9980

> <Gold.Chemscore.DEInternal.Weighted>
3.8236

> <Gold.Chemscore.Rot.Weighted>
3.1643

> <Gold.Chemscore.Internal.Correction.Weighted>
   9.000000E+99

> <Gold.Protein.RotatedTorsions>
[ 6907 6896 6895 6894 ] final  -93.04 input  -60.11 | X-H torsion
[ 7974 7965 7964 7962 ] final  154.21 input  175.53 | X-H torsion
[ 8008 7997 7996 7995 ] final  -38.23 input   59.86 | X-H torsion
[ 10167 10162 10161 10158 ] final  172.60 input  -65.29 | X-H torsion
[ 10718 10713 10712 10709 ] final -134.61 input   66.30 | X-H torsion
[ 10763 10752 10751 10750 ] final   89.22 input  -60.55 | X-H torsion
[ 11005 11000 10999 10996 ] final  -57.97 input  -57.11 | X-H torsion

> <Gold.Protein.ActiveResidues>
 VAL166  LYS551  ARG553  GLY616  TRP617  ASP618  TYR619  PRO620  LYS621  CYS622 
 ASP623  PHE694  ASN695  SER759  ASP760  ASP761  ALA762  ILE779  LEU786  VAL792 
 PHE793  MET794  SER795  GLU796  ALA797  LYS798  CYS799  TRP800  GLU811  SER814 

> <Gold.Protein.RotatedAtoms>
  150.6916  134.2028  159.4328 H   0  0  0  0  0  0  0  0  0  0  0  0  # atno 6907 bound_to 6896
  151.9994  134.9934  160.0574 H   0  0  0  0  0  0  0  0  0  0  0  0  # atno 6908 bound_to 6896
  152.1593  133.4537  159.4890 H   0  0  0  0  0  0  0  0  0  0  0  0  # atno 6909 bound_to 6896
  144.8104  139.6903  143.6144 H   0  0  0  0  0  0  0  0  0  0  0  0  # atno 7974 bound_to 7965
  154.4040  140.1583  156.2666 H   0  0  0  0  0  0  0  0  0  0  0  0  # atno 8008 bound_to 7997
  155.8990  140.3434  155.5990 H   0  0  0  0  0  0  0  0  0  0  0  0  # atno 8009 bound_to 7997
  155.7470  140.0800  157.2210 H   0  0  0  0  0  0  0  0  0  0  0  0  # atno 8010 bound_to 7997
  139.5082  144.3355  152.0069 H   0  0  0  0  0  0  0  0  0  0  0  0  # atno 10167 bound_to 10162
  156.2573  130.7189  151.1110 H   0  0  0  0  0  0  0  0  0  0  0  0  # atno 10718 bound_to 10713
  153.1849  135.4478  155.0075 H   0  0  0  0  0  0  0  0  0  0  0  0  # atno 10763 bound_to 10752
  154.8054  135.3272  154.7448 H   0  0  0  0  0  0  0  0  0  0  0  0  # atno 10764 bound_to 10752
  153.7908  135.6970  153.4927 H   0  0  0  0  0  0  0  0  0  0  0  0  # atno 10765 bound_to 10752
  141.1187  133.6611  156.4849 H   0  0  0  0  0  0  0  0  0  0  0  0  # atno 11005 bound_to 11000
  146.2401  139.5984  142.9497 LP  0  0  0  0  0  0  0  0  0  0  0  0  # atno 17320 bound_to 7965
  145.5338  141.0425  143.2368 LP  0  0  0  0  0  0  0  0  0  0  0  0  # atno 17321 bound_to 7965
  140.2794  144.3876  150.6124 LP  0  0  0  0  0  0  0  0  0  0  0  0  # atno 17342 bound_to 10162
  140.6029  143.2167  151.7036 LP  0  0  0  0  0  0  0  0  0  0  0  0  # atno 17343 bound_to 10162
  157.7237  131.0664  150.6024 LP  0  0  0  0  0  0  0  0  0  0  0  0  # atno 17370 bound_to 10713
  156.6109  130.4380  149.5859 LP  0  0  0  0  0  0  0  0  0  0  0  0  # atno 17371 bound_to 10713
  140.4570  134.6876  157.5067 LP  0  0  0  0  0  0  0  0  0  0  0  0  # atno 17394 bound_to 11000
  140.0128  134.6664  155.9355 LP  0  0  0  0  0  0  0  0  0  0  0  0  # atno 17395 bound_to 11000

$$$$
