#       Name:                AV-unprocessed.smi:3303
#       Creating user name   scv26
#       Creation time:       Fri Mar 27 18:59:58 2020


#       File generated by GOLD software.
#

@<TRIPOS>MOLECULE
AV-unprocessed.smi:3303
    46    47     1
SMALL
NO_CHARGES


@<TRIPOS>ATOM
      1 ****        -3.1153  -0.5028  -1.5199 C.3            1 S1                 0.0000
      2 ****        -1.6179  -0.7673  -1.2807 C.3            1 S1                 0.0000
      3 ****        -1.3062  -2.2781  -1.2581 C.3            1 S1                 0.0000
      4 ****        -1.8152  -2.9425  -0.0290 N.4            1 S1                 1.0000
      5 ****        -1.6423  -4.4134  -0.1126 C.3            1 S1                 0.0000
      6 ****        -1.2513  -2.3322   1.2126 C.3            1 S1                 0.0000
      7 ****        -1.7866  -2.9955   2.4967 C.3            1 S1                 0.0000
      8 ****        -1.5507  -0.8171   1.2553 C.3            1 S1                 0.0000
      9 ****        -1.0918  -0.0689  -0.0091 C.3            1 S1                 0.0000
     10 ****         0.3852   0.0563  -0.0425 N.4            1 S1                 1.0000
     11 ****         0.8872   1.4450  -0.0559 C.3            1 S1                 0.0000
     12 ****         2.4199   1.4811  -0.1198 C.3            1 S1                 0.0000
     13 ****         2.9552   2.9002  -0.1085 C.ar           1 S1                 0.0000
     14 ****         3.3737   3.5253  -1.3025 C.ar           1 S1                 0.0000
     15 ****         3.8508   4.8489  -1.2339 C.ar           1 S1                 0.0000
     16 ****         3.8883   5.4923   0.0182 C.ar           1 S1                 0.0000
     17 ****         3.4462   4.7811   1.1514 C.ar           1 S1                 0.0000
     18 ****         2.9866   3.5120   1.0966 N.ar           1 S1                 0.0000
     19 ****        -3.7362  -0.9129  -0.7233 H              1 S1                 0.0000
     20 ****        -3.4458  -0.9508  -2.4575 H              1 S1                 0.0000
     21 ****        -3.3202   0.5664  -1.5827 H              1 S1                 0.0000
     22 ****        -1.0992  -0.3357  -2.1384 H              1 S1                 0.0000
     23 ****        -1.7422  -2.7491  -2.1405 H              1 S1                 0.0000
     24 ****        -0.2290  -2.4375  -1.3275 H              1 S1                 0.0000
     25 ****        -0.5910  -4.6911  -0.0262 H              1 S1                 0.0000
     26 ****        -2.0154  -4.7938  -1.0642 H              1 S1                 0.0000
     27 ****        -2.2028  -4.9275   0.6674 H              1 S1                 0.0000
     28 ****        -0.1690  -2.4705   1.1923 H              1 S1                 0.0000
     29 ****        -1.4375  -2.4654   3.3835 H              1 S1                 0.0000
     30 ****        -1.4462  -4.0258   2.5993 H              1 S1                 0.0000
     31 ****        -2.8771  -2.9939   2.5214 H              1 S1                 0.0000
     32 ****        -2.6242  -0.6709   1.3836 H              1 S1                 0.0000
     33 ****        -1.0879  -0.3671   2.1350 H              1 S1                 0.0000
     34 ****        -1.5146   0.9368   0.0308 H              1 S1                 0.0000
     35 ****         0.7664  -0.4060   0.7708 H              1 S1                 0.0000
     36 ****         0.4677   1.9721  -0.9143 H              1 S1                 0.0000
     37 ****         0.5383   1.9566   0.8424 H              1 S1                 0.0000
     38 ****         2.8446   0.9373   0.7256 H              1 S1                 0.0000
     39 ****         2.7692   0.9723  -1.0194 H              1 S1                 0.0000
     40 ****         3.3307   3.0076  -2.2496 H              1 S1                 0.0000
     41 ****         4.1804   5.3618  -2.1255 H              1 S1                 0.0000
     42 ****         4.2472   6.5069   0.1087 H              1 S1                 0.0000
     43 ****         3.4602   5.2436   2.1272 H              1 S1                 0.0000
     44 ****         0.7290  -0.4121  -0.8687 H              1 S1                 0.0000
     45 ****        -2.8118  -2.7772  -0.0079 H              1 S1                 0.0000
     46 ****         2.6789   3.0394   1.9224 LP             1 S1                 0.0000
@<TRIPOS>BOND
    1    1    2 1     
    2    1   19 1     
    3    1   20 1     
    4    1   21 1     
    5    2    9 1     
    6    2    3 1     
    7    2   22 1     
    8    3    4 1     
    9    3   23 1     
   10    3   24 1     
   11    4    5 1     
   12    4    6 1     
   13    4   45 1     
   14    5   25 1     
   15    5   26 1     
   16    5   27 1     
   17    6    7 1     
   18    6    8 1     
   19    6   28 1     
   20    7   29 1     
   21    7   30 1     
   22    7   31 1     
   23    8    9 1     
   24    8   32 1     
   25    8   33 1     
   26    9   10 1     
   27    9   34 1     
   28   10   11 1     
   29   10   35 1     
   30   10   44 1     
   31   11   12 1     
   32   11   36 1     
   33   11   37 1     
   34   12   13 1     
   35   12   38 1     
   36   12   39 1     
   37   13   18 ar    
   38   13   14 ar    
   39   14   15 ar    
   40   14   40 1     
   41   15   16 ar    
   42   15   41 1     
   43   16   17 ar    
   44   16   42 1     
   45   17   18 ar    
   46   17   43 1     
   47   18   46 1     
@<TRIPOS>SUBSTRUCTURE
      1 S1             1
@<TRIPOS>SET
LONE_PAIRS      STATIC     ATOMS    <user>   **** ""
1 46
DONOR_HYDROGENS      STATIC     ATOMS    <user>   **** ""
3 45 35 44
ATOM$BLUE        STATIC     ATOMS    COLORGROUP SYSTEM
1 46
ATOM$RED        STATIC     ATOMS    COLORGROUP SYSTEM
3 45 35 44
