AV-unprocessed.smi:259|AV-procd|sdf|1974|dock2
  -GOLD-   2262021143D 1   1.00000     0.00000
 Structure written by MMmdl.
 54 57  0  0  0  0  0  0  0  0  1 V2000
  145.2653  134.7084  151.8274 C   0  0  0  0  0  0  0  0  0  0  0  0
  145.9721  135.9797  151.8560 N   0  0  0  0  0  0  0  0  0  0  0  0
  145.4555  137.1192  152.3383 C   0  0  0  0  0  0  0  0  0  0  0  0
  144.3203  137.1920  152.8094 O   0  0  0  0  0  0  0  0  0  0  0  0
  146.3675  138.3568  152.2899 C   0  0  0  0  0  0  0  0  0  0  0  0
  146.7216  139.0023  153.6586 C   0  0  2  0  0  0  0  0  0  0  0  0
  145.5119  139.2081  154.3692 O   0  0  0  0  0  0  0  0  0  0  0  0
  147.4860  140.3423  153.5023 C   0  0  0  0  0  0  0  0  0  0  0  0
  148.0149  140.8713  154.8444 C   0  0  0  0  0  0  0  0  0  0  0  0
  148.8509  139.8069  155.5653 C   0  0  0  0  0  0  0  0  0  0  0  0
  148.0767  138.5779  155.7225 N   0  0  0  0  0  0  0  0  0  0  0  0
  148.4863  137.6786  156.6524 C   0  0  0  0  0  0  0  0  0  0  0  0
  149.8147  137.4515  156.8368 N   0  0  0  0  0  0  0  0  0  0  0  0
  150.2279  136.5568  157.7391 C   0  0  0  0  0  0  0  0  0  0  0  0
  149.4965  135.7927  158.5525 N   0  0  0  0  0  0  0  0  0  0  0  0
  148.1634  136.0223  158.3802 C   0  0  0  0  0  0  0  0  0  0  0  0
  147.5779  136.9396  157.4625 C   0  0  0  0  0  0  0  0  0  0  0  0
  146.1936  136.9065  157.5821 N   0  0  0  0  0  0  0  0  0  0  0  0
  145.9731  136.0130  158.5067 C   0  0  0  0  0  0  0  0  0  0  0  0
  147.1004  135.4362  159.0467 N   0  0  0  0  0  0  0  0  0  0  0  0
  147.1476  134.4169  160.0840 C   0  0  0  0  0  0  0  0  0  0  0  0
  146.8004  134.9398  161.4903 C   0  0  0  0  0  0  0  0  0  0  0  0
  147.8863  135.9450  161.9246 C   0  0  0  0  0  0  0  0  0  0  0  0
  147.8545  137.1380  161.1665 O   0  0  0  0  0  0  0  0  0  0  0  0
  145.3463  135.3822  161.7093 C   0  0  0  0  0  0  0  0  0  0  0  0
  145.1812  134.4924  162.8353 O   0  0  0  0  0  0  0  0  0  0  0  0
  146.4340  133.8510  162.5092 C   0  0  0  0  0  0  0  0  0  0  0  0
  147.5528  137.9932  154.4869 C   0  0  0  0  0  0  0  0  0  0  0  0
  145.8995  133.9404  151.3849 H   0  0  0  0  0  0  0  0  0  0  0  0
  144.3544  134.7834  151.2320 H   0  0  0  0  0  0  0  0  0  0  0  0
  144.9977  134.3905  152.8359 H   0  0  0  0  0  0  0  0  0  0  0  0
  146.9131  135.9940  151.4898 H   0  0  0  0  0  0  0  0  0  0  0  0
  147.2818  138.0769  151.7647 H   0  0  0  0  0  0  0  0  0  0  0  0
  145.8862  139.1095  151.6632 H   0  0  0  0  0  0  0  0  0  0  0  0
  145.0764  139.9646  154.0054 H   0  0  0  0  0  0  0  0  0  0  0  0
  148.3306  140.1960  152.8277 H   0  0  0  0  0  0  0  0  0  0  0  0
  146.8551  141.1023  153.0407 H   0  0  0  0  0  0  0  0  0  0  0  0
  148.6128  141.7684  154.6831 H   0  0  0  0  0  0  0  0  0  0  0  0
  147.1779  141.1680  155.4776 H   0  0  0  0  0  0  0  0  0  0  0  0
  149.7593  139.5937  154.9999 H   0  0  0  0  0  0  0  0  0  0  0  0
  149.1570  140.1889  156.5403 H   0  0  0  0  0  0  0  0  0  0  0  0
  151.2981  136.4355  157.8203 H   0  0  0  0  0  0  0  0  0  0  0  0
  144.9735  135.7510  158.8211 H   0  0  0  0  0  0  0  0  0  0  0  0
  146.4612  133.6210  159.7924 H   0  0  0  0  0  0  0  0  0  0  0  0
  148.1397  133.9639  160.0794 H   0  0  0  0  0  0  0  0  0  0  0  0
  147.7708  136.2098  162.9760 H   0  0  0  0  0  0  0  0  0  0  0  0
  148.8840  135.5203  161.8122 H   0  0  0  0  0  0  0  0  0  0  0  0
  148.1035  136.9363  160.2773 H   0  0  0  0  0  0  0  0  0  0  0  0
  145.2343  136.4318  161.9836 H   0  0  0  0  0  0  0  0  0  0  0  0
  144.6722  135.1214  160.8930 H   0  0  0  0  0  0  0  0  0  0  0  0
  146.2780  132.8654  162.0679 H   0  0  0  0  0  0  0  0  0  0  0  0
  147.1082  133.7862  163.3638 H   0  0  0  0  0  0  0  0  0  0  0  0
  146.9585  137.1013  154.6825 H   0  0  0  0  0  0  0  0  0  0  0  0
  148.4097  137.6606  153.8994 H   0  0  0  0  0  0  0  0  0  0  0  0
  1  2  1  0  0  0  0
  1 29  1  0  0  0  0
  1 30  1  0  0  0  0
  1 31  1  0  0  0  0
  2  3  1  0  0  0  0
  2 32  1  0  0  0  0
  3  4  2  0  0  0  0
  3  5  1  0  0  0  0
  5  6  1  0  0  0  0
  5 33  1  0  0  0  0
  5 34  1  0  0  0  0
  6 28  1  0  0  0  0
  6  7  1  0  0  0  0
  6  8  1  0  0  0  0
  7 35  1  0  0  0  0
  8  9  1  0  0  0  0
  8 36  1  0  0  0  0
  8 37  1  0  0  0  0
  9 10  1  0  0  0  0
  9 38  1  0  0  0  0
  9 39  1  0  0  0  0
 10 11  1  0  0  0  0
 10 40  1  0  0  0  0
 10 41  1  0  0  0  0
 11 12  1  0  0  0  0
 11 28  1  0  0  0  0
 12 17  1  0  0  0  0
 12 13  2  0  0  0  0
 13 14  1  0  0  0  0
 14 15  2  0  0  0  0
 14 42  1  0  0  0  0
 15 16  1  0  0  0  0
 16 20  1  0  0  0  0
 16 17  2  0  0  0  0
 17 18  1  0  0  0  0
 18 19  2  0  0  0  0
 19 20  1  0  0  0  0
 19 43  1  0  0  0  0
 20 21  1  0  0  0  0
 21 22  1  0  0  0  0
 21 44  1  0  0  0  0
 21 45  1  0  0  0  0
 22 27  1  0  0  0  0
 22 23  1  0  0  0  0
 22 25  1  0  0  0  0
 23 24  1  0  0  0  0
 23 46  1  0  0  0  0
 23 47  1  0  0  0  0
 24 48  1  0  0  0  0
 25 26  1  0  0  0  0
 25 49  1  0  0  0  0
 25 50  1  0  0  0  0
 26 27  1  0  0  0  0
 27 51  1  0  0  0  0
 27 52  1  0  0  0  0
 28 53  1  0  0  0  0
 28 54  1  0  0  0  0
M  END
> <s_m_source_file>
AV-unprocessed.smi

> <i_m_source_file_index>
259

> <i_lp_mmshare_version>
43012

> <i_f3d_flags>
0

> <s_epik_input>
W0NIM11bTkhdQyg9TylbQ0gyXVtDQEBdMShbT0hdKVtDSDJdW0NIMl1bQ0gyXU4oW0NIMl0xKWMobltjSF1uMiljKGMyMyluW2NIXW4zW0NIMl1DNChbQ0gyXVtPSF0pW0NIMl1PW0NIMl00

> <s_epik_cmdline>
J2VwaWtfcHl0aG9uJywgJy1waCcsICc3LjAnLCAnLXRuJywgJzgnLCAnLW1hJywgJzIwMCcsICctbWV0YWxfYmluZGluZycsICctaW1hZScsICc8aW5maWxlLm1hZT4nLCAnLW9tYWUnLCAnPG91dGZpbGUubWFlPic=

> <r_lp_tautomer_probability>
1

> <r_epik_Ionization_Penalty>
0.00366363

> <r_epik_Ionization_Penalty_Charging>
0

> <r_epik_Ionization_Penalty_Neutral>
0.00366363

> <r_epik_State_Penalty>
0.00243014

> <r_epik_Charging_Adjusted_Penalty>
0.00243014

> <i_epik_Tot_Q>
0

> <i_epik_Tot_abs_Q>
0

> <r_epik_Metal_State_Penalty>
-0

> <b_epik_Metal_Only>
0

> <s_lp_Force_Field>
OPLS_2005

> <r_lp_Energy>
39.9433

> <b_lp_Chiralities_Consistent>
1

> <s_lp_Variant>
AV-unprocessed.smi:259-2

> <Gold.Version>
5.8.1

> <Gold.Id.Protein>
6NUR|6NUR_protein|mol2

> <Gold.PLP.Fitness>
46.1468

> <Gold.PLP.PLP>
-32.8701

> <Gold.PLP.part.hbond>
-5.0000

> <Gold.PLP.part.metal>
0.0000

> <Gold.PLP.part.buried>
-5.5680

> <Gold.PLP.part.nonpolar>
-23.7253

> <Gold.PLP.part.repulsive>
0.3059

> <Gold.PLP.ligand.clash>
0.0000

> <Gold.PLP.ligand.torsion>
0.9124

> <Gold.PLP.Chemscore.Hbond>
4.7328

> <Gold.PLP.Chemscore.CHOScore>
0.0000

> <Gold.PLP.Chemscore.Metal>
0.0000

> <Gold.Chemscore.Hbonds>
donor molecule, donor type, donor heavy atom, donor atom, acceptor molecule, acceptor atom, score
      L1  H     2    32       P1  7948  0.95
      L1  H     7    35       P1 10175  0.61
      P1  H  6896  6909       L1    15  1.00
      P1  H  6931  6943       L1    24  1.00
      P1  H  6934  6947       L1    24  0.78

> <Gold.PLP.Chemscore.Internal.Correction>
0.9030

> <Gold.Rescore>
     Score         DG    S(hbond)    S(metal)    S(lipo)     H(rot)  DE(clash)    DE(int)     intcor
     11.90     -15.33       3.58        0.00      71.51       4.09       0.04       3.39       ----

> <Gold.Chemscore.Fitness>
11.9020

> <Gold.Chemscore.DG>
-15.3281

> <Gold.Chemscore.ZeroCoef>
-5.4800

> <Gold.Chemscore.Hbond>
3.5787

> <Gold.Chemscore.Metal>
0.0000

> <Gold.Chemscore.Lipo>
71.5149

> <Gold.Chemscore.Internal_Hbond>
0.0000

> <Gold.Chemscore.DEClash>
0.0363

> <Gold.Chemscore.DEInternal>
3.3899

> <Gold.Chemscore.Rot>
4.0906

> <Gold.Chemscore.Internal.Correction>
   9.000000E+99

> <Gold.Chemscore.Hbonds>
donor molecule, donor type, donor heavy atom, donor atom, acceptor molecule, acceptor atom, score
      L1  H     2    32       P1  7948  0.85
      L1  H     7    35       P1 10175  0.61
      P1  H  6896  6909       L1    15  0.60
      P1  H  6931  6943       L1    24  0.42
      P1  H  6934  6947       L1    24  0.19

> <Gold.Chemscore.Hbond.Weighted>
-11.9528

> <Gold.Chemscore.Metal.Weighted>
-0.0000

> <Gold.Chemscore.Lipo.Weighted>
-8.3672

> <Gold.Chemscore.Internal_Hbond.Weighted>
0.0000

> <Gold.Chemscore.DEClash.Weighted>
0.0363

> <Gold.Chemscore.DEInternal.Weighted>
3.3899

> <Gold.Chemscore.Rot.Weighted>
10.4719

> <Gold.Chemscore.Internal.Correction.Weighted>
   9.000000E+99

> <Gold.Protein.RotatedTorsions>
[ 6907 6896 6895 6894 ] final   60.40 input  -60.11 | X-H torsion
[ 7974 7965 7964 7962 ] final  162.84 input  175.53 | X-H torsion
[ 8008 7997 7996 7995 ] final  -96.27 input   59.86 | X-H torsion
[ 10167 10162 10161 10158 ] final   29.58 input  -65.29 | X-H torsion
[ 10718 10713 10712 10709 ] final -148.87 input   66.30 | X-H torsion
[ 10763 10752 10751 10750 ] final   28.86 input  -60.55 | X-H torsion
[ 11005 11000 10999 10996 ] final  -95.65 input  -57.11 | X-H torsion

> <Gold.Protein.ActiveResidues>
 VAL166  LYS551  ARG553  GLY616  TRP617  ASP618  TYR619  PRO620  LYS621  CYS622 
 ASP623  PHE694  ASN695  SER759  ASP760  ASP761  ALA762  ILE779  LEU786  VAL792 
 PHE793  MET794  SER795  GLU796  ALA797  LYS798  CYS799  TRP800  GLU811  SER814 

> <Gold.Protein.RotatedAtoms>
  152.4000  134.6302  160.0073 H   0  0  0  0  0  0  0  0  0  0  0  0  # atno 6907 bound_to 6896
  151.6510  133.3315  159.3160 H   0  0  0  0  0  0  0  0  0  0  0  0  # atno 6908 bound_to 6896
  150.7902  134.6962  159.6569 H   0  0  0  0  0  0  0  0  0  0  0  0  # atno 6909 bound_to 6896
  144.7618  139.8097  143.6330 H   0  0  0  0  0  0  0  0  0  0  0  0  # atno 7974 bound_to 7965
  154.7722  140.0473  157.1060 H   0  0  0  0  0  0  0  0  0  0  0  0  # atno 8008 bound_to 7997
  154.9806  140.3101  155.4928 H   0  0  0  0  0  0  0  0  0  0  0  0  # atno 8009 bound_to 7997
  156.2923  140.2236  156.4905 H   0  0  0  0  0  0  0  0  0  0  0  0  # atno 8010 bound_to 7997
  140.4753  144.0699  150.6249 H   0  0  0  0  0  0  0  0  0  0  0  0  # atno 10167 bound_to 10162
  156.4258  130.8051  151.2276 H   0  0  0  0  0  0  0  0  0  0  0  0  # atno 10718 bound_to 10713
  153.0465  135.6503  154.0803 H   0  0  0  0  0  0  0  0  0  0  0  0  # atno 10763 bound_to 10752
  154.0499  135.2896  155.3343 H   0  0  0  0  0  0  0  0  0  0  0  0  # atno 10764 bound_to 10752
  154.6726  135.5350  153.8224 H   0  0  0  0  0  0  0  0  0  0  0  0  # atno 10765 bound_to 10752
  141.1435  133.8041  157.0463 H   0  0  0  0  0  0  0  0  0  0  0  0  # atno 11005 bound_to 11000
  146.1687  139.4829  142.9941 LP  0  0  0  0  0  0  0  0  0  0  0  0  # atno 17320 bound_to 7965
  145.6596  141.0243  143.1716 LP  0  0  0  0  0  0  0  0  0  0  0  0  # atno 17321 bound_to 7965
  140.3926  143.2745  152.0043 LP  0  0  0  0  0  0  0  0  0  0  0  0  # atno 17342 bound_to 10162
  139.4824  144.6065  151.7512 LP  0  0  0  0  0  0  0  0  0  0  0  0  # atno 17343 bound_to 10162
  157.7508  131.0214  150.3747 LP  0  0  0  0  0  0  0  0  0  0  0  0  # atno 17370 bound_to 10713
  156.4074  130.3927  149.6916 LP  0  0  0  0  0  0  0  0  0  0  0  0  # atno 17371 bound_to 10713
  140.0660  134.9729  157.1386 LP  0  0  0  0  0  0  0  0  0  0  0  0  # atno 17394 bound_to 11000
  140.3779  134.2319  155.7173 LP  0  0  0  0  0  0  0  0  0  0  0  0  # atno 17395 bound_to 11000

$$$$
