AV-unprocessed.smi:1916|AV-procd|sdf|7766|dock4
  -GOLD-   22720 9513D 1   1.00000     0.00000
 Structure written by MMmdl.
 46 48  0  0  0  0  0  0  0  0  2 V2000
  140.0457  135.3008  153.5147 O   0  0  0  0  0  0  0  0  0  0  0  0
  140.7863  136.2839  153.5394 C   0  0  0  0  0  0  0  0  0  0  0  0
  142.0544  136.2635  153.1029 N   0  0  0  0  0  0  0  0  0  0  0  0
  142.7393  135.0993  152.5477 C   0  0  0  0  0  0  0  0  0  0  0  0
  143.9929  135.4930  151.7460 C   0  0  0  0  0  0  0  0  0  0  0  0
  144.6584  134.3250  151.0387 C   0  0  0  0  0  0  0  0  0  0  0  0
  146.0019  133.9694  151.2870 C   0  0  0  0  0  0  0  0  0  0  0  0
  146.5593  132.8643  150.6104 C   0  0  0  0  0  0  0  0  0  0  0  0
  145.7622  132.1381  149.7015 C   0  0  0  0  0  0  0  0  0  0  0  0
  144.4261  132.5359  149.4916 C   0  0  0  0  0  0  0  0  0  0  0  0
  143.9284  133.5997  150.1597 N   0  3  0  0  0  0  0  0  0  0  0  0
  140.2743  137.6249  154.0894 C   0  0  2  0  0  0  0  0  0  0  0  0
  139.6994  137.4668  155.5076 C   0  0  0  0  0  0  0  0  0  0  0  0
  138.2067  137.6801  155.3239 C   0  0  0  0  0  0  0  0  0  0  0  0
  137.3974  137.4682  156.2257 O   0  0  0  0  0  0  0  0  0  0  0  0
  137.9167  138.0907  154.0810 N   0  0  0  0  0  0  0  0  0  0  0  0
  136.5540  138.2757  153.5517 C   0  0  0  0  0  0  0  0  0  0  0  0
  135.9067  139.6384  153.8664 C   0  0  0  0  0  0  0  0  0  0  0  0
  134.4063  139.3630  153.8431 C   0  0  0  0  0  0  0  0  0  0  0  0
  134.2790  137.9832  154.4836 C   0  0  0  0  0  0  0  0  0  0  0  0
  135.5485  137.2244  154.0764 C   0  0  0  0  0  0  0  0  0  0  0  0
  139.1133  138.2042  153.2531 C   0  0  0  0  0  0  0  0  0  0  0  0
  142.5815  137.1231  153.1512 H   0  0  0  0  0  0  0  0  0  0  0  0
  143.0246  134.3950  153.3308 H   0  0  0  0  0  0  0  0  0  0  0  0
  142.0374  134.5745  151.8987 H   0  0  0  0  0  0  0  0  0  0  0  0
  143.7302  136.2502  151.0057 H   0  0  0  0  0  0  0  0  0  0  0  0
  144.7190  135.9625  152.4107 H   0  0  0  0  0  0  0  0  0  0  0  0
  146.5984  134.5336  151.9896 H   0  0  0  0  0  0  0  0  0  0  0  0
  147.5854  132.5764  150.7879 H   0  0  0  0  0  0  0  0  0  0  0  0
  146.1699  131.2886  149.1733 H   0  0  0  0  0  0  0  0  0  0  0  0
  143.7460  132.0390  148.8153 H   0  0  0  0  0  0  0  0  0  0  0  0
  141.0987  138.3400  154.1061 H   0  0  0  0  0  0  0  0  0  0  0  0
  139.8943  136.4904  155.9551 H   0  0  0  0  0  0  0  0  0  0  0  0
  140.0939  138.2297  156.1793 H   0  0  0  0  0  0  0  0  0  0  0  0
  136.6056  138.1800  152.4656 H   0  0  0  0  0  0  0  0  0  0  0  0
  136.1658  139.9811  154.8684 H   0  0  0  0  0  0  0  0  0  0  0  0
  136.2009  140.4162  153.1610 H   0  0  0  0  0  0  0  0  0  0  0  0
  133.8298  140.1251  154.3681 H   0  0  0  0  0  0  0  0  0  0  0  0
  134.0534  139.3272  152.8115 H   0  0  0  0  0  0  0  0  0  0  0  0
  134.2496  138.0880  155.5690 H   0  0  0  0  0  0  0  0  0  0  0  0
  133.3684  137.4666  154.1786 H   0  0  0  0  0  0  0  0  0  0  0  0
  135.3298  136.4959  153.2947 H   0  0  0  0  0  0  0  0  0  0  0  0
  135.9350  136.6692  154.9322 H   0  0  0  0  0  0  0  0  0  0  0  0
  139.2979  139.2556  153.0293 H   0  0  0  0  0  0  0  0  0  0  0  0
  138.9829  137.6816  152.3039 H   0  0  0  0  0  0  0  0  0  0  0  0
  142.9588  133.8700  149.9918 H   0  0  0  0  0  0  0  0  0  0  0  0
  1  2  2  0  0  0  0
  2  3  1  0  0  0  0
  2 12  1  0  0  0  0
  3  4  1  0  0  0  0
  3 23  1  0  0  0  0
  4  5  1  0  0  0  0
  4 24  1  0  0  0  0
  4 25  1  0  0  0  0
  5  6  1  0  0  0  0
  5 26  1  0  0  0  0
  5 27  1  0  0  0  0
  6 11  1  0  0  0  0
  6  7  2  0  0  0  0
  7  8  1  0  0  0  0
  7 28  1  0  0  0  0
  8  9  2  0  0  0  0
  8 29  1  0  0  0  0
  9 10  1  0  0  0  0
  9 30  1  0  0  0  0
 10 11  2  0  0  0  0
 10 31  1  0  0  0  0
 11 46  1  0  0  0  0
 12 22  1  0  0  0  0
 12 13  1  0  0  0  0
 12 32  1  0  0  0  0
 13 14  1  0  0  0  0
 13 33  1  0  0  0  0
 13 34  1  0  0  0  0
 14 15  2  0  0  0  0
 14 16  1  0  0  0  0
 16 17  1  0  0  0  0
 16 22  1  0  0  0  0
 17 21  1  0  0  0  0
 17 18  1  0  0  0  0
 17 35  1  0  0  0  0
 18 19  1  0  0  0  0
 18 36  1  0  0  0  0
 18 37  1  0  0  0  0
 19 20  1  0  0  0  0
 19 38  1  0  0  0  0
 19 39  1  0  0  0  0
 20 21  1  0  0  0  0
 20 40  1  0  0  0  0
 20 41  1  0  0  0  0
 21 42  1  0  0  0  0
 21 43  1  0  0  0  0
 22 44  1  0  0  0  0
 22 45  1  0  0  0  0
M  CHG  1  11   1
M  END
> <s_m_source_file>
AV-unprocessed.smi

> <i_m_source_file_index>
1916

> <i_lp_mmshare_version>
43012

> <i_f3d_flags>
0

> <s_epik_input>
W0NIMl0xW0NIMl1bQ0gyXVtDSDJdW0NIXTFOKFtDSDJdMilDKD1PKVtDSDJdW0NASF0yQyg9TylbTkhdW0NIMl1bQ0gyXWMzW2NIXVtjSF1bY0hdW2NIXW4z

> <s_epik_cmdline>
J2VwaWtfcHl0aG9uJywgJy1waCcsICc3LjAnLCAnLXRuJywgJzgnLCAnLW1hJywgJzIwMCcsICctbWV0YWxfYmluZGluZycsICctaW1hZScsICc8aW5maWxlLm1hZT4nLCAnLW9tYWUnLCAnPG91dGZpbGUubWFlPic=

> <r_epik_Ionization_Penalty>
1.88249

> <r_epik_Ionization_Penalty_Charging>
1.88249

> <r_epik_Ionization_Penalty_Neutral>
3.64574e-08

> <r_epik_State_Penalty>
2.00238

> <r_epik_Charging_Adjusted_Penalty>
3.88487

> <i_epik_Tot_Q>
1

> <i_epik_Tot_abs_Q>
1

> <r_epik_Metal_State_Penalty>
2.02676

> <b_epik_Metal_Only>
0

> <s_lp_Force_Field>
OPLS_2005

> <r_lp_Energy>
42.8241

> <b_lp_Chiralities_Consistent>
1

> <s_lp_Variant>
AV-unprocessed.smi:1916-3

> <Gold.Version>
5.8.1

> <Gold.Id.Protein>
6NUR|6NUR_protein|mol2

> <Gold.PLP.Fitness>
48.8536

> <Gold.PLP.PLP>
-41.2777

> <Gold.PLP.part.hbond>
-3.0000

> <Gold.PLP.part.metal>
0.0000

> <Gold.PLP.part.buried>
-6.8899

> <Gold.PLP.part.nonpolar>
-32.0782

> <Gold.PLP.part.repulsive>
0.2549

> <Gold.PLP.ligand.clash>
0.0000

> <Gold.PLP.ligand.torsion>
0.7555

> <Gold.PLP.Chemscore.Hbond>
3.0000

> <Gold.PLP.Chemscore.CHOScore>
0.0000

> <Gold.PLP.Chemscore.Metal>
0.0000

> <Gold.Chemscore.Hbonds>
donor molecule, donor type, donor heavy atom, donor atom, acceptor molecule, acceptor atom, score
      L1  H    11    46       P1 10186  1.79

> <Gold.PLP.Chemscore.Internal.Correction>
0.0870

> <Gold.Rescore>
     Score         DG    S(hbond)    S(metal)    S(lipo)     H(rot)  DE(clash)    DE(int)     intcor
     19.33     -19.72       1.98        0.00     102.60       1.72       0.09       0.30       ----

> <Gold.Chemscore.Fitness>
19.3343

> <Gold.Chemscore.DG>
-19.7163

> <Gold.Chemscore.ZeroCoef>
-5.4800

> <Gold.Chemscore.Hbond>
1.9832

> <Gold.Chemscore.Metal>
0.0000

> <Gold.Chemscore.Lipo>
102.6042

> <Gold.Chemscore.Internal_Hbond>
0.0000

> <Gold.Chemscore.DEClash>
0.0853

> <Gold.Chemscore.DEInternal>
0.2967

> <Gold.Chemscore.Rot>
1.7158

> <Gold.Chemscore.Internal.Correction>
   9.000000E+99

> <Gold.Chemscore.Hbonds>
donor molecule, donor type, donor heavy atom, donor atom, acceptor molecule, acceptor atom, score
      L1  H    11    46       P1 10186  0.85
      P1  H 11000 11005       L1     1  0.03

> <Gold.Chemscore.Hbond.Weighted>
-6.6240

> <Gold.Chemscore.Metal.Weighted>
-0.0000

> <Gold.Chemscore.Lipo.Weighted>
-12.0047

> <Gold.Chemscore.Internal_Hbond.Weighted>
0.0000

> <Gold.Chemscore.DEClash.Weighted>
0.0853

> <Gold.Chemscore.DEInternal.Weighted>
0.2967

> <Gold.Chemscore.Rot.Weighted>
4.3924

> <Gold.Chemscore.Internal.Correction.Weighted>
   9.000000E+99

> <Gold.Protein.RotatedTorsions>
[ 6907 6896 6895 6894 ] final  138.67 input  -60.11 | X-H torsion
[ 7974 7965 7964 7962 ] final   16.75 input  175.53 | X-H torsion
[ 8008 7997 7996 7995 ] final -156.72 input   59.86 | X-H torsion
[ 10167 10162 10161 10158 ] final  111.00 input  -65.29 | X-H torsion
[ 10718 10713 10712 10709 ] final -166.38 input   66.30 | X-H torsion
[ 10763 10752 10751 10750 ] final -167.64 input  -60.55 | X-H torsion
[ 11005 11000 10999 10996 ] final   27.50 input  -57.11 | X-H torsion

> <Gold.Protein.ActiveResidues>
 VAL166  LYS551  ARG553  GLY616  TRP617  ASP618  TYR619  PRO620  LYS621  CYS622 
 ASP623  PHE694  ASN695  SER759  ASP760  ASP761  ALA762  ILE779  LEU786  VAL792 
 PHE793  MET794  SER795  GLU796  ALA797  LYS798  CYS799  TRP800  GLU811  SER814 

> <Gold.Protein.RotatedAtoms>
  152.2638  133.5321  159.5397 H   0  0  0  0  0  0  0  0  0  0  0  0  # atno 6907 bound_to 6896
  150.7134  134.0792  159.3901 H   0  0  0  0  0  0  0  0  0  0  0  0  # atno 6908 bound_to 6896
  151.8709  135.0490  160.0530 H   0  0  0  0  0  0  0  0  0  0  0  0  # atno 6909 bound_to 6896
  146.2240  139.8703  142.8589 H   0  0  0  0  0  0  0  0  0  0  0  0  # atno 7974 bound_to 7965
  155.7215  140.0790  157.2328 H   0  0  0  0  0  0  0  0  0  0  0  0  # atno 8008 bound_to 7997
  154.4044  140.1612  156.2462 H   0  0  0  0  0  0  0  0  0  0  0  0  # atno 8009 bound_to 7997
  155.9192  140.3399  155.6162 H   0  0  0  0  0  0  0  0  0  0  0  0  # atno 8010 bound_to 7997
  139.6645  144.7128  151.1803 H   0  0  0  0  0  0  0  0  0  0  0  0  # atno 10167 bound_to 10162
  156.6670  130.9069  151.3038 H   0  0  0  0  0  0  0  0  0  0  0  0  # atno 10718 bound_to 10713
  154.6711  135.2939  154.9740 H   0  0  0  0  0  0  0  0  0  0  0  0  # atno 10763 bound_to 10752
  154.0767  135.6610  153.4836 H   0  0  0  0  0  0  0  0  0  0  0  0  # atno 10764 bound_to 10752
  153.0487  135.5187  154.7708 H   0  0  0  0  0  0  0  0  0  0  0  0  # atno 10765 bound_to 10752
  140.3256  134.2494  155.7710 H   0  0  0  0  0  0  0  0  0  0  0  0  # atno 11005 bound_to 11000
  145.2615  141.0078  143.3823 LP  0  0  0  0  0  0  0  0  0  0  0  0  # atno 17320 bound_to 7965
  144.9295  139.4316  143.6502 LP  0  0  0  0  0  0  0  0  0  0  0  0  # atno 17321 bound_to 7965
  140.7593  143.5942  150.8765 LP  0  0  0  0  0  0  0  0  0  0  0  0  # atno 17342 bound_to 10162
  139.9602  143.6172  152.3004 LP  0  0  0  0  0  0  0  0  0  0  0  0  # atno 17343 bound_to 10162
  157.7090  130.9418  150.1026 LP  0  0  0  0  0  0  0  0  0  0  0  0  # atno 17370 bound_to 10713
  156.1967  130.3658  149.8839 LP  0  0  0  0  0  0  0  0  0  0  0  0  # atno 17371 bound_to 10713
  141.2076  133.7801  157.0110 LP  0  0  0  0  0  0  0  0  0  0  0  0  # atno 17394 bound_to 11000
  140.0904  134.9596  157.1767 LP  0  0  0  0  0  0  0  0  0  0  0  0  # atno 17395 bound_to 11000

$$$$
