AV-unprocessed.smi:283|AV-procd|sdf|2139|dock3
  -GOLD-   2262021463D 1   1.00000     0.00000
 Structure written by MMmdl.
 48 51  0  0  0  0  0  0  0  0  1 V2000
  150.8445  141.8202  157.4390 C   0  0  0  0  0  0  0  0  0  0  0  0
  152.2615  141.8356  158.0405 C   0  0  2  0  0  0  0  0  0  0  0  0
  152.7474  140.4776  158.2834 N   0  0  0  0  0  0  0  0  0  0  0  0
  152.7107  139.5256  157.3247 C   0  0  0  0  0  0  0  0  0  0  0  0
  153.4150  139.6558  156.1701 N   0  0  0  0  0  0  0  0  0  0  0  0
  153.3650  138.6941  155.2438 C   0  0  0  0  0  0  0  0  0  0  0  0
  152.6894  137.5435  155.2723 N   0  0  0  0  0  0  0  0  0  0  0  0
  151.9826  137.4049  156.4321 C   0  0  0  0  0  0  0  0  0  0  0  0
  151.9436  138.3449  157.4993 C   0  0  0  0  0  0  0  0  0  0  0  0
  151.1266  137.8687  158.5168 N   0  0  0  0  0  0  0  0  0  0  0  0
  150.7110  136.7127  158.0734 C   0  0  0  0  0  0  0  0  0  0  0  0
  151.1793  136.3537  156.8291 N   0  0  0  0  0  0  0  0  0  0  0  0
  150.8803  135.0974  156.0724 C   0  0  1  0  0  0  0  0  0  0  0  0
  149.7572  134.4886  156.6192 O   0  0  0  0  0  0  0  0  0  0  0  0
  149.1049  133.7196  155.6142 C   0  0  1  0  0  0  0  0  0  0  0  0
  147.5821  133.8781  155.7745 C   0  0  0  0  0  0  0  0  0  0  0  0
  146.8701  133.0048  154.9228 O   0  0  0  0  0  0  0  0  0  0  0  0
  149.6876  134.1514  154.2508 C   0  0  2  0  0  0  0  0  0  0  0  0
  150.4722  133.0998  153.7207 O   0  0  0  0  0  0  0  0  0  0  0  0
  150.5817  135.3390  154.5859 C   0  0  1  0  0  0  0  0  0  0  0  0
  149.9177  136.5637  154.3329 O   0  0  0  0  0  0  0  0  0  0  0  0
  152.2843  142.7011  159.2997 C   0  0  0  0  0  0  0  0  0  0  0  0
  152.7158  142.1490  160.5291 C   0  0  0  0  0  0  0  0  0  0  0  0
  152.7383  142.9306  161.6996 C   0  0  0  0  0  0  0  0  0  0  0  0
  152.3227  144.2733  161.6564 C   0  0  0  0  0  0  0  0  0  0  0  0
  151.8791  144.8299  160.4428 C   0  0  0  0  0  0  0  0  0  0  0  0
  151.8536  144.0522  159.2676 C   0  0  0  0  0  0  0  0  0  0  0  0
  151.2816  144.7871  157.8104 Cl  0  0  0  0  0  0  0  0  0  0  0  0
  151.7489  134.4551  156.2260 H   0  0  0  0  0  0  0  0  0  0  0  0
  149.3537  132.6758  155.8147 H   0  0  0  0  0  0  0  0  0  0  0  0
  148.9214  134.4013  153.5155 H   0  0  0  0  0  0  0  0  0  0  0  0
  151.5155  135.3425  154.0219 H   0  0  0  0  0  0  0  0  0  0  0  0
  150.5048  142.8318  157.2150 H   0  0  0  0  0  0  0  0  0  0  0  0
  150.1272  141.3752  158.1294 H   0  0  0  0  0  0  0  0  0  0  0  0
  150.8033  141.2526  156.5094 H   0  0  0  0  0  0  0  0  0  0  0  0
  152.9409  142.2890  157.3198 H   0  0  0  0  0  0  0  0  0  0  0  0
  153.0491  140.2870  159.2280 H   0  0  0  0  0  0  0  0  0  0  0  0
  153.9504  138.8709  154.3537 H   0  0  0  0  0  0  0  0  0  0  0  0
  150.0476  136.0828  158.6481 H   0  0  0  0  0  0  0  0  0  0  0  0
  147.2938  133.6513  156.8012 H   0  0  0  0  0  0  0  0  0  0  0  0
  147.2794  134.9068  155.5776 H   0  0  0  0  0  0  0  0  0  0  0  0
  146.9213  132.1309  155.2807 H   0  0  0  0  0  0  0  0  0  0  0  0
  151.3763  133.2578  153.9459 H   0  0  0  0  0  0  0  0  0  0  0  0
  149.4202  136.4744  153.5343 H   0  0  0  0  0  0  0  0  0  0  0  0
  153.0303  141.1174  160.5867 H   0  0  0  0  0  0  0  0  0  0  0  0
  153.0726  142.4983  162.6314 H   0  0  0  0  0  0  0  0  0  0  0  0
  152.3388  144.8741  162.5538 H   0  0  0  0  0  0  0  0  0  0  0  0
  151.5540  145.8596  160.4148 H   0  0  0  0  0  0  0  0  0  0  0  0
  1  2  1  0  0  0  0
  1 33  1  0  0  0  0
  1 34  1  0  0  0  0
  1 35  1  0  0  0  0
  2  3  1  0  0  0  0
  2 22  1  0  0  0  0
  2 36  1  0  0  0  0
  3  4  1  0  0  0  0
  3 37  1  0  0  0  0
  4  9  1  0  0  0  0
  4  5  2  0  0  0  0
  5  6  1  0  0  0  0
  6  7  2  0  0  0  0
  6 38  1  0  0  0  0
  7  8  1  0  0  0  0
  8 12  1  0  0  0  0
  8  9  2  0  0  0  0
  9 10  1  0  0  0  0
 10 11  2  0  0  0  0
 11 12  1  0  0  0  0
 11 39  1  0  0  0  0
 12 13  1  0  0  0  0
 13 29  1  0  0  0  0
 13 20  1  0  0  0  0
 13 14  1  0  0  0  0
 14 15  1  0  0  0  0
 15 30  1  0  0  0  0
 15 16  1  0  0  0  0
 15 18  1  0  0  0  0
 16 17  1  0  0  0  0
 16 40  1  0  0  0  0
 16 41  1  0  0  0  0
 17 42  1  0  0  0  0
 18 31  1  0  0  0  0
 18 19  1  0  0  0  0
 18 20  1  0  0  0  0
 19 43  1  0  0  0  0
 20 32  1  0  0  0  0
 20 21  1  0  0  0  0
 21 44  1  0  0  0  0
 22 27  1  0  0  0  0
 22 23  2  0  0  0  0
 23 24  1  0  0  0  0
 23 45  1  0  0  0  0
 24 25  2  0  0  0  0
 24 46  1  0  0  0  0
 25 26  1  0  0  0  0
 25 47  1  0  0  0  0
 26 27  2  0  0  0  0
 26 48  1  0  0  0  0
 27 28  1  0  0  0  0
M  END
> <s_m_source_file>
AV-unprocessed.smi

> <i_m_source_file_index>
283

> <i_lp_mmshare_version>
43012

> <i_f3d_flags>
0

> <s_epik_input>
Q2xjMVtjSF1bY0hdW2NIXVtjSF1jMVtDQEhdKFtDSDNdKVtOSF1jKG5bY0hdbjIpYyhjMjMpbltjSF1uM1tDQEBIXTRPW0NASF0oW0NIMl1bT0hdKVtDQEBIXShbT0hdKVtDQEhdNFtPSF0=

> <s_epik_cmdline>
J2VwaWtfcHl0aG9uJywgJy1waCcsICc3LjAnLCAnLXRuJywgJzgnLCAnLW1hJywgJzIwMCcsICctbWV0YWxfYmluZGluZycsICctaW1hZScsICc8aW5maWxlLm1hZT4nLCAnLW9tYWUnLCAnPG91dGZpbGUubWFlPic=

> <r_lp_tautomer_probability>
1

> <r_epik_Ionization_Penalty>
0.000266407

> <r_epik_Ionization_Penalty_Charging>
0

> <r_epik_Ionization_Penalty_Neutral>
0.000266407

> <r_epik_State_Penalty>
-0

> <r_epik_Charging_Adjusted_Penalty>
0

> <i_epik_Tot_Q>
0

> <i_epik_Tot_abs_Q>
0

> <r_epik_Metal_State_Penalty>
-0

> <b_epik_Metal_Only>
0

> <s_epik_Chemistry_Notes>
This compound contains an acetal/aminal-like group ( X-CH(R)-Y where X, Y are N, S, or O) that may be acid/base labile, releasing an aldehyde.

> <s_lp_Force_Field>
OPLS_2005

> <r_lp_Energy>
48.6958

> <b_lp_Chiralities_Consistent>
1

> <s_lp_Variant>
AV-unprocessed.smi:283-15

> <Gold.Version>
5.8.1

> <Gold.Id.Protein>
6NUR|6NUR_protein|mol2

> <Gold.PLP.Fitness>
51.8925

> <Gold.PLP.PLP>
-45.2761

> <Gold.PLP.part.hbond>
-2.9040

> <Gold.PLP.part.metal>
0.0000

> <Gold.PLP.part.buried>
-6.8705

> <Gold.PLP.part.nonpolar>
-37.0523

> <Gold.PLP.part.repulsive>
0.1280

> <Gold.PLP.ligand.clash>
0.0000

> <Gold.PLP.ligand.torsion>
1.1230

> <Gold.PLP.Chemscore.Hbond>
2.8800

> <Gold.PLP.Chemscore.CHOScore>
0.0000

> <Gold.PLP.Chemscore.Metal>
0.0000

> <Gold.Chemscore.Hbonds>
donor molecule, donor type, donor heavy atom, donor atom, acceptor molecule, acceptor atom, score
      L1  H    21    44       P1  7948  1.00
      P1  H 10752 10765       L1     7  0.49

> <Gold.PLP.Chemscore.Internal.Correction>
0.2223

> <Gold.Rescore>
     Score         DG    S(hbond)    S(metal)    S(lipo)     H(rot)  DE(clash)    DE(int)     intcor
     14.22     -17.17       2.57        0.00     116.02       4.10       0.18       2.77       ----

> <Gold.Chemscore.Fitness>
14.2221

> <Gold.Chemscore.DG>
-17.1657

> <Gold.Chemscore.ZeroCoef>
-5.4800

> <Gold.Chemscore.Hbond>
2.5746

> <Gold.Chemscore.Metal>
0.0000

> <Gold.Chemscore.Lipo>
116.0201

> <Gold.Chemscore.Internal_Hbond>
0.0000

> <Gold.Chemscore.DEClash>
0.1760

> <Gold.Chemscore.DEInternal>
2.7677

> <Gold.Chemscore.Rot>
4.0968

> <Gold.Chemscore.Internal.Correction>
   9.000000E+99

> <Gold.Chemscore.Hbonds>
donor molecule, donor type, donor heavy atom, donor atom, acceptor molecule, acceptor atom, score
      L1  H    21    44       P1  7948  0.82
      P1  H  7997  8008       L1     5  0.01
      P1  H 10752 10765       L1     7  0.14

> <Gold.Chemscore.Hbond.Weighted>
-8.5993

> <Gold.Chemscore.Metal.Weighted>
-0.0000

> <Gold.Chemscore.Lipo.Weighted>
-13.5744

> <Gold.Chemscore.Internal_Hbond.Weighted>
0.0000

> <Gold.Chemscore.DEClash.Weighted>
0.1760

> <Gold.Chemscore.DEInternal.Weighted>
2.7677

> <Gold.Chemscore.Rot.Weighted>
10.4879

> <Gold.Chemscore.Internal.Correction.Weighted>
   9.000000E+99

> <Gold.Protein.RotatedTorsions>
[ 6907 6896 6895 6894 ] final  179.49 input  -60.11 | X-H torsion
[ 7974 7965 7964 7962 ] final  -67.35 input  175.53 | X-H torsion
[ 8008 7997 7996 7995 ] final  -42.89 input   59.86 | X-H torsion
[ 10167 10162 10161 10158 ] final  -58.27 input  -65.29 | X-H torsion
[ 10718 10713 10712 10709 ] final   67.78 input   66.30 | X-H torsion
[ 10763 10752 10751 10750 ] final -167.67 input  -60.55 | X-H torsion
[ 11005 11000 10999 10996 ] final    0.31 input  -57.11 | X-H torsion

> <Gold.Protein.ActiveResidues>
 VAL166  LYS551  ARG553  GLY616  TRP617  ASP618  TYR619  PRO620  LYS621  CYS622 
 ASP623  PHE694  ASN695  SER759  ASP760  ASP761  ALA762  ILE779  LEU786  VAL792 
 PHE793  MET794  SER795  GLU796  ALA797  LYS798  CYS799  TRP800  GLU811  SER814 

> <Gold.Protein.RotatedAtoms>
  151.6709  133.3314  159.3195 H   0  0  0  0  0  0  0  0  0  0  0  0  # atno 6907 bound_to 6896
  150.7868  134.6864  159.6481 H   0  0  0  0  0  0  0  0  0  0  0  0  # atno 6908 bound_to 6896
  152.3940  134.6399  160.0148 H   0  0  0  0  0  0  0  0  0  0  0  0  # atno 6909 bound_to 6896
  145.7303  140.9000  143.0584 H   0  0  0  0  0  0  0  0  0  0  0  0  # atno 7974 bound_to 7965
  154.3998  140.1462  156.3430 H   0  0  0  0  0  0  0  0  0  0  0  0  # atno 8008 bound_to 7997
  155.8339  140.3464  155.5568 H   0  0  0  0  0  0  0  0  0  0  0  0  # atno 8009 bound_to 7997
  155.8159  140.0891  157.1868 H   0  0  0  0  0  0  0  0  0  0  0  0  # atno 8010 bound_to 7997
  140.6207  143.2418  151.5487 H   0  0  0  0  0  0  0  0  0  0  0  0  # atno 10167 bound_to 10162
  157.6250  130.9339  150.0288 H   0  0  0  0  0  0  0  0  0  0  0  0  # atno 10718 bound_to 10713
  154.6708  135.2939  154.9744 H   0  0  0  0  0  0  0  0  0  0  0  0  # atno 10763 bound_to 10752
  154.0772  135.6609  153.4836 H   0  0  0  0  0  0  0  0  0  0  0  0  # atno 10764 bound_to 10752
  153.0485  135.5189  154.7703 H   0  0  0  0  0  0  0  0  0  0  0  0  # atno 10765 bound_to 10752
  140.6280  133.9601  155.8259 H   0  0  0  0  0  0  0  0  0  0  0  0  # atno 11005 bound_to 11000
  144.6894  139.9321  143.7472 LP  0  0  0  0  0  0  0  0  0  0  0  0  # atno 17320 bound_to 7965
  146.0544  139.3542  143.0620 LP  0  0  0  0  0  0  0  0  0  0  0  0  # atno 17321 bound_to 7965
  139.5436  144.2580  152.1400 LP  0  0  0  0  0  0  0  0  0  0  0  0  # atno 17342 bound_to 10162
  140.1800  144.4854  150.6533 LP  0  0  0  0  0  0  0  0  0  0  0  0  # atno 17343 bound_to 10162
  156.1417  130.3642  149.9572 LP  0  0  0  0  0  0  0  0  0  0  0  0  # atno 17370 bound_to 10713
  156.7611  130.9151  151.3641 LP  0  0  0  0  0  0  0  0  0  0  0  0  # atno 17371 bound_to 10713
  141.0696  134.0226  157.3545 LP  0  0  0  0  0  0  0  0  0  0  0  0  # atno 17394 bound_to 11000
  139.9127  135.0192  156.7758 LP  0  0  0  0  0  0  0  0  0  0  0  0  # atno 17395 bound_to 11000

$$$$
