AV-unprocessed.smi:3149|AV-procd|sdf|12006|dock9
  -GOLD-   2272017413D 1   1.00000     0.00000
 Structure written by MMmdl.
 37 38  0  0  0  0  0  0  0  0  1 V2000
  151.9956  139.2725  156.5225 C   0  0  0  0  0  0  0  0  0  0  0  0
  150.7816  140.1246  156.1008 C   0  0  1  0  0  0  0  0  0  0  0  0
  151.1143  141.5452  156.1716 N   0  0  0  0  0  0  0  0  0  0  0  0
  150.6281  142.2099  157.3856 C   0  0  0  0  0  0  0  0  0  0  0  0
  151.7330  142.3024  158.4405 C   0  0  0  0  0  0  0  0  0  0  0  0
  152.2778  141.2791  158.8539 O   0  0  0  0  0  0  0  0  0  0  0  0
  152.1588  143.5742  158.8341 N   0  0  0  0  0  0  0  0  0  0  0  0
  151.2584  144.7157  158.7855 C   0  0  0  0  0  0  0  0  0  0  0  0
  152.0843  145.2766  159.9481 C   0  0  0  0  0  0  0  0  0  0  0  0
  152.6004  143.8551  160.1923 C   0  0  0  0  0  0  0  0  0  0  0  0
  150.2765  139.7720  154.6747 C   0  0  1  0  0  0  0  0  0  0  0  0
  150.2858  138.2575  154.3856 C   0  0  0  0  0  0  0  0  0  0  0  0
  148.9933  140.3883  154.3432 N   0  0  0  0  0  0  0  0  0  0  0  0
  148.6367  141.7172  154.4532 C   0  0  0  0  0  0  0  0  0  0  0  0
  147.3347  141.8289  154.0577 C   0  0  0  0  0  0  0  0  0  0  0  0
  146.9683  140.4960  153.7243 C   0  0  0  0  0  0  0  0  0  0  0  0
  147.9585  139.6373  153.9001 N   0  0  0  0  0  0  0  0  0  0  0  0
  151.7938  138.2113  156.3749 H   0  0  0  0  0  0  0  0  0  0  0  0
  152.2368  139.4041  157.5769 H   0  0  0  0  0  0  0  0  0  0  0  0
  152.8862  139.5229  155.9452 H   0  0  0  0  0  0  0  0  0  0  0  0
  149.9611  139.9244  156.7917 H   0  0  0  0  0  0  0  0  0  0  0  0
  152.1081  141.6722  156.0411 H   0  0  0  0  0  0  0  0  0  0  0  0
  150.2566  143.2080  157.1499 H   0  0  0  0  0  0  0  0  0  0  0  0
  149.7948  141.6506  157.8106 H   0  0  0  0  0  0  0  0  0  0  0  0
  151.3209  145.2915  157.8617 H   0  0  0  0  0  0  0  0  0  0  0  0
  150.2307  144.4738  159.0647 H   0  0  0  0  0  0  0  0  0  0  0  0
  152.8635  145.9713  159.6297 H   0  0  0  0  0  0  0  0  0  0  0  0
  151.4881  145.6829  160.7658 H   0  0  0  0  0  0  0  0  0  0  0  0
  152.0349  143.3241  160.9601 H   0  0  0  0  0  0  0  0  0  0  0  0
  153.6790  143.7807  160.3344 H   0  0  0  0  0  0  0  0  0  0  0  0
  150.9992  140.2051  153.9813 H   0  0  0  0  0  0  0  0  0  0  0  0
  151.2776  137.8352  154.5495 H   0  0  0  0  0  0  0  0  0  0  0  0
  150.0107  138.0568  153.3499 H   0  0  0  0  0  0  0  0  0  0  0  0
  149.5881  137.7137  155.0230 H   0  0  0  0  0  0  0  0  0  0  0  0
  149.3325  142.4659  154.8026 H   0  0  0  0  0  0  0  0  0  0  0  0
  146.7344  142.7255  154.0162 H   0  0  0  0  0  0  0  0  0  0  0  0
  146.0182  140.1287  153.3652 H   0  0  0  0  0  0  0  0  0  0  0  0
  1  2  1  0  0  0  0
  1 18  1  0  0  0  0
  1 19  1  0  0  0  0
  1 20  1  0  0  0  0
  2  3  1  0  0  0  0
  2 11  1  0  0  0  0
  2 21  1  0  0  0  0
  3  4  1  0  0  0  0
  3 22  1  0  0  0  0
  4  5  1  0  0  0  0
  4 23  1  0  0  0  0
  4 24  1  0  0  0  0
  5  6  2  0  0  0  0
  5  7  1  0  0  0  0
  7 10  1  0  0  0  0
  7  8  1  0  0  0  0
  8  9  1  0  0  0  0
  8 25  1  0  0  0  0
  8 26  1  0  0  0  0
  9 10  1  0  0  0  0
  9 27  1  0  0  0  0
  9 28  1  0  0  0  0
 10 29  1  0  0  0  0
 10 30  1  0  0  0  0
 11 12  1  0  0  0  0
 11 13  1  0  0  0  0
 11 31  1  0  0  0  0
 12 32  1  0  0  0  0
 12 33  1  0  0  0  0
 12 34  1  0  0  0  0
 13 17  1  0  0  0  0
 13 14  1  0  0  0  0
 14 15  2  0  0  0  0
 14 35  1  0  0  0  0
 15 16  1  0  0  0  0
 15 36  1  0  0  0  0
 16 17  2  0  0  0  0
 16 37  1  0  0  0  0
M  END
> <s_m_source_file>
AV-unprocessed.smi

> <i_m_source_file_index>
3149

> <i_lp_mmshare_version>
43012

> <i_f3d_flags>
0

> <s_epik_input>
bjFbY0hdW2NIXVtjSF1uMVtDQEBIXShbQ0gzXSlbQ0BIXShbQ0gzXSlbTkhdW0NIMl1DKD1PKU4yW0NIMl1bQ0gyXVtDSDJdMg==

> <s_epik_cmdline>
J2VwaWtfcHl0aG9uJywgJy1waCcsICc3LjAnLCAnLXRuJywgJzgnLCAnLW1hJywgJzIwMCcsICctbWV0YWxfYmluZGluZycsICctaW1hZScsICc8aW5maWxlLm1hZT4nLCAnLW9tYWUnLCAnPG91dGZpbGUubWFlPic=

> <r_lp_tautomer_probability>
1

> <r_epik_Ionization_Penalty>
0.918674

> <r_epik_Ionization_Penalty_Charging>
0

> <r_epik_Ionization_Penalty_Neutral>
0.918674

> <r_epik_State_Penalty>
0.958258

> <r_epik_Charging_Adjusted_Penalty>
0.958258

> <i_epik_Tot_Q>
0

> <i_epik_Tot_abs_Q>
0

> <r_epik_Metal_State_Penalty>
0.956881

> <b_epik_Metal_Only>
0

> <s_lp_Force_Field>
OPLS_2005

> <r_lp_Energy>
24.8849

> <b_lp_Chiralities_Consistent>
1

> <s_lp_Variant>
AV-unprocessed.smi:3149-8

> <Gold.Version>
5.8.1

> <Gold.Id.Protein>
6NUR|6NUR_protein|mol2

> <Gold.PLP.Fitness>
44.2460

> <Gold.PLP.PLP>
-40.2944

> <Gold.PLP.part.hbond>
0.0000

> <Gold.PLP.part.metal>
0.0000

> <Gold.PLP.part.buried>
-2.9600

> <Gold.PLP.part.nonpolar>
-37.9746

> <Gold.PLP.part.repulsive>
0.1635

> <Gold.PLP.ligand.clash>
0.0000

> <Gold.PLP.ligand.torsion>
1.5212

> <Gold.PLP.Chemscore.Hbond>
0.0000

> <Gold.PLP.Chemscore.CHOScore>
2.0000

> <Gold.PLP.Chemscore.Metal>
0.0000

> <Gold.Chemscore.Hbonds>
donor molecule, donor type, donor heavy atom, donor atom, acceptor molecule, acceptor atom, score
      L1  C    14    35       P1  8028  0.98
      L1  C    16    37       P1 10175  1.00

> <Gold.PLP.Chemscore.Internal.Correction>
0.9941

> <Gold.Rescore>
     Score         DG    S(hbond)    S(metal)    S(lipo)     H(rot)  DE(clash)    DE(int)     intcor
     10.06     -11.71       0.00        0.00      92.37       1.79       0.02       1.63       ----

> <Gold.Chemscore.Fitness>
10.0631

> <Gold.Chemscore.DG>
-11.7117

> <Gold.Chemscore.ZeroCoef>
-5.4800

> <Gold.Chemscore.Hbond>
0.0000

> <Gold.Chemscore.Metal>
0.0000

> <Gold.Chemscore.Lipo>
92.3723

> <Gold.Chemscore.Internal_Hbond>
0.0000

> <Gold.Chemscore.DEClash>
0.0181

> <Gold.Chemscore.DEInternal>
1.6305

> <Gold.Chemscore.Rot>
1.7874

> <Gold.Chemscore.Internal.Correction>
   9.000000E+99

> <Gold.Chemscore.Hbond.Weighted>
-0.0000

> <Gold.Chemscore.Metal.Weighted>
-0.0000

> <Gold.Chemscore.Lipo.Weighted>
-10.8076

> <Gold.Chemscore.Internal_Hbond.Weighted>
0.0000

> <Gold.Chemscore.DEClash.Weighted>
0.0181

> <Gold.Chemscore.DEInternal.Weighted>
1.6305

> <Gold.Chemscore.Rot.Weighted>
4.5758

> <Gold.Chemscore.Internal.Correction.Weighted>
   9.000000E+99

> <Gold.Protein.RotatedTorsions>
[ 6907 6896 6895 6894 ] final  -53.71 input  -60.11 | X-H torsion
[ 7974 7965 7964 7962 ] final  -14.94 input  175.53 | X-H torsion
[ 8008 7997 7996 7995 ] final   91.69 input   59.86 | X-H torsion
[ 10167 10162 10161 10158 ] final -124.72 input  -65.29 | X-H torsion
[ 10718 10713 10712 10709 ] final  -84.40 input   66.30 | X-H torsion
[ 10763 10752 10751 10750 ] final -159.50 input  -60.55 | X-H torsion
[ 11005 11000 10999 10996 ] final  112.84 input  -57.11 | X-H torsion

> <Gold.Protein.ActiveResidues>
 VAL166  LYS551  ARG553  GLY616  TRP617  ASP618  TYR619  PRO620  LYS621  CYS622 
 ASP623  PHE694  ASN695  SER759  ASP760  ASP761  ALA762  ILE779  LEU786  VAL792 
 PHE793  MET794  SER795  GLU796  ALA797  LYS798  CYS799  TRP800  GLU811  SER814 

> <Gold.Protein.RotatedAtoms>
  150.8403  134.7692  159.6926 H   0  0  0  0  0  0  0  0  0  0  0  0  # atno 6907 bound_to 6896
  152.4491  134.5428  159.9854 H   0  0  0  0  0  0  0  0  0  0  0  0  # atno 6908 bound_to 6896
  151.5569  133.3371  159.2999 H   0  0  0  0  0  0  0  0  0  0  0  0  # atno 6909 bound_to 6896
  146.2053  140.3420  142.8409 H   0  0  0  0  0  0  0  0  0  0  0  0  # atno 7974 bound_to 7965
  156.0267  140.3334  155.7096 H   0  0  0  0  0  0  0  0  0  0  0  0  # atno 8008 bound_to 7997
  155.5944  140.0649  157.2767 H   0  0  0  0  0  0  0  0  0  0  0  0  # atno 8009 bound_to 7997
  154.4337  140.1821  156.1096 H   0  0  0  0  0  0  0  0  0  0  0  0  # atno 8010 bound_to 7997
  139.9898  143.5653  152.2346 H   0  0  0  0  0  0  0  0  0  0  0  0  # atno 10167 bound_to 10162
  156.0007  130.4696  150.4403 H   0  0  0  0  0  0  0  0  0  0  0  0  # atno 10718 bound_to 10713
  154.7469  135.3082  154.8628 H   0  0  0  0  0  0  0  0  0  0  0  0  # atno 10763 bound_to 10752
  153.9426  135.6773  153.4748 H   0  0  0  0  0  0  0  0  0  0  0  0  # atno 10764 bound_to 10752
  153.1066  135.4886  154.8888 H   0  0  0  0  0  0  0  0  0  0  0  0  # atno 10765 bound_to 10752
  139.8937  134.9538  156.6647 H   0  0  0  0  0  0  0  0  0  0  0  0  # atno 11005 bound_to 11000
  144.8779  140.7360  143.6005 LP  0  0  0  0  0  0  0  0  0  0  0  0  # atno 17320 bound_to 7965
  145.3340  139.1751  143.4521 LP  0  0  0  0  0  0  0  0  0  0  0  0  # atno 17321 bound_to 7965
  139.6348  144.7648  151.2460 LP  0  0  0  0  0  0  0  0  0  0  0  0  # atno 17342 bound_to 10162
  140.7459  143.6417  150.8329 LP  0  0  0  0  0  0  0  0  0  0  0  0  # atno 17343 bound_to 10162
  157.2445  131.0533  151.2416 LP  0  0  0  0  0  0  0  0  0  0  0  0  # atno 17370 bound_to 10713
  157.3588  130.7120  149.6488 LP  0  0  0  0  0  0  0  0  0  0  0  0  # atno 17371 bound_to 10713
  140.7420  133.8970  155.8284 LP  0  0  0  0  0  0  0  0  0  0  0  0  # atno 17394 bound_to 11000
  141.0070  134.1072  157.4260 LP  0  0  0  0  0  0  0  0  0  0  0  0  # atno 17395 bound_to 11000

$$$$
