AV-unprocessed.smi:1219|AV-procd|sdf|5113|dock7
  -GOLD-   22720 4173D 1   1.00000     0.00000
 Structure written by MMmdl.
 43 44  0  0  0  0  0  0  0  0  2 V2000
  144.4574  136.8481  151.7439 O   0  0  0  0  0  0  0  0  0  0  0  0
  145.6541  136.5599  151.7668 C   0  0  0  0  0  0  0  0  0  0  0  0
  146.6267  137.4611  151.9686 N   0  0  0  0  0  0  0  0  0  0  0  0
  146.4227  138.8907  152.1875 C   0  0  0  0  0  0  0  0  0  0  0  0
  147.2678  139.4522  153.3516 C   0  0  1  0  0  0  0  0  0  0  0  0
  148.5764  138.9335  153.2275 O   0  0  0  0  0  0  0  0  0  0  0  0
  147.3512  140.9943  153.3694 C   0  0  0  0  0  0  0  0  0  0  0  0
  146.1116  141.6127  153.9045 N   0  3  0  0  0  0  0  0  0  0  0  0
  145.7520  141.0950  155.2500 C   0  0  0  0  0  0  0  0  0  0  0  0
  144.3911  141.6452  155.7108 C   0  0  0  0  0  0  0  0  0  0  0  0
  144.3813  143.1795  155.6941 C   0  0  0  0  0  0  0  0  0  0  0  0
  144.7924  143.6914  154.3074 C   0  0  0  0  0  0  0  0  0  0  0  0
  146.1469  143.1004  153.8831 C   0  0  0  0  0  0  0  0  0  0  0  0
  146.1612  135.3272  151.5925 N   0  0  0  0  0  0  0  0  0  0  0  0
  145.4642  134.1274  151.2898 C   0  0  0  0  0  0  0  0  0  0  0  0
  146.2767  132.9778  151.1652 C   0  0  0  0  0  0  0  0  0  0  0  0
  145.6817  131.7385  150.8591 C   0  0  0  0  0  0  0  0  0  0  0  0
  144.2876  131.6812  150.6836 C   0  0  0  0  0  0  0  0  0  0  0  0
  143.5518  132.8723  150.8242 C   0  0  0  0  0  0  0  0  0  0  0  0
  144.1203  134.0611  151.1170 N   0  0  0  0  0  0  0  0  0  0  0  0
  147.5812  137.1325  151.9813 H   0  0  0  0  0  0  0  0  0  0  0  0
  146.6457  139.4276  151.2639 H   0  0  0  0  0  0  0  0  0  0  0  0
  145.3619  139.0470  152.3867 H   0  0  0  0  0  0  0  0  0  0  0  0
  146.8628  139.0801  154.2914 H   0  0  0  0  0  0  0  0  0  0  0  0
  148.9966  139.3423  152.4858 H   0  0  0  0  0  0  0  0  0  0  0  0
  148.2137  141.2898  153.9691 H   0  0  0  0  0  0  0  0  0  0  0  0
  147.5321  141.3935  152.3706 H   0  0  0  0  0  0  0  0  0  0  0  0
  145.7047  140.0055  155.2249 H   0  0  0  0  0  0  0  0  0  0  0  0
  146.5311  141.3635  155.9654 H   0  0  0  0  0  0  0  0  0  0  0  0
  143.6037  141.2672  155.0573 H   0  0  0  0  0  0  0  0  0  0  0  0
  144.1616  141.2823  156.7131 H   0  0  0  0  0  0  0  0  0  0  0  0
  143.3914  143.5541  155.9565 H   0  0  0  0  0  0  0  0  0  0  0  0
  145.0709  143.5619  156.4478 H   0  0  0  0  0  0  0  0  0  0  0  0
  144.0299  143.4229  153.5749 H   0  0  0  0  0  0  0  0  0  0  0  0
  144.8461  144.7805  154.3131 H   0  0  0  0  0  0  0  0  0  0  0  0
  146.9338  143.4561  154.5502 H   0  0  0  0  0  0  0  0  0  0  0  0
  146.3958  143.4637  152.8865 H   0  0  0  0  0  0  0  0  0  0  0  0
  147.1638  135.2380  151.6681 H   0  0  0  0  0  0  0  0  0  0  0  0
  147.3466  133.0394  151.3028 H   0  0  0  0  0  0  0  0  0  0  0  0
  146.2851  130.8484  150.7600 H   0  0  0  0  0  0  0  0  0  0  0  0
  143.7951  130.7495  150.4475 H   0  0  0  0  0  0  0  0  0  0  0  0
  142.4795  132.8720  150.6970 H   0  0  0  0  0  0  0  0  0  0  0  0
  145.3662  141.3253  153.2858 H   0  0  0  0  0  0  0  0  0  0  0  0
  1  2  2  0  0  0  0
  2  3  1  0  0  0  0
  2 14  1  0  0  0  0
  3  4  1  0  0  0  0
  3 21  1  0  0  0  0
  4  5  1  0  0  0  0
  4 22  1  0  0  0  0
  4 23  1  0  0  0  0
  5  6  1  0  0  0  0
  5  7  1  0  0  0  0
  5 24  1  0  0  0  0
  6 25  1  0  0  0  0
  7  8  1  0  0  0  0
  7 26  1  0  0  0  0
  7 27  1  0  0  0  0
  8 13  1  0  0  0  0
  8  9  1  0  0  0  0
  8 43  1  0  0  0  0
  9 10  1  0  0  0  0
  9 28  1  0  0  0  0
  9 29  1  0  0  0  0
 10 11  1  0  0  0  0
 10 30  1  0  0  0  0
 10 31  1  0  0  0  0
 11 12  1  0  0  0  0
 11 32  1  0  0  0  0
 11 33  1  0  0  0  0
 12 13  1  0  0  0  0
 12 34  1  0  0  0  0
 12 35  1  0  0  0  0
 13 36  1  0  0  0  0
 13 37  1  0  0  0  0
 14 15  1  0  0  0  0
 14 38  1  0  0  0  0
 15 20  1  0  0  0  0
 15 16  2  0  0  0  0
 16 17  1  0  0  0  0
 16 39  1  0  0  0  0
 17 18  2  0  0  0  0
 17 40  1  0  0  0  0
 18 19  1  0  0  0  0
 18 41  1  0  0  0  0
 19 20  2  0  0  0  0
 19 42  1  0  0  0  0
M  CHG  1   8   1
M  END
> <s_m_source_file>
AV-unprocessed.smi

> <i_m_source_file_index>
1219

> <i_lp_mmshare_version>
43012

> <i_f3d_flags>
0

> <s_epik_input>
bjFbY0hdW2NIXVtjSF1bY0hdYzFbTkhdQyg9TylbTkhdW0NIMl1bQ0BIXShbT0hdKVtDSDJdTjJbQ0gyXVtDSDJdW0NIMl1bQ0gyXVtDSDJdMg==

> <s_epik_cmdline>
J2VwaWtfcHl0aG9uJywgJy1waCcsICc3LjAnLCAnLXRuJywgJzgnLCAnLW1hJywgJzIwMCcsICctbWV0YWxfYmluZGluZycsICctaW1hZScsICc8aW5maWxlLm1hZT4nLCAnLW9tYWUnLCAnPG91dGZpbGUubWFlPic=

> <r_epik_Ionization_Penalty>
0.00510026

> <r_epik_Ionization_Penalty_Charging>
0.00506051

> <r_epik_Ionization_Penalty_Neutral>
3.97538e-05

> <r_epik_State_Penalty>
0.00368188

> <r_epik_Charging_Adjusted_Penalty>
0.0087424

> <i_epik_Tot_Q>
1

> <i_epik_Tot_abs_Q>
1

> <r_epik_Metal_State_Penalty>
-0

> <b_epik_Metal_Only>
0

> <s_lp_Force_Field>
OPLS_2005

> <r_lp_Energy>
19.3775

> <b_lp_Chiralities_Consistent>
1

> <s_lp_Variant>
AV-unprocessed.smi:1219-2

> <Gold.Version>
5.8.1

> <Gold.Id.Protein>
6NUR|6NUR_protein|mol2

> <Gold.PLP.Fitness>
54.0335

> <Gold.PLP.PLP>
-36.8166

> <Gold.PLP.part.hbond>
-4.8920

> <Gold.PLP.part.metal>
0.0000

> <Gold.PLP.part.buried>
-7.3935

> <Gold.PLP.part.nonpolar>
-29.8695

> <Gold.PLP.part.repulsive>
3.0116

> <Gold.PLP.ligand.clash>
0.0000

> <Gold.PLP.ligand.torsion>
0.3568

> <Gold.PLP.Chemscore.Hbond>
4.9600

> <Gold.PLP.Chemscore.CHOScore>
1.0000

> <Gold.PLP.Chemscore.Metal>
0.0000

> <Gold.Chemscore.Hbonds>
donor molecule, donor type, donor heavy atom, donor atom, acceptor molecule, acceptor atom, score
      L1  H     3    21       P1  7948  1.00
      L1  H     6    25       P1  7957  1.00
      L1  H     8    43       P1 10175  1.69
      L1  H    14    38       P1  7948  0.94
      L1  C    19    42       P1 10186  1.00

> <Gold.PLP.Chemscore.Internal.Correction>
0.0504

> <Gold.Rescore>
     Score         DG    S(hbond)    S(metal)    S(lipo)     H(rot)  DE(clash)    DE(int)     intcor
     17.41     -20.55       3.64        0.00      77.67       2.41       1.46       1.69       ----

> <Gold.Chemscore.Fitness>
17.4076

> <Gold.Chemscore.DG>
-20.5527

> <Gold.Chemscore.ZeroCoef>
-5.4800

> <Gold.Chemscore.Hbond>
3.6365

> <Gold.Chemscore.Metal>
0.0000

> <Gold.Chemscore.Lipo>
77.6741

> <Gold.Chemscore.Internal_Hbond>
0.0000

> <Gold.Chemscore.DEClash>
1.4559

> <Gold.Chemscore.DEInternal>
1.6891

> <Gold.Chemscore.Rot>
2.4067

> <Gold.Chemscore.Internal.Correction>
   9.000000E+99

> <Gold.Chemscore.Hbonds>
donor molecule, donor type, donor heavy atom, donor atom, acceptor molecule, acceptor atom, score
      L1  H     3    21       P1  7948  0.99
      L1  H     6    25       P1  7957  0.99
      L1  H     8    43       P1 10175  0.14
      L1  H    14    38       P1  7948  0.83

> <Gold.Chemscore.Hbond.Weighted>
-12.1460

> <Gold.Chemscore.Metal.Weighted>
-0.0000

> <Gold.Chemscore.Lipo.Weighted>
-9.0879

> <Gold.Chemscore.Internal_Hbond.Weighted>
0.0000

> <Gold.Chemscore.DEClash.Weighted>
1.4559

> <Gold.Chemscore.DEInternal.Weighted>
1.6891

> <Gold.Chemscore.Rot.Weighted>
6.1612

> <Gold.Chemscore.Internal.Correction.Weighted>
   9.000000E+99

> <Gold.Protein.RotatedTorsions>
[ 6907 6896 6895 6894 ] final -128.98 input  -60.11 | X-H torsion
[ 7974 7965 7964 7962 ] final  -21.49 input  175.53 | X-H torsion
[ 8008 7997 7996 7995 ] final  146.70 input   59.86 | X-H torsion
[ 10167 10162 10161 10158 ] final   32.23 input  -65.29 | X-H torsion
[ 10718 10713 10712 10709 ] final   70.57 input   66.30 | X-H torsion
[ 10763 10752 10751 10750 ] final  167.73 input  -60.55 | X-H torsion
[ 11005 11000 10999 10996 ] final -124.11 input  -57.11 | X-H torsion

> <Gold.Protein.ActiveResidues>
 VAL166  LYS551  ARG553  GLY616  TRP617  ASP618  TYR619  PRO620  LYS621  CYS622 
 ASP623  PHE694  ASN695  SER759  ASP760  ASP761  ALA762  ILE779  LEU786  VAL792 
 PHE793  MET794  SER795  GLU796  ALA797  LYS798  CYS799  TRP800  GLU811  SER814 

> <Gold.Protein.RotatedAtoms>
  150.9238  133.6849  159.2825 H   0  0  0  0  0  0  0  0  0  0  0  0  # atno 6907 bound_to 6896
  151.4294  135.1006  159.9647 H   0  0  0  0  0  0  0  0  0  0  0  0  # atno 6908 bound_to 6896
  152.4992  133.8671  159.7335 H   0  0  0  0  0  0  0  0  0  0  0  0  # atno 6909 bound_to 6896
  146.1730  140.4349  142.8525 H   0  0  0  0  0  0  0  0  0  0  0  0  # atno 7974 bound_to 7965
  156.2847  140.2175  156.5419 H   0  0  0  0  0  0  0  0  0  0  0  0  # atno 8008 bound_to 7997
  154.7363  140.0491  157.0793 H   0  0  0  0  0  0  0  0  0  0  0  0  # atno 8009 bound_to 7997
  155.0289  140.3132  155.4769 H   0  0  0  0  0  0  0  0  0  0  0  0  # atno 8010 bound_to 7997
  140.4517  144.1038  150.6193 H   0  0  0  0  0  0  0  0  0  0  0  0  # atno 10167 bound_to 10162
  157.6407  130.9484  150.0669 H   0  0  0  0  0  0  0  0  0  0  0  0  # atno 10718 bound_to 10713
  154.3582  135.2753  155.2334 H   0  0  0  0  0  0  0  0  0  0  0  0  # atno 10763 bound_to 10752
  154.4534  135.5925  153.6210 H   0  0  0  0  0  0  0  0  0  0  0  0  # atno 10764 bound_to 10752
  152.9845  135.6047  154.3800 H   0  0  0  0  0  0  0  0  0  0  0  0  # atno 10765 bound_to 10752
  140.9867  134.0597  157.3703 H   0  0  0  0  0  0  0  0  0  0  0  0  # atno 11005 bound_to 11000
  144.8192  140.6520  143.6364 LP  0  0  0  0  0  0  0  0  0  0  0  0  # atno 17320 bound_to 7965
  145.4289  139.1552  143.4033 LP  0  0  0  0  0  0  0  0  0  0  0  0  # atno 17321 bound_to 7965
  140.4199  143.2616  151.9728 LP  0  0  0  0  0  0  0  0  0  0  0  0  # atno 17342 bound_to 10162
  139.4797  144.5840  151.7885 LP  0  0  0  0  0  0  0  0  0  0  0  0  # atno 17343 bound_to 10162
  156.1685  130.3646  149.9198 LP  0  0  0  0  0  0  0  0  0  0  0  0  # atno 17370 bound_to 10713
  156.7179  130.8995  151.3615 LP  0  0  0  0  0  0  0  0  0  0  0  0  # atno 17371 bound_to 10713
  139.8973  135.0150  156.7096 LP  0  0  0  0  0  0  0  0  0  0  0  0  # atno 17394 bound_to 11000
  140.7104  133.9228  155.8081 LP  0  0  0  0  0  0  0  0  0  0  0  0  # atno 17395 bound_to 11000

$$$$
