AV-unprocessed.smi:2973|AV-procd|sdf|11345|dock8
  -GOLD-   2272016263D 1   1.00000     0.00000
 Structure written by MMmdl.
 48 50  0  0  0  0  0  0  0  0  2 V2000
  147.3298  133.0300  159.7824 C   0  0  0  0  0  0  0  0  0  0  0  0
  147.7808  134.1015  160.8004 C   0  0  2  0  0  0  0  0  0  0  0  0
  146.8705  134.0569  162.0483 C   0  0  0  0  0  0  0  0  0  0  0  0
  147.3204  135.0553  163.1250 C   0  0  0  0  0  0  0  0  0  0  0  0
  147.3821  136.4830  162.5680 C   0  0  0  0  0  0  0  0  0  0  0  0
  148.2974  136.5524  161.3336 C   0  0  0  0  0  0  0  0  0  0  0  0
  147.9062  135.5487  160.2156 C   0  0  1  0  0  0  0  0  0  0  0  0
  148.9288  135.5896  159.1846 N   0  5  0  0  0  0  0  0  0  0  0  0
  148.3729  136.0077  158.0240 C   0  0  0  0  0  0  0  0  0  0  0  0
  148.9459  136.1518  156.9446 O   0  0  0  0  0  0  0  0  0  0  0  0
  147.0599  136.2598  158.1803 N   0  0  0  0  0  0  0  0  0  0  0  0
  146.1569  136.7017  157.1093 C   0  0  0  0  0  0  0  0  0  0  0  0
  145.6135  135.5444  156.2595 C   0  0  0  0  0  0  0  0  0  0  0  0
  144.8732  134.6901  156.7489 O   0  0  0  0  0  0  0  0  0  0  0  0
  145.9798  135.5451  154.9692 N   0  0  0  0  0  0  0  0  0  0  0  0
  145.5868  134.5439  153.9847 C   0  0  0  0  0  0  0  0  0  0  0  0
  146.0083  134.9484  152.5624 C   0  0  0  0  0  0  0  0  0  0  0  0
  145.5507  133.9431  151.5222 C   0  0  0  0  0  0  0  0  0  0  0  0
  144.1762  133.7053  151.3066 C   0  0  0  0  0  0  0  0  0  0  0  0
  143.8035  132.7700  150.3218 C   0  0  0  0  0  0  0  0  0  0  0  0
  144.8136  132.1133  149.5927 C   0  0  0  0  0  0  0  0  0  0  0  0
  146.1576  132.4227  149.8821 C   0  0  0  0  0  0  0  0  0  0  0  0
  146.5257  133.3174  150.8243 N   0  0  0  0  0  0  0  0  0  0  0  0
  146.6770  136.0163  159.4383 C   0  0  0  0  0  0  0  0  0  0  0  0
  145.5432  136.1321  159.9058 O   0  0  0  0  0  0  0  0  0  0  0  0
  146.3156  133.2097  159.4249 H   0  0  0  0  0  0  0  0  0  0  0  0
  147.3433  132.0376  160.2330 H   0  0  0  0  0  0  0  0  0  0  0  0
  147.9877  132.9964  158.9140 H   0  0  0  0  0  0  0  0  0  0  0  0
  148.7775  133.8057  161.1329 H   0  0  0  0  0  0  0  0  0  0  0  0
  145.8361  134.2603  161.7703 H   0  0  0  0  0  0  0  0  0  0  0  0
  146.8753  133.0519  162.4715 H   0  0  0  0  0  0  0  0  0  0  0  0
  146.6390  135.0175  163.9751 H   0  0  0  0  0  0  0  0  0  0  0  0
  148.3026  134.7675  163.5021 H   0  0  0  0  0  0  0  0  0  0  0  0
  146.3787  136.8261  162.3167 H   0  0  0  0  0  0  0  0  0  0  0  0
  147.7509  137.1624  163.3367 H   0  0  0  0  0  0  0  0  0  0  0  0
  148.2995  137.5731  160.9470 H   0  0  0  0  0  0  0  0  0  0  0  0
  149.3222  136.3563  161.6531 H   0  0  0  0  0  0  0  0  0  0  0  0
  145.3097  137.2464  157.5284 H   0  0  0  0  0  0  0  0  0  0  0  0
  146.6759  137.4140  156.4654 H   0  0  0  0  0  0  0  0  0  0  0  0
  146.5866  136.2867  154.6506 H   0  0  0  0  0  0  0  0  0  0  0  0
  146.0622  133.6011  154.2566 H   0  0  0  0  0  0  0  0  0  0  0  0
  144.5098  134.3735  154.0333 H   0  0  0  0  0  0  0  0  0  0  0  0
  145.5980  135.9274  152.3099 H   0  0  0  0  0  0  0  0  0  0  0  0
  147.0933  135.0493  152.5095 H   0  0  0  0  0  0  0  0  0  0  0  0
  143.4242  134.2281  151.8795 H   0  0  0  0  0  0  0  0  0  0  0  0
  142.7615  132.5611  150.1283 H   0  0  0  0  0  0  0  0  0  0  0  0
  144.5649  131.3909  148.8294 H   0  0  0  0  0  0  0  0  0  0  0  0
  146.9582  131.9391  149.3422 H   0  0  0  0  0  0  0  0  0  0  0  0
  1  2  1  0  0  0  0
  1 26  1  0  0  0  0
  1 27  1  0  0  0  0
  1 28  1  0  0  0  0
  2  7  1  0  0  0  0
  2  3  1  0  0  0  0
  2 29  1  0  0  0  0
  3  4  1  0  0  0  0
  3 30  1  0  0  0  0
  3 31  1  0  0  0  0
  4  5  1  0  0  0  0
  4 32  1  0  0  0  0
  4 33  1  0  0  0  0
  5  6  1  0  0  0  0
  5 34  1  0  0  0  0
  5 35  1  0  0  0  0
  6  7  1  0  0  0  0
  6 36  1  0  0  0  0
  6 37  1  0  0  0  0
  7 24  1  0  0  0  0
  7  8  1  0  0  0  0
  8  9  1  0  0  0  0
  9 10  2  0  0  0  0
  9 11  1  0  0  0  0
 11 12  1  0  0  0  0
 11 24  1  0  0  0  0
 12 13  1  0  0  0  0
 12 38  1  0  0  0  0
 12 39  1  0  0  0  0
 13 14  2  0  0  0  0
 13 15  1  0  0  0  0
 15 16  1  0  0  0  0
 15 40  1  0  0  0  0
 16 17  1  0  0  0  0
 16 41  1  0  0  0  0
 16 42  1  0  0  0  0
 17 18  1  0  0  0  0
 17 43  1  0  0  0  0
 17 44  1  0  0  0  0
 18 23  1  0  0  0  0
 18 19  2  0  0  0  0
 19 20  1  0  0  0  0
 19 45  1  0  0  0  0
 20 21  2  0  0  0  0
 20 46  1  0  0  0  0
 21 22  1  0  0  0  0
 21 47  1  0  0  0  0
 22 23  2  0  0  0  0
 22 48  1  0  0  0  0
 24 25  2  0  0  0  0
M  CHG  1   8  -1
M  END
> <s_m_source_file>
AV-unprocessed.smi

> <i_m_source_file_index>
2973

> <i_lp_mmshare_version>
43012

> <i_f3d_flags>
0

> <s_epik_input>
W0NIMl0xW0NIMl1bQ0gyXVtDSDJdW0NAQEhdKFtDSDNdKVtDQF0xMltOSF1DKD1PKU4oQzI9TylbQ0gyXUMoPU8pW05IXVtDSDJdW0NIMl1jM1tjSF1bY0hdW2NIXVtjSF1uMw==

> <s_epik_cmdline>
J2VwaWtfcHl0aG9uJywgJy1waCcsICc3LjAnLCAnLXRuJywgJzgnLCAnLW1hJywgJzIwMCcsICctbWV0YWxfYmluZGluZycsICctaW1hZScsICc8aW5maWxlLm1hZT4nLCAnLW9tYWUnLCAnPG91dGZpbGUubWFlPic=

> <r_lp_tautomer_probability>
1

> <r_epik_Ionization_Penalty>
6.04175

> <r_epik_Ionization_Penalty_Charging>
6.01728

> <r_epik_Ionization_Penalty_Neutral>
0.0244696

> <r_epik_State_Penalty>
6.03712

> <r_epik_Charging_Adjusted_Penalty>
12.0544

> <i_epik_Tot_Q>
-1

> <i_epik_Tot_abs_Q>
1

> <r_epik_Metal_State_Penalty>
2.01153

> <b_epik_Metal_Only>
1

> <s_lp_Force_Field>
OPLS_2005

> <r_lp_Energy>
12.5421

> <b_lp_Chiralities_Consistent>
1

> <s_lp_Variant>
AV-unprocessed.smi:2973-9

> <Gold.Version>
5.8.1

> <Gold.Id.Protein>
6NUR|6NUR_protein|mol2

> <Gold.PLP.Fitness>
42.7432

> <Gold.PLP.PLP>
-34.6014

> <Gold.PLP.part.hbond>
-1.0000

> <Gold.PLP.part.metal>
0.0000

> <Gold.PLP.part.buried>
-2.3325

> <Gold.PLP.part.nonpolar>
-31.6596

> <Gold.PLP.part.repulsive>
0.2593

> <Gold.PLP.ligand.clash>
0.0000

> <Gold.PLP.ligand.torsion>
0.4057

> <Gold.PLP.Chemscore.Hbond>
2.0000

> <Gold.PLP.Chemscore.CHOScore>
0.9821

> <Gold.PLP.Chemscore.Metal>
0.0000

> <Gold.Chemscore.Hbonds>
donor molecule, donor type, donor heavy atom, donor atom, acceptor molecule, acceptor atom, score
      P1  H  6896  6909       L1     8  1.79
      L1  C    22    48       P1 10747  0.98

> <Gold.PLP.Chemscore.Internal.Correction>
0.0068

> <Gold.Rescore>
     Score         DG    S(hbond)    S(metal)    S(lipo)     H(rot)  DE(clash)    DE(int)     intcor
     15.42     -15.83       0.99        0.00      99.66       1.81       0.01       0.40       ----

> <Gold.Chemscore.Fitness>
15.4226

> <Gold.Chemscore.DG>
-15.8252

> <Gold.Chemscore.ZeroCoef>
-5.4800

> <Gold.Chemscore.Hbond>
0.9927

> <Gold.Chemscore.Metal>
0.0000

> <Gold.Chemscore.Lipo>
99.6617

> <Gold.Chemscore.Internal_Hbond>
0.0000

> <Gold.Chemscore.DEClash>
0.0050

> <Gold.Chemscore.DEInternal>
0.3976

> <Gold.Chemscore.Rot>
1.8090

> <Gold.Chemscore.Internal.Correction>
   9.000000E+99

> <Gold.Chemscore.Hbonds>
donor molecule, donor type, donor heavy atom, donor atom, acceptor molecule, acceptor atom, score
      P1  H  6896  6909       L1     8  0.82

> <Gold.Chemscore.Hbond.Weighted>
-3.3158

> <Gold.Chemscore.Metal.Weighted>
-0.0000

> <Gold.Chemscore.Lipo.Weighted>
-11.6604

> <Gold.Chemscore.Internal_Hbond.Weighted>
0.0000

> <Gold.Chemscore.DEClash.Weighted>
0.0050

> <Gold.Chemscore.DEInternal.Weighted>
0.3976

> <Gold.Chemscore.Rot.Weighted>
4.6310

> <Gold.Chemscore.Internal.Correction.Weighted>
   9.000000E+99

> <Gold.Protein.RotatedTorsions>
[ 6907 6896 6895 6894 ] final   41.88 input  -60.11 | X-H torsion
[ 7974 7965 7964 7962 ] final -128.94 input  175.53 | X-H torsion
[ 8008 7997 7996 7995 ] final   69.22 input   59.86 | X-H torsion
[ 10167 10162 10161 10158 ] final -164.80 input  -65.29 | X-H torsion
[ 10718 10713 10712 10709 ] final  168.51 input   66.30 | X-H torsion
[ 10763 10752 10751 10750 ] final  -39.59 input  -60.55 | X-H torsion
[ 11005 11000 10999 10996 ] final -151.61 input  -57.11 | X-H torsion

> <Gold.Protein.ActiveResidues>
 VAL166  LYS551  ARG553  GLY616  TRP617  ASP618  TYR619  PRO620  LYS621  CYS622 
 ASP623  PHE694  ASN695  SER759  ASP760  ASP761  ALA762  ILE779  LEU786  VAL792 
 PHE793  MET794  SER795  GLU796  ALA797  LYS798  CYS799  TRP800  GLU811  SER814 

> <Gold.Protein.RotatedAtoms>
  152.2008  134.8589  160.0507 H   0  0  0  0  0  0  0  0  0  0  0  0  # atno 6907 bound_to 6896
  151.9444  133.3642  159.3985 H   0  0  0  0  0  0  0  0  0  0  0  0  # atno 6908 bound_to 6896
  150.6954  134.4330  159.5301 H   0  0  0  0  0  0  0  0  0  0  0  0  # atno 6909 bound_to 6896
  144.9621  140.7457  143.4723 H   0  0  0  0  0  0  0  0  0  0  0  0  # atno 7974 bound_to 7965
  155.7203  140.3493  155.5013 H   0  0  0  0  0  0  0  0  0  0  0  0  # atno 8008 bound_to 7997
  155.9276  140.1078  157.1180 H   0  0  0  0  0  0  0  0  0  0  0  0  # atno 8009 bound_to 7997
  154.4080  140.1237  156.4747 H   0  0  0  0  0  0  0  0  0  0  0  0  # atno 8010 bound_to 7997
  139.6226  144.0595  152.1946 H   0  0  0  0  0  0  0  0  0  0  0  0  # atno 10167 bound_to 10162
  157.0361  131.0273  151.2728 H   0  0  0  0  0  0  0  0  0  0  0  0  # atno 10718 bound_to 10713
  153.9319  135.6771  153.4745 H   0  0  0  0  0  0  0  0  0  0  0  0  # atno 10763 bound_to 10752
  153.0975  135.4844  154.8803 H   0  0  0  0  0  0  0  0  0  0  0  0  # atno 10764 bound_to 10752
  154.7423  135.3164  154.8663 H   0  0  0  0  0  0  0  0  0  0  0  0  # atno 10765 bound_to 10752
  140.7277  134.3656  157.5172 H   0  0  0  0  0  0  0  0  0  0  0  0  # atno 11005 bound_to 11000
  145.2684  139.1964  143.4854 LP  0  0  0  0  0  0  0  0  0  0  0  0  # atno 17320 bound_to 7965
  146.3356  140.2627  142.8602 LP  0  0  0  0  0  0  0  0  0  0  0  0  # atno 17321 bound_to 7965
  140.0241  144.6131  150.7542 LP  0  0  0  0  0  0  0  0  0  0  0  0  # atno 17342 bound_to 10162
  140.7391  143.2787  151.3664 LP  0  0  0  0  0  0  0  0  0  0  0  0  # atno 17343 bound_to 10162
  157.5140  130.7956  149.7736 LP  0  0  0  0  0  0  0  0  0  0  0  0  # atno 17370 bound_to 10713
  156.0053  130.3859  150.2453 LP  0  0  0  0  0  0  0  0  0  0  0  0  # atno 17371 bound_to 10713
  139.8833  134.8997  156.2773 LP  0  0  0  0  0  0  0  0  0  0  0  0  # atno 17394 bound_to 11000
  140.9948  133.7186  156.0870 LP  0  0  0  0  0  0  0  0  0  0  0  0  # atno 17395 bound_to 11000

$$$$
