#       Name:                AV-unprocessed.smi:99
#       Creating user name   scv26
#       Creation time:       Thu Mar 26 17:37:31 2020


#       File generated by GOLD software.
#

@<TRIPOS>MOLECULE
AV-unprocessed.smi:99
    65    68     1
SMALL
NO_CHARGES


@<TRIPOS>ATOM
      1 ****        -3.4296   1.4126   0.0973 O.2            1 S1                 0.0000
      2 ****        -2.5767   2.0594  -0.5145 C.2            1 S1                 0.0000
      3 ****        -1.2874   1.6823  -0.6186 O.3            1 S1                 0.0000
      4 ****        -0.8510   0.4764  -0.0143 C.3            1 S1                 0.0000
      5 ****         0.6530   0.2815  -0.2926 C.3            1 S1                 0.0000
      6 ****         0.8157  -0.0427  -1.6666 O.3            1 S1                 0.0000
      7 ****         0.7130  -1.4238  -1.8447 C.3            1 S1                 0.0000
      8 ****         1.7492  -1.8410  -2.8672 N.am           1 S1                 0.0000
      9 ****         3.0071  -1.2635  -2.8503 C.2            1 S1                 0.0000
     10 ****         3.9521  -1.6106  -3.7478 C.2            1 S1                 0.0000
     11 ****         3.6430  -2.6167  -4.7599 C.2            1 S1                 0.0000
     12 ****         4.5073  -2.9216  -5.5794 O.2            1 S1                 0.0000
     13 ****         2.3992  -3.1781  -4.7489 N.pl3          1 S1                -1.0000
     14 ****         1.4426  -2.8343  -3.8373 C.2            1 S1                 0.0000
     15 ****         0.3262  -3.3521  -3.8088 O.2            1 S1                 0.0000
     16 ****         0.9080  -2.1001  -0.4682 C.3            1 S1                 0.0000
     17 ****         1.9150  -3.0950  -0.4356 O.3            1 S1                 0.0000
     18 ****         1.2828  -0.9209   0.4221 C.3            1 S1                 0.0000
     19 ****         0.7553  -1.0550   1.7367 O.3            1 S1                 0.0000
     20 ****         1.4820  -1.6108   2.7277 C.2            1 S1                 0.0000
     21 ****         2.6251  -2.0466   2.5792 O.2            1 S1                 0.0000
     22 ****         0.7534  -1.6364   4.0289 C.ar           1 S1                 0.0000
     23 ****         1.3832  -2.1937   5.1664 C.ar           1 S1                 0.0000
     24 ****         0.7209  -2.2267   6.4089 C.ar           1 S1                 0.0000
     25 ****        -0.5792  -1.7028   6.5295 C.ar           1 S1                 0.0000
     26 ****        -1.2172  -1.1463   5.4056 C.ar           1 S1                 0.0000
     27 ****        -0.5569  -1.1128   4.1620 C.ar           1 S1                 0.0000
     28 ****        -2.8651   3.3426  -1.2176 C.ar           1 S1                 0.0000
     29 ****        -4.1835   3.8553  -1.2118 C.ar           1 S1                 0.0000
     30 ****        -4.4859   5.0647  -1.8674 C.ar           1 S1                 0.0000
     31 ****        -3.4736   5.7761  -2.5373 C.ar           1 S1                 0.0000
     32 ****        -2.1582   5.2767  -2.5508 C.ar           1 S1                 0.0000
     33 ****        -1.8537   4.0677  -1.8952 C.ar           1 S1                 0.0000
     34 ****        -1.0300   0.5493   1.0591 H              1 S1                 0.0000
     35 ****        -1.4313  -0.3693  -0.3858 H              1 S1                 0.0000
     36 ****         1.1940   1.1963  -0.0485 H              1 S1                 0.0000
     37 ****        -0.2677  -1.6273  -2.2754 H              1 S1                 0.0000
     38 ****         3.2444  -0.5227  -2.1012 H              1 S1                 0.0000
     39 ****         4.9292  -1.1511  -3.7185 H              1 S1                 0.0000
     40 ****        -0.0479  -2.5291  -0.1644 H              1 S1                 0.0000
     41 ****         2.7063  -2.7321  -0.8036 H              1 S1                 0.0000
     42 ****         2.3655  -0.7821   0.4289 H              1 S1                 0.0000
     43 ****         2.3816  -2.6012   5.0988 H              1 S1                 0.0000
     44 ****         1.2121  -2.6540   7.2708 H              1 S1                 0.0000
     45 ****        -1.0864  -1.7272   7.4826 H              1 S1                 0.0000
     46 ****        -2.2150  -0.7432   5.4967 H              1 S1                 0.0000
     47 ****        -1.0762  -0.6778   3.3207 H              1 S1                 0.0000
     48 ****        -4.9776   3.3263  -0.7045 H              1 S1                 0.0000
     49 ****        -5.4963   5.4462  -1.8559 H              1 S1                 0.0000
     50 ****        -3.7060   6.7032  -3.0401 H              1 S1                 0.0000
     51 ****        -1.3803   5.8214  -3.0654 H              1 S1                 0.0000
     52 ****        -0.8337   3.7131  -1.9248 H              1 S1                 0.0000
     53 ****        -3.1786   0.5573   0.5507 LP             1 S1                 0.0000
     54 ****        -4.3724   1.7432   0.1402 LP             1 S1                 0.0000
     55 ****         1.7154   0.2654  -1.9756 LP             1 S1                 0.0000
     56 ****         0.1050   0.4143  -2.2015 LP             1 S1                 0.0000
     57 ****         5.4051  -2.4825  -5.5460 LP             1 S1                 0.0000
     58 ****         4.3125  -3.6088  -6.2793 LP             1 S1                 0.0000
     59 ****         2.1793  -3.8698  -5.4368 LP             1 S1                 0.0000
     60 ****        -0.3376  -3.0715  -3.1155 LP             1 S1                 0.0000
     61 ****         0.0831  -4.0535  -4.4789 LP             1 S1                 0.0000
     62 ****         1.6248  -3.8866  -0.9733 LP             1 S1                 0.0000
     63 ****         2.0806  -3.3767   0.5095 LP             1 S1                 0.0000
     64 ****         3.0658  -1.9992   1.6828 LP             1 S1                 0.0000
     65 ****         3.1120  -2.4478   3.3551 LP             1 S1                 0.0000
@<TRIPOS>BOND
    1    1    2 2     
    2    2    3 1     
    3    2   28 1     
    4    3    4 1     
    5    4    5 1     
    6    4   34 1     
    7    4   35 1     
    8    5   18 1     
    9    5    6 1     
   10    5   36 1     
   11    6    7 1     
   12    7    8 1     
   13    7   16 1     
   14    7   37 1     
   15    8   14 am    
   16    8    9 1     
   17    9   10 2     
   18    9   38 1     
   19   10   11 1     
   20   10   39 1     
   21   11   12 2     
   22   11   13 1     
   23   13   14 1     
   24   14   15 2     
   25   16   17 1     
   26   16   18 1     
   27   16   40 1     
   28   17   41 1     
   29   18   19 1     
   30   18   42 1     
   31   19   20 1     
   32   20   21 2     
   33   20   22 1     
   34   22   27 ar    
   35   22   23 ar    
   36   23   24 ar    
   37   23   43 1     
   38   24   25 ar    
   39   24   44 1     
   40   25   26 ar    
   41   25   45 1     
   42   26   27 ar    
   43   26   46 1     
   44   27   47 1     
   45   28   33 ar    
   46   28   29 ar    
   47   29   30 ar    
   48   29   48 1     
   49   30   31 ar    
   50   30   49 1     
   51   31   32 ar    
   52   31   50 1     
   53   32   33 ar    
   54   32   51 1     
   55   33   52 1     
   56    1   53 1     
   57    1   54 1     
   58    6   55 1     
   59    6   56 1     
   60   12   57 1     
   61   12   58 1     
   62   13   59 1     
   63   15   60 1     
   64   15   61 1     
   65   17   62 1     
   66   17   63 1     
   67   21   64 1     
   68   21   65 1     
@<TRIPOS>SUBSTRUCTURE
      1 S1             1
@<TRIPOS>SET
LONE_PAIRS      STATIC     ATOMS    <user>   **** ""
13 53 54 55 56 57 58 59 60 61 62 63 64 65
DONOR_HYDROGENS      STATIC     ATOMS    <user>   **** ""
1 41
ATOM$BLUE        STATIC     ATOMS    COLORGROUP SYSTEM
13 53 54 55 56 57 58 59 60 61 62 63 64 65
ATOM$RED        STATIC     ATOMS    COLORGROUP SYSTEM
1 41
