#       Name:                AV-unprocessed.smi:39
#       Creating user name   scv26
#       Creation time:       Thu Mar 26 16:20:29 2020


#       File generated by GOLD software.
#

@<TRIPOS>MOLECULE
AV-unprocessed.smi:39
    42    43     1
SMALL
NO_CHARGES


@<TRIPOS>ATOM
      1 ****        -3.6419   1.6305   0.8133 C.3            1 S1                 0.0000
      2 ****        -2.9805   0.3073   0.4693 C.2            1 S1                 0.0000
      3 ****        -1.6498   0.1100   0.6014 C.2            1 S1                 0.0000
      4 ****        -1.0504  -1.0976   0.2827 N.am           1 S1                 0.0000
      5 ****         0.4440  -1.3129   0.4256 C.3            1 S1                 0.0000
      6 ****         1.1193  -1.3486  -0.9558 C.3            1 S1                 0.0000
      7 ****         2.2533  -0.3485  -0.7976 C.3            1 S1                 0.0000
      8 ****         2.6268   0.2964  -2.0586 N.2            1 S1                 0.0000
      9 ****         3.2722  -0.3929  -2.8588 N.1            1 S1                 1.0000
     10 ****         3.8316  -0.9442  -3.6822 N.1            1 S1                -1.0000
     11 ****         1.6588   0.6362   0.2093 C.3            1 S1                 0.0000
     12 ****         2.7124   1.4779   0.9453 C.3            1 S1                 0.0000
     13 ****         2.1004   2.5924   1.5585 O.3            1 S1                 0.0000
     14 ****         1.0180  -0.2458   1.1250 O.3            1 S1                 0.0000
     15 ****        -1.8514  -2.1743  -0.1806 C.2            1 S1                 0.0000
     16 ****        -1.2914  -3.2397  -0.4416 O.2            1 S1                 0.0000
     17 ****        -3.1942  -1.9842  -0.3182 N.pl3          1 S1                -1.0000
     18 ****        -3.8058  -0.8012  -0.0245 C.2            1 S1                 0.0000
     19 ****        -5.0185  -0.6410  -0.1603 O.2            1 S1                 0.0000
     20 ****         0.5572  -2.2301   1.0060 H              1 S1                 0.0000
     21 ****         3.1104  -0.8478  -0.3404 H              1 S1                 0.0000
     22 ****         0.9214   1.2714  -0.2860 H              1 S1                 0.0000
     23 ****        -2.9143   2.3539   1.1823 H              1 S1                 0.0000
     24 ****        -4.3987   1.4889   1.5854 H              1 S1                 0.0000
     25 ****        -4.1237   2.0552  -0.0680 H              1 S1                 0.0000
     26 ****        -1.0502   0.9285   0.9683 H              1 S1                 0.0000
     27 ****         1.4641  -2.3550  -1.1948 H              1 S1                 0.0000
     28 ****         0.4153  -1.0253  -1.7250 H              1 S1                 0.0000
     29 ****         3.2499   0.8834   1.6845 H              1 S1                 0.0000
     30 ****         3.4497   1.8592   0.2382 H              1 S1                 0.0000
     31 ****         2.7672   3.0973   1.9979 H              1 S1                 0.0000
     32 ****         2.3740   1.2423  -2.2620 LP             1 S1                 0.0000
     33 ****         4.3232  -1.4287  -4.4058 LP             1 S1                 0.0000
     34 ****         1.4208   2.2809   2.2227 LP             1 S1                 0.0000
     35 ****         1.6534   3.1562   0.8639 LP             1 S1                 0.0000
     36 ****         1.6917  -0.5978   1.7748 LP             1 S1                 0.0000
     37 ****         0.3044   0.2497   1.6203 LP             1 S1                 0.0000
     38 ****        -0.3020  -3.3262  -0.3250 LP             1 S1                 0.0000
     39 ****        -1.8261  -4.0182  -0.7701 LP             1 S1                 0.0000
     40 ****        -3.7543  -2.7440  -0.6484 LP             1 S1                 0.0000
     41 ****        -5.4349   0.2398   0.0653 LP             1 S1                 0.0000
     42 ****        -5.5875  -1.3916  -0.4963 LP             1 S1                 0.0000
@<TRIPOS>BOND
    1    1    2 1     
    2    1   23 1     
    3    1   24 1     
    4    1   25 1     
    5    2   18 1     
    6    2    3 2     
    7    3    4 1     
    8    3   26 1     
    9    4    5 1     
   10    4   15 am    
   11    5   20 1     
   12    5   14 1     
   13    5    6 1     
   14    6    7 1     
   15    6   27 1     
   16    6   28 1     
   17    7   21 1     
   18    7    8 1     
   19    7   11 1     
   20    8    9 2     
   21    9   10 2     
   22   11   22 1     
   23   11   12 1     
   24   11   14 1     
   25   12   13 1     
   26   12   29 1     
   27   12   30 1     
   28   13   31 1     
   29   15   16 2     
   30   15   17 1     
   31   17   18 1     
   32   18   19 2     
   33    8   32 1     
   34   10   33 1     
   35   13   34 1     
   36   13   35 1     
   37   14   36 1     
   38   14   37 1     
   39   16   38 1     
   40   16   39 1     
   41   17   40 1     
   42   19   41 1     
   43   19   42 1     
@<TRIPOS>SUBSTRUCTURE
      1 S1             1
@<TRIPOS>SET
LONE_PAIRS      STATIC     ATOMS    <user>   **** ""
11 32 33 34 35 36 37 38 39 40 41 42
DONOR_HYDROGENS      STATIC     ATOMS    <user>   **** ""
1 31
ATOM$BLUE        STATIC     ATOMS    COLORGROUP SYSTEM
11 32 33 34 35 36 37 38 39 40 41 42
ATOM$RED        STATIC     ATOMS    COLORGROUP SYSTEM
1 31
