AV-unprocessed.smi:3335|AV-procd|sdf|12844|dock4
  -GOLD-   2272019233D 1   1.00000     0.00000
 Structure written by MMmdl.
 47 48  0  0  0  0  0  0  0  0  2 V2000
  150.9945  142.2985  157.8436 C   0  0  0  0  0  0  0  0  0  0  0  0
  150.7343  141.4326  156.6446 C   0  0  0  0  0  0  0  0  0  0  0  0
  149.9384  141.7363  155.5041 C   0  0  0  0  0  0  0  0  0  0  0  0
  149.9145  140.7545  154.6183 N   0  0  0  0  0  0  0  0  0  0  0  0
  150.6928  139.7900  155.1579 N   0  0  0  0  0  0  0  0  0  0  0  0
  150.9014  138.5337  154.4493 C   0  0  1  0  0  0  0  0  0  0  0  0
  152.4059  138.3163  154.1964 C   0  0  0  0  0  0  0  0  0  0  0  0
  150.2417  137.3324  155.1775 C   0  0  1  0  0  0  0  0  0  0  0  0
  148.7556  137.5787  155.5120 C   0  0  0  0  0  0  0  0  0  0  0  0
  150.3765  136.1097  154.3488 N   0  3  0  0  0  0  0  0  0  0  0  0
  149.9035  134.8468  154.9655 C   0  0  1  0  0  0  0  0  0  0  0  0
  149.5146  133.8558  153.8572 C   0  0  0  0  0  0  0  0  0  0  0  0
  150.9854  134.2233  155.8709 C   0  0  0  0  0  0  0  0  0  0  0  0
  152.0632  134.8070  155.9957 O   0  0  0  0  0  0  0  0  0  0  0  0
  150.7340  133.0505  156.4918 N   0  0  0  0  0  0  0  0  0  0  0  0
  149.5010  132.2678  156.4028 C   0  0  0  0  0  0  0  0  0  0  0  0
  149.8135  130.9242  157.0613 C   0  0  0  0  0  0  0  0  0  0  0  0
  150.9390  131.2411  158.0353 C   0  0  0  0  0  0  0  0  0  0  0  0
  151.6997  132.3857  157.3657 C   0  0  0  0  0  0  0  0  0  0  0  0
  151.1975  140.1743  156.3828 C   0  0  0  0  0  0  0  0  0  0  0  0
  150.1857  143.0100  158.0113 H   0  0  0  0  0  0  0  0  0  0  0  0
  151.9122  142.8758  157.7302 H   0  0  0  0  0  0  0  0  0  0  0  0
  151.0956  141.7083  158.7545 H   0  0  0  0  0  0  0  0  0  0  0  0
  149.3806  142.6373  155.2952 H   0  0  0  0  0  0  0  0  0  0  0  0
  150.4182  138.6430  153.4769 H   0  0  0  0  0  0  0  0  0  0  0  0
  152.5852  137.4590  153.5476 H   0  0  0  0  0  0  0  0  0  0  0  0
  152.9479  138.1446  155.1272 H   0  0  0  0  0  0  0  0  0  0  0  0
  152.8497  139.1860  153.7106 H   0  0  0  0  0  0  0  0  0  0  0  0
  150.7776  137.1803  156.1157 H   0  0  0  0  0  0  0  0  0  0  0  0
  148.6263  138.4275  156.1834 H   0  0  0  0  0  0  0  0  0  0  0  0
  148.3042  136.7199  156.0080 H   0  0  0  0  0  0  0  0  0  0  0  0
  148.1774  137.7798  154.6096 H   0  0  0  0  0  0  0  0  0  0  0  0
  149.8763  136.2618  153.4851 H   0  0  0  0  0  0  0  0  0  0  0  0
  149.0098  135.0736  155.5446 H   0  0  0  0  0  0  0  0  0  0  0  0
  149.1463  132.9158  154.2692 H   0  0  0  0  0  0  0  0  0  0  0  0
  150.3628  133.6234  153.2116 H   0  0  0  0  0  0  0  0  0  0  0  0
  148.7238  134.2654  153.2281 H   0  0  0  0  0  0  0  0  0  0  0  0
  148.7122  132.7837  156.9521 H   0  0  0  0  0  0  0  0  0  0  0  0
  149.1664  132.1272  155.3745 H   0  0  0  0  0  0  0  0  0  0  0  0
  148.9453  130.4783  157.5474 H   0  0  0  0  0  0  0  0  0  0  0  0
  150.1713  130.2218  156.3072 H   0  0  0  0  0  0  0  0  0  0  0  0
  150.5169  131.5851  158.9807 H   0  0  0  0  0  0  0  0  0  0  0  0
  151.5719  130.3787  158.2466 H   0  0  0  0  0  0  0  0  0  0  0  0
  152.5184  131.9967  156.7585 H   0  0  0  0  0  0  0  0  0  0  0  0
  152.1211  133.0666  158.1068 H   0  0  0  0  0  0  0  0  0  0  0  0
  151.8405  139.5279  156.9621 H   0  0  0  0  0  0  0  0  0  0  0  0
  151.3553  135.9821  154.1332 H   0  0  0  0  0  0  0  0  0  0  0  0
  1  2  1  0  0  0  0
  1 21  1  0  0  0  0
  1 22  1  0  0  0  0
  1 23  1  0  0  0  0
  2 20  2  0  0  0  0
  2  3  1  0  0  0  0
  3  4  2  0  0  0  0
  3 24  1  0  0  0  0
  4  5  1  0  0  0  0
  5  6  1  0  0  0  0
  5 20  1  0  0  0  0
  6  7  1  0  0  0  0
  6  8  1  0  0  0  0
  6 25  1  0  0  0  0
  7 26  1  0  0  0  0
  7 27  1  0  0  0  0
  7 28  1  0  0  0  0
  8  9  1  0  0  0  0
  8 10  1  0  0  0  0
  8 29  1  0  0  0  0
  9 30  1  0  0  0  0
  9 31  1  0  0  0  0
  9 32  1  0  0  0  0
 10 11  1  0  0  0  0
 10 33  1  0  0  0  0
 10 47  1  0  0  0  0
 11 12  1  0  0  0  0
 11 13  1  0  0  0  0
 11 34  1  0  0  0  0
 12 35  1  0  0  0  0
 12 36  1  0  0  0  0
 12 37  1  0  0  0  0
 13 14  2  0  0  0  0
 13 15  1  0  0  0  0
 15 19  1  0  0  0  0
 15 16  1  0  0  0  0
 16 17  1  0  0  0  0
 16 38  1  0  0  0  0
 16 39  1  0  0  0  0
 17 18  1  0  0  0  0
 17 40  1  0  0  0  0
 17 41  1  0  0  0  0
 18 19  1  0  0  0  0
 18 42  1  0  0  0  0
 18 43  1  0  0  0  0
 19 44  1  0  0  0  0
 19 45  1  0  0  0  0
 20 46  1  0  0  0  0
M  CHG  1  10   1
M  END
> <s_m_source_file>
AV-unprocessed.smi

> <i_m_source_file_index>
3335

> <i_lp_mmshare_version>
43012

> <i_f3d_flags>
0

> <s_epik_input>
W0NIM11jMVtjSF1ubihbY0hdMSlbQ0BIXShbQ0gzXSlbQ0BIXShbQ0gzXSlbTkhdW0NASF0oW0NIM10pQyg9TylOMltDSDJdW0NIMl1bQ0gyXVtDSDJdMg==

> <s_epik_cmdline>
J2VwaWtfcHl0aG9uJywgJy1waCcsICc3LjAnLCAnLXRuJywgJzgnLCAnLW1hJywgJzIwMCcsICctbWV0YWxfYmluZGluZycsICctaW1hZScsICc8aW5maWxlLm1hZT4nLCAnLW9tYWUnLCAnPG91dGZpbGUubWFlPic=

> <r_lp_tautomer_probability>
1

> <r_epik_Ionization_Penalty>
0.14175

> <r_epik_Ionization_Penalty_Charging>
0.141731

> <r_epik_Ionization_Penalty_Neutral>
1.91261e-05

> <r_epik_State_Penalty>
0.131043

> <r_epik_Charging_Adjusted_Penalty>
0.272773

> <i_epik_Tot_Q>
1

> <i_epik_Tot_abs_Q>
1

> <r_epik_Metal_State_Penalty>
0.131408

> <b_epik_Metal_Only>
0

> <s_lp_Force_Field>
OPLS_2005

> <r_lp_Energy>
36.0865

> <b_lp_Chiralities_Consistent>
1

> <s_lp_Variant>
AV-unprocessed.smi:3335-8

> <Gold.Version>
5.8.1

> <Gold.Id.Protein>
6NUR|6NUR_protein|mol2

> <Gold.PLP.Fitness>
40.0414

> <Gold.PLP.PLP>
-28.3776

> <Gold.PLP.part.hbond>
-3.8508

> <Gold.PLP.part.metal>
0.0000

> <Gold.PLP.part.buried>
1.6981

> <Gold.PLP.part.nonpolar>
-25.5122

> <Gold.PLP.part.repulsive>
0.1776

> <Gold.PLP.ligand.clash>
0.0000

> <Gold.PLP.ligand.torsion>
0.3687

> <Gold.PLP.Chemscore.Hbond>
3.1104

> <Gold.PLP.Chemscore.CHOScore>
1.0000

> <Gold.PLP.Chemscore.Metal>
0.0000

> <Gold.Chemscore.Hbonds>
donor molecule, donor type, donor heavy atom, donor atom, acceptor molecule, acceptor atom, score
      L1  H    10    33       P1  7948  1.60
      P1  H 10752 10764       L1    14  0.80
      L1  C     3    24       P1  8028  1.00

> <Gold.PLP.Chemscore.Internal.Correction>
0.0700

> <Gold.Rescore>
     Score         DG    S(hbond)    S(metal)    S(lipo)     H(rot)  DE(clash)    DE(int)     intcor
     12.98     -14.65       1.69        0.00      66.87       1.68       0.18       1.50       ----

> <Gold.Chemscore.Fitness>
12.9772

> <Gold.Chemscore.DG>
-14.6546

> <Gold.Chemscore.ZeroCoef>
-5.4800

> <Gold.Chemscore.Hbond>
1.6904

> <Gold.Chemscore.Metal>
0.0000

> <Gold.Chemscore.Lipo>
66.8704

> <Gold.Chemscore.Internal_Hbond>
0.0000

> <Gold.Chemscore.DEClash>
0.1791

> <Gold.Chemscore.DEInternal>
1.4983

> <Gold.Chemscore.Rot>
1.6778

> <Gold.Chemscore.Internal.Correction>
   9.000000E+99

> <Gold.Chemscore.Hbonds>
donor molecule, donor type, donor heavy atom, donor atom, acceptor molecule, acceptor atom, score
      L1  H    10    33       P1  7948  0.12
      P1  H 10752 10764       L1    14  0.76

> <Gold.Chemscore.Hbond.Weighted>
-5.6460

> <Gold.Chemscore.Metal.Weighted>
-0.0000

> <Gold.Chemscore.Lipo.Weighted>
-7.8238

> <Gold.Chemscore.Internal_Hbond.Weighted>
0.0000

> <Gold.Chemscore.DEClash.Weighted>
0.1791

> <Gold.Chemscore.DEInternal.Weighted>
1.4983

> <Gold.Chemscore.Rot.Weighted>
4.2952

> <Gold.Chemscore.Internal.Correction.Weighted>
   9.000000E+99

> <Gold.Protein.RotatedTorsions>
[ 6907 6896 6895 6894 ] final  -45.61 input  -60.11 | X-H torsion
[ 7974 7965 7964 7962 ] final  157.65 input  175.53 | X-H torsion
[ 8008 7997 7996 7995 ] final   14.22 input   59.86 | X-H torsion
[ 10167 10162 10161 10158 ] final  170.30 input  -65.29 | X-H torsion
[ 10718 10713 10712 10709 ] final  -20.64 input   66.30 | X-H torsion
[ 10763 10752 10751 10750 ] final  -30.75 input  -60.55 | X-H torsion
[ 11005 11000 10999 10996 ] final    4.95 input  -57.11 | X-H torsion

> <Gold.Protein.ActiveResidues>
 VAL166  LYS551  ARG553  GLY616  TRP617  ASP618  TYR619  PRO620  LYS621  CYS622 
 ASP623  PHE694  ASN695  SER759  ASP760  ASP761  ALA762  ILE779  LEU786  VAL792 
 PHE793  MET794  SER795  GLU796  ALA797  LYS798  CYS799  TRP800  GLU811  SER814 

> <Gold.Protein.RotatedAtoms>
  150.9200  134.8618  159.7482 H   0  0  0  0  0  0  0  0  0  0  0  0  # atno 6907 bound_to 6896
  152.4988  134.4232  159.9497 H   0  0  0  0  0  0  0  0  0  0  0  0  # atno 6908 bound_to 6896
  151.4266  133.3643  159.2798 H   0  0  0  0  0  0  0  0  0  0  0  0  # atno 6909 bound_to 6896
  144.7891  139.7369  143.6228 H   0  0  0  0  0  0  0  0  0  0  0  0  # atno 7974 bound_to 7965
  154.8454  140.2921  155.5632 H   0  0  0  0  0  0  0  0  0  0  0  0  # atno 8008 bound_to 7997
  156.3014  140.2506  156.3335 H   0  0  0  0  0  0  0  0  0  0  0  0  # atno 8009 bound_to 7997
  154.9080  140.0389  157.1919 H   0  0  0  0  0  0  0  0  0  0  0  0  # atno 8010 bound_to 7997
  139.5015  144.3611  151.9823 H   0  0  0  0  0  0  0  0  0  0  0  0  # atno 10167 bound_to 10162
  156.5291  130.4651  149.6556 H   0  0  0  0  0  0  0  0  0  0  0  0  # atno 10718 bound_to 10713
  153.7861  135.6901  153.4880 H   0  0  0  0  0  0  0  0  0  0  0  0  # atno 10763 bound_to 10752
  153.1780  135.4517  154.9989 H   0  0  0  0  0  0  0  0  0  0  0  0  # atno 10764 bound_to 10752
  154.8063  135.3358  154.7360 H   0  0  0  0  0  0  0  0  0  0  0  0  # atno 10765 bound_to 10752
  140.5762  134.0056  155.8028 H   0  0  0  0  0  0  0  0  0  0  0  0  # atno 11005 bound_to 11000
  146.2136  139.5509  142.9665 LP  0  0  0  0  0  0  0  0  0  0  0  0  # atno 17320 bound_to 7965
  145.5842  141.0378  143.2105 LP  0  0  0  0  0  0  0  0  0  0  0  0  # atno 17321 bound_to 7965
  140.3048  144.3606  150.6050 LP  0  0  0  0  0  0  0  0  0  0  0  0  # atno 17342 bound_to 10162
  140.5845  143.2171  151.7367 LP  0  0  0  0  0  0  0  0  0  0  0  0  # atno 17343 bound_to 10162
  156.3077  130.7211  151.2097 LP  0  0  0  0  0  0  0  0  0  0  0  0  # atno 17370 bound_to 10713
  157.7424  131.0489  150.5022 LP  0  0  0  0  0  0  0  0  0  0  0  0  # atno 17371 bound_to 10713
  141.1025  133.9745  157.3054 LP  0  0  0  0  0  0  0  0  0  0  0  0  # atno 17394 bound_to 11000
  139.9338  135.0198  156.8490 LP  0  0  0  0  0  0  0  0  0  0  0  0  # atno 17395 bound_to 11000

$$$$
