AV-unprocessed.smi:496|AV-procd|sdf|2718|dock3
  -GOLD-   2262023163D 1   1.00000     0.00000
 Structure written by MMmdl.
 43 45  0  0  0  0  0  0  0  0  2 V2000
  152.1556  138.8156  155.1010 C   0  0  0  0  0  0  0  0  0  0  0  0
  152.8025  139.5634  156.1151 O   0  0  0  0  0  0  0  0  0  0  0  0
  152.4555  139.1243  157.4183 C   0  0  0  0  0  0  0  0  0  0  0  0
  151.0044  139.5142  157.7326 C   0  0  0  0  0  0  0  0  0  0  0  0
  150.7774  140.9626  157.6093 N   0  0  0  0  0  0  0  0  0  0  0  0
  149.9001  141.6520  156.8235 C   0  0  0  0  0  0  0  0  0  0  0  0
  148.9070  141.0731  155.8581 C   0  0  2  0  0  0  0  0  0  0  0  0
  149.6263  140.4582  154.6506 C   0  0  0  0  0  0  0  0  0  0  0  0
  147.9365  142.0645  155.4026 N   0  0  0  0  0  0  0  0  0  0  0  0
  146.6411  141.8209  155.1453 C   0  0  0  0  0  0  0  0  0  0  0  0
  146.1183  140.7150  155.2805 O   0  0  0  0  0  0  0  0  0  0  0  0
  145.8493  142.9772  154.6869 C   0  0  0  0  0  0  0  0  0  0  0  0
  145.8211  143.6108  153.4737 C   0  0  0  0  0  0  0  0  0  0  0  0
  144.8736  144.6655  153.5871 C   0  0  0  0  0  0  0  0  0  0  0  0
  144.3901  144.6008  154.8622 C   0  0  0  0  0  0  0  0  0  0  0  0
  144.9732  143.5785  155.5455 O   0  0  0  0  0  0  0  0  0  0  0  0
  150.0914  142.9786  157.0764 N   0  3  0  0  0  0  0  0  0  0  0  0
  151.0808  143.1387  158.0460 C   0  0  0  0  0  0  0  0  0  0  0  0
  151.6064  144.2878  158.6286 C   0  0  0  0  0  0  0  0  0  0  0  0
  152.6084  144.1015  159.6032 C   0  0  0  0  0  0  0  0  0  0  0  0
  153.0505  142.8123  159.9638 C   0  0  0  0  0  0  0  0  0  0  0  0
  152.5116  141.6551  159.3638 C   0  0  0  0  0  0  0  0  0  0  0  0
  151.5228  141.8473  158.3986 C   0  0  0  0  0  0  0  0  0  0  0  0
  152.4449  139.1986  154.1225 H   0  0  0  0  0  0  0  0  0  0  0  0
  151.0709  138.8911  155.1853 H   0  0  0  0  0  0  0  0  0  0  0  0
  152.4389  137.7632  155.1469 H   0  0  0  0  0  0  0  0  0  0  0  0
  152.5729  138.0423  157.4912 H   0  0  0  0  0  0  0  0  0  0  0  0
  153.1253  139.5722  158.1534 H   0  0  0  0  0  0  0  0  0  0  0  0
  150.3088  138.9818  157.0845 H   0  0  0  0  0  0  0  0  0  0  0  0
  150.7494  139.2229  158.7518 H   0  0  0  0  0  0  0  0  0  0  0  0
  148.3533  140.2781  156.3590 H   0  0  0  0  0  0  0  0  0  0  0  0
  150.3188  139.6767  154.9654 H   0  0  0  0  0  0  0  0  0  0  0  0
  150.1976  141.2073  154.1010 H   0  0  0  0  0  0  0  0  0  0  0  0
  148.9156  140.0069  153.9575 H   0  0  0  0  0  0  0  0  0  0  0  0
  148.2754  143.0048  155.2589 H   0  0  0  0  0  0  0  0  0  0  0  0
  146.4119  143.3471  152.6085 H   0  0  0  0  0  0  0  0  0  0  0  0
  144.5837  145.3808  152.8318 H   0  0  0  0  0  0  0  0  0  0  0  0
  143.6651  145.1752  155.4198 H   0  0  0  0  0  0  0  0  0  0  0  0
  151.2671  145.2763  158.3559 H   0  0  0  0  0  0  0  0  0  0  0  0
  153.0446  144.9645  160.0853 H   0  0  0  0  0  0  0  0  0  0  0  0
  153.8181  142.7077  160.7170 H   0  0  0  0  0  0  0  0  0  0  0  0
  152.8542  140.6730  159.6541 H   0  0  0  0  0  0  0  0  0  0  0  0
  149.5703  143.7186  156.6239 H   0  0  0  0  0  0  0  0  0  0  0  0
  1  2  1  0  0  0  0
  1 24  1  0  0  0  0
  1 25  1  0  0  0  0
  1 26  1  0  0  0  0
  2  3  1  0  0  0  0
  3  4  1  0  0  0  0
  3 27  1  0  0  0  0
  3 28  1  0  0  0  0
  4  5  1  0  0  0  0
  4 29  1  0  0  0  0
  4 30  1  0  0  0  0
  5 23  1  0  0  0  0
  5  6  1  0  0  0  0
  6  7  1  0  0  0  0
  6 17  2  0  0  0  0
  7  8  1  0  0  0  0
  7  9  1  0  0  0  0
  7 31  1  0  0  0  0
  8 32  1  0  0  0  0
  8 33  1  0  0  0  0
  8 34  1  0  0  0  0
  9 10  1  0  0  0  0
  9 35  1  0  0  0  0
 10 11  2  0  0  0  0
 10 12  1  0  0  0  0
 12 16  1  0  0  0  0
 12 13  2  0  0  0  0
 13 14  1  0  0  0  0
 13 36  1  0  0  0  0
 14 15  2  0  0  0  0
 14 37  1  0  0  0  0
 15 16  1  0  0  0  0
 15 38  1  0  0  0  0
 17 18  1  0  0  0  0
 17 43  1  0  0  0  0
 18 23  2  0  0  0  0
 18 19  1  0  0  0  0
 19 20  2  0  0  0  0
 19 39  1  0  0  0  0
 20 21  1  0  0  0  0
 20 40  1  0  0  0  0
 21 22  2  0  0  0  0
 21 41  1  0  0  0  0
 22 23  1  0  0  0  0
 22 42  1  0  0  0  0
M  CHG  1  17   1
M  END
> <s_m_source_file>
AV-unprocessed.smi

> <i_m_source_file_index>
496

> <i_lp_mmshare_version>
43012

> <i_f3d_flags>
0

> <s_epik_input>
W2NIXTFbY0hdW2NIXVtjSF1jKGMxMiluKFtDSDJdW0NIMl1PW0NIM10pYyhuMilbQ0BIXShbQ0gzXSlbTkhdQyg9TyljM1tjSF1bY0hdW2NIXW8z

> <s_epik_cmdline>
J2VwaWtfcHl0aG9uJywgJy1waCcsICc3LjAnLCAnLXRuJywgJzgnLCAnLW1hJywgJzIwMCcsICctbWV0YWxfYmluZGluZycsICctaW1hZScsICc8aW5maWxlLm1hZT4nLCAnLW9tYWUnLCAnPG91dGZpbGUubWFlPic=

> <r_epik_Ionization_Penalty>
1.02088

> <r_epik_Ionization_Penalty_Charging>
1.02086

> <r_epik_Ionization_Penalty_Neutral>
2.09263e-05

> <r_epik_State_Penalty>
1.07114

> <r_epik_Charging_Adjusted_Penalty>
2.092

> <i_epik_Tot_Q>
1

> <i_epik_Tot_abs_Q>
1

> <r_epik_Metal_State_Penalty>
1.19829

> <b_epik_Metal_Only>
0

> <s_lp_Force_Field>
OPLS_2005

> <r_lp_Energy>
10.7662

> <b_lp_Chiralities_Consistent>
1

> <s_lp_Variant>
AV-unprocessed.smi:496-3

> <Gold.Version>
5.8.1

> <Gold.Id.Protein>
6NUR|6NUR_protein|mol2

> <Gold.PLP.Fitness>
57.1242

> <Gold.PLP.PLP>
-49.0541

> <Gold.PLP.part.hbond>
-2.9954

> <Gold.PLP.part.metal>
0.0000

> <Gold.PLP.part.buried>
-7.1889

> <Gold.PLP.part.nonpolar>
-39.4885

> <Gold.PLP.part.repulsive>
0.3263

> <Gold.PLP.ligand.clash>
0.0000

> <Gold.PLP.ligand.torsion>
2.0140

> <Gold.PLP.Chemscore.Hbond>
4.0000

> <Gold.PLP.Chemscore.CHOScore>
0.0000

> <Gold.PLP.Chemscore.Metal>
0.0000

> <Gold.Chemscore.Hbonds>
donor molecule, donor type, donor heavy atom, donor atom, acceptor molecule, acceptor atom, score
      L1  H     9    35       P1  8028  1.00
      L1  H    17    43       P1  8028  2.00
      P1  H  7997  8008       L1     2  1.00

> <Gold.PLP.Chemscore.Internal.Correction>
0.0981

> <Gold.Rescore>
     Score         DG    S(hbond)    S(metal)    S(lipo)     H(rot)  DE(clash)    DE(int)     intcor
     21.84     -23.96       2.83        0.00     118.68       1.90       0.01       2.11       ----

> <Gold.Chemscore.Fitness>
21.8375

> <Gold.Chemscore.DG>
-23.9640

> <Gold.Chemscore.ZeroCoef>
-5.4800

> <Gold.Chemscore.Hbond>
2.8321

> <Gold.Chemscore.Metal>
0.0000

> <Gold.Chemscore.Lipo>
118.6801

> <Gold.Chemscore.Internal_Hbond>
0.0000

> <Gold.Chemscore.DEClash>
0.0137

> <Gold.Chemscore.DEInternal>
2.1128

> <Gold.Chemscore.Rot>
1.8988

> <Gold.Chemscore.Internal.Correction>
   9.000000E+99

> <Gold.Chemscore.Hbonds>
donor molecule, donor type, donor heavy atom, donor atom, acceptor molecule, acceptor atom, score
      L1  H     9    35       P1  8028  0.98
      L1  H    17    43       P1  8028  0.94
      P1  H  7997  8008       L1     2  0.45

> <Gold.Chemscore.Hbond.Weighted>
-9.4592

> <Gold.Chemscore.Metal.Weighted>
-0.0000

> <Gold.Chemscore.Lipo.Weighted>
-13.8856

> <Gold.Chemscore.Internal_Hbond.Weighted>
0.0000

> <Gold.Chemscore.DEClash.Weighted>
0.0137

> <Gold.Chemscore.DEInternal.Weighted>
2.1128

> <Gold.Chemscore.Rot.Weighted>
4.8608

> <Gold.Chemscore.Internal.Correction.Weighted>
   9.000000E+99

> <Gold.Protein.RotatedTorsions>
[ 6907 6896 6895 6894 ] final   -4.23 input  -60.11 | X-H torsion
[ 7974 7965 7964 7962 ] final  141.39 input  175.53 | X-H torsion
[ 8008 7997 7996 7995 ] final  -39.90 input   59.86 | X-H torsion
[ 10167 10162 10161 10158 ] final   68.26 input  -65.29 | X-H torsion
[ 10718 10713 10712 10709 ] final  -52.64 input   66.30 | X-H torsion
[ 10763 10752 10751 10750 ] final  120.26 input  -60.55 | X-H torsion
[ 11005 11000 10999 10996 ] final  -87.87 input  -57.11 | X-H torsion

> <Gold.Protein.ActiveResidues>
 VAL166  LYS551  ARG553  GLY616  TRP617  ASP618  TYR619  PRO620  LYS621  CYS622 
 ASP623  PHE694  ASN695  SER759  ASP760  ASP761  ALA762  ILE779  LEU786  VAL792 
 PHE793  MET794  SER795  GLU796  ALA797  LYS798  CYS799  TRP800  GLU811  SER814 

> <Gold.Protein.RotatedAtoms>
  151.5010  135.1061  159.9828 H   0  0  0  0  0  0  0  0  0  0  0  0  # atno 6907 bound_to 6896
  152.4702  133.8008  159.6962 H   0  0  0  0  0  0  0  0  0  0  0  0  # atno 6908 bound_to 6896
  150.8706  133.7447  159.2988 H   0  0  0  0  0  0  0  0  0  0  0  0  # atno 6909 bound_to 6896
  144.9101  139.5305  143.5713 H   0  0  0  0  0  0  0  0  0  0  0  0  # atno 7974 bound_to 7965
  154.4018  140.1539  156.2938 H   0  0  0  0  0  0  0  0  0  0  0  0  # atno 8008 bound_to 7997
  155.8761  140.3446  155.5833 H   0  0  0  0  0  0  0  0  0  0  0  0  # atno 8009 bound_to 7997
  155.7720  140.0831  157.2094 H   0  0  0  0  0  0  0  0  0  0  0  0  # atno 8010 bound_to 7997
  140.0806  144.5074  150.7164 H   0  0  0  0  0  0  0  0  0  0  0  0  # atno 10167 bound_to 10162
  156.1604  130.4150  149.9802 H   0  0  0  0  0  0  0  0  0  0  0  0  # atno 10718 bound_to 10713
  153.5958  135.3457  155.2927 H   0  0  0  0  0  0  0  0  0  0  0  0  # atno 10763 bound_to 10752
  154.8645  135.4215  154.2466 H   0  0  0  0  0  0  0  0  0  0  0  0  # atno 10764 bound_to 10752
  153.3284  135.7042  153.7040 H   0  0  0  0  0  0  0  0  0  0  0  0  # atno 10765 bound_to 10752
  141.1610  133.7536  156.9369 H   0  0  0  0  0  0  0  0  0  0  0  0  # atno 11005 bound_to 11000
  146.3154  139.7900  142.8987 LP  0  0  0  0  0  0  0  0  0  0  0  0  # atno 17320 bound_to 7965
  145.3469  141.0299  143.3361 LP  0  0  0  0  0  0  0  0  0  0  0  0  # atno 17321 bound_to 7965
  140.7079  143.2482  151.4669 LP  0  0  0  0  0  0  0  0  0  0  0  0  # atno 17342 bound_to 10162
  139.5782  144.1771  152.1932 LP  0  0  0  0  0  0  0  0  0  0  0  0  # atno 17343 bound_to 10162
  156.7633  130.9159  151.3642 LP  0  0  0  0  0  0  0  0  0  0  0  0  # atno 17370 bound_to 10713
  157.6728  130.9067  150.0080 LP  0  0  0  0  0  0  0  0  0  0  0  0  # atno 17371 bound_to 10713
  140.1348  134.9332  157.2386 LP  0  0  0  0  0  0  0  0  0  0  0  0  # atno 17394 bound_to 11000
  140.2909  134.3242  155.7315 LP  0  0  0  0  0  0  0  0  0  0  0  0  # atno 17395 bound_to 11000

$$$$
