#       Name:                AV-unprocessed.smi:3348
#       Creating user name   scv26
#       Creation time:       Fri Mar 27 19:34:05 2020


#       File generated by GOLD software.
#

@<TRIPOS>MOLECULE
AV-unprocessed.smi:3348
    50    51     1
SMALL
NO_CHARGES


@<TRIPOS>ATOM
      1 ****        -1.9049   2.9561  -0.8752 C.3            1 S1                 0.0000
      2 ****        -1.0224   2.6904   0.3515 C.3            1 S1                 0.0000
      3 ****        -1.8096   2.9053   1.6598 C.3            1 S1                 0.0000
      4 ****        -0.9748   2.7728   2.8410 N.pl3          1 S1                 0.0000
      5 ****        -0.2410   3.7462   3.4858 C.2            1 S1                 0.0000
      6 ****         0.3889   3.1479   4.5392 C.2            1 S1                 0.0000
      7 ****        -0.0282   1.7900   4.4570 C.2            1 S1                 0.0000
      8 ****        -0.8433   1.5680   3.4384 N.2            1 S1                 0.0000
      9 ****        -0.4843   1.3134   0.2839 N.4            1 S1                 1.0000
     10 ****         0.9886   1.2188   0.3453 C.3            1 S1                 0.0000
     11 ****         1.4392  -0.2436   0.3814 C.3            1 S1                 0.0000
     12 ****         1.0923  -0.8554  -0.8512 O.3            1 S1                 0.0000
     13 ****         1.3976  -2.2440  -0.9238 C.3            1 S1                 0.0000
     14 ****         2.2201  -2.4773  -2.2047 C.3            1 S1                 0.0000
     15 ****         1.3939  -2.2130  -3.4747 C.3            1 S1                 0.0000
     16 ****         0.1055  -3.0488  -3.4846 C.3            1 S1                 0.0000
     17 ****        -0.7268  -2.8058  -2.2156 C.3            1 S1                 0.0000
     18 ****         0.0941  -3.0775  -0.9392 C.3            1 S1                 0.0000
     19 ****        -0.7491  -2.8824   0.3303 C.3            1 S1                 0.0000
     20 ****        -2.2913   3.9757  -0.8676 H              1 S1                 0.0000
     21 ****        -2.7585   2.2778  -0.9065 H              1 S1                 0.0000
     22 ****        -1.3414   2.8258  -1.7997 H              1 S1                 0.0000
     23 ****        -0.1979   3.4054   0.3223 H              1 S1                 0.0000
     24 ****        -2.2492   3.9036   1.6714 H              1 S1                 0.0000
     25 ****        -2.6405   2.2013   1.7317 H              1 S1                 0.0000
     26 ****        -0.2272   4.7712   3.1450 H              1 S1                 0.0000
     27 ****         1.0465   3.6101   5.2603 H              1 S1                 0.0000
     28 ****         0.2359   0.9650   5.1021 H              1 S1                 0.0000
     29 ****        -0.8717   0.7873   1.0546 H              1 S1                 0.0000
     30 ****         1.4277   1.7311  -0.5116 H              1 S1                 0.0000
     31 ****         1.3417   1.7273   1.2433 H              1 S1                 0.0000
     32 ****         2.5200  -0.2942   0.5200 H              1 S1                 0.0000
     33 ****         0.9761  -0.7618   1.2222 H              1 S1                 0.0000
     34 ****         2.0088  -2.5523  -0.0730 H              1 S1                 0.0000
     35 ****         3.1072  -1.8432  -2.1989 H              1 S1                 0.0000
     36 ****         2.5804  -3.5067  -2.2191 H              1 S1                 0.0000
     37 ****         1.1426  -1.1534  -3.5367 H              1 S1                 0.0000
     38 ****         1.9900  -2.4400  -4.3588 H              1 S1                 0.0000
     39 ****        -0.4863  -2.8088  -4.3683 H              1 S1                 0.0000
     40 ****         0.3576  -4.1073  -3.5596 H              1 S1                 0.0000
     41 ****        -1.0932  -1.7783  -2.2102 H              1 S1                 0.0000
     42 ****        -1.6092  -3.4464  -2.2336 H              1 S1                 0.0000
     43 ****         0.3865  -4.1286  -0.9613 H              1 S1                 0.0000
     44 ****        -1.1158  -1.8592   0.4140 H              1 S1                 0.0000
     45 ****        -0.1691  -3.1065   1.2258 H              1 S1                 0.0000
     46 ****        -1.6163  -3.5431   0.3278 H              1 S1                 0.0000
     47 ****        -0.7910   0.8888  -0.5799 H              1 S1                 0.0000
     48 ****        -1.2669   0.7026   3.1708 LP             1 S1                 0.0000
     49 ****         1.5875  -0.3874  -1.5832 LP             1 S1                 0.0000
     50 ****         0.1084  -0.7437  -0.9901 LP             1 S1                 0.0000
@<TRIPOS>BOND
    1    1    2 1     
    2    1   20 1     
    3    1   21 1     
    4    1   22 1     
    5    2    3 1     
    6    2    9 1     
    7    2   23 1     
    8    3    4 1     
    9    3   24 1     
   10    3   25 1     
   11    4    8 1     
   12    4    5 1     
   13    5    6 2     
   14    5   26 1     
   15    6    7 1     
   16    6   27 1     
   17    7    8 2     
   18    7   28 1     
   19    9   10 1     
   20    9   29 1     
   21    9   47 1     
   22   10   11 1     
   23   10   30 1     
   24   10   31 1     
   25   11   12 1     
   26   11   32 1     
   27   11   33 1     
   28   12   13 1     
   29   13   18 1     
   30   13   14 1     
   31   13   34 1     
   32   14   15 1     
   33   14   35 1     
   34   14   36 1     
   35   15   16 1     
   36   15   37 1     
   37   15   38 1     
   38   16   17 1     
   39   16   39 1     
   40   16   40 1     
   41   17   18 1     
   42   17   41 1     
   43   17   42 1     
   44   18   19 1     
   45   18   43 1     
   46   19   44 1     
   47   19   45 1     
   48   19   46 1     
   49    8   48 1     
   50   12   49 1     
   51   12   50 1     
@<TRIPOS>SUBSTRUCTURE
      1 S1             1
@<TRIPOS>SET
LONE_PAIRS      STATIC     ATOMS    <user>   **** ""
3 48 49 50
DONOR_HYDROGENS      STATIC     ATOMS    <user>   **** ""
2 29 47
ATOM$BLUE        STATIC     ATOMS    COLORGROUP SYSTEM
3 48 49 50
ATOM$RED        STATIC     ATOMS    COLORGROUP SYSTEM
2 29 47
