AV-unprocessed.smi:535|AV-procd|sdf|2858|dock4
  -GOLD-   2262023353D 1   1.00000     0.00000
 Structure written by MMmdl.
 46 48  0  0  0  0  0  0  0  0  1 V2000
  150.2998  137.1987  158.6253 C   0  0  0  0  0  0  0  0  0  0  0  0
  150.6943  138.0177  157.5388 O   0  0  0  0  0  0  0  0  0  0  0  0
  151.8912  138.7286  157.8038 C   0  0  0  0  0  0  0  0  0  0  0  0
  152.1908  139.6537  156.6191 C   0  0  0  0  0  0  0  0  0  0  0  0
  150.9972  140.3790  156.1935 N   0  0  0  0  0  0  0  0  0  0  0  0
  150.4738  141.5299  156.7008 C   0  0  0  0  0  0  0  0  0  0  0  0
  151.0665  142.2216  157.7592 N   0  0  0  0  0  0  0  0  0  0  0  0
  150.9646  143.6554  158.0305 C   0  0  0  0  0  0  0  0  0  0  0  0
  152.3516  144.2905  158.2291 C   0  0  0  0  0  0  0  0  0  0  0  0
  153.0968  143.5976  159.3779 C   0  0  0  0  0  0  0  0  0  0  0  0
  153.1131  142.0738  159.1627 C   0  0  1  0  0  0  0  0  0  0  0  0
  153.7701  141.3440  160.3419 C   0  0  0  0  0  0  0  0  0  0  0  0
  151.6810  141.5594  158.9089 C   0  0  0  0  0  0  0  0  0  0  0  0
  149.3205  141.9082  156.1425 N   0  0  0  0  0  0  0  0  0  0  0  0
  149.0964  140.9306  155.1866 C   0  0  0  0  0  0  0  0  0  0  0  0
  150.0800  139.9955  155.2123 C   0  0  0  0  0  0  0  0  0  0  0  0
  150.0598  138.8119  154.3406 C   0  0  0  0  0  0  0  0  0  0  0  0
  150.9222  137.9366  154.3613 O   0  0  0  0  0  0  0  0  0  0  0  0
  148.9838  138.7750  153.5175 N   0  0  0  0  0  0  0  0  0  0  0  0
  147.9665  139.6856  153.4367 C   0  0  0  0  0  0  0  0  0  0  0  0
  147.0449  139.5088  152.6401 O   0  0  0  0  0  0  0  0  0  0  0  0
  148.0196  140.7749  154.2680 N   0  0  0  0  0  0  0  0  0  0  0  0
  146.9563  141.7810  154.2316 C   0  0  0  0  0  0  0  0  0  0  0  0
  148.9219  137.9802  152.8980 H   0  0  0  0  0  0  0  0  0  0  0  0
  149.3774  136.6753  158.3738 H   0  0  0  0  0  0  0  0  0  0  0  0
  150.1160  137.7935  159.5210 H   0  0  0  0  0  0  0  0  0  0  0  0
  151.0607  136.4504  158.8517 H   0  0  0  0  0  0  0  0  0  0  0  0
  151.7884  139.3120  158.7203 H   0  0  0  0  0  0  0  0  0  0  0  0
  152.7142  138.0271  157.9492 H   0  0  0  0  0  0  0  0  0  0  0  0
  152.9787  140.3527  156.8806 H   0  0  0  0  0  0  0  0  0  0  0  0
  152.5954  139.0857  155.7837 H   0  0  0  0  0  0  0  0  0  0  0  0
  150.4160  144.1576  157.2347 H   0  0  0  0  0  0  0  0  0  0  0  0
  150.3649  143.7978  158.9304 H   0  0  0  0  0  0  0  0  0  0  0  0
  152.9358  144.2097  157.3119 H   0  0  0  0  0  0  0  0  0  0  0  0
  152.2493  145.3554  158.4388 H   0  0  0  0  0  0  0  0  0  0  0  0
  154.1138  143.9841  159.4522 H   0  0  0  0  0  0  0  0  0  0  0  0
  152.6032  143.8312  160.3223 H   0  0  0  0  0  0  0  0  0  0  0  0
  153.7088  141.8643  158.2728 H   0  0  0  0  0  0  0  0  0  0  0  0
  153.2125  141.5004  161.2658 H   0  0  0  0  0  0  0  0  0  0  0  0
  154.7890  141.6970  160.5033 H   0  0  0  0  0  0  0  0  0  0  0  0
  153.8185  140.2701  160.1597 H   0  0  0  0  0  0  0  0  0  0  0  0
  151.0568  141.7123  159.7906 H   0  0  0  0  0  0  0  0  0  0  0  0
  151.7083  140.4834  158.7326 H   0  0  0  0  0  0  0  0  0  0  0  0
  146.7383  142.0869  153.2071 H   0  0  0  0  0  0  0  0  0  0  0  0
  147.2205  142.6838  154.7823 H   0  0  0  0  0  0  0  0  0  0  0  0
  146.0423  141.3794  154.6703 H   0  0  0  0  0  0  0  0  0  0  0  0
  1  2  1  0  0  0  0
  1 25  1  0  0  0  0
  1 26  1  0  0  0  0
  1 27  1  0  0  0  0
  2  3  1  0  0  0  0
  3  4  1  0  0  0  0
  3 28  1  0  0  0  0
  3 29  1  0  0  0  0
  4  5  1  0  0  0  0
  4 30  1  0  0  0  0
  4 31  1  0  0  0  0
  5 16  1  0  0  0  0
  5  6  1  0  0  0  0
  6  7  1  0  0  0  0
  6 14  2  0  0  0  0
  7 13  1  0  0  0  0
  7  8  1  0  0  0  0
  8  9  1  0  0  0  0
  8 32  1  0  0  0  0
  8 33  1  0  0  0  0
  9 10  1  0  0  0  0
  9 34  1  0  0  0  0
  9 35  1  0  0  0  0
 10 11  1  0  0  0  0
 10 36  1  0  0  0  0
 10 37  1  0  0  0  0
 11 12  1  0  0  0  0
 11 13  1  0  0  0  0
 11 38  1  0  0  0  0
 12 39  1  0  0  0  0
 12 40  1  0  0  0  0
 12 41  1  0  0  0  0
 13 42  1  0  0  0  0
 13 43  1  0  0  0  0
 14 15  1  0  0  0  0
 15 22  1  0  0  0  0
 15 16  2  0  0  0  0
 16 17  1  0  0  0  0
 17 18  2  0  0  0  0
 17 19  1  0  0  0  0
 19 24  1  0  0  0  0
 19 20  1  0  0  0  0
 20 21  2  0  0  0  0
 20 22  1  0  0  0  0
 22 23  1  0  0  0  0
 23 44  1  0  0  0  0
 23 45  1  0  0  0  0
 23 46  1  0  0  0  0
M  END
> <s_m_source_file>
AV-unprocessed.smi

> <i_m_source_file_index>
535

> <i_lp_mmshare_version>
43012

> <i_f3d_flags>
0

> <s_epik_input>
W0NIM11uMWMoPU8pW25IXWMoPU8pYyhjMTIpbihbQ0gyXVtDSDJdT1tDSDNdKWMobjIpTjNbQ0gyXVtDSDJdW0NIMl1bQ0BASF0oW0NIM10pW0NIMl0z

> <s_epik_cmdline>
J2VwaWtfcHl0aG9uJywgJy1waCcsICc3LjAnLCAnLXRuJywgJzgnLCAnLW1hJywgJzIwMCcsICctbWV0YWxfYmluZGluZycsICctaW1hZScsICc8aW5maWxlLm1hZT4nLCAnLW9tYWUnLCAnPG91dGZpbGUubWFlPic=

> <r_lp_tautomer_probability>
1

> <r_epik_Ionization_Penalty>
0.00042181

> <r_epik_Ionization_Penalty_Charging>
0.000122112

> <r_epik_Ionization_Penalty_Neutral>
0.000299698

> <r_epik_State_Penalty>
-0

> <r_epik_Charging_Adjusted_Penalty>
0.000122112

> <i_epik_Tot_Q>
0

> <i_epik_Tot_abs_Q>
0

> <r_epik_Metal_State_Penalty>
0.0934894

> <b_epik_Metal_Only>
0

> <s_lp_Force_Field>
OPLS_2005

> <r_lp_Energy>
38.8925

> <b_lp_Chiralities_Consistent>
1

> <s_lp_Variant>
AV-unprocessed.smi:535-1

> <Gold.Version>
5.8.1

> <Gold.Id.Protein>
6NUR|6NUR_protein|mol2

> <Gold.PLP.Fitness>
47.5972

> <Gold.PLP.PLP>
-45.8526

> <Gold.PLP.part.hbond>
-2.0000

> <Gold.PLP.part.metal>
0.0000

> <Gold.PLP.part.buried>
-4.8372

> <Gold.PLP.part.nonpolar>
-43.4342

> <Gold.PLP.part.repulsive>
3.8641

> <Gold.PLP.ligand.clash>
0.0000

> <Gold.PLP.ligand.torsion>
0.8943

> <Gold.PLP.Chemscore.Hbond>
1.0000

> <Gold.PLP.Chemscore.CHOScore>
0.0000

> <Gold.PLP.Chemscore.Metal>
0.0000

> <Gold.Chemscore.Hbonds>
donor molecule, donor type, donor heavy atom, donor atom, acceptor molecule, acceptor atom, score
      L1  H    19    24       P1  7948  1.00

> <Gold.PLP.Chemscore.Internal.Correction>
0.5331

> <Gold.Rescore>
     Score         DG    S(hbond)    S(metal)    S(lipo)     H(rot)  DE(clash)    DE(int)     intcor
     13.78     -16.11       1.00        0.00      94.29       1.46       0.02       2.31       ----

> <Gold.Chemscore.Fitness>
13.7770

> <Gold.Chemscore.DG>
-16.1093

> <Gold.Chemscore.ZeroCoef>
-5.4800

> <Gold.Chemscore.Hbond>
0.9954

> <Gold.Chemscore.Metal>
0.0000

> <Gold.Chemscore.Lipo>
94.2860

> <Gold.Chemscore.Internal_Hbond>
0.0000

> <Gold.Chemscore.DEClash>
0.0216

> <Gold.Chemscore.DEInternal>
2.3107

> <Gold.Chemscore.Rot>
1.4557

> <Gold.Chemscore.Internal.Correction>
   9.000000E+99

> <Gold.Chemscore.Hbonds>
donor molecule, donor type, donor heavy atom, donor atom, acceptor molecule, acceptor atom, score
      L1  H    19    24       P1  7948  0.96

> <Gold.Chemscore.Hbond.Weighted>
-3.3245

> <Gold.Chemscore.Metal.Weighted>
-0.0000

> <Gold.Chemscore.Lipo.Weighted>
-11.0315

> <Gold.Chemscore.Internal_Hbond.Weighted>
0.0000

> <Gold.Chemscore.DEClash.Weighted>
0.0216

> <Gold.Chemscore.DEInternal.Weighted>
2.3107

> <Gold.Chemscore.Rot.Weighted>
3.7267

> <Gold.Chemscore.Internal.Correction.Weighted>
   9.000000E+99

> <Gold.Protein.RotatedTorsions>
[ 6907 6896 6895 6894 ] final  104.20 input  -60.11 | X-H torsion
[ 7974 7965 7964 7962 ] final   92.12 input  175.53 | X-H torsion
[ 8008 7997 7996 7995 ] final   61.08 input   59.86 | X-H torsion
[ 10167 10162 10161 10158 ] final  130.33 input  -65.29 | X-H torsion
[ 10718 10713 10712 10709 ] final  -20.70 input   66.30 | X-H torsion
[ 10763 10752 10751 10750 ] final  -72.74 input  -60.55 | X-H torsion
[ 11005 11000 10999 10996 ] final  -49.15 input  -57.11 | X-H torsion

> <Gold.Protein.ActiveResidues>
 VAL166  LYS551  ARG553  GLY616  TRP617  ASP618  TYR619  PRO620  LYS621  CYS622 
 ASP623  PHE694  ASN695  SER759  ASP760  ASP761  ALA762  ILE779  LEU786  VAL792 
 PHE793  MET794  SER795  GLU796  ALA797  LYS798  CYS799  TRP800  GLU811  SER814 

> <Gold.Protein.RotatedAtoms>
  152.5272  133.9712  159.7762 H   0  0  0  0  0  0  0  0  0  0  0  0  # atno 6907 bound_to 6896
  150.9984  133.6073  159.2705 H   0  0  0  0  0  0  0  0  0  0  0  0  # atno 6908 bound_to 6896
  151.3191  135.0820  159.9352 H   0  0  0  0  0  0  0  0  0  0  0  0  # atno 6909 bound_to 6896
  145.4965  139.2276  143.2801 H   0  0  0  0  0  0  0  0  0  0  0  0  # atno 7974 bound_to 7965
  155.5926  140.3493  155.4571 H   0  0  0  0  0  0  0  0  0  0  0  0  # atno 8008 bound_to 7997
  156.0290  140.1270  157.0303 H   0  0  0  0  0  0  0  0  0  0  0  0  # atno 8009 bound_to 7997
  154.4344  140.1047  156.6057 H   0  0  0  0  0  0  0  0  0  0  0  0  # atno 8010 bound_to 7997
  139.5435  144.6752  151.4547 H   0  0  0  0  0  0  0  0  0  0  0  0  # atno 10167 bound_to 10162
  156.5282  130.4649  149.6560 H   0  0  0  0  0  0  0  0  0  0  0  0  # atno 10718 bound_to 10713
  154.4498  135.5920  153.6184 H   0  0  0  0  0  0  0  0  0  0  0  0  # atno 10763 bound_to 10752
  152.9812  135.6018  154.3618 H   0  0  0  0  0  0  0  0  0  0  0  0  # atno 10764 bound_to 10752
  154.3478  135.2841  155.2367 H   0  0  0  0  0  0  0  0  0  0  0  0  # atno 10765 bound_to 10752
  141.0743  133.6670  156.3545 H   0  0  0  0  0  0  0  0  0  0  0  0  # atno 11005 bound_to 11000
  146.2252  140.5763  142.8999 LP  0  0  0  0  0  0  0  0  0  0  0  0  # atno 17320 bound_to 7965
  144.7804  140.5828  143.6609 LP  0  0  0  0  0  0  0  0  0  0  0  0  # atno 17321 bound_to 7965
  140.6675  143.8367  150.6959 LP  0  0  0  0  0  0  0  0  0  0  0  0  # atno 17342 bound_to 10162
  140.1781  143.4138  152.1953 LP  0  0  0  0  0  0  0  0  0  0  0  0  # atno 17343 bound_to 10162
  156.3084  130.7215  151.2103 LP  0  0  0  0  0  0  0  0  0  0  0  0  # atno 17370 bound_to 10713
  157.7426  131.0487  150.5012 LP  0  0  0  0  0  0  0  0  0  0  0  0  # atno 17371 bound_to 10713
  140.5607  134.5936  157.5433 LP  0  0  0  0  0  0  0  0  0  0  0  0  # atno 17394 bound_to 11000
  139.9555  134.7542  156.0351 LP  0  0  0  0  0  0  0  0  0  0  0  0  # atno 17395 bound_to 11000

$$$$
