#       Name:                AV-unprocessed.smi:2928
#       Creating user name   scv26
#       Creation time:       Fri Mar 27 16:12:33 2020


#       File generated by GOLD software.
#

@<TRIPOS>MOLECULE
AV-unprocessed.smi:2928
    59    62     1
SMALL
NO_CHARGES


@<TRIPOS>ATOM
      1 ****        -4.6059  -3.0471  -0.4987 C.3            1 S1                 0.0000
      2 ****        -4.0120  -1.6890  -0.4883 N.4            1 S1                 1.0000
      3 ****        -3.2307  -1.3417  -1.6993 C.3            1 S1                 0.0000
      4 ****        -1.9081  -2.1472  -1.7701 C.3            1 S1                 0.0000
      5 ****        -1.0624  -2.0971  -0.4836 C.3            1 S1                 0.0000
      6 ****        -1.9152  -2.1701   0.7960 C.3            1 S1                 0.0000
      7 ****        -3.2342  -1.3599   0.7298 C.3            1 S1                 0.0000
      8 ****        -3.0716   0.1749   0.8264 C.3            1 S1                 0.0000
      9 ****        -2.5998   0.8868  -0.4718 C.3            1 S1                 0.0000
     10 ****        -1.1618   1.1355  -0.4974 N.am           1 S1                 0.0000
     11 ****        -0.5019   2.0335   0.2469 C.2            1 S1                 0.0000
     12 ****        -1.0505   2.8025   1.0358 O.2            1 S1                 0.0000
     13 ****         0.8199   1.9514   0.0296 N.am           1 S1                 0.0000
     14 ****         1.8674   2.6372   0.7038 C.ar           1 S1                 0.0000
     15 ****         1.7141   3.9397   1.2366 C.ar           1 S1                 0.0000
     16 ****         2.8114   4.5529   1.8682 C.ar           1 S1                 0.0000
     17 ****         4.0248   3.8450   1.9384 C.ar           1 S1                 0.0000
     18 ****         4.1907   2.6099   1.4225 N.ar           1 S1                 0.0000
     19 ****         3.1374   2.0154   0.8113 C.ar           1 S1                 0.0000
     20 ****         3.3290   0.7267   0.2815 N.3            1 S1                 0.0000
     21 ****         4.3185   0.6212  -0.7771 C.3            1 S1                 0.0000
     22 ****         4.6005  -0.8768  -0.9189 C.3            1 S1                 0.0000
     23 ****         4.1700  -1.4882   0.4206 C.3            1 S1                 0.0000
     24 ****         3.6640  -0.3045   1.2490 C.3            1 S1                 0.0000
     25 ****        -3.0756   0.1958  -1.7748 C.3            1 S1                 0.0000
     26 ****        -3.8490  -3.8306  -0.5091 H              1 S1                 0.0000
     27 ****        -5.2391  -3.1781  -1.3764 H              1 S1                 0.0000
     28 ****        -5.2313  -3.1946   0.3821 H              1 S1                 0.0000
     29 ****        -3.8230  -1.6290  -2.5695 H              1 S1                 0.0000
     30 ****        -2.1472  -3.1902  -1.9796 H              1 S1                 0.0000
     31 ****        -1.3092  -1.8143  -2.6184 H              1 S1                 0.0000
     32 ****        -0.3479  -2.9208  -0.4885 H              1 S1                 0.0000
     33 ****        -0.4400  -1.2089  -0.4718 H              1 S1                 0.0000
     34 ****        -2.1578  -3.2159   0.9858 H              1 S1                 0.0000
     35 ****        -1.3214  -1.8523   1.6537 H              1 S1                 0.0000
     36 ****        -3.8313  -1.6561   1.5937 H              1 S1                 0.0000
     37 ****        -4.0535   0.5822   1.0721 H              1 S1                 0.0000
     38 ****        -2.4414   0.4353   1.6775 H              1 S1                 0.0000
     39 ****        -3.0515   1.8809  -0.4729 H              1 S1                 0.0000
     40 ****        -0.6158   0.5541  -1.1165 H              1 S1                 0.0000
     41 ****         1.1222   1.2171  -0.5940 H              1 S1                 0.0000
     42 ****         0.7836   4.4810   1.1587 H              1 S1                 0.0000
     43 ****         2.7256   5.5454   2.2852 H              1 S1                 0.0000
     44 ****         4.8878   4.2849   2.4160 H              1 S1                 0.0000
     45 ****         3.9455   1.0498  -1.7078 H              1 S1                 0.0000
     46 ****         5.2317   1.1513  -0.5028 H              1 S1                 0.0000
     47 ****         4.0039  -1.2998  -1.7280 H              1 S1                 0.0000
     48 ****         5.6499  -1.0676  -1.1451 H              1 S1                 0.0000
     49 ****         3.3673  -2.2086   0.2589 H              1 S1                 0.0000
     50 ****         4.9869  -2.0078   0.9219 H              1 S1                 0.0000
     51 ****         4.4479   0.0430   1.9235 H              1 S1                 0.0000
     52 ****         2.7964  -0.5762   1.8510 H              1 S1                 0.0000
     53 ****        -2.4437   0.4768  -2.6187 H              1 S1                 0.0000
     54 ****        -4.0598   0.6029  -2.0121 H              1 S1                 0.0000
     55 ****        -4.8049  -1.0632  -0.4846 H              1 S1                 0.0000
     56 ****        -2.0438   2.7784   1.1485 LP             1 S1                 0.0000
     57 ****        -0.5029   3.4515   1.5640 LP             1 S1                 0.0000
     58 ****         5.0723   2.1428   1.4896 LP             1 S1                 0.0000
     59 ****         2.4138   0.5685  -0.0890 LP             1 S1                 0.0000
@<TRIPOS>BOND
    1    1    2 1     
    2    1   26 1     
    3    1   27 1     
    4    1   28 1     
    5    2    7 1     
    6    2    3 1     
    7    2   55 1     
    8    3   25 1     
    9    3    4 1     
   10    3   29 1     
   11    4    5 1     
   12    4   30 1     
   13    4   31 1     
   14    5    6 1     
   15    5   32 1     
   16    5   33 1     
   17    6    7 1     
   18    6   34 1     
   19    6   35 1     
   20    7    8 1     
   21    7   36 1     
   22    8    9 1     
   23    8   37 1     
   24    8   38 1     
   25    9   10 1     
   26    9   25 1     
   27    9   39 1     
   28   10   11 am    
   29   10   40 1     
   30   11   12 2     
   31   11   13 am    
   32   13   14 1     
   33   13   41 1     
   34   14   19 ar    
   35   14   15 ar    
   36   15   16 ar    
   37   15   42 1     
   38   16   17 ar    
   39   16   43 1     
   40   17   18 ar    
   41   17   44 1     
   42   18   19 ar    
   43   19   20 1     
   44   20   24 1     
   45   20   21 1     
   46   21   22 1     
   47   21   45 1     
   48   21   46 1     
   49   22   23 1     
   50   22   47 1     
   51   22   48 1     
   52   23   24 1     
   53   23   49 1     
   54   23   50 1     
   55   24   51 1     
   56   24   52 1     
   57   25   53 1     
   58   25   54 1     
   59   12   56 1     
   60   12   57 1     
   61   18   58 1     
   62   20   59 1     
@<TRIPOS>SUBSTRUCTURE
      1 S1             1
@<TRIPOS>SET
LONE_PAIRS      STATIC     ATOMS    <user>   **** ""
4 56 57 58 59
DONOR_HYDROGENS      STATIC     ATOMS    <user>   **** ""
3 55 40 41
ATOM$BLUE        STATIC     ATOMS    COLORGROUP SYSTEM
4 56 57 58 59
ATOM$RED        STATIC     ATOMS    COLORGROUP SYSTEM
3 55 40 41
