AV-unprocessed.smi:2387|AV-procd|sdf|9470|dock5
  -GOLD-   2272013103D 1   1.00000     0.00000
 Structure written by MMmdl.
 48 50  0  0  0  0  0  0  0  0  2 V2000
  144.2469  132.1213  150.4413 C   0  0  0  0  0  0  0  0  0  0  0  0
  144.6179  133.5071  150.9257 C   0  0  0  0  0  0  0  0  0  0  0  0
  145.8093  133.7653  151.6352 C   0  0  0  0  0  0  0  0  0  0  0  0
  146.0906  135.0810  152.0582 C   0  0  0  0  0  0  0  0  0  0  0  0
  145.1672  136.1187  151.7717 C   0  0  0  0  0  0  0  0  0  0  0  0
  145.3615  137.4777  152.1406 N   0  0  0  0  0  0  0  0  0  0  0  0
  146.1240  137.9703  153.1321 C   0  0  0  0  0  0  0  0  0  0  0  0
  146.7898  137.2936  153.9150 O   0  0  0  0  0  0  0  0  0  0  0  0
  146.0602  139.3130  153.1739 N   0  0  0  0  0  0  0  0  0  0  0  0
  146.7244  140.2148  154.1331 C   0  0  0  0  0  0  0  0  0  0  0  0
  148.2312  139.8864  154.3252 C   0  0  0  0  0  0  0  0  0  0  0  0
  148.7194  138.8969  153.7777 O   0  0  0  0  0  0  0  0  0  0  0  0
  148.9576  140.6983  155.1127 N   0  0  0  0  0  0  0  0  0  0  0  0
  150.3749  140.5383  155.4076 C   0  0  0  0  0  0  0  0  0  0  0  0
  150.6957  140.2151  156.8545 C   0  0  0  0  0  0  0  0  0  0  0  0
  150.7331  141.2986  157.9059 C   0  0  0  0  0  0  0  0  0  0  0  0
  152.0144  140.6373  157.4578 C   0  0  0  0  0  0  0  0  0  0  0  0
  146.5814  141.6754  153.6178 C   0  0  0  0  0  0  0  0  0  0  0  0
  145.7147  142.4388  154.6242 C   0  0  0  0  0  0  0  0  0  0  0  0
  145.8860  141.6839  155.9342 C   0  0  0  0  0  0  0  0  0  0  0  0
  145.9695  140.2240  155.4940 C   0  0  0  0  0  0  0  0  0  0  0  0
  144.0017  135.7970  151.0435 C   0  0  0  0  0  0  0  0  0  0  0  0
  143.7695  134.5235  150.6570 N   0  3  0  0  0  0  0  0  0  0  0  0
  145.0144  131.3935  150.7066 H   0  0  0  0  0  0  0  0  0  0  0  0
  144.1325  132.1150  149.3569 H   0  0  0  0  0  0  0  0  0  0  0  0
  143.3058  131.8017  150.8897 H   0  0  0  0  0  0  0  0  0  0  0  0
  146.5049  132.9676  151.8521 H   0  0  0  0  0  0  0  0  0  0  0  0
  147.0148  135.2683  152.5829 H   0  0  0  0  0  0  0  0  0  0  0  0
  144.8060  138.1505  151.6328 H   0  0  0  0  0  0  0  0  0  0  0  0
  145.4821  139.7668  152.4819 H   0  0  0  0  0  0  0  0  0  0  0  0
  148.4901  141.4860  155.5362 H   0  0  0  0  0  0  0  0  0  0  0  0
  150.7929  139.7550  154.7736 H   0  0  0  0  0  0  0  0  0  0  0  0
  150.8834  141.4607  155.1255 H   0  0  0  0  0  0  0  0  0  0  0  0
  150.3258  139.2446  157.1797 H   0  0  0  0  0  0  0  0  0  0  0  0
  150.5575  142.3236  157.5854 H   0  0  0  0  0  0  0  0  0  0  0  0
  150.3577  141.0494  158.8963 H   0  0  0  0  0  0  0  0  0  0  0  0
  152.4936  139.9479  158.1500 H   0  0  0  0  0  0  0  0  0  0  0  0
  152.6915  141.2236  156.8399 H   0  0  0  0  0  0  0  0  0  0  0  0
  147.5501  142.1738  153.5444 H   0  0  0  0  0  0  0  0  0  0  0  0
  146.1432  141.7299  152.6199 H   0  0  0  0  0  0  0  0  0  0  0  0
  145.9936  143.4895  154.7063 H   0  0  0  0  0  0  0  0  0  0  0  0
  144.6698  142.3961  154.3141 H   0  0  0  0  0  0  0  0  0  0  0  0
  146.8169  141.9829  156.4174 H   0  0  0  0  0  0  0  0  0  0  0  0
  145.0706  141.8659  156.6346 H   0  0  0  0  0  0  0  0  0  0  0  0
  144.9524  139.8483  155.3716 H   0  0  0  0  0  0  0  0  0  0  0  0
  146.4372  139.5997  156.2570 H   0  0  0  0  0  0  0  0  0  0  0  0
  143.2444  136.5156  150.7646 H   0  0  0  0  0  0  0  0  0  0  0  0
  142.9148  134.3198  150.1382 H   0  0  0  0  0  0  0  0  0  0  0  0
  1  2  1  0  0  0  0
  1 24  1  0  0  0  0
  1 25  1  0  0  0  0
  1 26  1  0  0  0  0
  2 23  1  0  0  0  0
  2  3  2  0  0  0  0
  3  4  1  0  0  0  0
  3 27  1  0  0  0  0
  4  5  2  0  0  0  0
  4 28  1  0  0  0  0
  5  6  1  0  0  0  0
  5 22  1  0  0  0  0
  6  7  1  0  0  0  0
  6 29  1  0  0  0  0
  7  8  2  0  0  0  0
  7  9  1  0  0  0  0
  9 10  1  0  0  0  0
  9 30  1  0  0  0  0
 10 21  1  0  0  0  0
 10 11  1  0  0  0  0
 10 18  1  0  0  0  0
 11 12  2  0  0  0  0
 11 13  1  0  0  0  0
 13 14  1  0  0  0  0
 13 31  1  0  0  0  0
 14 15  1  0  0  0  0
 14 32  1  0  0  0  0
 14 33  1  0  0  0  0
 15 17  1  0  0  0  0
 15 16  1  0  0  0  0
 15 34  1  0  0  0  0
 16 17  1  0  0  0  0
 16 35  1  0  0  0  0
 16 36  1  0  0  0  0
 17 37  1  0  0  0  0
 17 38  1  0  0  0  0
 18 19  1  0  0  0  0
 18 39  1  0  0  0  0
 18 40  1  0  0  0  0
 19 20  1  0  0  0  0
 19 41  1  0  0  0  0
 19 42  1  0  0  0  0
 20 21  1  0  0  0  0
 20 43  1  0  0  0  0
 20 44  1  0  0  0  0
 21 45  1  0  0  0  0
 21 46  1  0  0  0  0
 22 23  2  0  0  0  0
 22 47  1  0  0  0  0
 23 48  1  0  0  0  0
M  CHG  1  23   1
M  END
> <s_m_source_file>
AV-unprocessed.smi

> <i_m_source_file_index>
2387

> <i_lp_mmshare_version>
43012

> <i_f3d_flags>
0

> <s_epik_input>
W0NIM11jMVtjSF1bY0hdYyhbY0hdbjEpW05IXUMoPU8pW05IXUMyKFtDSDJdW0NIMl1bQ0gyXVtDSDJdMilDKD1PKVtOSF1bQ0gyXVtDSF0zW0NIMl1bQ0gyXTM=

> <s_epik_cmdline>
J2VwaWtfcHl0aG9uJywgJy1waCcsICc3LjAnLCAnLXRuJywgJzgnLCAnLW1hJywgJzIwMCcsICctbWV0YWxfYmluZGluZycsICctaW1hZScsICc8aW5maWxlLm1hZT4nLCAnLW9tYWUnLCAnPG91dGZpbGUubWFlPic=

> <r_epik_Ionization_Penalty>
2.1018

> <r_epik_Ionization_Penalty_Charging>
2.10178

> <r_epik_Ionization_Penalty_Neutral>
2.02976e-05

> <r_epik_State_Penalty>
2.23801

> <r_epik_Charging_Adjusted_Penalty>
4.33979

> <i_epik_Tot_Q>
1

> <i_epik_Tot_abs_Q>
1

> <r_epik_Metal_State_Penalty>
2.25493

> <b_epik_Metal_Only>
0

> <s_lp_Force_Field>
OPLS_2005

> <r_lp_Energy>
37.3987

> <b_lp_Chiralities_Consistent>
1

> <s_lp_Variant>
AV-unprocessed.smi:2387-2

> <Gold.Version>
5.8.1

> <Gold.Id.Protein>
6NUR|6NUR_protein|mol2

> <Gold.PLP.Fitness>
44.2009

> <Gold.PLP.PLP>
-34.6405

> <Gold.PLP.part.hbond>
-3.0000

> <Gold.PLP.part.metal>
0.0000

> <Gold.PLP.part.buried>
-5.0227

> <Gold.PLP.part.nonpolar>
-28.1428

> <Gold.PLP.part.repulsive>
1.5662

> <Gold.PLP.ligand.clash>
0.0000

> <Gold.PLP.ligand.torsion>
0.6943

> <Gold.PLP.Chemscore.Hbond>
3.4410

> <Gold.PLP.Chemscore.CHOScore>
0.0000

> <Gold.PLP.Chemscore.Metal>
0.0000

> <Gold.Chemscore.Hbonds>
donor molecule, donor type, donor heavy atom, donor atom, acceptor molecule, acceptor atom, score
      L1  H     6    29       P1 10171  0.77
      L1  H     9    30       P1 10175  0.70
      L1  H    23    48       P1 10186  2.00

> <Gold.PLP.Chemscore.Internal.Correction>
0.6261

> <Gold.Rescore>
     Score         DG    S(hbond)    S(metal)    S(lipo)     H(rot)  DE(clash)    DE(int)     intcor
     12.48     -18.19       2.34        0.00      77.45       1.63       0.31       5.39       ----

> <Gold.Chemscore.Fitness>
12.4839

> <Gold.Chemscore.DG>
-18.1878

> <Gold.Chemscore.ZeroCoef>
-5.4800

> <Gold.Chemscore.Hbond>
2.3399

> <Gold.Chemscore.Metal>
0.0000

> <Gold.Chemscore.Lipo>
77.4494

> <Gold.Chemscore.Internal_Hbond>
0.0000

> <Gold.Chemscore.DEClash>
0.3111

> <Gold.Chemscore.DEInternal>
5.3928

> <Gold.Chemscore.Rot>
1.6286

> <Gold.Chemscore.Internal.Correction>
   9.000000E+99

> <Gold.Chemscore.Hbonds>
donor molecule, donor type, donor heavy atom, donor atom, acceptor molecule, acceptor atom, score
      L1  H     6    29       P1 10171  0.75
      L1  H     9    30       P1 10175  0.69
      L1  H    23    48       P1 10186  0.87

> <Gold.Chemscore.Hbond.Weighted>
-7.8154

> <Gold.Chemscore.Metal.Weighted>
-0.0000

> <Gold.Chemscore.Lipo.Weighted>
-9.0616

> <Gold.Chemscore.Internal_Hbond.Weighted>
0.0000

> <Gold.Chemscore.DEClash.Weighted>
0.3111

> <Gold.Chemscore.DEInternal.Weighted>
5.3928

> <Gold.Chemscore.Rot.Weighted>
4.1692

> <Gold.Chemscore.Internal.Correction.Weighted>
   9.000000E+99

> <Gold.Protein.RotatedTorsions>
[ 6907 6896 6895 6894 ] final  140.01 input  -60.11 | X-H torsion
[ 7974 7965 7964 7962 ] final  -77.80 input  175.53 | X-H torsion
[ 8008 7997 7996 7995 ] final  -29.17 input   59.86 | X-H torsion
[ 10167 10162 10161 10158 ] final   13.58 input  -65.29 | X-H torsion
[ 10718 10713 10712 10709 ] final   -0.27 input   66.30 | X-H torsion
[ 10763 10752 10751 10750 ] final -105.90 input  -60.55 | X-H torsion
[ 11005 11000 10999 10996 ] final   81.32 input  -57.11 | X-H torsion

> <Gold.Protein.ActiveResidues>
 VAL166  LYS551  ARG553  GLY616  TRP617  ASP618  TYR619  PRO620  LYS621  CYS622 
 ASP623  PHE694  ASN695  SER759  ASP760  ASP761  ALA762  ILE779  LEU786  VAL792 
 PHE793  MET794  SER795  GLU796  ALA797  LYS798  CYS799  TRP800  GLU811  SER814 

> <Gold.Protein.RotatedAtoms>
  152.2481  133.5192  159.5309 H   0  0  0  0  0  0  0  0  0  0  0  0  # atno 6907 bound_to 6896
  150.7085  134.0997  159.3970 H   0  0  0  0  0  0  0  0  0  0  0  0  # atno 6908 bound_to 6896
  151.8917  135.0413  160.0549 H   0  0  0  0  0  0  0  0  0  0  0  0  # atno 6909 bound_to 6896
  145.5949  140.9421  143.1272 H   0  0  0  0  0  0  0  0  0  0  0  0  # atno 7974 bound_to 7965
  154.4301  140.1825  156.1205 H   0  0  0  0  0  0  0  0  0  0  0  0  # atno 8008 bound_to 7997
  156.0147  140.3347  155.6951 H   0  0  0  0  0  0  0  0  0  0  0  0  # atno 8009 bound_to 7997
  155.6062  140.0645  157.2710 H   0  0  0  0  0  0  0  0  0  0  0  0  # atno 8010 bound_to 7997
  140.5993  143.8637  150.6949 H   0  0  0  0  0  0  0  0  0  0  0  0  # atno 10167 bound_to 10162
  156.8229  130.5462  149.5695 H   0  0  0  0  0  0  0  0  0  0  0  0  # atno 10718 bound_to 10713
  154.7977  135.4732  154.0200 H   0  0  0  0  0  0  0  0  0  0  0  0  # atno 10763 bound_to 10752
  153.1730  135.6828  153.8589 H   0  0  0  0  0  0  0  0  0  0  0  0  # atno 10764 bound_to 10752
  153.8164  135.3210  155.3384 H   0  0  0  0  0  0  0  0  0  0  0  0  # atno 10765 bound_to 10752
  139.9102  134.7987  156.2025 H   0  0  0  0  0  0  0  0  0  0  0  0  # atno 11005 bound_to 11000
  144.7335  139.7655  143.7338 LP  0  0  0  0  0  0  0  0  0  0  0  0  # atno 17320 bound_to 7965
  146.1619  139.4736  142.9983 LP  0  0  0  0  0  0  0  0  0  0  0  0  # atno 17321 bound_to 7965
  140.2179  143.3832  152.1666 LP  0  0  0  0  0  0  0  0  0  0  0  0  # atno 17342 bound_to 10162
  139.5280  144.7125  151.5159 LP  0  0  0  0  0  0  0  0  0  0  0  0  # atno 17343 bound_to 10162
  156.0978  130.5946  150.9843 LP  0  0  0  0  0  0  0  0  0  0  0  0  # atno 17370 bound_to 10713
  157.6447  131.0905  150.8178 LP  0  0  0  0  0  0  0  0  0  0  0  0  # atno 17371 bound_to 10713
  141.0516  133.6886  156.1782 LP  0  0  0  0  0  0  0  0  0  0  0  0  # atno 17394 bound_to 11000
  140.6802  134.4775  157.5589 LP  0  0  0  0  0  0  0  0  0  0  0  0  # atno 17395 bound_to 11000

$$$$
