#       Name:                AV-unprocessed.smi:801
#       Creating user name   scv26
#       Creation time:       Fri Mar 27 01:22:28 2020


#       File generated by GOLD software.
#

@<TRIPOS>MOLECULE
AV-unprocessed.smi:801
    52    53     1
SMALL
NO_CHARGES


@<TRIPOS>ATOM
      1 ****        -5.1142   1.9560   0.4643 C.3            1 S1                 0.0000
      2 ****        -4.4549   3.0898  -0.0778 O.3            1 S1                 0.0000
      3 ****        -3.0440   2.9527  -0.1619 C.3            1 S1                 0.0000
      4 ****        -2.6284   2.0894  -1.3670 C.3            1 S1                 0.0000
      5 ****        -1.1901   1.9449  -1.4719 N.am           1 S1                 0.0000
      6 ****        -0.4674   0.9400  -0.8224 C.2            1 S1                 0.0000
      7 ****        -1.1751   0.0571   0.0083 N.am           1 S1                 0.0000
      8 ****        -1.4111  -1.2358  -0.2756 C.2            1 S1                 0.0000
      9 ****        -2.2951  -1.9893   0.7119 C.3            1 S1                 0.0000
     10 ****        -0.9643  -1.8133  -1.2664 O.2            1 S1                 0.0000
     11 ****         0.8929   0.8222  -0.9359 C.2            1 S1                 0.0000
     12 ****         1.5948  -0.1646  -0.2409 N.pl3          1 S1                 0.0000
     13 ****         1.1421  -1.2025   0.6735 C.3            1 S1                 0.0000
     14 ****         2.2716  -2.0586   1.2178 C.ar           1 S1                 0.0000
     15 ****         3.2628  -2.5704   0.3518 C.ar           1 S1                 0.0000
     16 ****         4.3059  -3.3684   0.8602 C.ar           1 S1                 0.0000
     17 ****         4.3616  -3.6625   2.2361 C.ar           1 S1                 0.0000
     18 ****         3.3725  -3.1593   3.1032 C.ar           1 S1                 0.0000
     19 ****         2.3293  -2.3607   2.5951 C.ar           1 S1                 0.0000
     20 ****         1.6363   1.7750  -1.7797 C.2            1 S1                 0.0000
     21 ****         2.8475   1.7791  -1.9934 O.2            1 S1                 0.0000
     22 ****         0.8609   2.7666  -2.3762 N.am           1 S1                 0.0000
     23 ****        -0.5147   2.9098  -2.2517 C.2            1 S1                 0.0000
     24 ****        -1.0782   3.8507  -2.8117 O.2            1 S1                 0.0000
     25 ****         1.3439   3.4461  -2.9457 H              1 S1                 0.0000
     26 ****        -6.1825   2.1588   0.5366 H              1 S1                 0.0000
     27 ****        -4.7497   1.7292   1.4671 H              1 S1                 0.0000
     28 ****        -4.9879   1.0728  -0.1616 H              1 S1                 0.0000
     29 ****        -2.6253   3.9530  -0.2755 H              1 S1                 0.0000
     30 ****        -2.6404   2.5541   0.7704 H              1 S1                 0.0000
     31 ****        -3.0349   1.0808  -1.3149 H              1 S1                 0.0000
     32 ****        -3.0071   2.4942  -2.3070 H              1 S1                 0.0000
     33 ****        -1.6567   0.4667   0.7954 H              1 S1                 0.0000
     34 ****        -1.7139  -2.2909   1.5834 H              1 S1                 0.0000
     35 ****        -2.7124  -2.8850   0.2508 H              1 S1                 0.0000
     36 ****        -3.1228  -1.3633   1.0471 H              1 S1                 0.0000
     37 ****         2.5991  -0.1319  -0.3415 H              1 S1                 0.0000
     38 ****         0.6061  -0.7361   1.5010 H              1 S1                 0.0000
     39 ****         0.4408  -1.8589   0.1574 H              1 S1                 0.0000
     40 ****         3.2259  -2.3544  -0.7060 H              1 S1                 0.0000
     41 ****         5.0624  -3.7561   0.1941 H              1 S1                 0.0000
     42 ****         5.1612  -4.2754   2.6256 H              1 S1                 0.0000
     43 ****         3.4135  -3.3859   4.1584 H              1 S1                 0.0000
     44 ****         1.5746  -1.9803   3.2681 H              1 S1                 0.0000
     45 ****        -4.6601   3.8792   0.5008 LP             1 S1                 0.0000
     46 ****        -4.8106   3.2499  -0.9985 LP             1 S1                 0.0000
     47 ****        -0.3886  -1.3177  -1.9167 LP             1 S1                 0.0000
     48 ****        -1.1769  -2.7781  -1.4210 LP             1 S1                 0.0000
     49 ****         3.4316   1.0842  -1.5738 LP             1 S1                 0.0000
     50 ****         3.2482   2.4773  -2.5866 LP             1 S1                 0.0000
     51 ****        -2.0683   3.9626  -2.7269 LP             1 S1                 0.0000
     52 ****        -0.5457   4.5029  -3.3512 LP             1 S1                 0.0000
@<TRIPOS>BOND
    1    1    2 1     
    2    1   26 1     
    3    1   27 1     
    4    1   28 1     
    5    2    3 1     
    6    3    4 1     
    7    3   29 1     
    8    3   30 1     
    9    4    5 1     
   10    4   31 1     
   11    4   32 1     
   12    5   23 1     
   13    5    6 1     
   14    6    7 1     
   15    6   11 2     
   16    7    8 am    
   17    7   33 1     
   18    8    9 1     
   19    8   10 2     
   20    9   34 1     
   21    9   35 1     
   22    9   36 1     
   23   11   12 1     
   24   11   20 1     
   25   12   13 1     
   26   12   37 1     
   27   13   14 1     
   28   13   38 1     
   29   13   39 1     
   30   14   19 ar    
   31   14   15 ar    
   32   15   16 ar    
   33   15   40 1     
   34   16   17 ar    
   35   16   41 1     
   36   17   18 ar    
   37   17   42 1     
   38   18   19 ar    
   39   18   43 1     
   40   19   44 1     
   41   20   21 2     
   42   20   22 1     
   43   22   25 1     
   44   22   23 1     
   45   23   24 2     
   46    2   45 1     
   47    2   46 1     
   48   10   47 1     
   49   10   48 1     
   50   21   49 1     
   51   21   50 1     
   52   24   51 1     
   53   24   52 1     
@<TRIPOS>SUBSTRUCTURE
      1 S1             1
@<TRIPOS>SET
LONE_PAIRS      STATIC     ATOMS    <user>   **** ""
8 45 46 47 48 49 50 51 52
DONOR_HYDROGENS      STATIC     ATOMS    <user>   **** ""
3 33 37 25
ATOM$BLUE        STATIC     ATOMS    COLORGROUP SYSTEM
8 45 46 47 48 49 50 51 52
ATOM$RED        STATIC     ATOMS    COLORGROUP SYSTEM
3 33 37 25
