AV-unprocessed.smi:1323|AV-procd|sdf|5467|dock8
  -GOLD-   22720 5 33D 1   1.00000     0.00000
 Structure written by MMmdl.
 45 46  0  0  0  0  0  0  0  0  1 V2000
  151.4118  139.1595  155.0323 C   0  0  0  0  0  0  0  0  0  0  0  0
  150.1186  139.6337  154.3530 C   0  0  2  0  0  0  0  0  0  0  0  0
  149.5604  140.9110  155.0120 C   0  0  0  0  0  0  0  0  0  0  0  0
  148.3050  141.4170  154.2845 C   0  0  0  0  0  0  0  0  0  0  0  0
  147.2278  140.3250  154.2059 C   0  0  0  0  0  0  0  0  0  0  0  0
  147.7773  139.0416  153.5598 C   0  0  0  0  0  0  0  0  0  0  0  0
  149.0371  138.5289  154.2818 C   0  0  2  0  0  0  0  0  0  0  0  0
  148.6471  138.1412  155.5932 O   0  0  0  0  0  0  0  0  0  0  0  0
  148.0980  136.8371  155.6961 C   0  0  0  0  0  0  0  0  0  0  0  0
  149.2336  135.8075  155.6078 C   0  0  0  0  0  0  0  0  0  0  0  0
  149.1501  135.0175  154.3831 N   0  0  0  0  0  0  0  0  0  0  0  0
  148.9092  133.6983  154.3266 C   0  0  0  0  0  0  0  0  0  0  0  0
  148.7094  133.0055  155.3254 O   0  0  0  0  0  0  0  0  0  0  0  0
  148.8642  133.0796  152.9223 C   0  0  0  0  0  0  0  0  0  0  0  0
  147.5073  132.6837  152.5097 N   0  0  0  0  0  0  0  0  0  0  0  0
  146.7791  133.6081  151.7341 C   0  0  0  0  0  0  0  0  0  0  0  0
  145.5282  133.3563  151.3175 C   0  0  0  0  0  0  0  0  0  0  0  0
  144.9269  132.0964  151.6859 C   0  0  0  0  0  0  0  0  0  0  0  0
  145.6147  131.2047  152.4265 C   0  0  0  0  0  0  0  0  0  0  0  0
  146.9844  131.4738  152.8787 C   0  0  0  0  0  0  0  0  0  0  0  0
  147.6216  130.6594  153.5464 O   0  0  0  0  0  0  0  0  0  0  0  0
  151.2439  138.9091  156.0797 H   0  0  0  0  0  0  0  0  0  0  0  0
  152.1780  139.9344  154.9989 H   0  0  0  0  0  0  0  0  0  0  0  0
  151.8146  138.2759  154.5372 H   0  0  0  0  0  0  0  0  0  0  0  0
  150.3846  139.8895  153.3263 H   0  0  0  0  0  0  0  0  0  0  0  0
  149.3190  140.7142  156.0569 H   0  0  0  0  0  0  0  0  0  0  0  0
  150.3196  141.6936  155.0155 H   0  0  0  0  0  0  0  0  0  0  0  0
  147.9079  142.2938  154.7966 H   0  0  0  0  0  0  0  0  0  0  0  0
  148.5717  141.7407  153.2779 H   0  0  0  0  0  0  0  0  0  0  0  0
  146.8604  140.1032  155.2089 H   0  0  0  0  0  0  0  0  0  0  0  0
  146.3708  140.6888  153.6386 H   0  0  0  0  0  0  0  0  0  0  0  0
  147.0085  138.2681  153.5580 H   0  0  0  0  0  0  0  0  0  0  0  0
  148.0159  139.2389  152.5140 H   0  0  0  0  0  0  0  0  0  0  0  0
  149.4230  137.6736  153.7233 H   0  0  0  0  0  0  0  0  0  0  0  0
  147.5830  136.7428  156.6529 H   0  0  0  0  0  0  0  0  0  0  0  0
  147.3619  136.6530  154.9127 H   0  0  0  0  0  0  0  0  0  0  0  0
  150.2054  136.2968  155.6929 H   0  0  0  0  0  0  0  0  0  0  0  0
  149.1618  135.1178  156.4488 H   0  0  0  0  0  0  0  0  0  0  0  0
  149.2962  135.5093  153.5135 H   0  0  0  0  0  0  0  0  0  0  0  0
  149.2744  133.8055  152.2189 H   0  0  0  0  0  0  0  0  0  0  0  0
  149.5431  132.2258  152.8776 H   0  0  0  0  0  0  0  0  0  0  0  0
  147.2979  134.5291  151.5102 H   0  0  0  0  0  0  0  0  0  0  0  0
  144.9844  134.0789  150.7270 H   0  0  0  0  0  0  0  0  0  0  0  0
  143.9200  131.8689  151.3681 H   0  0  0  0  0  0  0  0  0  0  0  0
  145.1481  130.2682  152.6950 H   0  0  0  0  0  0  0  0  0  0  0  0
  1  2  1  0  0  0  0
  1 22  1  0  0  0  0
  1 23  1  0  0  0  0
  1 24  1  0  0  0  0
  2  7  1  0  0  0  0
  2  3  1  0  0  0  0
  2 25  1  0  0  0  0
  3  4  1  0  0  0  0
  3 26  1  0  0  0  0
  3 27  1  0  0  0  0
  4  5  1  0  0  0  0
  4 28  1  0  0  0  0
  4 29  1  0  0  0  0
  5  6  1  0  0  0  0
  5 30  1  0  0  0  0
  5 31  1  0  0  0  0
  6  7  1  0  0  0  0
  6 32  1  0  0  0  0
  6 33  1  0  0  0  0
  7  8  1  0  0  0  0
  7 34  1  0  0  0  0
  8  9  1  0  0  0  0
  9 10  1  0  0  0  0
  9 35  1  0  0  0  0
  9 36  1  0  0  0  0
 10 11  1  0  0  0  0
 10 37  1  0  0  0  0
 10 38  1  0  0  0  0
 11 12  1  0  0  0  0
 11 39  1  0  0  0  0
 12 13  2  0  0  0  0
 12 14  1  0  0  0  0
 14 15  1  0  0  0  0
 14 40  1  0  0  0  0
 14 41  1  0  0  0  0
 15 20  1  0  0  0  0
 15 16  1  0  0  0  0
 16 17  2  0  0  0  0
 16 42  1  0  0  0  0
 17 18  1  0  0  0  0
 17 43  1  0  0  0  0
 18 19  2  0  0  0  0
 18 44  1  0  0  0  0
 19 20  1  0  0  0  0
 19 45  1  0  0  0  0
 20 21  2  0  0  0  0
M  END
> <s_m_source_file>
AV-unprocessed.smi

> <i_m_source_file_index>
1323

> <i_lp_mmshare_version>
43012

> <i_f3d_flags>
0

> <s_epik_input>
W0NIM11bQ0BASF0xW0NIMl1bQ0gyXVtDSDJdW0NIMl1bQ0BIXTFPW0NIMl1bQ0gyXVtOSF1DKD1PKVtDSDJdbjJbY0hdW2NIXVtjSF1bY0hdYzI9Tw==

> <s_epik_cmdline>
J2VwaWtfcHl0aG9uJywgJy1waCcsICc3LjAnLCAnLXRuJywgJzgnLCAnLW1hJywgJzIwMCcsICctbWV0YWxfYmluZGluZycsICctaW1hZScsICc8aW5maWxlLm1hZT4nLCAnLW9tYWUnLCAnPG91dGZpbGUubWFlPic=

> <r_lp_tautomer_probability>
1

> <r_epik_Ionization_Penalty>
4.02412e-07

> <r_epik_Ionization_Penalty_Charging>
3.74552e-07

> <r_epik_Ionization_Penalty_Neutral>
2.78599e-08

> <r_epik_State_Penalty>
-0

> <r_epik_Charging_Adjusted_Penalty>
3.74552e-07

> <i_epik_Tot_Q>
0

> <i_epik_Tot_abs_Q>
0

> <r_epik_Metal_State_Penalty>
-0

> <b_epik_Metal_Only>
0

> <s_lp_Force_Field>
OPLS_2005

> <r_lp_Energy>
19.1209

> <b_lp_Chiralities_Consistent>
1

> <s_lp_Variant>
AV-unprocessed.smi:1323-3

> <Gold.Version>
5.8.1

> <Gold.Id.Protein>
6NUR|6NUR_protein|mol2

> <Gold.PLP.Fitness>
39.6582

> <Gold.PLP.PLP>
-35.8685

> <Gold.PLP.part.hbond>
-1.0000

> <Gold.PLP.part.metal>
0.0000

> <Gold.PLP.part.buried>
-3.1789

> <Gold.PLP.part.nonpolar>
-32.3941

> <Gold.PLP.part.repulsive>
0.1568

> <Gold.PLP.ligand.clash>
0.0000

> <Gold.PLP.ligand.torsion>
1.1295

> <Gold.PLP.Chemscore.Hbond>
1.0000

> <Gold.PLP.Chemscore.CHOScore>
1.0000

> <Gold.PLP.Chemscore.Metal>
0.0000

> <Gold.Chemscore.Hbonds>
donor molecule, donor type, donor heavy atom, donor atom, acceptor molecule, acceptor atom, score
      L1  H    11    39       P1  7948  1.00
      L1  C    16    42       P1  7948  1.00

> <Gold.PLP.Chemscore.Internal.Correction>
0.0487

> <Gold.Rescore>
     Score         DG    S(hbond)    S(metal)    S(lipo)     H(rot)  DE(clash)    DE(int)     intcor
     11.96     -13.13       0.93        0.00      81.36       1.94       0.01       1.15       ----

> <Gold.Chemscore.Fitness>
11.9577

> <Gold.Chemscore.DG>
-13.1259

> <Gold.Chemscore.ZeroCoef>
-5.4800

> <Gold.Chemscore.Hbond>
0.9259

> <Gold.Chemscore.Metal>
0.0000

> <Gold.Chemscore.Lipo>
81.3608

> <Gold.Chemscore.Internal_Hbond>
0.0000

> <Gold.Chemscore.DEClash>
0.0149

> <Gold.Chemscore.DEInternal>
1.1534

> <Gold.Chemscore.Rot>
1.9398

> <Gold.Chemscore.Internal.Correction>
   9.000000E+99

> <Gold.Chemscore.Hbonds>
donor molecule, donor type, donor heavy atom, donor atom, acceptor molecule, acceptor atom, score
      L1  H    11    39       P1  7948  0.35

> <Gold.Chemscore.Hbond.Weighted>
-3.0926

> <Gold.Chemscore.Metal.Weighted>
-0.0000

> <Gold.Chemscore.Lipo.Weighted>
-9.5192

> <Gold.Chemscore.Internal_Hbond.Weighted>
0.0000

> <Gold.Chemscore.DEClash.Weighted>
0.0149

> <Gold.Chemscore.DEInternal.Weighted>
1.1534

> <Gold.Chemscore.Rot.Weighted>
4.9659

> <Gold.Chemscore.Internal.Correction.Weighted>
   9.000000E+99

> <Gold.Protein.RotatedTorsions>
[ 6907 6896 6895 6894 ] final   59.30 input  -60.11 | X-H torsion
[ 7974 7965 7964 7962 ] final   99.13 input  175.53 | X-H torsion
[ 8008 7997 7996 7995 ] final -147.28 input   59.86 | X-H torsion
[ 10167 10162 10161 10158 ] final   38.83 input  -65.29 | X-H torsion
[ 10718 10713 10712 10709 ] final -165.93 input   66.30 | X-H torsion
[ 10763 10752 10751 10750 ] final    5.58 input  -60.55 | X-H torsion
[ 11005 11000 10999 10996 ] final  -60.83 input  -57.11 | X-H torsion

> <Gold.Protein.ActiveResidues>
 VAL166  LYS551  ARG553  GLY616  TRP617  ASP618  TYR619  PRO620  LYS621  CYS622 
 ASP623  PHE694  ASN695  SER759  ASP760  ASP761  ALA762  ILE779  LEU786  VAL792 
 PHE793  MET794  SER795  GLU796  ALA797  LYS798  CYS799  TRP800  GLU811  SER814 

> <Gold.Protein.RotatedAtoms>
  152.3902  134.6453  160.0110 H   0  0  0  0  0  0  0  0  0  0  0  0  # atno 6907 bound_to 6896
  151.6689  133.3309  159.3200 H   0  0  0  0  0  0  0  0  0  0  0  0  # atno 6908 bound_to 6896
  150.7820  134.6816  159.6492 H   0  0  0  0  0  0  0  0  0  0  0  0  # atno 6909 bound_to 6896
  145.4030  139.2345  143.3290 H   0  0  0  0  0  0  0  0  0  0  0  0  # atno 7974 bound_to 7965
  155.5729  140.0636  157.2802 H   0  0  0  0  0  0  0  0  0  0  0  0  # atno 8008 bound_to 7997
  154.4355  140.1865  156.0944 H   0  0  0  0  0  0  0  0  0  0  0  0  # atno 8009 bound_to 7997
  156.0363  140.3301  155.7198 H   0  0  0  0  0  0  0  0  0  0  0  0  # atno 8010 bound_to 7997
  140.3899  144.1867  150.6131 H   0  0  0  0  0  0  0  0  0  0  0  0  # atno 10167 bound_to 10162
  156.6605  130.9044  151.3028 H   0  0  0  0  0  0  0  0  0  0  0  0  # atno 10718 bound_to 10713
  153.2577  135.6920  153.7611 H   0  0  0  0  0  0  0  0  0  0  0  0  # atno 10763 bound_to 10752
  153.6682  135.3349  155.3147 H   0  0  0  0  0  0  0  0  0  0  0  0  # atno 10764 bound_to 10752
  154.8418  135.4493  154.1557 H   0  0  0  0  0  0  0  0  0  0  0  0  # atno 10765 bound_to 10752
  141.1302  133.6625  156.5283 H   0  0  0  0  0  0  0  0  0  0  0  0  # atno 11005 bound_to 11000
  146.2742  140.4730  142.8802 LP  0  0  0  0  0  0  0  0  0  0  0  0  # atno 17320 bound_to 7965
  144.8361  140.6784  143.6259 LP  0  0  0  0  0  0  0  0  0  0  0  0  # atno 17321 bound_to 7965
  140.4850  143.2366  151.8900 LP  0  0  0  0  0  0  0  0  0  0  0  0  # atno 17342 bound_to 10162
  139.4789  144.5228  151.8778 LP  0  0  0  0  0  0  0  0  0  0  0  0  # atno 17343 bound_to 10162
  157.7111  130.9442  150.1093 LP  0  0  0  0  0  0  0  0  0  0  0  0  # atno 17370 bound_to 10713
  156.2015  130.3660  149.8782 LP  0  0  0  0  0  0  0  0  0  0  0  0  # atno 17371 bound_to 10713
  140.4237  134.7165  157.4904 LP  0  0  0  0  0  0  0  0  0  0  0  0  # atno 17394 bound_to 11000
  140.0342  134.6361  155.9065 LP  0  0  0  0  0  0  0  0  0  0  0  0  # atno 17395 bound_to 11000

$$$$
