AV-unprocessed.smi:1531|AV-procd|sdf|6157|dock6
  -GOLD-   22720 6303D 1   1.00000     0.00000
 Structure written by MMmdl.
 44 45  0  0  0  0  0  0  0  0  1 V2000
  145.6603  143.4025  153.7793 C   0  0  0  0  0  0  0  0  0  0  0  0
  145.9482  142.1551  154.6265 C   0  0  0  0  0  0  0  0  0  0  0  0
  147.4508  141.8967  154.8818 C   0  0  1  0  0  0  0  0  0  0  0  0
  147.7079  141.5813  156.3718 C   0  0  0  0  0  0  0  0  0  0  0  0
  149.2022  141.3728  156.6647 C   0  0  0  0  0  0  0  0  0  0  0  0
  149.7966  140.2719  155.7752 C   0  0  0  0  0  0  0  0  0  0  0  0
  149.5572  140.5740  154.2871 C   0  0  0  0  0  0  0  0  0  0  0  0
  148.0649  140.8013  153.9697 C   0  0  1  0  0  0  0  0  0  0  0  0
  147.3233  139.5441  154.0791 N   0  0  0  0  0  0  0  0  0  0  0  0
  146.7188  138.8961  153.0735 C   0  0  0  0  0  0  0  0  0  0  0  0
  146.7222  139.2862  151.9058 O   0  0  0  0  0  0  0  0  0  0  0  0
  146.1189  137.7773  153.5113 N   0  0  0  0  0  0  0  0  0  0  0  0
  145.3529  136.8576  152.7521 C   0  0  0  0  0  0  0  0  0  0  0  0
  144.0476  136.4169  153.0918 C   0  0  0  0  0  0  0  0  0  0  0  0
  143.5801  135.5655  152.1916 N   0  0  0  0  0  0  0  0  0  0  0  0
  144.5681  135.4501  151.2688 N   0  0  0  0  0  0  0  0  0  0  0  0
  144.3804  134.5849  150.1178 C   0  0  0  0  0  0  0  0  0  0  0  0
  144.1455  133.1355  150.5480 C   0  0  0  0  0  0  0  0  0  0  0  0
  142.9674  132.5887  150.2348 N   0  0  0  0  0  0  0  0  0  0  0  0
  145.0168  132.5159  151.1543 O   0  0  0  0  0  0  0  0  0  0  0  0
  145.6674  136.2258  151.5825 C   0  0  0  0  0  0  0  0  0  0  0  0
  144.5875  143.5856  153.7166 H   0  0  0  0  0  0  0  0  0  0  0  0
  146.0302  143.2905  152.7601 H   0  0  0  0  0  0  0  0  0  0  0  0
  146.1234  144.2897  154.2117 H   0  0  0  0  0  0  0  0  0  0  0  0
  145.4454  142.2761  155.5866 H   0  0  0  0  0  0  0  0  0  0  0  0
  145.4861  141.2849  154.1593 H   0  0  0  0  0  0  0  0  0  0  0  0
  147.9750  142.8281  154.6618 H   0  0  0  0  0  0  0  0  0  0  0  0
  147.3305  142.3931  156.9944 H   0  0  0  0  0  0  0  0  0  0  0  0
  147.1519  140.6898  156.6649 H   0  0  0  0  0  0  0  0  0  0  0  0
  149.7408  142.3069  156.4998 H   0  0  0  0  0  0  0  0  0  0  0  0
  149.3428  141.1168  157.7154 H   0  0  0  0  0  0  0  0  0  0  0  0
  150.8658  140.1776  155.9665 H   0  0  0  0  0  0  0  0  0  0  0  0
  149.3519  139.3101  156.0337 H   0  0  0  0  0  0  0  0  0  0  0  0
  150.1195  141.4673  154.0120 H   0  0  0  0  0  0  0  0  0  0  0  0
  149.9566  139.7658  153.6729 H   0  0  0  0  0  0  0  0  0  0  0  0
  148.0106  141.1581  152.9401 H   0  0  0  0  0  0  0  0  0  0  0  0
  147.2638  139.1399  155.0022 H   0  0  0  0  0  0  0  0  0  0  0  0
  146.2094  137.5675  154.4946 H   0  0  0  0  0  0  0  0  0  0  0  0
  143.4360  136.6808  153.9419 H   0  0  0  0  0  0  0  0  0  0  0  0
  143.5314  134.9491  149.5376 H   0  0  0  0  0  0  0  0  0  0  0  0
  145.2579  134.6440  149.4716 H   0  0  0  0  0  0  0  0  0  0  0  0
  142.7674  131.6337  150.4945 H   0  0  0  0  0  0  0  0  0  0  0  0
  142.2805  133.1344  149.7344 H   0  0  0  0  0  0  0  0  0  0  0  0
  146.5455  136.2561  150.9547 H   0  0  0  0  0  0  0  0  0  0  0  0
  1  2  1  0  0  0  0
  1 22  1  0  0  0  0
  1 23  1  0  0  0  0
  1 24  1  0  0  0  0
  2  3  1  0  0  0  0
  2 25  1  0  0  0  0
  2 26  1  0  0  0  0
  3  8  1  0  0  0  0
  3  4  1  0  0  0  0
  3 27  1  0  0  0  0
  4  5  1  0  0  0  0
  4 28  1  0  0  0  0
  4 29  1  0  0  0  0
  5  6  1  0  0  0  0
  5 30  1  0  0  0  0
  5 31  1  0  0  0  0
  6  7  1  0  0  0  0
  6 32  1  0  0  0  0
  6 33  1  0  0  0  0
  7  8  1  0  0  0  0
  7 34  1  0  0  0  0
  7 35  1  0  0  0  0
  8  9  1  0  0  0  0
  8 36  1  0  0  0  0
  9 10  1  0  0  0  0
  9 37  1  0  0  0  0
 10 11  2  0  0  0  0
 10 12  1  0  0  0  0
 12 13  1  0  0  0  0
 12 38  1  0  0  0  0
 13 21  2  0  0  0  0
 13 14  1  0  0  0  0
 14 15  2  0  0  0  0
 14 39  1  0  0  0  0
 15 16  1  0  0  0  0
 16 17  1  0  0  0  0
 16 21  1  0  0  0  0
 17 18  1  0  0  0  0
 17 40  1  0  0  0  0
 17 41  1  0  0  0  0
 18 19  1  0  0  0  0
 18 20  2  0  0  0  0
 19 42  1  0  0  0  0
 19 43  1  0  0  0  0
 21 44  1  0  0  0  0
M  END
> <s_m_source_file>
AV-unprocessed.smi

> <i_m_source_file_index>
1531

> <i_lp_mmshare_version>
43012

> <i_f3d_flags>
0

> <s_epik_input>
W0NIM11bQ0gyXVtDQEBIXTFbQ0gyXVtDSDJdW0NIMl1bQ0gyXVtDQEhdMVtOSF1DKD1PKVtOSF1jMltjSF1ubihbY0hdMilbQ0gyXUMoPU8pW05IMl0=

> <s_epik_cmdline>
J2VwaWtfcHl0aG9uJywgJy1waCcsICc3LjAnLCAnLXRuJywgJzgnLCAnLW1hJywgJzIwMCcsICctbWV0YWxfYmluZGluZycsICctaW1hZScsICc8aW5maWxlLm1hZT4nLCAnLW9tYWUnLCAnPG91dGZpbGUubWFlPic=

> <r_lp_tautomer_probability>
1

> <r_epik_Ionization_Penalty>
4.83437e-05

> <r_epik_Ionization_Penalty_Charging>
0

> <r_epik_Ionization_Penalty_Neutral>
4.83437e-05

> <r_epik_State_Penalty>
-0

> <r_epik_Charging_Adjusted_Penalty>
0

> <i_epik_Tot_Q>
0

> <i_epik_Tot_abs_Q>
0

> <r_epik_Metal_State_Penalty>
-0

> <b_epik_Metal_Only>
0

> <s_lp_Force_Field>
OPLS_2005

> <r_lp_Energy>
14.4879

> <b_lp_Chiralities_Consistent>
1

> <s_lp_Variant>
AV-unprocessed.smi:1531-2

> <Gold.Version>
5.8.1

> <Gold.Id.Protein>
6NUR|6NUR_protein|mol2

> <Gold.PLP.Fitness>
39.5376

> <Gold.PLP.PLP>
-35.7059

> <Gold.PLP.part.hbond>
-1.5449

> <Gold.PLP.part.metal>
0.0000

> <Gold.PLP.part.buried>
-4.8256

> <Gold.PLP.part.nonpolar>
-29.9308

> <Gold.PLP.part.repulsive>
1.7108

> <Gold.PLP.ligand.clash>
0.0000

> <Gold.PLP.ligand.torsion>
1.1069

> <Gold.PLP.Chemscore.Hbond>
1.0000

> <Gold.PLP.Chemscore.CHOScore>
1.0000

> <Gold.PLP.Chemscore.Metal>
0.0000

> <Gold.Chemscore.Hbonds>
donor molecule, donor type, donor heavy atom, donor atom, acceptor molecule, acceptor atom, score
      L1  H    19    43       P1 10186  1.00
      L1  C    21    44       P1  7948  0.90

> <Gold.PLP.Chemscore.Internal.Correction>
0.0454

> <Gold.Rescore>
     Score         DG    S(hbond)    S(metal)    S(lipo)     H(rot)  DE(clash)    DE(int)     intcor
     10.40     -11.23       1.14        0.00      63.40       2.13       0.01       0.83       ----

> <Gold.Chemscore.Fitness>
10.3963

> <Gold.Chemscore.DG>
-11.2337

> <Gold.Chemscore.ZeroCoef>
-5.4800

> <Gold.Chemscore.Hbond>
1.1370

> <Gold.Chemscore.Metal>
0.0000

> <Gold.Chemscore.Lipo>
63.4020

> <Gold.Chemscore.Internal_Hbond>
0.0000

> <Gold.Chemscore.DEClash>
0.0098

> <Gold.Chemscore.DEInternal>
0.8276

> <Gold.Chemscore.Rot>
2.1335

> <Gold.Chemscore.Internal.Correction>
   9.000000E+99

> <Gold.Chemscore.Hbonds>
donor molecule, donor type, donor heavy atom, donor atom, acceptor molecule, acceptor atom, score
      L1  H    19    43       P1 10186  0.99

> <Gold.Chemscore.Hbond.Weighted>
-3.7975

> <Gold.Chemscore.Metal.Weighted>
-0.0000

> <Gold.Chemscore.Lipo.Weighted>
-7.4180

> <Gold.Chemscore.Internal_Hbond.Weighted>
0.0000

> <Gold.Chemscore.DEClash.Weighted>
0.0098

> <Gold.Chemscore.DEInternal.Weighted>
0.8276

> <Gold.Chemscore.Rot.Weighted>
5.4618

> <Gold.Chemscore.Internal.Correction.Weighted>
   9.000000E+99

> <Gold.Protein.RotatedTorsions>
[ 6907 6896 6895 6894 ] final   23.53 input  -60.11 | X-H torsion
[ 7974 7965 7964 7962 ] final   73.79 input  175.53 | X-H torsion
[ 8008 7997 7996 7995 ] final  109.96 input   59.86 | X-H torsion
[ 10167 10162 10161 10158 ] final  -20.30 input  -65.29 | X-H torsion
[ 10718 10713 10712 10709 ] final  108.80 input   66.30 | X-H torsion
[ 10763 10752 10751 10750 ] final   45.27 input  -60.55 | X-H torsion
[ 11005 11000 10999 10996 ] final  -33.09 input  -57.11 | X-H torsion

> <Gold.Protein.ActiveResidues>
 VAL166  LYS551  ARG553  GLY616  TRP617  ASP618  TYR619  PRO620  LYS621  CYS622 
 ASP623  PHE694  ASN695  SER759  ASP760  ASP761  ALA762  ILE779  LEU786  VAL792 
 PHE793  MET794  SER795  GLU796  ALA797  LYS798  CYS799  TRP800  GLU811  SER814 

> <Gold.Protein.RotatedAtoms>
  151.9438  135.0201  160.0537 H   0  0  0  0  0  0  0  0  0  0  0  0  # atno 6907 bound_to 6896
  152.2013  133.4839  159.5068 H   0  0  0  0  0  0  0  0  0  0  0  0  # atno 6908 bound_to 6896
  150.6955  134.1503  159.4181 H   0  0  0  0  0  0  0  0  0  0  0  0  # atno 6909 bound_to 6896
  145.7364  139.2704  143.1511 H   0  0  0  0  0  0  0  0  0  0  0  0  # atno 7974 bound_to 7965
  156.2018  140.3047  155.9543 H   0  0  0  0  0  0  0  0  0  0  0  0  # atno 8008 bound_to 7997
  155.2935  140.0443  157.3042 H   0  0  0  0  0  0  0  0  0  0  0  0  # atno 8009 bound_to 7997
  154.5581  140.2312  155.8387 H   0  0  0  0  0  0  0  0  0  0  0  0  # atno 8010 bound_to 7997
  140.7275  143.4736  151.0213 H   0  0  0  0  0  0  0  0  0  0  0  0  # atno 10167 bound_to 10162
  157.6570  131.0901  150.6360 H   0  0  0  0  0  0  0  0  0  0  0  0  # atno 10718 bound_to 10713
  152.9827  135.6045  154.3409 H   0  0  0  0  0  0  0  0  0  0  0  0  # atno 10763 bound_to 10752
  154.3106  135.2771  155.2569 H   0  0  0  0  0  0  0  0  0  0  0  0  # atno 10764 bound_to 10752
  154.4781  135.5924  153.6425 H   0  0  0  0  0  0  0  0  0  0  0  0  # atno 10765 bound_to 10752
  140.9606  133.7166  156.1364 H   0  0  0  0  0  0  0  0  0  0  0  0  # atno 11005 bound_to 11000
  146.0489  140.8090  142.9791 LP  0  0  0  0  0  0  0  0  0  0  0  0  # atno 17320 bound_to 7965
  144.6880  140.3022  143.7261 LP  0  0  0  0  0  0  0  0  0  0  0  0  # atno 17321 bound_to 7965
  139.8430  143.7539  152.3180 LP  0  0  0  0  0  0  0  0  0  0  0  0  # atno 17342 bound_to 10162
  139.7694  144.7481  151.0246 LP  0  0  0  0  0  0  0  0  0  0  0  0  # atno 17343 bound_to 10162
  156.6665  130.4527  149.5670 LP  0  0  0  0  0  0  0  0  0  0  0  0  # atno 17370 bound_to 10713
  156.2028  130.6631  151.1186 LP  0  0  0  0  0  0  0  0  0  0  0  0  # atno 17371 bound_to 10713
  140.7472  134.4085  157.5546 LP  0  0  0  0  0  0  0  0  0  0  0  0  # atno 17394 bound_to 11000
  139.8877  134.8876  156.2515 LP  0  0  0  0  0  0  0  0  0  0  0  0  # atno 17395 bound_to 11000

$$$$
