AV-unprocessed.smi:2265|AV-procd|sdf|9146|dock3
  -GOLD-   2272012353D 1   1.00000     0.00000
 Structure written by MMmdl.
 36 37  0  0  0  0  0  0  0  0  1 V2000
  153.2202  141.5597  160.7855 C   0  0  0  0  0  0  0  0  0  0  0  0
  152.6284  142.5615  161.7826 C   0  0  0  0  0  0  0  0  0  0  0  0
  152.4512  143.9610  161.1775 C   0  0  0  0  0  0  0  0  0  0  0  0
  151.3633  143.9990  160.1230 C   0  0  1  0  0  0  0  0  0  0  0  0
  150.8213  145.3182  159.6432 C   0  0  0  0  0  0  0  0  0  0  0  0
  151.6558  144.4629  158.7117 C   0  0  2  0  0  0  0  0  0  0  0  0
  150.9570  143.8362  157.6301 N   0  0  0  0  0  0  0  0  0  0  0  0
  151.0136  142.5493  157.2422 C   0  0  0  0  0  0  0  0  0  0  0  0
  151.7534  141.7524  157.8190 O   0  0  0  0  0  0  0  0  0  0  0  0
  150.2316  142.2598  156.1783 N   0  0  0  0  0  0  0  0  0  0  0  0
  150.0818  141.0338  155.5179 C   0  0  0  0  0  0  0  0  0  0  0  0
  151.0111  140.1200  155.4860 N   0  0  0  0  0  0  0  0  0  0  0  0
  150.8264  138.9081  154.8203 C   0  0  0  0  0  0  0  0  0  0  0  0
  149.6734  138.6411  154.1810 C   0  0  0  0  0  0  0  0  0  0  0  0
  148.6284  139.5756  154.1694 N   0  0  0  0  0  0  0  0  0  0  0  0
  147.3958  139.2331  153.4594 C   0  0  0  0  0  0  0  0  0  0  0  0
  148.7498  140.7703  154.8098 C   0  0  0  0  0  0  0  0  0  0  0  0
  147.8553  141.6181  154.8374 O   0  0  0  0  0  0  0  0  0  0  0  0
  153.3254  140.5748  161.2414 H   0  0  0  0  0  0  0  0  0  0  0  0
  154.2071  141.8773  160.4476 H   0  0  0  0  0  0  0  0  0  0  0  0
  152.5823  141.4532  159.9075 H   0  0  0  0  0  0  0  0  0  0  0  0
  151.6653  142.1909  162.1352 H   0  0  0  0  0  0  0  0  0  0  0  0
  153.2757  142.6207  162.6584 H   0  0  0  0  0  0  0  0  0  0  0  0
  152.2148  144.6794  161.9637 H   0  0  0  0  0  0  0  0  0  0  0  0
  153.3847  144.2914  160.7211 H   0  0  0  0  0  0  0  0  0  0  0  0
  150.6387  143.1917  160.2178 H   0  0  0  0  0  0  0  0  0  0  0  0
  149.7500  145.3799  159.4611 H   0  0  0  0  0  0  0  0  0  0  0  0
  151.2785  146.2262  160.0317 H   0  0  0  0  0  0  0  0  0  0  0  0
  152.6558  144.8463  158.5143 H   0  0  0  0  0  0  0  0  0  0  0  0
  150.4033  144.4530  157.0531 H   0  0  0  0  0  0  0  0  0  0  0  0
  149.7031  143.0357  155.8067 H   0  0  0  0  0  0  0  0  0  0  0  0
  151.6486  138.2083  154.8477 H   0  0  0  0  0  0  0  0  0  0  0  0
  149.4833  137.7174  153.6539 H   0  0  0  0  0  0  0  0  0  0  0  0
  147.1259  140.0173  152.7504 H   0  0  0  0  0  0  0  0  0  0  0  0
  146.5727  139.1138  154.1652 H   0  0  0  0  0  0  0  0  0  0  0  0
  147.4852  138.3045  152.8945 H   0  0  0  0  0  0  0  0  0  0  0  0
  1  2  1  0  0  0  0
  1 19  1  0  0  0  0
  1 20  1  0  0  0  0
  1 21  1  0  0  0  0
  2  3  1  0  0  0  0
  2 22  1  0  0  0  0
  2 23  1  0  0  0  0
  3  4  1  0  0  0  0
  3 24  1  0  0  0  0
  3 25  1  0  0  0  0
  4  6  1  0  0  0  0
  4  5  1  0  0  0  0
  4 26  1  0  0  0  0
  5  6  1  0  0  0  0
  5 27  1  0  0  0  0
  5 28  1  0  0  0  0
  6  7  1  0  0  0  0
  6 29  1  0  0  0  0
  7  8  1  0  0  0  0
  7 30  1  0  0  0  0
  8  9  2  0  0  0  0
  8 10  1  0  0  0  0
 10 11  1  0  0  0  0
 10 31  1  0  0  0  0
 11 17  1  0  0  0  0
 11 12  2  0  0  0  0
 12 13  1  0  0  0  0
 13 14  2  0  0  0  0
 13 32  1  0  0  0  0
 14 15  1  0  0  0  0
 14 33  1  0  0  0  0
 15 16  1  0  0  0  0
 15 17  1  0  0  0  0
 16 34  1  0  0  0  0
 16 35  1  0  0  0  0
 16 36  1  0  0  0  0
 17 18  2  0  0  0  0
M  END
> <s_m_source_file>
AV-unprocessed.smi

> <i_m_source_file_index>
2265

> <i_lp_mmshare_version>
43012

> <i_f3d_flags>
0

> <s_epik_input>
W0NIM11bQ0gyXVtDSDJdW0NAQEhdMVtDSDJdW0NASF0xW05IXUMoPU8pW05IXWMybltjSF1bY0hdbihbQ0gzXSljMj1P

> <s_epik_cmdline>
J2VwaWtfcHl0aG9uJywgJy1waCcsICc3LjAnLCAnLXRuJywgJzgnLCAnLW1hJywgJzIwMCcsICctbWV0YWxfYmluZGluZycsICctaW1hZScsICc8aW5maWxlLm1hZT4nLCAnLW9tYWUnLCAnPG91dGZpbGUubWFlPic=

> <r_lp_tautomer_probability>
1

> <r_epik_Ionization_Penalty>
0.000728552

> <r_epik_Ionization_Penalty_Charging>
1.67739e-07

> <r_epik_Ionization_Penalty_Neutral>
0.000728385

> <r_epik_State_Penalty>
-0

> <r_epik_Charging_Adjusted_Penalty>
1.67739e-07

> <i_epik_Tot_Q>
0

> <i_epik_Tot_abs_Q>
0

> <r_epik_Metal_State_Penalty>
-0

> <b_epik_Metal_Only>
0

> <s_lp_Force_Field>
OPLS_2005

> <r_lp_Energy>
43.0315

> <b_lp_Chiralities_Consistent>
1

> <s_lp_Variant>
AV-unprocessed.smi:2265-4

> <Gold.Version>
5.8.1

> <Gold.Id.Protein>
6NUR|6NUR_protein|mol2

> <Gold.PLP.Fitness>
51.7391

> <Gold.PLP.PLP>
-43.3459

> <Gold.PLP.part.hbond>
-3.0000

> <Gold.PLP.part.metal>
0.0000

> <Gold.PLP.part.buried>
-4.5953

> <Gold.PLP.part.nonpolar>
-35.4302

> <Gold.PLP.part.repulsive>
0.2765

> <Gold.PLP.ligand.clash>
0.0000

> <Gold.PLP.ligand.torsion>
0.6659

> <Gold.PLP.Chemscore.Hbond>
2.0474

> <Gold.PLP.Chemscore.CHOScore>
1.0000

> <Gold.PLP.Chemscore.Metal>
0.0000

> <Gold.Chemscore.Hbonds>
donor molecule, donor type, donor heavy atom, donor atom, acceptor molecule, acceptor atom, score
      L1  H     7    30       P1  8028  0.96
      L1  H    10    31       P1  8028  1.00
      P1  H  7989  7998       L1    12  0.06
      L1  C    14    33       P1  7948  1.00

> <Gold.PLP.Chemscore.Internal.Correction>
0.5828

> <Gold.Rescore>
     Score         DG    S(hbond)    S(metal)    S(lipo)     H(rot)  DE(clash)    DE(int)     intcor
     16.23     -18.55       1.87        0.00      90.37       1.46       0.46       1.86       ----

> <Gold.Chemscore.Fitness>
16.2311

> <Gold.Chemscore.DG>
-18.5536

> <Gold.Chemscore.ZeroCoef>
-5.4800

> <Gold.Chemscore.Hbond>
1.8679

> <Gold.Chemscore.Metal>
0.0000

> <Gold.Chemscore.Lipo>
90.3716

> <Gold.Chemscore.Internal_Hbond>
0.0000

> <Gold.Chemscore.DEClash>
0.4607

> <Gold.Chemscore.DEInternal>
1.8619

> <Gold.Chemscore.Rot>
1.4604

> <Gold.Chemscore.Internal.Correction>
   9.000000E+99

> <Gold.Chemscore.Hbonds>
donor molecule, donor type, donor heavy atom, donor atom, acceptor molecule, acceptor atom, score
      L1  H     7    30       P1  8028  0.71
      L1  H    10    31       P1  8028  1.00

> <Gold.Chemscore.Hbond.Weighted>
-6.2389

> <Gold.Chemscore.Metal.Weighted>
-0.0000

> <Gold.Chemscore.Lipo.Weighted>
-10.5735

> <Gold.Chemscore.Internal_Hbond.Weighted>
0.0000

> <Gold.Chemscore.DEClash.Weighted>
0.4607

> <Gold.Chemscore.DEInternal.Weighted>
1.8619

> <Gold.Chemscore.Rot.Weighted>
3.7387

> <Gold.Chemscore.Internal.Correction.Weighted>
   9.000000E+99

> <Gold.Protein.RotatedTorsions>
[ 6907 6896 6895 6894 ] final  108.67 input  -60.11 | X-H torsion
[ 7974 7965 7964 7962 ] final -119.98 input  175.53 | X-H torsion
[ 8008 7997 7996 7995 ] final   67.07 input   59.86 | X-H torsion
[ 10167 10162 10161 10158 ] final  170.09 input  -65.29 | X-H torsion
[ 10718 10713 10712 10709 ] final   72.84 input   66.30 | X-H torsion
[ 10763 10752 10751 10750 ] final  -35.31 input  -60.55 | X-H torsion
[ 11005 11000 10999 10996 ] final  -93.76 input  -57.11 | X-H torsion

> <Gold.Protein.ActiveResidues>
 VAL166  LYS551  ARG553  GLY616  TRP617  ASP618  TYR619  PRO620  LYS621  CYS622 
 ASP623  PHE694  ASN695  SER759  ASP760  ASP761  ALA762  ILE779  LEU786  VAL792 
 PHE793  MET794  SER795  GLU796  ALA797  LYS798  CYS799  TRP800  GLU811  SER814 

> <Gold.Protein.RotatedAtoms>
  152.5102  133.9055  159.7462 H   0  0  0  0  0  0  0  0  0  0  0  0  # atno 6907 bound_to 6896
  150.9461  133.6593  159.2788 H   0  0  0  0  0  0  0  0  0  0  0  0  # atno 6908 bound_to 6896
  151.3888  135.0957  159.9572 H   0  0  0  0  0  0  0  0  0  0  0  0  # atno 6909 bound_to 6896
  145.0565  140.8258  143.4178 H   0  0  0  0  0  0  0  0  0  0  0  0  # atno 7974 bound_to 7965
  155.6872  140.3496  155.4879 H   0  0  0  0  0  0  0  0  0  0  0  0  # atno 8008 bound_to 7997
  155.9556  140.1127  157.0962 H   0  0  0  0  0  0  0  0  0  0  0  0  # atno 8009 bound_to 7997
  154.4131  140.1186  156.5096 H   0  0  0  0  0  0  0  0  0  0  0  0  # atno 8010 bound_to 7997
  139.5009  144.3635  151.9800 H   0  0  0  0  0  0  0  0  0  0  0  0  # atno 10167 bound_to 10162
  157.6520  130.9599  150.0985 H   0  0  0  0  0  0  0  0  0  0  0  0  # atno 10718 bound_to 10713
  153.8611  135.6840  153.4783 H   0  0  0  0  0  0  0  0  0  0  0  0  # atno 10763 bound_to 10752
  153.1341  135.4685  154.9393 H   0  0  0  0  0  0  0  0  0  0  0  0  # atno 10764 bound_to 10752
  154.7758  135.3253  154.8044 H   0  0  0  0  0  0  0  0  0  0  0  0  # atno 10765 bound_to 10752
  141.1488  133.7910  157.0205 H   0  0  0  0  0  0  0  0  0  0  0  0  # atno 11005 bound_to 11000
  145.1462  139.2542  143.5464 LP  0  0  0  0  0  0  0  0  0  0  0  0  # atno 17320 bound_to 7965
  146.3521  140.1153  142.8602 LP  0  0  0  0  0  0  0  0  0  0  0  0  # atno 17321 bound_to 7965
  140.3071  144.3580  150.6044 LP  0  0  0  0  0  0  0  0  0  0  0  0  # atno 17342 bound_to 10162
  140.5828  143.2171  151.7397 LP  0  0  0  0  0  0  0  0  0  0  0  0  # atno 17343 bound_to 10162
  156.1914  130.3655  149.8905 LP  0  0  0  0  0  0  0  0  0  0  0  0  # atno 17370 bound_to 10713
  156.6832  130.8866  151.3578 LP  0  0  0  0  0  0  0  0  0  0  0  0  # atno 17371 bound_to 10713
  140.0819  134.9643  157.1638 LP  0  0  0  0  0  0  0  0  0  0  0  0  # atno 17394 bound_to 11000
  140.3565  134.2541  155.7192 LP  0  0  0  0  0  0  0  0  0  0  0  0  # atno 17395 bound_to 11000

$$$$
