AV-unprocessed.smi:2299|AV-procd|sdf|9231|dock1
  -GOLD-   2272012453D 1   1.00000     0.00000
 Structure written by MMmdl.
 42 43  0  0  0  0  0  0  0  0  1 V2000
  152.7184  140.5112  160.2501 C   0  0  0  0  0  0  0  0  0  0  0  0
  153.0501  141.9921  160.0158 C   0  0  0  0  0  0  0  0  0  0  0  0
  153.1515  142.7749  161.3330 C   0  0  0  0  0  0  0  0  0  0  0  0
  152.0748  142.6312  159.0637 C   0  0  0  0  0  0  0  0  0  0  0  0
  151.5270  143.8247  159.2816 N   0  0  0  0  0  0  0  0  0  0  0  0
  150.6823  144.0398  158.2001 C   0  0  0  0  0  0  0  0  0  0  0  0
  150.7431  142.9585  157.3567 C   0  0  0  0  0  0  0  0  0  0  0  0
  151.6376  142.0563  157.9204 N   0  0  0  0  0  0  0  0  0  0  0  0
  151.9823  140.7619  157.3503 C   0  0  0  0  0  0  0  0  0  0  0  0
  151.1798  140.4920  156.0761 C   0  0  0  0  0  0  0  0  0  0  0  0
  151.7514  140.4483  154.9869 O   0  0  0  0  0  0  0  0  0  0  0  0
  149.8570  140.3234  156.2257 N   0  0  0  0  0  0  0  0  0  0  0  0
  148.8910  140.1256  155.1452 C   0  0  1  0  0  0  0  0  0  0  0  0
  148.6635  141.4486  154.3807 C   0  0  0  0  0  0  0  0  0  0  0  0
  147.3239  141.5106  153.6287 C   0  0  0  0  0  0  0  0  0  0  0  0
  147.1584  140.4653  152.5152 C   0  0  0  0  0  0  0  0  0  0  0  0
  147.1216  139.0146  153.0270 C   0  0  0  0  0  0  0  0  0  0  0  0
  148.4494  138.4918  153.3242 N   0  0  0  0  0  0  0  0  0  0  0  0
  149.3079  138.9418  154.2519 C   0  0  0  0  0  0  0  0  0  0  0  0
  150.4159  138.4219  154.3833 O   0  0  0  0  0  0  0  0  0  0  0  0
  152.7186  139.9581  159.3105 H   0  0  0  0  0  0  0  0  0  0  0  0
  151.7365  140.3901  160.7089 H   0  0  0  0  0  0  0  0  0  0  0  0
  153.4522  140.0429  160.9066 H   0  0  0  0  0  0  0  0  0  0  0  0
  154.0437  142.0192  159.5740 H   0  0  0  0  0  0  0  0  0  0  0  0
  153.4480  143.8086  161.1518 H   0  0  0  0  0  0  0  0  0  0  0  0
  153.8935  142.3309  161.9971 H   0  0  0  0  0  0  0  0  0  0  0  0
  152.1986  142.7892  161.8630 H   0  0  0  0  0  0  0  0  0  0  0  0
  150.0996  144.9451  158.1149 H   0  0  0  0  0  0  0  0  0  0  0  0
  150.2309  142.7574  156.4274 H   0  0  0  0  0  0  0  0  0  0  0  0
  153.0455  140.7565  157.1071 H   0  0  0  0  0  0  0  0  0  0  0  0
  151.8329  139.9782  158.0936 H   0  0  0  0  0  0  0  0  0  0  0  0
  149.4759  140.3780  157.1594 H   0  0  0  0  0  0  0  0  0  0  0  0
  147.9502  139.8330  155.6155 H   0  0  0  0  0  0  0  0  0  0  0  0
  148.6789  142.2834  155.0827 H   0  0  0  0  0  0  0  0  0  0  0  0
  149.4892  141.6299  153.6910 H   0  0  0  0  0  0  0  0  0  0  0  0
  146.5032  141.4162  154.3408 H   0  0  0  0  0  0  0  0  0  0  0  0
  147.2214  142.5031  153.1890 H   0  0  0  0  0  0  0  0  0  0  0  0
  146.2186  140.6700  152.0011 H   0  0  0  0  0  0  0  0  0  0  0  0
  147.9406  140.5835  151.7640 H   0  0  0  0  0  0  0  0  0  0  0  0
  146.4705  138.9192  153.8971 H   0  0  0  0  0  0  0  0  0  0  0  0
  146.6938  138.3748  152.2548 H   0  0  0  0  0  0  0  0  0  0  0  0
  148.7555  137.7127  152.7591 H   0  0  0  0  0  0  0  0  0  0  0  0
  1  2  1  0  0  0  0
  1 21  1  0  0  0  0
  1 22  1  0  0  0  0
  1 23  1  0  0  0  0
  2  3  1  0  0  0  0
  2  4  1  0  0  0  0
  2 24  1  0  0  0  0
  3 25  1  0  0  0  0
  3 26  1  0  0  0  0
  3 27  1  0  0  0  0
  4  8  1  0  0  0  0
  4  5  2  0  0  0  0
  5  6  1  0  0  0  0
  6  7  2  0  0  0  0
  6 28  1  0  0  0  0
  7  8  1  0  0  0  0
  7 29  1  0  0  0  0
  8  9  1  0  0  0  0
  9 10  1  0  0  0  0
  9 30  1  0  0  0  0
  9 31  1  0  0  0  0
 10 11  2  0  0  0  0
 10 12  1  0  0  0  0
 12 13  1  0  0  0  0
 12 32  1  0  0  0  0
 13 19  1  0  0  0  0
 13 14  1  0  0  0  0
 13 33  1  0  0  0  0
 14 15  1  0  0  0  0
 14 34  1  0  0  0  0
 14 35  1  0  0  0  0
 15 16  1  0  0  0  0
 15 36  1  0  0  0  0
 15 37  1  0  0  0  0
 16 17  1  0  0  0  0
 16 38  1  0  0  0  0
 16 39  1  0  0  0  0
 17 18  1  0  0  0  0
 17 40  1  0  0  0  0
 17 41  1  0  0  0  0
 18 19  1  0  0  0  0
 18 42  1  0  0  0  0
 19 20  2  0  0  0  0
M  END
> <s_m_source_file>
AV-unprocessed.smi

> <i_m_source_file_index>
2299

> <i_lp_mmshare_version>
43012

> <i_f3d_flags>
0

> <s_epik_input>
W0NIM11bQ0hdKFtDSDNdKWMxbltjSF1bY0hdbjFbQ0gyXUMoPU8pW05IXVtDQEBIXTJbQ0gyXVtDSDJdW0NIMl1bQ0gyXVtOSF1DMj1P

> <s_epik_cmdline>
J2VwaWtfcHl0aG9uJywgJy1waCcsICc3LjAnLCAnLXRuJywgJzgnLCAnLW1hJywgJzIwMCcsICctbWV0YWxfYmluZGluZycsICctaW1hZScsICc8aW5maWxlLm1hZT4nLCAnLW9tYWUnLCAnPG91dGZpbGUubWFlPic=

> <r_lp_tautomer_probability>
1

> <r_epik_Ionization_Penalty>
0.557868

> <r_epik_Ionization_Penalty_Charging>
0.557868

> <r_epik_Ionization_Penalty_Neutral>
1.99744e-07

> <r_epik_State_Penalty>
0.568774

> <r_epik_Charging_Adjusted_Penalty>
1.12664

> <i_epik_Tot_Q>
0

> <i_epik_Tot_abs_Q>
0

> <r_epik_Metal_State_Penalty>
0.289303

> <b_epik_Metal_Only>
0

> <s_lp_Force_Field>
OPLS_2005

> <r_lp_Energy>
10.2382

> <b_lp_Chiralities_Consistent>
1

> <s_lp_Variant>
AV-unprocessed.smi:2299-4

> <Gold.Version>
5.8.1

> <Gold.Id.Protein>
6NUR|6NUR_protein|mol2

> <Gold.PLP.Fitness>
45.9523

> <Gold.PLP.PLP>
-36.3058

> <Gold.PLP.part.hbond>
-2.5541

> <Gold.PLP.part.metal>
0.0000

> <Gold.PLP.part.buried>
-1.2626

> <Gold.PLP.part.nonpolar>
-32.6651

> <Gold.PLP.part.repulsive>
0.3796

> <Gold.PLP.ligand.clash>
0.0000

> <Gold.PLP.ligand.torsion>
0.4411

> <Gold.PLP.Chemscore.Hbond>
1.8000

> <Gold.PLP.Chemscore.CHOScore>
1.6823

> <Gold.PLP.Chemscore.Metal>
0.0000

> <Gold.Chemscore.Hbonds>
donor molecule, donor type, donor heavy atom, donor atom, acceptor molecule, acceptor atom, score
      L1  H    18    42       P1  7948  1.00
      P1  H  7989  7998       L1    11  0.80
      L1  C     6    28       P1  8028  0.12
      L1  C     6    28       P1  8029  0.75
      L1  C     7    29       P1  8028  0.63

> <Gold.PLP.Chemscore.Internal.Correction>
0.0819

> <Gold.Rescore>
     Score         DG    S(hbond)    S(metal)    S(lipo)     H(rot)  DE(clash)    DE(int)     intcor
     12.45     -18.30       1.94        0.00      91.36       1.70       0.20       5.65       ----

> <Gold.Chemscore.Fitness>
12.4514

> <Gold.Chemscore.DG>
-18.2988

> <Gold.Chemscore.ZeroCoef>
-5.4800

> <Gold.Chemscore.Hbond>
1.9408

> <Gold.Chemscore.Metal>
0.0000

> <Gold.Chemscore.Lipo>
91.3643

> <Gold.Chemscore.Internal_Hbond>
0.0000

> <Gold.Chemscore.DEClash>
0.2000

> <Gold.Chemscore.DEInternal>
5.6474

> <Gold.Chemscore.Rot>
1.7004

> <Gold.Chemscore.Internal.Correction>
   9.000000E+99

> <Gold.Chemscore.Hbonds>
donor molecule, donor type, donor heavy atom, donor atom, acceptor molecule, acceptor atom, score
      L1  H    18    42       P1  7948  1.00
      P1  H  7989  7998       L1    11  0.75

> <Gold.Chemscore.Hbond.Weighted>
-6.4822

> <Gold.Chemscore.Metal.Weighted>
-0.0000

> <Gold.Chemscore.Lipo.Weighted>
-10.6896

> <Gold.Chemscore.Internal_Hbond.Weighted>
0.0000

> <Gold.Chemscore.DEClash.Weighted>
0.2000

> <Gold.Chemscore.DEInternal.Weighted>
5.6474

> <Gold.Chemscore.Rot.Weighted>
4.3530

> <Gold.Chemscore.Internal.Correction.Weighted>
   9.000000E+99

> <Gold.Protein.RotatedTorsions>
[ 6907 6896 6895 6894 ] final   16.97 input  -60.11 | X-H torsion
[ 7974 7965 7964 7962 ] final  -92.75 input  175.53 | X-H torsion
[ 8008 7997 7996 7995 ] final  170.69 input   59.86 | X-H torsion
[ 10167 10162 10161 10158 ] final -160.26 input  -65.29 | X-H torsion
[ 10718 10713 10712 10709 ] final   60.70 input   66.30 | X-H torsion
[ 10763 10752 10751 10750 ] final  -55.50 input  -60.55 | X-H torsion
[ 11005 11000 10999 10996 ] final  138.87 input  -57.11 | X-H torsion

> <Gold.Protein.ActiveResidues>
 VAL166  LYS551  ARG553  GLY616  TRP617  ASP618  TYR619  PRO620  LYS621  CYS622 
 ASP623  PHE694  ASN695  SER759  ASP760  ASP761  ALA762  ILE779  LEU786  VAL792 
 PHE793  MET794  SER795  GLU796  ALA797  LYS798  CYS799  TRP800  GLU811  SER814 

> <Gold.Protein.RotatedAtoms>
  151.8423  135.0586  160.0449 H   0  0  0  0  0  0  0  0  0  0  0  0  # atno 6907 bound_to 6896
  152.2799  133.5456  159.5500 H   0  0  0  0  0  0  0  0  0  0  0  0  # atno 6908 bound_to 6896
  150.7185  134.0495  159.3835 H   0  0  0  0  0  0  0  0  0  0  0  0  # atno 6909 bound_to 6896
  145.3957  140.9532  143.2315 H   0  0  0  0  0  0  0  0  0  0  0  0  # atno 7974 bound_to 7965
  156.1341  140.1531  156.9021 H   0  0  0  0  0  0  0  0  0  0  0  0  # atno 8008 bound_to 7997
  154.4933  140.0845  156.7681 H   0  0  0  0  0  0  0  0  0  0  0  0  # atno 8009 bound_to 7997
  155.4201  140.3422  155.4273 H   0  0  0  0  0  0  0  0  0  0  0  0  # atno 8010 bound_to 7997
  139.6553  144.0010  152.2189 H   0  0  0  0  0  0  0  0  0  0  0  0  # atno 10167 bound_to 10162
  157.5773  130.8954  149.9369 H   0  0  0  0  0  0  0  0  0  0  0  0  # atno 10718 bound_to 10713
  154.1918  135.6426  153.5062 H   0  0  0  0  0  0  0  0  0  0  0  0  # atno 10763 bound_to 10752
  153.0033  135.5430  154.6407 H   0  0  0  0  0  0  0  0  0  0  0  0  # atno 10764 bound_to 10752
  154.5798  135.2924  155.0717 H   0  0  0  0  0  0  0  0  0  0  0  0  # atno 10765 bound_to 10752
  140.0214  134.9395  157.0482 H   0  0  0  0  0  0  0  0  0  0  0  0  # atno 11005 bound_to 11000
  144.8409  139.5473  143.6900 LP  0  0  0  0  0  0  0  0  0  0  0  0  # atno 17320 bound_to 7965
  146.2776  139.6794  142.9252 LP  0  0  0  0  0  0  0  0  0  0  0  0  # atno 17321 bound_to 7965
  139.9735  144.6477  150.7967 LP  0  0  0  0  0  0  0  0  0  0  0  0  # atno 17342 bound_to 10162
  140.7556  143.3050  151.2986 LP  0  0  0  0  0  0  0  0  0  0  0  0  # atno 17343 bound_to 10162
  156.0818  130.3672  150.0566 LP  0  0  0  0  0  0  0  0  0  0  0  0  # atno 17370 bound_to 10713
  156.8710  130.9524  151.3609 LP  0  0  0  0  0  0  0  0  0  0  0  0  # atno 17371 bound_to 10713
  140.4381  134.1710  155.7172 LP  0  0  0  0  0  0  0  0  0  0  0  0  # atno 17394 bound_to 11000
  141.1776  133.8481  157.1368 LP  0  0  0  0  0  0  0  0  0  0  0  0  # atno 17395 bound_to 11000

$$$$
