AV-unprocessed.smi:214|AV-procd|sdf|1649|dock6
  -GOLD-   2262020 33D 1   1.00000     0.00000
 Structure written by MMmdl.
 47 50  0  0  0  0  0  0  0  0  1 V2000
  152.5791  138.7350  154.7814 C   0  0  0  0  0  0  0  0  0  0  0  0
  151.3577  139.5190  154.9315 N   0  0  0  0  0  0  0  0  0  0  0  0
  151.4221  140.8126  155.6207 C   0  0  0  0  0  0  0  0  0  0  0  0
  151.8907  140.6872  157.0756 C   0  0  0  0  0  0  0  0  0  0  0  0
  152.6254  139.7627  157.4276 O   0  0  0  0  0  0  0  0  0  0  0  0
  151.4640  141.6466  157.9097 N   0  0  0  0  0  0  0  0  0  0  0  0
  151.7772  141.7365  159.2994 C   0  0  0  0  0  0  0  0  0  0  0  0
  152.2381  143.0771  159.8295 C   0  0  0  0  0  0  0  0  0  0  0  0
  153.2253  141.9524  159.6826 C   0  0  0  0  0  0  0  0  0  0  0  0
  150.2466  138.7653  155.1010 C   0  0  0  0  0  0  0  0  0  0  0  0
  149.0820  139.4201  155.3367 N   0  0  0  0  0  0  0  0  0  0  0  0
  147.9501  138.7334  155.5161 C   0  0  0  0  0  0  0  0  0  0  0  0
  147.7626  137.4128  155.4897 N   0  0  0  0  0  0  0  0  0  0  0  0
  148.9258  136.7503  155.2302 C   0  0  0  0  0  0  0  0  0  0  0  0
  150.2046  137.3430  155.0261 C   0  0  0  0  0  0  0  0  0  0  0  0
  151.1487  136.3527  154.7792 N   0  0  0  0  0  0  0  0  0  0  0  0
  150.4698  135.2402  154.8455 C   0  0  0  0  0  0  0  0  0  0  0  0
  149.1253  135.3864  155.1035 N   0  0  0  0  0  0  0  0  0  0  0  0
  148.1459  134.3170  155.2269 C   0  0  0  0  0  0  0  0  0  0  0  0
  147.8259  133.5894  153.9037 C   0  0  0  0  0  0  0  0  0  0  0  0
  146.8331  134.4022  153.0537 C   0  0  0  0  0  0  0  0  0  0  0  0
  147.3068  135.7128  152.8175 O   0  0  0  0  0  0  0  0  0  0  0  0
  149.0376  133.0475  153.1327 C   0  0  0  0  0  0  0  0  0  0  0  0
  148.4398  131.7406  153.0030 O   0  0  0  0  0  0  0  0  0  0  0  0
  147.4820  132.0971  154.0213 C   0  0  0  0  0  0  0  0  0  0  0  0
  152.5505  138.1410  153.8672 H   0  0  0  0  0  0  0  0  0  0  0  0
  152.7125  138.0593  155.6277 H   0  0  0  0  0  0  0  0  0  0  0  0
  153.4567  139.3798  154.7263 H   0  0  0  0  0  0  0  0  0  0  0  0
  152.1184  141.4880  155.1211 H   0  0  0  0  0  0  0  0  0  0  0  0
  150.4392  141.2858  155.5916 H   0  0  0  0  0  0  0  0  0  0  0  0
  150.8690  142.3694  157.5317 H   0  0  0  0  0  0  0  0  0  0  0  0
  151.1857  141.1323  159.9858 H   0  0  0  0  0  0  0  0  0  0  0  0
  152.3143  143.9054  159.1275 H   0  0  0  0  0  0  0  0  0  0  0  0
  151.9320  143.3487  160.8378 H   0  0  0  0  0  0  0  0  0  0  0  0
  153.5792  141.4724  160.5927 H   0  0  0  0  0  0  0  0  0  0  0  0
  153.9585  142.0292  158.8820 H   0  0  0  0  0  0  0  0  0  0  0  0
  147.0686  139.3274  155.7083 H   0  0  0  0  0  0  0  0  0  0  0  0
  150.9327  134.2752  154.6980 H   0  0  0  0  0  0  0  0  0  0  0  0
  148.5113  133.6073  155.9700 H   0  0  0  0  0  0  0  0  0  0  0  0
  147.2397  134.7452  155.6573 H   0  0  0  0  0  0  0  0  0  0  0  0
  146.6802  133.9251  152.0851 H   0  0  0  0  0  0  0  0  0  0  0  0
  145.8492  134.4539  153.5203 H   0  0  0  0  0  0  0  0  0  0  0  0
  148.0470  135.6632  152.2318 H   0  0  0  0  0  0  0  0  0  0  0  0
  149.2076  133.5302  152.1696 H   0  0  0  0  0  0  0  0  0  0  0  0
  149.9573  133.0151  153.7192 H   0  0  0  0  0  0  0  0  0  0  0  0
  147.7410  131.6508  154.9825 H   0  0  0  0  0  0  0  0  0  0  0  0
  146.4565  131.8527  153.7424 H   0  0  0  0  0  0  0  0  0  0  0  0
  1  2  1  0  0  0  0
  1 26  1  0  0  0  0
  1 27  1  0  0  0  0
  1 28  1  0  0  0  0
  2  3  1  0  0  0  0
  2 10  1  0  0  0  0
  3  4  1  0  0  0  0
  3 29  1  0  0  0  0
  3 30  1  0  0  0  0
  4  5  2  0  0  0  0
  4  6  1  0  0  0  0
  6  7  1  0  0  0  0
  6 31  1  0  0  0  0
  7  9  1  0  0  0  0
  7  8  1  0  0  0  0
  7 32  1  0  0  0  0
  8  9  1  0  0  0  0
  8 33  1  0  0  0  0
  8 34  1  0  0  0  0
  9 35  1  0  0  0  0
  9 36  1  0  0  0  0
 10 15  1  0  0  0  0
 10 11  2  0  0  0  0
 11 12  1  0  0  0  0
 12 13  2  0  0  0  0
 12 37  1  0  0  0  0
 13 14  1  0  0  0  0
 14 18  1  0  0  0  0
 14 15  2  0  0  0  0
 15 16  1  0  0  0  0
 16 17  2  0  0  0  0
 17 18  1  0  0  0  0
 17 38  1  0  0  0  0
 18 19  1  0  0  0  0
 19 20  1  0  0  0  0
 19 39  1  0  0  0  0
 19 40  1  0  0  0  0
 20 25  1  0  0  0  0
 20 21  1  0  0  0  0
 20 23  1  0  0  0  0
 21 22  1  0  0  0  0
 21 41  1  0  0  0  0
 21 42  1  0  0  0  0
 22 43  1  0  0  0  0
 23 24  1  0  0  0  0
 23 44  1  0  0  0  0
 23 45  1  0  0  0  0
 24 25  1  0  0  0  0
 25 46  1  0  0  0  0
 25 47  1  0  0  0  0
M  END
> <s_m_source_file>
AV-unprocessed.smi

> <i_m_source_file_index>
214

> <i_lp_mmshare_version>
43012

> <i_f3d_flags>
0

> <s_epik_input>
W0NIMl0xW0NIMl1bQ0hdMVtOSF1DKD1PKVtDSDJdTihbQ0gzXSljKG5bY0hdbjIpYyhjMjMpbltjSF1uM1tDSDJdQzQoW0NIMl1bT0hdKVtDSDJdT1tDSDJdNA==

> <s_epik_cmdline>
J2VwaWtfcHl0aG9uJywgJy1waCcsICc3LjAnLCAnLXRuJywgJzgnLCAnLW1hJywgJzIwMCcsICctbWV0YWxfYmluZGluZycsICctaW1hZScsICc8aW5maWxlLm1hZT4nLCAnLW9tYWUnLCAnPG91dGZpbGUubWFlPic=

> <r_lp_tautomer_probability>
1

> <r_epik_Ionization_Penalty>
0.000508869

> <r_epik_Ionization_Penalty_Charging>
0

> <r_epik_Ionization_Penalty_Neutral>
0.000508869

> <r_epik_State_Penalty>
0.000243319

> <r_epik_Charging_Adjusted_Penalty>
0.000243319

> <i_epik_Tot_Q>
0

> <i_epik_Tot_abs_Q>
0

> <r_epik_Metal_State_Penalty>
-0

> <b_epik_Metal_Only>
0

> <s_lp_Force_Field>
OPLS_2005

> <r_lp_Energy>
39.3286

> <b_lp_Chiralities_Consistent>
1

> <s_lp_Variant>
AV-unprocessed.smi:214-1

> <Gold.Version>
5.8.1

> <Gold.Id.Protein>
6NUR|6NUR_protein|mol2

> <Gold.PLP.Fitness>
44.4491

> <Gold.PLP.PLP>
-36.9654

> <Gold.PLP.part.hbond>
-2.6345

> <Gold.PLP.part.metal>
0.0000

> <Gold.PLP.part.buried>
-5.3463

> <Gold.PLP.part.nonpolar>
-29.9494

> <Gold.PLP.part.repulsive>
0.7914

> <Gold.PLP.ligand.clash>
0.0000

> <Gold.PLP.ligand.torsion>
1.2945

> <Gold.PLP.Chemscore.Hbond>
3.0000

> <Gold.PLP.Chemscore.CHOScore>
0.0000

> <Gold.PLP.Chemscore.Metal>
0.0000

> <Gold.Chemscore.Hbonds>
donor molecule, donor type, donor heavy atom, donor atom, acceptor molecule, acceptor atom, score
      P1  H  7997  8009       L1     5  1.00
      P1  H 10752 10763       L1    16  0.90

> <Gold.PLP.Chemscore.Internal.Correction>
1.0727

> <Gold.Rescore>
     Score         DG    S(hbond)    S(metal)    S(lipo)     H(rot)  DE(clash)    DE(int)     intcor
      7.28     -12.59       2.16        0.00      71.34       3.31       0.24       5.06       ----

> <Gold.Chemscore.Fitness>
7.2841

> <Gold.Chemscore.DG>
-12.5915

> <Gold.Chemscore.ZeroCoef>
-5.4800

> <Gold.Chemscore.Hbond>
2.1636

> <Gold.Chemscore.Metal>
0.0000

> <Gold.Chemscore.Lipo>
71.3363

> <Gold.Chemscore.Internal_Hbond>
0.0000

> <Gold.Chemscore.DEClash>
0.2428

> <Gold.Chemscore.DEInternal>
5.0647

> <Gold.Chemscore.Rot>
3.3052

> <Gold.Chemscore.Internal.Correction>
   9.000000E+99

> <Gold.Chemscore.Hbonds>
donor molecule, donor type, donor heavy atom, donor atom, acceptor molecule, acceptor atom, score
      L1  H    22    43       P1  7948  0.04
      P1  H  7997  8009       L1     5  0.81
      P1  H 10752 10763       L1    16  0.18

> <Gold.Chemscore.Hbond.Weighted>
-7.2266

> <Gold.Chemscore.Metal.Weighted>
-0.0000

> <Gold.Chemscore.Lipo.Weighted>
-8.3463

> <Gold.Chemscore.Internal_Hbond.Weighted>
0.0000

> <Gold.Chemscore.DEClash.Weighted>
0.2428

> <Gold.Chemscore.DEInternal.Weighted>
5.0647

> <Gold.Chemscore.Rot.Weighted>
8.4614

> <Gold.Chemscore.Internal.Correction.Weighted>
   9.000000E+99

> <Gold.Protein.RotatedTorsions>
[ 6907 6896 6895 6894 ] final -154.99 input  -60.11 | X-H torsion
[ 7974 7965 7964 7962 ] final  164.86 input  175.53 | X-H torsion
[ 8008 7997 7996 7995 ] final  165.08 input   59.86 | X-H torsion
[ 10167 10162 10161 10158 ] final -177.51 input  -65.29 | X-H torsion
[ 10718 10713 10712 10709 ] final   72.00 input   66.30 | X-H torsion
[ 10763 10752 10751 10750 ] final   60.79 input  -60.55 | X-H torsion
[ 11005 11000 10999 10996 ] final  -78.96 input  -57.11 | X-H torsion

> <Gold.Protein.ActiveResidues>
 VAL166  LYS551  ARG553  GLY616  TRP617  ASP618  TYR619  PRO620  LYS621  CYS622 
 ASP623  PHE694  ASN695  SER759  ASP760  ASP761  ALA762  ILE779  LEU786  VAL792 
 PHE793  MET794  SER795  GLU796  ALA797  LYS798  CYS799  TRP800  GLU811  SER814 

> <Gold.Protein.RotatedAtoms>
  151.2658  133.4279  159.2618 H   0  0  0  0  0  0  0  0  0  0  0  0  # atno 6907 bound_to 6896
  151.0490  134.9660  159.8211 H   0  0  0  0  0  0  0  0  0  0  0  0  # atno 6908 bound_to 6896
  152.5379  134.2613  159.8989 H   0  0  0  0  0  0  0  0  0  0  0  0  # atno 6909 bound_to 6896
  144.7527  139.8386  143.6360 H   0  0  0  0  0  0  0  0  0  0  0  0  # atno 7974 bound_to 7965
  156.1829  140.1679  156.8240 H   0  0  0  0  0  0  0  0  0  0  0  0  # atno 8008 bound_to 7997
  154.5380  140.0742  156.8494 H   0  0  0  0  0  0  0  0  0  0  0  0  # atno 8009 bound_to 7997
  155.3271  140.3377  155.4242 H   0  0  0  0  0  0  0  0  0  0  0  0  # atno 8010 bound_to 7997
  139.5476  144.2193  152.1018 H   0  0  0  0  0  0  0  0  0  0  0  0  # atno 10167 bound_to 10162
  157.6480  130.9557  150.0868 H   0  0  0  0  0  0  0  0  0  0  0  0  # atno 10718 bound_to 10713
  152.9931  135.5523  154.5930 H   0  0  0  0  0  0  0  0  0  0  0  0  # atno 10763 bound_to 10752
  154.5288  135.2812  155.1201 H   0  0  0  0  0  0  0  0  0  0  0  0  # atno 10764 bound_to 10752
  154.2524  135.6396  153.5298 H   0  0  0  0  0  0  0  0  0  0  0  0  # atno 10765 bound_to 10752
  141.1666  133.7085  156.8051 H   0  0  0  0  0  0  0  0  0  0  0  0  # atno 11005 bound_to 11000
  146.1498  139.4578  143.0056 LP  0  0  0  0  0  0  0  0  0  0  0  0  # atno 17320 bound_to 7965
  145.6887  141.0170  143.1567 LP  0  0  0  0  0  0  0  0  0  0  0  0  # atno 17321 bound_to 7965
  140.1682  144.4961  150.6594 LP  0  0  0  0  0  0  0  0  0  0  0  0  # atno 17342 bound_to 10162
  140.6730  143.2293  151.5579 LP  0  0  0  0  0  0  0  0  0  0  0  0  # atno 17343 bound_to 10162
  156.1828  130.3651  149.9012 LP  0  0  0  0  0  0  0  0  0  0  0  0  # atno 17370 bound_to 10713
  156.6960  130.8914  151.3594 LP  0  0  0  0  0  0  0  0  0  0  0  0  # atno 17371 bound_to 10713
  140.2228  134.8744  157.3395 LP  0  0  0  0  0  0  0  0  0  0  0  0  # atno 17394 bound_to 11000
  140.1970  134.4301  155.7683 LP  0  0  0  0  0  0  0  0  0  0  0  0  # atno 17395 bound_to 11000

$$$$
