#       Name:                AV-unprocessed.smi:83
#       Creating user name   scv26
#       Creation time:       Thu Mar 26 17:20:04 2020


#       File generated by GOLD software.
#

@<TRIPOS>MOLECULE
AV-unprocessed.smi:83
    65    68     1
SMALL
NO_CHARGES


@<TRIPOS>ATOM
      1 ****        -3.6672  -5.4522   1.3702 C.3            1 S1                 0.0000
      2 ****        -2.8990  -4.2168   0.8973 C.2            1 S1                 0.0000
      3 ****        -1.7399  -4.0522   1.2776 O.2            1 S1                 0.0000
      4 ****        -3.5247  -3.3470   0.0788 N.am           1 S1                 0.0000
      5 ****        -4.8899  -3.4800  -0.4270 C.3            1 S1                 0.0000
      6 ****        -5.0555  -2.3599  -1.4561 C.3            1 S1                 0.0000
      7 ****        -4.0599  -1.2947  -1.0091 C.3            1 S1                 0.0000
      8 ****        -3.6520  -0.3106  -2.1238 C.3            1 S1                 0.0000
      9 ****        -2.8106   0.7830  -1.6340 N.pl3          1 S1                 0.0000
     10 ****        -3.4451   1.8525  -0.8744 C.3            1 S1                 0.0000
     11 ****        -1.4720   0.5721  -1.5053 C.ar           1 S1                 0.0000
     12 ****        -0.8402  -0.1175  -2.4921 N.ar           1 S1                 0.0000
     13 ****         0.4688  -0.3711  -2.4186 C.ar           1 S1                 0.0000
     14 ****         1.3295  -0.0353  -1.4578 N.ar           1 S1                 0.0000
     15 ****         0.7078   0.6551  -0.4605 C.ar           1 S1                 0.0000
     16 ****        -0.6729   1.0049  -0.4029 C.ar           1 S1                 0.0000
     17 ****        -0.9238   1.6975   0.7782 N.2            1 S1                 0.0000
     18 ****         0.2348   1.7588   1.3747 C.2            1 S1                 0.0000
     19 ****         1.2692   1.1549   0.7001 N.pl3          1 S1                 0.0000
     20 ****         2.6533   1.0621   1.1279 C.3            1 S1                 0.0000
     21 ****         3.5577   2.0843   0.4140 C.3            1 S1                 0.0000
     22 ****         3.1267   3.4052   0.6857 O.3            1 S1                 0.0000
     23 ****         5.0476   1.9130   0.7720 C.3            1 S1                 0.0000
     24 ****         6.0209   2.9338   0.1583 C.3            1 S1                 0.0000
     25 ****         6.8937   3.3567   1.3305 C.3            1 S1                 0.0000
     26 ****         6.6255   2.2859   2.3823 C.3            1 S1                 0.0000
     27 ****         5.2586   1.9721   2.1773 O.3            1 S1                 0.0000
     28 ****        -2.9095  -2.1228  -0.4248 C.3            1 S1                 0.0000
     29 ****        -4.5943  -5.1652   1.8670 H              1 S1                 0.0000
     30 ****        -3.0711  -6.0274   2.0796 H              1 S1                 0.0000
     31 ****        -3.9068  -6.1019   0.5281 H              1 S1                 0.0000
     32 ****        -5.0709  -4.4568  -0.8775 H              1 S1                 0.0000
     33 ****        -5.5918  -3.3469   0.3975 H              1 S1                 0.0000
     34 ****        -4.7840  -2.7315  -2.4454 H              1 S1                 0.0000
     35 ****        -6.0785  -1.9861  -1.5096 H              1 S1                 0.0000
     36 ****        -4.5250  -0.7384  -0.1935 H              1 S1                 0.0000
     37 ****        -3.1765  -0.8463  -2.9455 H              1 S1                 0.0000
     38 ****        -4.5524   0.1303  -2.5526 H              1 S1                 0.0000
     39 ****        -2.8528   2.7671  -0.9171 H              1 S1                 0.0000
     40 ****        -3.5735   1.5635   0.1690 H              1 S1                 0.0000
     41 ****        -4.4298   2.0785  -1.2839 H              1 S1                 0.0000
     42 ****         0.8852  -0.9242  -3.2475 H              1 S1                 0.0000
     43 ****         0.3674   2.2478   2.3290 H              1 S1                 0.0000
     44 ****         2.6940   1.2017   2.2092 H              1 S1                 0.0000
     45 ****         3.0018   0.0476   0.9310 H              1 S1                 0.0000
     46 ****         3.4579   1.9411  -0.6626 H              1 S1                 0.0000
     47 ****         3.6754   4.0043   0.2032 H              1 S1                 0.0000
     48 ****         5.3630   0.9167   0.4567 H              1 S1                 0.0000
     49 ****         6.6156   2.4634  -0.6258 H              1 S1                 0.0000
     50 ****         5.5227   3.7968  -0.2838 H              1 S1                 0.0000
     51 ****         7.9494   3.4379   1.0700 H              1 S1                 0.0000
     52 ****         6.5626   4.3267   1.7035 H              1 S1                 0.0000
     53 ****         7.2362   1.3994   2.2028 H              1 S1                 0.0000
     54 ****         6.8120   2.6348   3.3981 H              1 S1                 0.0000
     55 ****        -2.3855  -1.5735   0.3594 H              1 S1                 0.0000
     56 ****        -2.1846  -2.3894  -1.1954 H              1 S1                 0.0000
     57 ****        -1.3138  -4.7210   1.8868 LP             1 S1                 0.0000
     58 ****        -1.2243  -3.2497   0.9773 LP             1 S1                 0.0000
     59 ****        -1.3620  -0.4387  -3.2824 LP             1 S1                 0.0000
     60 ****         2.3038  -0.2605  -1.4675 LP             1 S1                 0.0000
     61 ****        -1.7968   2.0657   1.0979 LP             1 S1                 0.0000
     62 ****         3.2044   3.5907   1.6652 LP             1 S1                 0.0000
     63 ****         2.1747   3.5149   0.4001 LP             1 S1                 0.0000
     64 ****         5.0436   1.0886   2.5936 LP             1 S1                 0.0000
     65 ****         4.6800   2.6806   2.5812 LP             1 S1                 0.0000
@<TRIPOS>BOND
    1    1    2 1     
    2    1   29 1     
    3    1   30 1     
    4    1   31 1     
    5    2    3 2     
    6    2    4 am    
    7    4   28 1     
    8    4    5 1     
    9    5    6 1     
   10    5   32 1     
   11    5   33 1     
   12    6    7 1     
   13    6   34 1     
   14    6   35 1     
   15    7    8 1     
   16    7   28 1     
   17    7   36 1     
   18    8    9 1     
   19    8   37 1     
   20    8   38 1     
   21    9   10 1     
   22    9   11 1     
   23   10   39 1     
   24   10   40 1     
   25   10   41 1     
   26   11   16 ar    
   27   11   12 ar    
   28   12   13 ar    
   29   13   14 ar    
   30   13   42 1     
   31   14   15 ar    
   32   15   19 1     
   33   15   16 ar    
   34   16   17 1     
   35   17   18 2     
   36   18   19 1     
   37   18   43 1     
   38   19   20 1     
   39   20   21 1     
   40   20   44 1     
   41   20   45 1     
   42   21   22 1     
   43   21   23 1     
   44   21   46 1     
   45   22   47 1     
   46   23   27 1     
   47   23   24 1     
   48   23   48 1     
   49   24   25 1     
   50   24   49 1     
   51   24   50 1     
   52   25   26 1     
   53   25   51 1     
   54   25   52 1     
   55   26   27 1     
   56   26   53 1     
   57   26   54 1     
   58   28   55 1     
   59   28   56 1     
   60    3   57 1     
   61    3   58 1     
   62   12   59 1     
   63   14   60 1     
   64   17   61 1     
   65   22   62 1     
   66   22   63 1     
   67   27   64 1     
   68   27   65 1     
@<TRIPOS>SUBSTRUCTURE
      1 S1             1
@<TRIPOS>SET
LONE_PAIRS      STATIC     ATOMS    <user>   **** ""
9 57 58 59 60 61 62 63 64 65
DONOR_HYDROGENS      STATIC     ATOMS    <user>   **** ""
1 47
ATOM$BLUE        STATIC     ATOMS    COLORGROUP SYSTEM
9 57 58 59 60 61 62 63 64 65
ATOM$RED        STATIC     ATOMS    COLORGROUP SYSTEM
1 47
