#       Name:                AV-unprocessed.smi:209
#       Creating user name   scv26
#       Creation time:       Thu Mar 26 19:52:49 2020


#       File generated by GOLD software.
#

@<TRIPOS>MOLECULE
AV-unprocessed.smi:209
    58    62     1
SMALL
NO_CHARGES


@<TRIPOS>ATOM
      1 ****         0.1689   6.1844   0.2692 O.2            1 S1                 0.0000
      2 ****         0.1137   4.9567   0.2641 C.2            1 S1                 0.0000
      3 ****         1.1364   4.1083   0.4248 N.am           1 S1                 0.0000
      4 ****         0.7069   2.7135   0.4551 C.3            1 S1                 0.0000
      5 ****        -0.7935   2.8556   0.7547 C.3            1 S1                 0.0000
      6 ****        -1.1531   4.1510   0.0421 C.3            1 S1                 0.0000
      7 ****        -2.5056   4.6515   0.5517 C.3            1 S1                 0.0000
      8 ****        -3.5347   3.5422   0.2283 C.3            1 S1                 0.0000
      9 ****        -3.0919   2.1414   0.7328 C.3            1 S1                 0.0000
     10 ****        -1.7156   1.8056   0.3361 N.3            1 S1                 0.0000
     11 ****        -1.3303   0.5639   0.7048 C.ar           1 S1                 0.0000
     12 ****        -1.3648   0.1944   2.0124 N.ar           1 S1                 0.0000
     13 ****        -0.9683  -1.0314   2.3689 C.ar           1 S1                 0.0000
     14 ****        -0.5085  -2.0185   1.5959 N.ar           1 S1                 0.0000
     15 ****        -0.4696  -1.6449   0.2842 C.ar           1 S1                 0.0000
     16 ****        -0.8584  -0.3818  -0.2416 C.ar           1 S1                 0.0000
     17 ****        -0.6784  -0.3603  -1.6179 N.2            1 S1                 0.0000
     18 ****        -0.2132  -1.5485  -1.8931 C.2            1 S1                 0.0000
     19 ****        -0.0483  -2.3825  -0.8092 N.pl3          1 S1                 0.0000
     20 ****         0.4470  -3.7506  -0.8279 C.3            1 S1                 0.0000
     21 ****         1.9820  -3.8573  -0.8930 C.3            1 S1                 0.0000
     22 ****         2.5760  -3.1775   0.3576 C.3            1 S1                 0.0000
     23 ****         3.9801  -3.3228   0.4373 O.3            1 S1                 0.0000
     24 ****         2.5183  -5.2573  -1.2256 C.3            1 S1                 0.0000
     25 ****         3.3091  -4.7588  -2.3269 O.3            1 S1                 0.0000
     26 ****         2.6311  -3.4864  -2.2344 C.3            1 S1                 0.0000
     27 ****        -0.9096   2.9978   1.8320 H              1 S1                 0.0000
     28 ****        -1.2192   3.9807  -1.0347 H              1 S1                 0.0000
     29 ****         2.0920   4.3920   0.5864 H              1 S1                 0.0000
     30 ****         0.8867   2.2571  -0.5196 H              1 S1                 0.0000
     31 ****         1.2320   2.1383   1.2182 H              1 S1                 0.0000
     32 ****        -2.4694   4.8422   1.6251 H              1 S1                 0.0000
     33 ****        -2.7842   5.5867   0.0651 H              1 S1                 0.0000
     34 ****        -4.5066   3.7993   0.6497 H              1 S1                 0.0000
     35 ****        -3.6751   3.4963  -0.8525 H              1 S1                 0.0000
     36 ****        -3.1722   2.1175   1.8205 H              1 S1                 0.0000
     37 ****        -3.7756   1.3816   0.3520 H              1 S1                 0.0000
     38 ****        -1.0273  -1.2524   3.4245 H              1 S1                 0.0000
     39 ****         0.0229  -1.8492  -2.9031 H              1 S1                 0.0000
     40 ****         0.0655  -4.2689   0.0528 H              1 S1                 0.0000
     41 ****        -0.0078  -4.2523  -1.6831 H              1 S1                 0.0000
     42 ****         2.3630  -2.1084   0.3633 H              1 S1                 0.0000
     43 ****         2.1413  -3.5918   1.2678 H              1 S1                 0.0000
     44 ****         4.2826  -2.8971   1.2248 H              1 S1                 0.0000
     45 ****         3.1274  -5.7064  -0.4405 H              1 S1                 0.0000
     46 ****         1.7526  -5.9567  -1.5645 H              1 S1                 0.0000
     47 ****         1.9223  -3.3528  -3.0524 H              1 S1                 0.0000
     48 ****         3.3227  -2.6449  -2.1800 H              1 S1                 0.0000
     49 ****        -0.6604   6.7228   0.1197 LP             1 S1                 0.0000
     50 ****         1.0432   6.6450   0.4227 LP             1 S1                 0.0000
     51 ****        -1.6936   1.7705  -0.6631 LP             1 S1                 0.0000
     52 ****        -1.6862   0.8385   2.7065 LP             1 S1                 0.0000
     53 ****        -0.2285  -2.9166   1.9350 LP             1 S1                 0.0000
     54 ****        -0.8624   0.3912  -2.2516 LP             1 S1                 0.0000
     55 ****         4.4086  -2.8990  -0.3608 LP             1 S1                 0.0000
     56 ****         4.2173  -4.2938   0.4667 LP             1 S1                 0.0000
     57 ****         3.1576  -5.2408  -3.1899 LP             1 S1                 0.0000
     58 ****         4.2901  -4.7137  -2.1381 LP             1 S1                 0.0000
@<TRIPOS>BOND
    1    1    2 2     
    2    2    6 1     
    3    2    3 am    
    4    3    4 1     
    5    3   29 1     
    6    4    5 1     
    7    4   30 1     
    8    4   31 1     
    9    5   27 1     
   10    5   10 1     
   11    5    6 1     
   12    6   28 1     
   13    6    7 1     
   14    7    8 1     
   15    7   32 1     
   16    7   33 1     
   17    8    9 1     
   18    8   34 1     
   19    8   35 1     
   20    9   10 1     
   21    9   36 1     
   22    9   37 1     
   23   10   11 1     
   24   11   16 ar    
   25   11   12 ar    
   26   12   13 ar    
   27   13   14 ar    
   28   13   38 1     
   29   14   15 ar    
   30   15   19 1     
   31   15   16 ar    
   32   16   17 1     
   33   17   18 2     
   34   18   19 1     
   35   18   39 1     
   36   19   20 1     
   37   20   21 1     
   38   20   40 1     
   39   20   41 1     
   40   21   26 1     
   41   21   22 1     
   42   21   24 1     
   43   22   23 1     
   44   22   42 1     
   45   22   43 1     
   46   23   44 1     
   47   24   25 1     
   48   24   45 1     
   49   24   46 1     
   50   25   26 1     
   51   26   47 1     
   52   26   48 1     
   53    1   49 1     
   54    1   50 1     
   55   10   51 1     
   56   12   52 1     
   57   14   53 1     
   58   17   54 1     
   59   23   55 1     
   60   23   56 1     
   61   25   57 1     
   62   25   58 1     
@<TRIPOS>SUBSTRUCTURE
      1 S1             1
@<TRIPOS>SET
LONE_PAIRS      STATIC     ATOMS    <user>   **** ""
10 49 50 51 52 53 54 55 56 57 58
DONOR_HYDROGENS      STATIC     ATOMS    <user>   **** ""
2 29 44
ATOM$BLUE        STATIC     ATOMS    COLORGROUP SYSTEM
10 49 50 51 52 53 54 55 56 57 58
ATOM$RED        STATIC     ATOMS    COLORGROUP SYSTEM
2 29 44
