#       Name:                AV-unprocessed.smi:229
#       Creating user name   scv26
#       Creation time:       Thu Mar 26 20:27:18 2020


#       File generated by GOLD software.
#

@<TRIPOS>MOLECULE
AV-unprocessed.smi:229
    70    74     1
SMALL
NO_CHARGES


@<TRIPOS>ATOM
      1 ****        -3.9468  -0.3082   3.3147 C.3            1 S1                 0.0000
      2 ****        -4.6719   0.4739   2.2113 C.3            1 S1                 0.0000
      3 ****        -4.0911   0.2459   0.8057 C.3            1 S1                 0.0000
      4 ****        -2.6655   0.8071   0.6463 C.3            1 S1                 0.0000
      5 ****        -2.2275   0.6706  -0.7369 N.3            1 S1                 0.0000
      6 ****        -0.8934   0.8197  -0.9364 C.ar           1 S1                 0.0000
      7 ****        -0.4319   1.8328  -1.7181 N.ar           1 S1                 0.0000
      8 ****         0.8802   1.9922  -1.9134 C.ar           1 S1                 0.0000
      9 ****         1.8898   1.2638  -1.4338 N.ar           1 S1                 0.0000
     10 ****         1.4339   0.2399  -0.6571 C.ar           1 S1                 0.0000
     11 ****         0.0727  -0.0523  -0.3589 C.ar           1 S1                 0.0000
     12 ****        -0.0011  -1.1789   0.4529 N.2            1 S1                 0.0000
     13 ****         1.2445  -1.5245   0.6341 C.2            1 S1                 0.0000
     14 ****         2.1713  -0.7260   0.0042 N.pl3          1 S1                 0.0000
     15 ****         3.6150  -0.8794   0.0388 C.3            1 S1                 0.0000
     16 ****         4.2343  -0.3000   1.3287 C.3            1 S1                 0.0000
     17 ****         3.9058   1.0679   1.4719 O.3            1 S1                 0.0000
     18 ****         5.7664  -0.4516   1.4249 C.3            1 S1                 0.0000
     19 ****         6.2389  -1.8624   1.7774 C.3            1 S1                 0.0000
     20 ****         7.6655  -1.8350   1.2786 C.3            1 S1                 0.0000
     21 ****         7.5376  -1.0123  -0.0008 C.3            1 S1                 0.0000
     22 ****         6.4066  -0.1638   0.1836 O.3            1 S1                 0.0000
     23 ****        -3.1401   1.3016  -1.6849 C.3            1 S1                 0.0000
     24 ****        -4.5788   0.7689  -1.4972 C.3            1 S1                 0.0000
     25 ****        -5.5711   1.5702  -2.3327 C.3            1 S1                 0.0000
     26 ****        -5.6815   0.7568  -3.6132 C.3            1 S1                 0.0000
     27 ****        -5.6944  -0.5725  -3.1273 O.3            1 S1                 0.0000
     28 ****        -4.7726  -0.6642  -2.0463 C.3            1 S1                 0.0000
     29 ****        -4.9590   0.8978  -0.1239 O.3            1 S1                 0.0000
     30 ****        -4.4383  -0.1620   4.2767 H              1 S1                 0.0000
     31 ****        -2.9123   0.0168   3.4237 H              1 S1                 0.0000
     32 ****        -3.9435  -1.3778   3.1030 H              1 S1                 0.0000
     33 ****        -5.7206   0.1747   2.2108 H              1 S1                 0.0000
     34 ****        -4.6612   1.5383   2.4486 H              1 S1                 0.0000
     35 ****        -4.0813  -0.8261   0.6062 H              1 S1                 0.0000
     36 ****        -2.6441   1.8628   0.9204 H              1 S1                 0.0000
     37 ****        -1.9872   0.2920   1.3245 H              1 S1                 0.0000
     38 ****         1.1612   2.8227  -2.5440 H              1 S1                 0.0000
     39 ****         1.5241  -2.3767   1.2366 H              1 S1                 0.0000
     40 ****         3.8433  -1.9412  -0.0538 H              1 S1                 0.0000
     41 ****         4.0357  -0.3941  -0.8426 H              1 S1                 0.0000
     42 ****         3.7897  -0.8034   2.1884 H              1 S1                 0.0000
     43 ****         4.2735   1.5411   0.7407 H              1 S1                 0.0000
     44 ****         6.1657   0.2314   2.1771 H              1 S1                 0.0000
     45 ****         6.1639  -2.0817   2.8428 H              1 S1                 0.0000
     46 ****         5.6711  -2.6172   1.2328 H              1 S1                 0.0000
     47 ****         8.3015  -1.3157   1.9968 H              1 S1                 0.0000
     48 ****         8.0819  -2.8282   1.1080 H              1 S1                 0.0000
     49 ****         8.4378  -0.4340  -0.2094 H              1 S1                 0.0000
     50 ****         7.3460  -1.6611  -0.8561 H              1 S1                 0.0000
     51 ****        -3.1195   2.3802  -1.5205 H              1 S1                 0.0000
     52 ****        -2.8061   1.1262  -2.7086 H              1 S1                 0.0000
     53 ****        -6.5453   1.5916  -1.8416 H              1 S1                 0.0000
     54 ****        -5.2665   2.6026  -2.5072 H              1 S1                 0.0000
     55 ****        -6.5807   0.9861  -4.1852 H              1 S1                 0.0000
     56 ****        -4.8119   0.9096  -4.2545 H              1 S1                 0.0000
     57 ****        -3.8330  -1.0865  -2.4051 H              1 S1                 0.0000
     58 ****        -5.1803  -1.3495  -1.3035 H              1 S1                 0.0000
     59 ****        -2.3145  -0.2981  -0.9692 LP             1 S1                 0.0000
     60 ****        -1.0786   2.4621  -2.1491 LP             1 S1                 0.0000
     61 ****         2.8555   1.4452  -1.6197 LP             1 S1                 0.0000
     62 ****        -0.8208  -1.6227   0.8150 LP             1 S1                 0.0000
     63 ****         4.2866   1.4190   2.3274 LP             1 S1                 0.0000
     64 ****         2.9119   1.1776   1.4798 LP             1 S1                 0.0000
     65 ****         6.7065   0.7902   0.1809 LP             1 S1                 0.0000
     66 ****         5.7585  -0.3116  -0.5634 LP             1 S1                 0.0000
     67 ****        -5.4238  -1.2013  -3.8562 LP             1 S1                 0.0000
     68 ****        -6.6129  -0.8069  -2.8088 LP             1 S1                 0.0000
     69 ****        -4.9807   1.8717   0.1021 LP             1 S1                 0.0000
     70 ****        -5.8748   0.5105  -0.0176 LP             1 S1                 0.0000
@<TRIPOS>BOND
    1    1    2 1     
    2    1   30 1     
    3    1   31 1     
    4    1   32 1     
    5    2    3 1     
    6    2   33 1     
    7    2   34 1     
    8    3   29 1     
    9    3    4 1     
   10    3   35 1     
   11    4    5 1     
   12    4   36 1     
   13    4   37 1     
   14    5    6 1     
   15    5   23 1     
   16    6   11 ar    
   17    6    7 ar    
   18    7    8 ar    
   19    8    9 ar    
   20    8   38 1     
   21    9   10 ar    
   22   10   14 1     
   23   10   11 ar    
   24   11   12 1     
   25   12   13 2     
   26   13   14 1     
   27   13   39 1     
   28   14   15 1     
   29   15   16 1     
   30   15   40 1     
   31   15   41 1     
   32   16   17 1     
   33   16   18 1     
   34   16   42 1     
   35   17   43 1     
   36   18   22 1     
   37   18   19 1     
   38   18   44 1     
   39   19   20 1     
   40   19   45 1     
   41   19   46 1     
   42   20   21 1     
   43   20   47 1     
   44   20   48 1     
   45   21   22 1     
   46   21   49 1     
   47   21   50 1     
   48   23   24 1     
   49   23   51 1     
   50   23   52 1     
   51   24   28 1     
   52   24   25 1     
   53   24   29 1     
   54   25   26 1     
   55   25   53 1     
   56   25   54 1     
   57   26   27 1     
   58   26   55 1     
   59   26   56 1     
   60   27   28 1     
   61   28   57 1     
   62   28   58 1     
   63    5   59 1     
   64    7   60 1     
   65    9   61 1     
   66   12   62 1     
   67   17   63 1     
   68   17   64 1     
   69   22   65 1     
   70   22   66 1     
   71   27   67 1     
   72   27   68 1     
   73   29   69 1     
   74   29   70 1     
@<TRIPOS>SUBSTRUCTURE
      1 S1             1
@<TRIPOS>SET
LONE_PAIRS      STATIC     ATOMS    <user>   **** ""
12 59 60 61 62 63 64 65 66 67 68 69 70
DONOR_HYDROGENS      STATIC     ATOMS    <user>   **** ""
1 43
ATOM$BLUE        STATIC     ATOMS    COLORGROUP SYSTEM
12 59 60 61 62 63 64 65 66 67 68 69 70
ATOM$RED        STATIC     ATOMS    COLORGROUP SYSTEM
1 43
