AV-unprocessed.smi:795|AV-procd|sdf|3764|dock3
  -GOLD-   22720 1193D 1   1.00000     0.00000
 Structure written by MMmdl.
 49 52  0  0  0  0  0  0  0  0  1 V2000
  151.5600  134.8044  156.1793 C   0  0  0  0  0  0  0  0  0  0  0  0
  151.1860  136.2137  155.8068 C   0  0  0  0  0  0  0  0  0  0  0  0
  151.9713  137.1513  156.2242 N   0  0  0  0  0  0  0  0  0  0  0  0
  151.7201  138.4807  155.9434 N   0  0  0  0  0  0  0  0  0  0  0  0
  152.7003  139.4019  156.5344 C   0  0  0  0  0  0  0  0  0  0  0  0
  152.1755  140.0589  157.8175 C   0  0  0  0  0  0  0  0  0  0  0  0
  152.0670  139.4075  158.8566 O   0  0  0  0  0  0  0  0  0  0  0  0
  151.8427  141.3549  157.7235 N   0  0  0  0  0  0  0  0  0  0  0  0
  151.3630  142.1925  158.8211 C   0  0  2  0  0  0  0  0  0  0  0  0
  150.4175  143.3019  158.2964 C   0  0  2  0  0  0  0  0  0  0  0  0
  151.1888  144.2983  157.3973 C   0  0  0  0  0  0  0  0  0  0  0  0
  152.3304  144.9469  158.2094 C   0  0  1  0  0  0  0  0  0  0  0  0
  151.7362  145.7057  159.4159 C   0  0  0  0  0  0  0  0  0  0  0  0
  150.9634  144.7148  160.3131 C   0  0  1  0  0  0  0  0  0  0  0  0
  149.8210  144.0651  159.5001 C   0  0  0  0  0  0  0  0  0  0  0  0
  151.9293  143.6206  160.8197 C   0  0  0  0  0  0  0  0  0  0  0  0
  152.5213  142.8594  159.6125 C   0  0  2  0  0  0  0  0  0  0  0  0
  153.2952  143.8525  158.7141 C   0  0  0  0  0  0  0  0  0  0  0  0
  150.6596  138.9322  155.2132 C   0  0  0  0  0  0  0  0  0  0  0  0
  150.4726  140.1278  154.9837 O   0  0  0  0  0  0  0  0  0  0  0  0
  149.7748  137.8642  154.7416 C   0  0  0  0  0  0  0  0  0  0  0  0
  148.6499  138.2940  153.9751 C   0  0  0  0  0  0  0  0  0  0  0  0
  147.7330  138.6575  153.3691 N   0  0  0  0  0  0  0  0  0  0  0  0
  150.0078  136.5565  155.0173 C   0  0  0  0  0  0  0  0  0  0  0  0
  149.1189  135.4104  154.5541 C   0  0  0  0  0  0  0  0  0  0  0  0
  151.7059  134.1933  155.2882 H   0  0  0  0  0  0  0  0  0  0  0  0
  150.7777  134.3436  156.7826 H   0  0  0  0  0  0  0  0  0  0  0  0
  152.4846  134.7681  156.7576 H   0  0  0  0  0  0  0  0  0  0  0  0
  153.6246  138.8610  156.7485 H   0  0  0  0  0  0  0  0  0  0  0  0
  152.9835  140.1863  155.8309 H   0  0  0  0  0  0  0  0  0  0  0  0
  151.9557  141.8064  156.8274 H   0  0  0  0  0  0  0  0  0  0  0  0
  150.7965  141.5461  159.4946 H   0  0  0  0  0  0  0  0  0  0  0  0
  149.6061  142.8503  157.7240 H   0  0  0  0  0  0  0  0  0  0  0  0
  151.5901  143.7943  156.5174 H   0  0  0  0  0  0  0  0  0  0  0  0
  150.5116  145.0670  157.0228 H   0  0  0  0  0  0  0  0  0  0  0  0
  152.8755  145.6458  157.5744 H   0  0  0  0  0  0  0  0  0  0  0  0
  152.5306  146.1898  159.9853 H   0  0  0  0  0  0  0  0  0  0  0  0
  151.0738  146.5014  159.0730 H   0  0  0  0  0  0  0  0  0  0  0  0
  150.5430  145.2495  161.1654 H   0  0  0  0  0  0  0  0  0  0  0  0
  149.1227  144.8285  159.1546 H   0  0  0  0  0  0  0  0  0  0  0  0
  149.2462  143.3866  160.1315 H   0  0  0  0  0  0  0  0  0  0  0  0
  152.7284  144.0674  161.4126 H   0  0  0  0  0  0  0  0  0  0  0  0
  151.4053  142.9304  161.4819 H   0  0  0  0  0  0  0  0  0  0  0  0
  153.2086  142.0987  159.9835 H   0  0  0  0  0  0  0  0  0  0  0  0
  153.7540  143.3323  157.8725 H   0  0  0  0  0  0  0  0  0  0  0  0
  154.1148  144.3040  159.2744 H   0  0  0  0  0  0  0  0  0  0  0  0
  148.2431  135.7618  154.0096 H   0  0  0  0  0  0  0  0  0  0  0  0
  148.7611  134.8331  155.4072 H   0  0  0  0  0  0  0  0  0  0  0  0
  149.6713  134.7418  153.8930 H   0  0  0  0  0  0  0  0  0  0  0  0
  1  2  1  0  0  0  0
  1 26  1  0  0  0  0
  1 27  1  0  0  0  0
  1 28  1  0  0  0  0
  2 24  1  0  0  0  0
  2  3  2  0  0  0  0
  3  4  1  0  0  0  0
  4  5  1  0  0  0  0
  4 19  1  0  0  0  0
  5  6  1  0  0  0  0
  5 29  1  0  0  0  0
  5 30  1  0  0  0  0
  6  7  2  0  0  0  0
  6  8  1  0  0  0  0
  8  9  1  0  0  0  0
  8 31  1  0  0  0  0
  9 17  1  0  0  0  0
  9 10  1  0  0  0  0
  9 32  1  0  0  0  0
 10 15  1  0  0  0  0
 10 11  1  0  0  0  0
 10 33  1  0  0  0  0
 11 12  1  0  0  0  0
 11 34  1  0  0  0  0
 11 35  1  0  0  0  0
 12 18  1  0  0  0  0
 12 13  1  0  0  0  0
 12 36  1  0  0  0  0
 13 14  1  0  0  0  0
 13 37  1  0  0  0  0
 13 38  1  0  0  0  0
 14 15  1  0  0  0  0
 14 16  1  0  0  0  0
 14 39  1  0  0  0  0
 15 40  1  0  0  0  0
 15 41  1  0  0  0  0
 16 17  1  0  0  0  0
 16 42  1  0  0  0  0
 16 43  1  0  0  0  0
 17 18  1  0  0  0  0
 17 44  1  0  0  0  0
 18 45  1  0  0  0  0
 18 46  1  0  0  0  0
 19 20  2  0  0  0  0
 19 21  1  0  0  0  0
 21 22  1  0  0  0  0
 21 24  2  0  0  0  0
 22 23  3  0  0  0  0
 24 25  1  0  0  0  0
 25 47  1  0  0  0  0
 25 48  1  0  0  0  0
 25 49  1  0  0  0  0
M  END
> <s_m_source_file>
AV-unprocessed.smi

> <i_m_source_file_index>
795

> <i_lp_mmshare_version>
43012

> <i_f3d_flags>
0

> <s_epik_input>
TiNDYyhjMVtDSDNdKWMoPU8pbihuYzFbQ0gzXSlbQ0gyXUMoPU8pW05IXVtDQEhdKFtDQEhdMjMpW0NAQEhdNFtDSDJdW0NASF0oW0NIMl0zKVtDSDJdW0NASF0oW0NIMl0yKVtDSDJdNA==

> <s_epik_cmdline>
J2VwaWtfcHl0aG9uJywgJy1waCcsICc3LjAnLCAnLXRuJywgJzgnLCAnLW1hJywgJzIwMCcsICctbWV0YWxfYmluZGluZycsICctaW1hZScsICc8aW5maWxlLm1hZT4nLCAnLW9tYWUnLCAnPG91dGZpbGUubWFlPic=

> <r_lp_tautomer_probability>
1

> <r_epik_Ionization_Penalty>
2.02301e-08

> <r_epik_Ionization_Penalty_Charging>
2.3673e-11

> <r_epik_Ionization_Penalty_Neutral>
2.02064e-08

> <r_epik_State_Penalty>
-0

> <r_epik_Charging_Adjusted_Penalty>
2.3673e-11

> <i_epik_Tot_Q>
0

> <i_epik_Tot_abs_Q>
0

> <r_epik_Metal_State_Penalty>
-0

> <b_epik_Metal_Only>
0

> <s_lp_Force_Field>
OPLS_2005

> <r_lp_Energy>
43.8057

> <b_lp_Chiralities_Consistent>
1

> <s_lp_Variant>
AV-unprocessed.smi:795-1

> <Gold.Version>
5.8.1

> <Gold.Id.Protein>
6NUR|6NUR_protein|mol2

> <Gold.PLP.Fitness>
42.5069

> <Gold.PLP.PLP>
-41.0565

> <Gold.PLP.part.hbond>
-1.0000

> <Gold.PLP.part.metal>
0.0000

> <Gold.PLP.part.buried>
0.4234

> <Gold.PLP.part.nonpolar>
-40.3828

> <Gold.PLP.part.repulsive>
1.3269

> <Gold.PLP.ligand.clash>
0.0000

> <Gold.PLP.ligand.torsion>
0.7772

> <Gold.PLP.Chemscore.Hbond>
1.0000

> <Gold.PLP.Chemscore.CHOScore>
0.0000

> <Gold.PLP.Chemscore.Metal>
0.0000

> <Gold.Chemscore.Hbonds>
donor molecule, donor type, donor heavy atom, donor atom, acceptor molecule, acceptor atom, score
      P1  H  7989  7998       L1    20  1.00

> <Gold.PLP.Chemscore.Internal.Correction>
0.0048

> <Gold.Rescore>
     Score         DG    S(hbond)    S(metal)    S(lipo)     H(rot)  DE(clash)    DE(int)     intcor
     18.38     -20.56       0.72        0.00     139.98       1.44       1.53       0.65       ----

> <Gold.Chemscore.Fitness>
18.3827

> <Gold.Chemscore.DG>
-20.5578

> <Gold.Chemscore.ZeroCoef>
-5.4800

> <Gold.Chemscore.Hbond>
0.7179

> <Gold.Chemscore.Metal>
0.0000

> <Gold.Chemscore.Lipo>
139.9763

> <Gold.Chemscore.Internal_Hbond>
0.0000

> <Gold.Chemscore.DEClash>
1.5271

> <Gold.Chemscore.DEInternal>
0.6480

> <Gold.Chemscore.Rot>
1.4442

> <Gold.Chemscore.Internal.Correction>
   9.000000E+99

> <Gold.Chemscore.Hbonds>
donor molecule, donor type, donor heavy atom, donor atom, acceptor molecule, acceptor atom, score
      P1  H  7989  7998       L1    20  0.82

> <Gold.Chemscore.Hbond.Weighted>
-2.3977

> <Gold.Chemscore.Metal.Weighted>
-0.0000

> <Gold.Chemscore.Lipo.Weighted>
-16.3772

> <Gold.Chemscore.Internal_Hbond.Weighted>
0.0000

> <Gold.Chemscore.DEClash.Weighted>
1.5271

> <Gold.Chemscore.DEInternal.Weighted>
0.6480

> <Gold.Chemscore.Rot.Weighted>
3.6971

> <Gold.Chemscore.Internal.Correction.Weighted>
   9.000000E+99

> <Gold.Protein.RotatedTorsions>
[ 6907 6896 6895 6894 ] final -176.51 input  -60.11 | X-H torsion
[ 7974 7965 7964 7962 ] final -156.90 input  175.53 | X-H torsion
[ 8008 7997 7996 7995 ] final -138.13 input   59.86 | X-H torsion
[ 10167 10162 10161 10158 ] final  -50.74 input  -65.29 | X-H torsion
[ 10718 10713 10712 10709 ] final   67.22 input   66.30 | X-H torsion
[ 10763 10752 10751 10750 ] final   25.76 input  -60.55 | X-H torsion
[ 11005 11000 10999 10996 ] final -122.38 input  -57.11 | X-H torsion

> <Gold.Protein.ActiveResidues>
 VAL166  LYS551  ARG553  GLY616  TRP617  ASP618  TYR619  PRO620  LYS621  CYS622 
 ASP623  PHE694  ASN695  SER759  ASP760  ASP761  ALA762  ILE779  LEU786  VAL792 
 PHE793  MET794  SER795  GLU796  ALA797  LYS798  CYS799  TRP800  GLU811  SER814 

> <Gold.Protein.RotatedAtoms>
  151.6059  133.3352  159.3056 H   0  0  0  0  0  0  0  0  0  0  0  0  # atno 6907 bound_to 6896
  150.8182  134.7380  159.6761 H   0  0  0  0  0  0  0  0  0  0  0  0  # atno 6908 bound_to 6896
  152.4277  134.5842  160.0008 H   0  0  0  0  0  0  0  0  0  0  0  0  # atno 6909 bound_to 6896
  144.7572  140.4045  143.6003 H   0  0  0  0  0  0  0  0  0  0  0  0  # atno 7974 bound_to 7965
  155.4232  140.0520  157.3024 H   0  0  0  0  0  0  0  0  0  0  0  0  # atno 8008 bound_to 7997
  154.4893  140.2113  155.9543 H   0  0  0  0  0  0  0  0  0  0  0  0  # atno 8009 bound_to 7997
  156.1319  140.3170  155.8367 H   0  0  0  0  0  0  0  0  0  0  0  0  # atno 8010 bound_to 7997
  140.6623  143.2646  151.4403 H   0  0  0  0  0  0  0  0  0  0  0  0  # atno 10167 bound_to 10162
  157.6217  130.9309  150.0213 H   0  0  0  0  0  0  0  0  0  0  0  0  # atno 10718 bound_to 10713
  153.0669  135.6576  154.0334 H   0  0  0  0  0  0  0  0  0  0  0  0  # atno 10763 bound_to 10752
  153.9988  135.2939  155.3406 H   0  0  0  0  0  0  0  0  0  0  0  0  # atno 10764 bound_to 10752
  154.7030  135.5236  153.8624 H   0  0  0  0  0  0  0  0  0  0  0  0  # atno 10765 bound_to 10752
  140.9999  134.0417  157.3550 H   0  0  0  0  0  0  0  0  0  0  0  0  # atno 11005 bound_to 11000
  145.6739  139.1604  143.2739 LP  0  0  0  0  0  0  0  0  0  0  0  0  # atno 17320 bound_to 7965
  146.1596  140.6807  142.9284 LP  0  0  0  0  0  0  0  0  0  0  0  0  # atno 17321 bound_to 7965
  139.5860  144.1603  152.2029 LP  0  0  0  0  0  0  0  0  0  0  0  0  # atno 17342 bound_to 10162
  140.0943  144.5594  150.7033 LP  0  0  0  0  0  0  0  0  0  0  0  0  # atno 17343 bound_to 10162
  156.1366  130.3642  149.9647 LP  0  0  0  0  0  0  0  0  0  0  0  0  # atno 17370 bound_to 10713
  156.7697  130.9182  151.3644 LP  0  0  0  0  0  0  0  0  0  0  0  0  # atno 17371 bound_to 10713
  139.9033  135.0172  156.7373 LP  0  0  0  0  0  0  0  0  0  0  0  0  # atno 17394 bound_to 11000
  140.6905  133.9394  155.7963 LP  0  0  0  0  0  0  0  0  0  0  0  0  # atno 17395 bound_to 11000

$$$$
