#       Name:                AV-unprocessed.smi:50
#       Creating user name   scv26
#       Creation time:       Thu Mar 26 16:37:06 2020


#       File generated by GOLD software.
#

@<TRIPOS>MOLECULE
AV-unprocessed.smi:50
    52    53     1
SMALL
NO_CHARGES


@<TRIPOS>ATOM
      1 ****        -1.0864   0.3625   1.0439 C.3            1 S1                 0.0000
      2 ****        -1.8119   1.7176   1.1773 C.3            1 S1                 0.0000
      3 ****        -3.2820   1.5347   0.7570 C.3            1 S1                 0.0000
      4 ****        -1.1517   2.8908   0.3917 C.3            1 S1                 0.0000
      5 ****        -1.7581   4.1644   0.7824 N.3            1 S1                 0.0000
      6 ****         0.3795   2.9439   0.5465 C.2            1 S1                 0.0000
      7 ****         0.9711   3.6221   1.3889 O.2            1 S1                 0.0000
      8 ****         0.9643   2.1378  -0.3576 O.3            1 S1                 0.0000
      9 ****         2.3689   1.9269  -0.3540 C.3            1 S1                 0.0000
     10 ****         2.6238   0.4392  -0.6073 C.3            1 S1                 0.0000
     11 ****         2.3776   0.1589  -1.9787 O.3            1 S1                 0.0000
     12 ****         2.2878  -1.1970  -2.2787 C.3            1 S1                 0.0000
     13 ****         0.9426  -1.6544  -1.9727 N.pl3          1 S1                 0.0000
     14 ****        -0.1730  -1.4107  -2.6876 C.2            1 S1                 0.0000
     15 ****        -1.2945  -1.9334  -2.1939 N.2            1 S1                 0.0000
     16 ****        -0.8358  -2.5745  -1.0487 C.2            1 S1                 0.0000
     17 ****        -1.5454  -3.3448   0.0010 C.2            1 S1                 0.0000
     18 ****        -2.7615  -3.5016  -0.0907 O.2            1 S1                 0.0000
     19 ****        -0.7583  -3.8228   1.0124 N.pl3          1 S1                -1.0000
     20 ****         0.6227  -3.5812   1.0127 C.2            1 S1                 0.0000
     21 ****         1.2624  -4.1398   2.0977 N.pl3          1 S1                 0.0000
     22 ****         1.3136  -2.9124   0.1223 N.2            1 S1                 0.0000
     23 ****         0.5162  -2.4233  -0.8958 C.2            1 S1                 0.0000
     24 ****        -1.3665   2.7427  -0.6674 H              1 S1                 0.0000
     25 ****        -0.9654   0.0872  -0.0034 H              1 S1                 0.0000
     26 ****        -1.6452  -0.4364   1.5323 H              1 S1                 0.0000
     27 ****        -0.0985   0.3764   1.5042 H              1 S1                 0.0000
     28 ****        -1.8046   1.9740   2.2379 H              1 S1                 0.0000
     29 ****        -3.3601   1.2708  -0.2984 H              1 S1                 0.0000
     30 ****        -3.8647   2.4419   0.9170 H              1 S1                 0.0000
     31 ****        -3.7601   0.7410   1.3318 H              1 S1                 0.0000
     32 ****        -1.6012   4.3635   1.7600 H              1 S1                 0.0000
     33 ****        -1.3688   4.9367   0.2611 H              1 S1                 0.0000
     34 ****         2.8462   2.5443  -1.1153 H              1 S1                 0.0000
     35 ****         2.8062   2.1982   0.6078 H              1 S1                 0.0000
     36 ****         3.6613   0.1917  -0.3803 H              1 S1                 0.0000
     37 ****         1.9968  -0.1569   0.0566 H              1 S1                 0.0000
     38 ****         2.4536  -1.3290  -3.3483 H              1 S1                 0.0000
     39 ****         3.0256  -1.7891  -1.7346 H              1 S1                 0.0000
     40 ****        -0.1617  -0.8256  -3.5952 H              1 S1                 0.0000
     41 ****         0.7877  -4.6666   2.8156 H              1 S1                 0.0000
     42 ****         2.2561  -4.0553   2.2538 H              1 S1                 0.0000
     43 ****        -2.7355   4.0705   0.5932 LP             1 S1                 0.0000
     44 ****         0.4520   4.1872   2.0302 LP             1 S1                 0.0000
     45 ****         1.9701   3.6073   1.4309 LP             1 S1                 0.0000
     46 ****         3.1239   0.5501  -2.5173 LP             1 S1                 0.0000
     47 ****         1.5156   0.5948  -2.2377 LP             1 S1                 0.0000
     48 ****        -2.2258  -1.8787  -2.5541 LP             1 S1                 0.0000
     49 ****        -3.2588  -3.1118  -0.8658 LP             1 S1                 0.0000
     50 ****        -3.2532  -4.0188   0.6098 LP             1 S1                 0.0000
     51 ****        -1.1707  -4.3481   1.7566 LP             1 S1                 0.0000
     52 ****         2.3024  -2.7721   0.1733 LP             1 S1                 0.0000
@<TRIPOS>BOND
    1    1    2 1     
    2    1   25 1     
    3    1   26 1     
    4    1   27 1     
    5    2    3 1     
    6    2    4 1     
    7    2   28 1     
    8    3   29 1     
    9    3   30 1     
   10    3   31 1     
   11    4   24 1     
   12    4    5 1     
   13    4    6 1     
   14    5   32 1     
   15    5   33 1     
   16    6    7 2     
   17    6    8 1     
   18    8    9 1     
   19    9   10 1     
   20    9   34 1     
   21    9   35 1     
   22   10   11 1     
   23   10   36 1     
   24   10   37 1     
   25   11   12 1     
   26   12   13 1     
   27   12   38 1     
   28   12   39 1     
   29   13   23 1     
   30   13   14 1     
   31   14   15 2     
   32   14   40 1     
   33   15   16 1     
   34   16   23 2     
   35   16   17 1     
   36   17   18 2     
   37   17   19 1     
   38   19   20 1     
   39   20   21 1     
   40   20   22 2     
   41   21   41 1     
   42   21   42 1     
   43   22   23 1     
   44    5   43 1     
   45    7   44 1     
   46    7   45 1     
   47   11   46 1     
   48   11   47 1     
   49   15   48 1     
   50   18   49 1     
   51   18   50 1     
   52   19   51 1     
   53   22   52 1     
@<TRIPOS>SUBSTRUCTURE
      1 S1             1
@<TRIPOS>SET
LONE_PAIRS      STATIC     ATOMS    <user>   **** ""
10 43 44 45 46 47 48 49 50 51 52
DONOR_HYDROGENS      STATIC     ATOMS    <user>   **** ""
4 32 33 41 42
ATOM$BLUE        STATIC     ATOMS    COLORGROUP SYSTEM
10 43 44 45 46 47 48 49 50 51 52
ATOM$RED        STATIC     ATOMS    COLORGROUP SYSTEM
4 32 33 41 42
