AV-unprocessed.smi:19|AV-procd|sdf|110|dock5
  -GOLD-   2262015273D 1   1.00000     0.00000
 Structure written by MMmdl.
 57 60  0  0  0  0  0  0  0  0  1 V2000
  153.4237  142.6344  163.0068 C   0  0  0  0  0  0  0  0  0  0  0  0
  153.9774  141.9262  161.9119 O   0  0  0  0  0  0  0  0  0  0  0  0
  152.9929  141.2427  161.1539 C   0  0  0  0  0  0  0  0  0  0  0  0
  152.8800  141.8952  159.7703 C   0  0  1  0  0  0  0  0  0  0  0  0
  152.1509  140.9825  158.7662 C   0  0  0  0  0  0  0  0  0  0  0  0
  151.9632  141.6764  157.4962 N   0  0  0  0  0  0  0  0  0  0  0  0
  151.5886  140.8825  156.4605 C   0  0  0  0  0  0  0  0  0  0  0  0
  152.4422  139.9350  155.9872 N   0  0  0  0  0  0  0  0  0  0  0  0
  152.0880  139.1587  154.9592 C   0  0  0  0  0  0  0  0  0  0  0  0
  150.9451  139.1560  154.2715 N   0  0  0  0  0  0  0  0  0  0  0  0
  150.0769  140.0930  154.7484 C   0  0  0  0  0  0  0  0  0  0  0  0
  150.3180  140.9917  155.8266 C   0  0  0  0  0  0  0  0  0  0  0  0
  149.2036  141.7980  156.0259 N   0  0  0  0  0  0  0  0  0  0  0  0
  148.3599  141.4086  155.1103 C   0  0  0  0  0  0  0  0  0  0  0  0
  148.7942  140.3764  154.3089 N   0  0  0  0  0  0  0  0  0  0  0  0
  148.0580  139.7533  153.2164 C   0  0  0  0  0  0  0  0  0  0  0  0
  146.8465  138.8764  153.6537 C   0  0  0  0  0  0  0  0  0  0  0  0
  146.0960  138.3199  152.4102 C   0  0  0  0  0  0  0  0  0  0  0  0
  146.9799  137.7780  151.4498 O   0  0  0  0  0  0  0  0  0  0  0  0
  147.3356  137.6966  154.5329 C   0  0  0  0  0  0  0  0  0  0  0  0
  146.1926  136.9761  155.2727 C   0  0  0  0  0  0  0  0  0  0  0  0
  145.4457  137.9043  156.0475 O   0  0  0  0  0  0  0  0  0  0  0  0
  144.8317  138.9130  155.2566 C   0  0  0  0  0  0  0  0  0  0  0  0
  145.9121  139.7402  154.5384 C   0  0  0  0  0  0  0  0  0  0  0  0
  151.2999  142.9691  157.6452 C   0  0  0  0  0  0  0  0  0  0  0  0
  152.0416  143.8301  158.6836 C   0  0  1  0  0  0  0  0  0  0  0  0
  151.3146  145.1496  158.9629 C   0  0  0  0  0  0  0  0  0  0  0  0
  152.1346  143.1032  159.9056 O   0  0  0  0  0  0  0  0  0  0  0  0
  154.2186  143.1371  163.5575 H   0  0  0  0  0  0  0  0  0  0  0  0
  152.9112  141.9604  163.6947 H   0  0  0  0  0  0  0  0  0  0  0  0
  152.7168  143.3930  162.6683 H   0  0  0  0  0  0  0  0  0  0  0  0
  153.2919  140.1986  161.0464 H   0  0  0  0  0  0  0  0  0  0  0  0
  152.0279  141.2568  161.6632 H   0  0  0  0  0  0  0  0  0  0  0  0
  153.8820  142.1161  159.3979 H   0  0  0  0  0  0  0  0  0  0  0  0
  152.7181  140.0616  158.6365 H   0  0  0  0  0  0  0  0  0  0  0  0
  151.1736  140.6983  159.1592 H   0  0  0  0  0  0  0  0  0  0  0  0
  152.8263  138.4372  154.6417 H   0  0  0  0  0  0  0  0  0  0  0  0
  147.3859  141.8626  154.9996 H   0  0  0  0  0  0  0  0  0  0  0  0
  147.7199  140.5529  152.5557 H   0  0  0  0  0  0  0  0  0  0  0  0
  148.7598  139.1650  152.6240 H   0  0  0  0  0  0  0  0  0  0  0  0
  145.3838  137.5474  152.7003 H   0  0  0  0  0  0  0  0  0  0  0  0
  145.5120  139.0920  151.9128 H   0  0  0  0  0  0  0  0  0  0  0  0
  147.5145  137.1217  151.8697 H   0  0  0  0  0  0  0  0  0  0  0  0
  147.8851  136.9713  153.9327 H   0  0  0  0  0  0  0  0  0  0  0  0
  148.0380  138.0689  155.2797 H   0  0  0  0  0  0  0  0  0  0  0  0
  145.5353  136.4477  154.5818 H   0  0  0  0  0  0  0  0  0  0  0  0
  146.6063  136.2213  155.9416 H   0  0  0  0  0  0  0  0  0  0  0  0
  144.1290  138.4688  154.5508 H   0  0  0  0  0  0  0  0  0  0  0  0
  144.2474  139.5588  155.9122 H   0  0  0  0  0  0  0  0  0  0  0  0
  146.5039  140.2487  155.3007 H   0  0  0  0  0  0  0  0  0  0  0  0
  145.4442  140.5318  153.9529 H   0  0  0  0  0  0  0  0  0  0  0  0
  151.2752  143.4892  156.6866 H   0  0  0  0  0  0  0  0  0  0  0  0
  150.2668  142.8121  157.9591 H   0  0  0  0  0  0  0  0  0  0  0  0
  153.0471  144.0559  158.3238 H   0  0  0  0  0  0  0  0  0  0  0  0
  151.2273  145.7489  158.0564 H   0  0  0  0  0  0  0  0  0  0  0  0
  151.8533  145.7417  159.7029 H   0  0  0  0  0  0  0  0  0  0  0  0
  150.3090  144.9727  159.3456 H   0  0  0  0  0  0  0  0  0  0  0  0
  1  2  1  0  0  0  0
  1 29  1  0  0  0  0
  1 30  1  0  0  0  0
  1 31  1  0  0  0  0
  2  3  1  0  0  0  0
  3  4  1  0  0  0  0
  3 32  1  0  0  0  0
  3 33  1  0  0  0  0
  4 28  1  0  0  0  0
  4  5  1  0  0  0  0
  4 34  1  0  0  0  0
  5  6  1  0  0  0  0
  5 35  1  0  0  0  0
  5 36  1  0  0  0  0
  6  7  1  0  0  0  0
  6 25  1  0  0  0  0
  7 12  1  0  0  0  0
  7  8  2  0  0  0  0
  8  9  1  0  0  0  0
  9 10  2  0  0  0  0
  9 37  1  0  0  0  0
 10 11  1  0  0  0  0
 11 15  1  0  0  0  0
 11 12  2  0  0  0  0
 12 13  1  0  0  0  0
 13 14  2  0  0  0  0
 14 15  1  0  0  0  0
 14 38  1  0  0  0  0
 15 16  1  0  0  0  0
 16 17  1  0  0  0  0
 16 39  1  0  0  0  0
 16 40  1  0  0  0  0
 17 24  1  0  0  0  0
 17 18  1  0  0  0  0
 17 20  1  0  0  0  0
 18 19  1  0  0  0  0
 18 41  1  0  0  0  0
 18 42  1  0  0  0  0
 19 43  1  0  0  0  0
 20 21  1  0  0  0  0
 20 44  1  0  0  0  0
 20 45  1  0  0  0  0
 21 22  1  0  0  0  0
 21 46  1  0  0  0  0
 21 47  1  0  0  0  0
 22 23  1  0  0  0  0
 23 24  1  0  0  0  0
 23 48  1  0  0  0  0
 23 49  1  0  0  0  0
 24 50  1  0  0  0  0
 24 51  1  0  0  0  0
 25 26  1  0  0  0  0
 25 52  1  0  0  0  0
 25 53  1  0  0  0  0
 26 27  1  0  0  0  0
 26 28  1  0  0  0  0
 26 54  1  0  0  0  0
 27 55  1  0  0  0  0
 27 56  1  0  0  0  0
 27 57  1  0  0  0  0
M  END
> <s_m_source_file>
AV-unprocessed.smi

> <i_m_source_file_index>
19

> <i_lp_mmshare_version>
43012

> <i_f3d_flags>
0

> <s_epik_input>
W0NIM11PW0NIMl1bQ0BASF0xW0NIMl1OKFtDSDJdW0NASF0oTzEpW0NIM10pYyhuW2NIXW4yKWMoYzIzKW5bY0hdbjNbQ0gyXUM0KFtDSDJdW09IXSlbQ0gyXVtDSDJdT1tDSDJdW0NIMl00

> <s_epik_cmdline>
J2VwaWtfcHl0aG9uJywgJy1waCcsICc3LjAnLCAnLXRuJywgJzgnLCAnLW1hJywgJzIwMCcsICctbWV0YWxfYmluZGluZycsICctaW1hZScsICc8aW5maWxlLm1hZT4nLCAnLW9tYWUnLCAnPG91dGZpbGUubWFlPic=

> <r_lp_tautomer_probability>
1

> <r_epik_Ionization_Penalty>
6.20357e-05

> <r_epik_Ionization_Penalty_Charging>
0

> <r_epik_Ionization_Penalty_Neutral>
6.20357e-05

> <r_epik_State_Penalty>
-0

> <r_epik_Charging_Adjusted_Penalty>
0

> <i_epik_Tot_Q>
0

> <i_epik_Tot_abs_Q>
0

> <r_epik_Metal_State_Penalty>
-0

> <b_epik_Metal_Only>
0

> <s_lp_Force_Field>
OPLS_2005

> <r_lp_Energy>
35.6446

> <b_lp_Chiralities_Consistent>
1

> <s_lp_Variant>
AV-unprocessed.smi:19-2

> <Gold.Version>
5.8.1

> <Gold.Id.Protein>
6NUR|6NUR_protein|mol2

> <Gold.PLP.Fitness>
51.7776

> <Gold.PLP.PLP>
-45.4317

> <Gold.PLP.part.hbond>
-4.2536

> <Gold.PLP.part.metal>
0.0000

> <Gold.PLP.part.buried>
0.5506

> <Gold.PLP.part.nonpolar>
-41.8405

> <Gold.PLP.part.repulsive>
0.7248

> <Gold.PLP.ligand.clash>
0.0000

> <Gold.PLP.ligand.torsion>
1.1030

> <Gold.PLP.Chemscore.Hbond>
2.7089

> <Gold.PLP.Chemscore.CHOScore>
0.0000

> <Gold.PLP.Chemscore.Metal>
0.0000

> <Gold.Chemscore.Hbonds>
donor molecule, donor type, donor heavy atom, donor atom, acceptor molecule, acceptor atom, score
      L1  H    19    43       P1  7948  0.91
      P1  H  7954  7966       L1    19  0.60
      P1  H  7997  8009       L1     8  1.00

> <Gold.PLP.Chemscore.Internal.Correction>
0.4252

> <Gold.Rescore>
     Score         DG    S(hbond)    S(metal)    S(lipo)     H(rot)  DE(clash)    DE(int)     intcor
     11.80     -15.51       1.89        0.00      94.69       2.87       0.93       2.78       ----

> <Gold.Chemscore.Fitness>
11.8016

> <Gold.Chemscore.DG>
-15.5113

> <Gold.Chemscore.ZeroCoef>
-5.4800

> <Gold.Chemscore.Hbond>
1.8885

> <Gold.Chemscore.Metal>
0.0000

> <Gold.Chemscore.Lipo>
94.6855

> <Gold.Chemscore.Internal_Hbond>
0.0000

> <Gold.Chemscore.DEClash>
0.9261

> <Gold.Chemscore.DEInternal>
2.7837

> <Gold.Chemscore.Rot>
2.8729

> <Gold.Chemscore.Internal.Correction>
   9.000000E+99

> <Gold.Chemscore.Hbonds>
donor molecule, donor type, donor heavy atom, donor atom, acceptor molecule, acceptor atom, score
      L1  H    19    43       P1  7948  0.89
      P1  H  7954  7966       L1    19  0.04
      P1  H  7997  8009       L1     8  0.88

> <Gold.Chemscore.Hbond.Weighted>
-6.3078

> <Gold.Chemscore.Metal.Weighted>
-0.0000

> <Gold.Chemscore.Lipo.Weighted>
-11.0782

> <Gold.Chemscore.Internal_Hbond.Weighted>
0.0000

> <Gold.Chemscore.DEClash.Weighted>
0.9261

> <Gold.Chemscore.DEInternal.Weighted>
2.7837

> <Gold.Chemscore.Rot.Weighted>
7.3546

> <Gold.Chemscore.Internal.Correction.Weighted>
   9.000000E+99

> <Gold.Protein.RotatedTorsions>
[ 6907 6896 6895 6894 ] final -104.27 input  -60.11 | X-H torsion
[ 7974 7965 7964 7962 ] final  115.70 input  175.53 | X-H torsion
[ 8008 7997 7996 7995 ] final -171.67 input   59.86 | X-H torsion
[ 10167 10162 10161 10158 ] final  -50.88 input  -65.29 | X-H torsion
[ 10718 10713 10712 10709 ] final   31.71 input   66.30 | X-H torsion
[ 10763 10752 10751 10750 ] final -152.35 input  -60.55 | X-H torsion
[ 11005 11000 10999 10996 ] final  113.44 input  -57.11 | X-H torsion

> <Gold.Protein.ActiveResidues>
 VAL166  LYS551  ARG553  GLY616  TRP617  ASP618  TYR619  PRO620  LYS621  CYS622 
 ASP623  PHE694  ASN695  SER759  ASP760  ASP761  ALA762  ILE779  LEU786  VAL792 
 PHE793  MET794  SER795  GLU796  ALA797  LYS798  CYS799  TRP800  GLU811  SER814 

> <Gold.Protein.RotatedAtoms>
  150.7279  134.0303  159.3730 H   0  0  0  0  0  0  0  0  0  0  0  0  # atno 6907 bound_to 6896
  151.8272  135.0631  160.0441 H   0  0  0  0  0  0  0  0  0  0  0  0  # atno 6908 bound_to 6896
  152.2960  133.5572  159.5624 H   0  0  0  0  0  0  0  0  0  0  0  0  # atno 6909 bound_to 6896
  145.1887  139.3011  143.4379 H   0  0  0  0  0  0  0  0  0  0  0  0  # atno 7974 bound_to 7965
  155.9346  140.1097  157.1105 H   0  0  0  0  0  0  0  0  0  0  0  0  # atno 8008 bound_to 7997
  154.4077  140.1231  156.4913 H   0  0  0  0  0  0  0  0  0  0  0  0  # atno 8009 bound_to 7997
  155.7038  140.3471  155.4946 H   0  0  0  0  0  0  0  0  0  0  0  0  # atno 8010 bound_to 7997
  140.6616  143.2641  151.4423 H   0  0  0  0  0  0  0  0  0  0  0  0  # atno 10167 bound_to 10162
  157.2759  130.7231  149.6530 H   0  0  0  0  0  0  0  0  0  0  0  0  # atno 10718 bound_to 10713
  154.8000  135.3238  154.7574 H   0  0  0  0  0  0  0  0  0  0  0  0  # atno 10763 bound_to 10752
  153.8244  135.6885  153.4827 H   0  0  0  0  0  0  0  0  0  0  0  0  # atno 10764 bound_to 10752
  153.1711  135.4623  154.9846 H   0  0  0  0  0  0  0  0  0  0  0  0  # atno 10765 bound_to 10752
  139.8953  134.9550  156.6740 H   0  0  0  0  0  0  0  0  0  0  0  0  # atno 11005 bound_to 11000
  146.3440  140.2092  142.8590 LP  0  0  0  0  0  0  0  0  0  0  0  0  # atno 17320 bound_to 7965
  145.0063  140.8675  143.5251 LP  0  0  0  0  0  0  0  0  0  0  0  0  # atno 17321 bound_to 7965
  139.5852  144.1621  152.2019 LP  0  0  0  0  0  0  0  0  0  0  0  0  # atno 17342 bound_to 10162
  140.0959  144.5581  150.7022 LP  0  0  0  0  0  0  0  0  0  0  0  0  # atno 17343 bound_to 10162
  155.9663  130.4353  150.5085 LP  0  0  0  0  0  0  0  0  0  0  0  0  # atno 17370 bound_to 10713
  157.3019  131.0647  151.2062 LP  0  0  0  0  0  0  0  0  0  0  0  0  # atno 17371 bound_to 10713
  140.7351  133.9025  155.8238 LP  0  0  0  0  0  0  0  0  0  0  0  0  # atno 17394 bound_to 11000
  141.0122  134.1004  157.4209 LP  0  0  0  0  0  0  0  0  0  0  0  0  # atno 17395 bound_to 11000

$$$$
