AV-unprocessed.smi:265|AV-procd|sdf|2027|dock8
  -GOLD-   2262021233D 1   1.00000     0.00000
 Structure written by MMmdl.
 52 56  0  0  0  0  0  0  0  0  1 V2000
  148.4025  125.7537  154.4716 C   0  0  0  0  0  0  0  0  0  0  0  0
  147.5922  126.7154  153.5895 C   0  0  2  0  0  0  0  0  0  0  0  0
  147.9646  126.5832  152.2203 O   0  0  0  0  0  0  0  0  0  0  0  0
  147.8669  127.8428  151.5604 C   0  0  0  0  0  0  0  0  0  0  0  0
  147.2471  128.7972  152.5774 C   0  0  0  0  0  0  0  0  0  0  0  0
  147.7173  128.2177  153.9064 C   0  0  1  0  0  0  0  0  0  0  0  0
  146.7993  128.5838  154.9199 O   0  0  0  0  0  0  0  0  0  0  0  0
  149.1479  128.6624  154.3159 C   0  0  0  0  0  0  0  0  0  0  0  0
  149.2670  130.0875  154.5802 N   0  0  0  0  0  0  0  0  0  0  0  0
  148.9002  131.1154  153.7414 C   0  0  0  0  0  0  0  0  0  0  0  0
  149.1089  132.3160  154.2082 N   0  0  0  0  0  0  0  0  0  0  0  0
  149.6501  132.1013  155.4704 C   0  0  0  0  0  0  0  0  0  0  0  0
  150.1089  132.9572  156.5114 C   0  0  0  0  0  0  0  0  0  0  0  0
  150.0598  134.3108  156.4238 N   0  0  0  0  0  0  0  0  0  0  0  0
  149.3803  134.8935  155.2614 C   0  0  0  0  0  0  0  0  0  0  0  0
  149.1018  136.3946  155.4685 C   0  0  0  0  0  0  0  0  0  0  0  0
  150.4001  137.1213  155.8418 C   0  0  1  0  0  0  0  0  0  0  0  0
  150.1772  138.4905  156.1434 O   0  0  0  0  0  0  0  0  0  0  0  0
  151.3860  139.2325  156.3403 C   0  0  0  0  0  0  0  0  0  0  0  0
  152.3872  138.5113  157.2682 C   0  0  0  0  0  0  0  0  0  0  0  0
  153.3552  139.1215  157.7157 O   0  0  0  0  0  0  0  0  0  0  0  0
  152.1874  137.2085  157.5273 N   0  0  0  0  0  0  0  0  0  0  0  0
  150.9958  136.4838  157.1066 C   0  0  2  0  0  0  0  0  0  0  0  0
  151.2806  134.9947  156.8578 C   0  0  0  0  0  0  0  0  0  0  0  0
  150.6092  132.3669  157.6302 N   0  0  0  0  0  0  0  0  0  0  0  0
  150.6477  131.0350  157.7320 C   0  0  0  0  0  0  0  0  0  0  0  0
  150.2484  130.1188  156.8484 N   0  0  0  0  0  0  0  0  0  0  0  0
  149.7561  130.7034  155.7190 C   0  0  0  0  0  0  0  0  0  0  0  0
  151.0985  137.0443  155.0055 H   0  0  0  0  0  0  0  0  0  0  0  0
  150.2747  136.5668  157.9219 H   0  0  0  0  0  0  0  0  0  0  0  0
  148.1440  125.8752  155.5237 H   0  0  0  0  0  0  0  0  0  0  0  0
  149.4755  125.9129  154.3657 H   0  0  0  0  0  0  0  0  0  0  0  0
  148.1988  124.7182  154.1988 H   0  0  0  0  0  0  0  0  0  0  0  0
  146.5395  126.4309  153.6447 H   0  0  0  0  0  0  0  0  0  0  0  0
  148.8694  128.1717  151.2850 H   0  0  0  0  0  0  0  0  0  0  0  0
  147.2737  127.7683  150.6488 H   0  0  0  0  0  0  0  0  0  0  0  0
  147.5175  129.8390  152.4094 H   0  0  0  0  0  0  0  0  0  0  0  0
  146.1601  128.7321  152.5017 H   0  0  0  0  0  0  0  0  0  0  0  0
  145.9564  128.2127  154.7091 H   0  0  0  0  0  0  0  0  0  0  0  0
  149.4697  128.1308  155.2122 H   0  0  0  0  0  0  0  0  0  0  0  0
  149.8644  128.4009  153.5363 H   0  0  0  0  0  0  0  0  0  0  0  0
  148.4746  130.9451  152.7631 H   0  0  0  0  0  0  0  0  0  0  0  0
  150.0017  134.7521  154.3760 H   0  0  0  0  0  0  0  0  0  0  0  0
  148.4385  134.3736  155.0805 H   0  0  0  0  0  0  0  0  0  0  0  0
  148.6738  136.8265  154.5635 H   0  0  0  0  0  0  0  0  0  0  0  0
  148.3623  136.5265  156.2594 H   0  0  0  0  0  0  0  0  0  0  0  0
  151.8647  139.4015  155.3748 H   0  0  0  0  0  0  0  0  0  0  0  0
  151.1390  140.2107  156.7534 H   0  0  0  0  0  0  0  0  0  0  0  0
  152.8537  136.7210  158.1086 H   0  0  0  0  0  0  0  0  0  0  0  0
  151.6877  134.5481  157.7641 H   0  0  0  0  0  0  0  0  0  0  0  0
  152.0410  134.8806  156.0837 H   0  0  0  0  0  0  0  0  0  0  0  0
  151.0554  130.6478  158.6542 H   0  0  0  0  0  0  0  0  0  0  0  0
  1  2  1  0  0  0  0
  1 31  1  0  0  0  0
  1 32  1  0  0  0  0
  1 33  1  0  0  0  0
  2  6  1  0  0  0  0
  2  3  1  0  0  0  0
  2 34  1  0  0  0  0
  3  4  1  0  0  0  0
  4  5  1  0  0  0  0
  4 35  1  0  0  0  0
  4 36  1  0  0  0  0
  5  6  1  0  0  0  0
  5 37  1  0  0  0  0
  5 38  1  0  0  0  0
  6  7  1  0  0  0  0
  6  8  1  0  0  0  0
  7 39  1  0  0  0  0
  8  9  1  0  0  0  0
  8 40  1  0  0  0  0
  8 41  1  0  0  0  0
  9 28  1  0  0  0  0
  9 10  1  0  0  0  0
 10 11  2  0  0  0  0
 10 42  1  0  0  0  0
 11 12  1  0  0  0  0
 12 28  2  0  0  0  0
 12 13  1  0  0  0  0
 13 14  1  0  0  0  0
 13 25  2  0  0  0  0
 14 24  1  0  0  0  0
 14 15  1  0  0  0  0
 15 16  1  0  0  0  0
 15 43  1  0  0  0  0
 15 44  1  0  0  0  0
 16 17  1  0  0  0  0
 16 45  1  0  0  0  0
 16 46  1  0  0  0  0
 17 29  1  0  0  0  0
 17 23  1  0  0  0  0
 17 18  1  0  0  0  0
 18 19  1  0  0  0  0
 19 20  1  0  0  0  0
 19 47  1  0  0  0  0
 19 48  1  0  0  0  0
 20 21  2  0  0  0  0
 20 22  1  0  0  0  0
 22 23  1  0  0  0  0
 22 49  1  0  0  0  0
 23 30  1  0  0  0  0
 23 24  1  0  0  0  0
 24 50  1  0  0  0  0
 24 51  1  0  0  0  0
 25 26  1  0  0  0  0
 26 27  2  0  0  0  0
 26 52  1  0  0  0  0
 27 28  1  0  0  0  0
M  END
> <s_m_source_file>
AV-unprocessed.smi

> <i_m_source_file_index>
265

> <i_lp_mmshare_version>
43012

> <i_f3d_flags>
0

> <s_epik_input>
W0NIMl0xW0NIMl1PW0NAQEhdKFtDSDNdKVtDQEBdMShbT0hdKVtDSDJdbihbY0hdbjIpYyhjMjMpbltjSF1uYzNOKFtDSDJdW0NIMl00KVtDSDJdW0NAQEhdKFtDQEhdNDUpW05IXUMoPU8pW0NIMl1PNQ==

> <s_epik_cmdline>
J2VwaWtfcHl0aG9uJywgJy1waCcsICc3LjAnLCAnLXRuJywgJzgnLCAnLW1hJywgJzIwMCcsICctbWV0YWxfYmluZGluZycsICctaW1hZScsICc8aW5maWxlLm1hZT4nLCAnLW9tYWUnLCAnPG91dGZpbGUubWFlPic=

> <r_lp_tautomer_probability>
1

> <r_epik_Ionization_Penalty>
0.00221504

> <r_epik_Ionization_Penalty_Charging>
0

> <r_epik_Ionization_Penalty_Neutral>
0.00221504

> <r_epik_State_Penalty>
-0

> <r_epik_Charging_Adjusted_Penalty>
0

> <i_epik_Tot_Q>
0

> <i_epik_Tot_abs_Q>
0

> <r_epik_Metal_State_Penalty>
-0

> <b_epik_Metal_Only>
0

> <s_lp_Force_Field>
OPLS_2005

> <r_lp_Energy>
44.3077

> <b_lp_Chiralities_Consistent>
1

> <s_lp_Variant>
AV-unprocessed.smi:265-13

> <Gold.Version>
5.8.1

> <Gold.Id.Protein>
6NUR|6NUR_protein|mol2

> <Gold.PLP.Fitness>
38.7740

> <Gold.PLP.PLP>
-29.9405

> <Gold.PLP.part.hbond>
-1.9616

> <Gold.PLP.part.metal>
0.0000

> <Gold.PLP.part.buried>
-4.8634

> <Gold.PLP.part.nonpolar>
-25.1165

> <Gold.PLP.part.repulsive>
0.2910

> <Gold.PLP.ligand.clash>
0.0000

> <Gold.PLP.ligand.torsion>
0.2732

> <Gold.PLP.Chemscore.Hbond>
1.9825

> <Gold.PLP.Chemscore.CHOScore>
1.0000

> <Gold.PLP.Chemscore.Metal>
0.0000

> <Gold.Chemscore.Hbonds>
donor molecule, donor type, donor heavy atom, donor atom, acceptor molecule, acceptor atom, score
      P1  H  6896  6907       L1    25  1.00
      P1  H  7997  8008       L1    21  1.00
      L1  C    10    42       P1 10747  1.00

> <Gold.PLP.Chemscore.Internal.Correction>
0.4324

> <Gold.Rescore>
     Score         DG    S(hbond)    S(metal)    S(lipo)     H(rot)  DE(clash)    DE(int)     intcor
     11.61     -13.28       1.88        0.00      62.17       2.25       0.00       1.67       ----

> <Gold.Chemscore.Fitness>
11.6140

> <Gold.Chemscore.DG>
-13.2827

> <Gold.Chemscore.ZeroCoef>
-5.4800

> <Gold.Chemscore.Hbond>
1.8791

> <Gold.Chemscore.Metal>
0.0000

> <Gold.Chemscore.Lipo>
62.1748

> <Gold.Chemscore.Internal_Hbond>
0.0000

> <Gold.Chemscore.DEClash>
0.0004

> <Gold.Chemscore.DEInternal>
1.6683

> <Gold.Chemscore.Rot>
2.2453

> <Gold.Chemscore.Internal.Correction>
   9.000000E+99

> <Gold.Chemscore.Hbonds>
donor molecule, donor type, donor heavy atom, donor atom, acceptor molecule, acceptor atom, score
      P1  H  6896  6907       L1    25  0.92
      P1  H  7997  8008       L1    21  1.00

> <Gold.Chemscore.Hbond.Weighted>
-6.2762

> <Gold.Chemscore.Metal.Weighted>
-0.0000

> <Gold.Chemscore.Lipo.Weighted>
-7.2745

> <Gold.Chemscore.Internal_Hbond.Weighted>
0.0000

> <Gold.Chemscore.DEClash.Weighted>
0.0004

> <Gold.Chemscore.DEInternal.Weighted>
1.6683

> <Gold.Chemscore.Rot.Weighted>
5.7479

> <Gold.Chemscore.Internal.Correction.Weighted>
   9.000000E+99

> <Gold.Protein.RotatedTorsions>
[ 6907 6896 6895 6894 ] final -149.59 input  -60.11 | X-H torsion
[ 7974 7965 7964 7962 ] final  -58.58 input  175.53 | X-H torsion
[ 8008 7997 7996 7995 ] final  -72.50 input   59.86 | X-H torsion
[ 10167 10162 10161 10158 ] final  -15.33 input  -65.29 | X-H torsion
[ 10718 10713 10712 10709 ] final -168.95 input   66.30 | X-H torsion
[ 10763 10752 10751 10750 ] final -165.99 input  -60.55 | X-H torsion
[ 11005 11000 10999 10996 ] final  166.43 input  -57.11 | X-H torsion

> <Gold.Protein.ActiveResidues>
 VAL166  LYS551  ARG553  GLY616  TRP617  ASP618  TYR619  PRO620  LYS621  CYS622 
 ASP623  PHE694  ASN695  SER759  ASP760  ASP761  ALA762  ILE779  LEU786  VAL792 
 PHE793  MET794  SER795  GLU796  ALA797  LYS798  CYS799  TRP800  GLU811  SER814 

> <Gold.Protein.RotatedAtoms>
  151.1864  133.4694  159.2594 H   0  0  0  0  0  0  0  0  0  0  0  0  # atno 6907 bound_to 6896
  151.1208  135.0078  159.8547 H   0  0  0  0  0  0  0  0  0  0  0  0  # atno 6908 bound_to 6896
  152.5456  134.1775  159.8675 H   0  0  0  0  0  0  0  0  0  0  0  0  # atno 6909 bound_to 6896
  145.8376  140.8438  143.0051 H   0  0  0  0  0  0  0  0  0  0  0  0  # atno 7974 bound_to 7965
  154.5171  140.0796  156.8102 H   0  0  0  0  0  0  0  0  0  0  0  0  # atno 8008 bound_to 7997
  155.3657  140.3420  155.4223 H   0  0  0  0  0  0  0  0  0  0  0  0  # atno 8009 bound_to 7997
  156.1640  140.1597  156.8551 H   0  0  0  0  0  0  0  0  0  0  0  0  # atno 8010 bound_to 7997
  140.7216  143.5229  150.9612 H   0  0  0  0  0  0  0  0  0  0  0  0  # atno 10167 bound_to 10162
  156.7044  130.9209  151.3083 H   0  0  0  0  0  0  0  0  0  0  0  0  # atno 10718 bound_to 10713
  154.6878  135.2965  154.9523 H   0  0  0  0  0  0  0  0  0  0  0  0  # atno 10763 bound_to 10752
  154.0496  135.6646  153.4803 H   0  0  0  0  0  0  0  0  0  0  0  0  # atno 10764 bound_to 10752
  153.0591  135.5126  154.7954 H   0  0  0  0  0  0  0  0  0  0  0  0  # atno 10765 bound_to 10752
  140.2664  134.7861  157.3636 H   0  0  0  0  0  0  0  0  0  0  0  0  # atno 11005 bound_to 11000
  144.6735  140.0764  143.7471 LP  0  0  0  0  0  0  0  0  0  0  0  0  # atno 17320 bound_to 7965
  145.9501  139.2728  143.1217 LP  0  0  0  0  0  0  0  0  0  0  0  0  # atno 17321 bound_to 7965
  139.8947  143.6910  152.3140 LP  0  0  0  0  0  0  0  0  0  0  0  0  # atno 17342 bound_to 10162
  139.7238  144.7597  151.0912 LP  0  0  0  0  0  0  0  0  0  0  0  0  # atno 17343 bound_to 10162
  157.6960  130.9283  150.0647 LP  0  0  0  0  0  0  0  0  0  0  0  0  # atno 17370 bound_to 10713
  156.1706  130.3646  149.9171 LP  0  0  0  0  0  0  0  0  0  0  0  0  # atno 17371 bound_to 10713
  140.1415  134.4966  155.8028 LP  0  0  0  0  0  0  0  0  0  0  0  0  # atno 17394 bound_to 11000
  141.2183  133.6827  156.7219 LP  0  0  0  0  0  0  0  0  0  0  0  0  # atno 17395 bound_to 11000

$$$$
