#       Name:                AV-unprocessed.smi:3255
#       Creating user name   scv26
#       Creation time:       Fri Mar 27 18:35:47 2020


#       File generated by GOLD software.
#

@<TRIPOS>MOLECULE
AV-unprocessed.smi:3255
    43    44     1
SMALL
NO_CHARGES


@<TRIPOS>ATOM
      1 ****        -2.8290  -1.6692   1.4253 C.3            1 S1                 0.0000
      2 ****        -2.2434  -1.0135   0.1623 C.3            1 S1                 0.0000
      3 ****        -0.7853  -1.0887   0.1991 N.am           1 S1                 0.0000
      4 ****         0.0192  -0.2204   0.8267 C.2            1 S1                 0.0000
      5 ****        -0.3785   0.7450   1.4795 O.2            1 S1                 0.0000
      6 ****         1.3127  -0.5266   0.6557 N.am           1 S1                 0.0000
      7 ****         2.4254   0.2302   1.2160 C.3            1 S1                 0.0000
      8 ****         2.7088   1.5042   0.4024 C.3            1 S1                 0.0000
      9 ****         3.7911   2.2927   0.9918 N.pl3          1 S1                 0.0000
     10 ****         3.6727   3.3203   1.8915 C.2            1 S1                 0.0000
     11 ****         4.9462   3.7505   2.1620 C.2            1 S1                 0.0000
     12 ****         5.7868   2.9666   1.4173 N.pl3          1 S1                 1.0000
     13 ****         5.0818   2.0806   0.7059 C.2            1 S1                 0.0000
     14 ****        -2.7482  -1.6833  -1.1296 C.3            1 S1                 0.0000
     15 ****        -4.2567  -1.5750  -1.3621 C.3            1 S1                 0.0000
     16 ****        -4.3990  -1.6539  -2.8749 C.3            1 S1                 0.0000
     17 ****        -2.9717  -1.4693  -3.3959 C.3            1 S1                 0.0000
     18 ****        -2.2275  -1.0216  -2.2727 O.3            1 S1                 0.0000
     19 ****        -3.9167  -1.5996   1.4411 H              1 S1                 0.0000
     20 ****        -2.4625  -1.1823   2.3295 H              1 S1                 0.0000
     21 ****        -2.5620  -2.7249   1.4843 H              1 S1                 0.0000
     22 ****        -2.5443   0.0358   0.1423 H              1 S1                 0.0000
     23 ****        -0.3597  -1.8470  -0.3136 H              1 S1                 0.0000
     24 ****         1.5420  -1.3389   0.1015 H              1 S1                 0.0000
     25 ****         2.2158   0.4795   2.2579 H              1 S1                 0.0000
     26 ****         3.3057  -0.4131   1.2215 H              1 S1                 0.0000
     27 ****         2.9819   1.2586  -0.6250 H              1 S1                 0.0000
     28 ****         1.8255   2.1426   0.3555 H              1 S1                 0.0000
     29 ****         2.7158   3.6592   2.2624 H              1 S1                 0.0000
     30 ****         5.3072   4.5342   2.8120 H              1 S1                 0.0000
     31 ****         5.4779   1.3393   0.0346 H              1 S1                 0.0000
     32 ****        -2.4425  -2.7313  -1.1613 H              1 S1                 0.0000
     33 ****        -4.8180  -2.3534  -0.8444 H              1 S1                 0.0000
     34 ****        -4.6244  -0.6087  -1.0138 H              1 S1                 0.0000
     35 ****        -4.8051  -2.6148  -3.1926 H              1 S1                 0.0000
     36 ****        -5.0636  -0.8705  -3.2407 H              1 S1                 0.0000
     37 ****        -2.5630  -2.4205  -3.7398 H              1 S1                 0.0000
     38 ****        -2.9131  -0.7563  -4.2186 H              1 S1                 0.0000
     39 ****         6.7961   3.0434   1.4056 H              1 S1                 0.0000
     40 ****        -1.3592   0.9201   1.5663 LP             1 S1                 0.0000
     41 ****         0.2793   1.3539   1.9229 LP             1 S1                 0.0000
     42 ****        -1.2609  -1.2500  -2.3895 LP             1 S1                 0.0000
     43 ****        -2.3259  -0.0318  -2.1695 LP             1 S1                 0.0000
@<TRIPOS>BOND
    1    1    2 1     
    2    1   19 1     
    3    1   20 1     
    4    1   21 1     
    5    2    3 1     
    6    2   14 1     
    7    2   22 1     
    8    3    4 am    
    9    3   23 1     
   10    4    5 2     
   11    4    6 am    
   12    6    7 1     
   13    6   24 1     
   14    7    8 1     
   15    7   25 1     
   16    7   26 1     
   17    8    9 1     
   18    8   27 1     
   19    8   28 1     
   20    9   13 1     
   21    9   10 1     
   22   10   11 2     
   23   10   29 1     
   24   11   12 1     
   25   11   30 1     
   26   12   13 2     
   27   12   39 1     
   28   13   31 1     
   29   14   18 1     
   30   14   15 1     
   31   14   32 1     
   32   15   16 1     
   33   15   33 1     
   34   15   34 1     
   35   16   17 1     
   36   16   35 1     
   37   16   36 1     
   38   17   18 1     
   39   17   37 1     
   40   17   38 1     
   41    5   40 1     
   42    5   41 1     
   43   18   42 1     
   44   18   43 1     
@<TRIPOS>SUBSTRUCTURE
      1 S1             1
@<TRIPOS>SET
LONE_PAIRS      STATIC     ATOMS    <user>   **** ""
4 40 41 42 43
DONOR_HYDROGENS      STATIC     ATOMS    <user>   **** ""
3 23 24 39
ATOM$BLUE        STATIC     ATOMS    COLORGROUP SYSTEM
4 40 41 42 43
ATOM$RED        STATIC     ATOMS    COLORGROUP SYSTEM
3 23 24 39
