#       Name:                AV-unprocessed.smi:2135
#       Creating user name   scv26
#       Creation time:       Fri Mar 27 11:45:56 2020


#       File generated by GOLD software.
#

@<TRIPOS>MOLECULE
AV-unprocessed.smi:2135
    45    46     1
SMALL
NO_CHARGES


@<TRIPOS>ATOM
      1 ****        -0.6756  -1.7917  -2.5282 C.3            1 S1                 0.0000
      2 ****        -2.2226  -0.9903  -3.1153 S.o2           1 S1                 0.0000
      3 ****        -1.8982   0.3725  -3.5636 O.2            1 S1                 0.0000
      4 ****        -2.8899  -1.9239  -4.0356 O.2            1 S1                 0.0000
      5 ****        -3.2130  -0.8746  -1.6892 N.pl3          1 S1                 0.0000
      6 ****        -3.8424  -2.0769  -1.1130 C.3            1 S1                 0.0000
      7 ****        -3.2209  -2.4367   0.2464 C.3            1 S1                 0.0000
      8 ****        -3.2234  -1.2342   1.2083 C.3            1 S1                 0.0000
      9 ****        -2.5461   0.0073   0.5830 C.3            1 S1                 0.0000
     10 ****        -1.0086  -0.0830   0.5381 C.2            1 S1                 0.0000
     11 ****        -0.4173  -1.1290   0.8085 O.2            1 S1                 0.0000
     12 ****        -0.3623   1.0518   0.2262 N.am           1 S1                 0.0000
     13 ****         1.0855   1.1925   0.1301 C.3            1 S1                 0.0000
     14 ****         1.7346   1.3356   1.5166 C.3            1 S1                 0.0000
     15 ****         3.2401   1.4904   1.4294 C.ar           1 S1                 0.0000
     16 ****         3.8357   2.7710   1.4415 C.ar           1 S1                 0.0000
     17 ****         5.2394   2.8813   1.3559 C.ar           1 S1                 0.0000
     18 ****         6.0157   1.7082   1.2593 C.ar           1 S1                 0.0000
     19 ****         5.4103   0.5001   1.2497 N.pl3          1 S1                 1.0000
     20 ****         4.0697   0.3521   1.3306 C.ar           1 S1                 0.0000
     21 ****        -3.1795   0.3054  -0.7991 C.3            1 S1                 0.0000
     22 ****        -0.0615  -2.0532  -3.3894 H              1 S1                 0.0000
     23 ****        -0.9148  -2.6967  -1.9709 H              1 S1                 0.0000
     24 ****        -0.1162  -1.1034  -1.8994 H              1 S1                 0.0000
     25 ****        -4.9089  -1.8841  -0.9916 H              1 S1                 0.0000
     26 ****        -3.7543  -2.9173  -1.8014 H              1 S1                 0.0000
     27 ****        -3.7754  -3.2624   0.6930 H              1 S1                 0.0000
     28 ****        -2.2081  -2.8082   0.0970 H              1 S1                 0.0000
     29 ****        -4.2542  -0.9849   1.4634 H              1 S1                 0.0000
     30 ****        -2.7421  -1.5063   2.1487 H              1 S1                 0.0000
     31 ****        -2.7646   0.8549   1.2345 H              1 S1                 0.0000
     32 ****        -0.9156   1.8731   0.0277 H              1 S1                 0.0000
     33 ****         1.5062   0.3396  -0.4056 H              1 S1                 0.0000
     34 ****         1.2997   2.0747  -0.4740 H              1 S1                 0.0000
     35 ****         1.3142   2.1958   2.0395 H              1 S1                 0.0000
     36 ****         1.5108   0.4634   2.1325 H              1 S1                 0.0000
     37 ****         3.2262   3.6601   1.5144 H              1 S1                 0.0000
     38 ****         5.7132   3.8521   1.3641 H              1 S1                 0.0000
     39 ****         7.0938   1.6996   1.1898 H              1 S1                 0.0000
     40 ****         3.7040  -0.6645   1.3116 H              1 S1                 0.0000
     41 ****        -2.6702   1.1334  -1.2915 H              1 S1                 0.0000
     42 ****        -4.2059   0.6434  -0.6525 H              1 S1                 0.0000
     43 ****         5.9904  -0.3364   1.1786 H              1 S1                 0.0000
     44 ****        -0.9359  -1.9448   1.0644 LP             1 S1                 0.0000
     45 ****         0.5815  -1.1625   0.7722 LP             1 S1                 0.0000
@<TRIPOS>BOND
    1    1    2 1     
    2    1   22 1     
    3    1   23 1     
    4    1   24 1     
    5    2    3 2     
    6    2    4 2     
    7    2    5 1     
    8    5   21 1     
    9    5    6 1     
   10    6    7 1     
   11    6   25 1     
   12    6   26 1     
   13    7    8 1     
   14    7   27 1     
   15    7   28 1     
   16    8    9 1     
   17    8   29 1     
   18    8   30 1     
   19    9   10 1     
   20    9   21 1     
   21    9   31 1     
   22   10   11 2     
   23   10   12 am    
   24   12   13 1     
   25   12   32 1     
   26   13   14 1     
   27   13   33 1     
   28   13   34 1     
   29   14   15 1     
   30   14   35 1     
   31   14   36 1     
   32   15   20 ar    
   33   15   16 ar    
   34   16   17 ar    
   35   16   37 1     
   36   17   18 ar    
   37   17   38 1     
   38   18   19 ar    
   39   18   39 1     
   40   19   20 ar    
   41   19   43 1     
   42   20   40 1     
   43   21   41 1     
   44   21   42 1     
   45   11   44 1     
   46   11   45 1     
@<TRIPOS>SUBSTRUCTURE
      1 S1             1
@<TRIPOS>SET
LONE_PAIRS      STATIC     ATOMS    <user>   **** ""
4 3 4 44 45
DONOR_HYDROGENS      STATIC     ATOMS    <user>   **** ""
2 32 43
ATOM$BLUE        STATIC     ATOMS    COLORGROUP SYSTEM
4 3 4 44 45
ATOM$RED        STATIC     ATOMS    COLORGROUP SYSTEM
2 32 43
