AV-unprocessed.smi:3326|AV-procd|sdf|12785|dock3
  -GOLD-   2272019133D 1   1.00000     0.00000
 Structure written by MMmdl.
 30 31  0  0  0  0  0  0  0  0  1 V2000
  151.5212  145.1693  160.4743 F   0  0  0  0  0  0  0  0  0  0  0  0
  151.6729  144.2090  159.5614 C   0  0  0  0  0  0  0  0  0  0  0  0
  150.4602  143.7938  159.1939 F   0  0  0  0  0  0  0  0  0  0  0  0
  152.2890  144.7377  158.5040 F   0  0  0  0  0  0  0  0  0  0  0  0
  152.4833  143.0346  160.1053 C   0  0  0  0  0  0  0  0  0  0  0  0
  153.0170  143.0796  161.4136 C   0  0  0  0  0  0  0  0  0  0  0  0
  153.7568  141.9846  161.8959 C   0  0  0  0  0  0  0  0  0  0  0  0
  153.9378  140.8780  161.0478 C   0  0  0  0  0  0  0  0  0  0  0  0
  153.4361  140.8186  159.7976 N   0  0  0  0  0  0  0  0  0  0  0  0
  152.7209  141.8702  159.3287 C   0  0  0  0  0  0  0  0  0  0  0  0
  152.2120  141.7871  158.0216 N   0  0  0  0  0  0  0  0  0  0  0  0
  151.3541  140.6812  157.6131 C   0  0  0  0  0  0  0  0  0  0  0  0
  151.3600  140.4743  156.0900 C   0  0  2  0  0  0  0  0  0  0  0  0
  150.2996  139.4906  155.6046 C   0  0  0  0  0  0  0  0  0  0  0  0
  150.8726  139.0636  154.2721 C   0  0  0  0  0  0  0  0  0  0  0  0
  152.3711  139.0174  154.5650 C   0  0  0  0  0  0  0  0  0  0  0  0
  152.5902  139.8909  155.6708 O   0  0  0  0  0  0  0  0  0  0  0  0
  152.8665  143.9387  162.0500 H   0  0  0  0  0  0  0  0  0  0  0  0
  154.1749  141.9937  162.8915 H   0  0  0  0  0  0  0  0  0  0  0  0
  154.5003  140.0186  161.3810 H   0  0  0  0  0  0  0  0  0  0  0  0
  152.1654  142.6340  157.4735 H   0  0  0  0  0  0  0  0  0  0  0  0
  151.7011  139.7751  158.1103 H   0  0  0  0  0  0  0  0  0  0  0  0
  150.3378  140.8508  157.9696 H   0  0  0  0  0  0  0  0  0  0  0  0
  151.2296  141.4218  155.5644 H   0  0  0  0  0  0  0  0  0  0  0  0
  150.2328  138.6330  156.2759 H   0  0  0  0  0  0  0  0  0  0  0  0
  149.3095  139.9395  155.5211 H   0  0  0  0  0  0  0  0  0  0  0  0
  150.4770  138.1111  153.9187 H   0  0  0  0  0  0  0  0  0  0  0  0
  150.6620  139.8222  153.5169 H   0  0  0  0  0  0  0  0  0  0  0  0
  152.6775  138.0115  154.8531 H   0  0  0  0  0  0  0  0  0  0  0  0
  152.9653  139.3175  153.7012 H   0  0  0  0  0  0  0  0  0  0  0  0
  1  2  1  0  0  0  0
  2  3  1  0  0  0  0
  2  4  1  0  0  0  0
  2  5  1  0  0  0  0
  5 10  1  0  0  0  0
  5  6  2  0  0  0  0
  6  7  1  0  0  0  0
  6 18  1  0  0  0  0
  7  8  2  0  0  0  0
  7 19  1  0  0  0  0
  8  9  1  0  0  0  0
  8 20  1  0  0  0  0
  9 10  2  0  0  0  0
 10 11  1  0  0  0  0
 11 12  1  0  0  0  0
 11 21  1  0  0  0  0
 12 13  1  0  0  0  0
 12 22  1  0  0  0  0
 12 23  1  0  0  0  0
 13 17  1  0  0  0  0
 13 14  1  0  0  0  0
 13 24  1  0  0  0  0
 14 15  1  0  0  0  0
 14 25  1  0  0  0  0
 14 26  1  0  0  0  0
 15 16  1  0  0  0  0
 15 27  1  0  0  0  0
 15 28  1  0  0  0  0
 16 17  1  0  0  0  0
 16 29  1  0  0  0  0
 16 30  1  0  0  0  0
M  END
> <s_m_source_file>
AV-unprocessed.smi

> <i_m_source_file_index>
3326

> <i_lp_mmshare_version>
43012

> <i_f3d_flags>
0

> <s_epik_input>
RkMoRikoRiljMVtjSF1bY0hdW2NIXW5jMVtOSF1bQ0gyXVtDQEBIXTJbQ0gyXVtDSDJdW0NIMl1PMg==

> <s_epik_cmdline>
J2VwaWtfcHl0aG9uJywgJy1waCcsICc3LjAnLCAnLXRuJywgJzgnLCAnLW1hJywgJzIwMCcsICctbWV0YWxfYmluZGluZycsICctaW1hZScsICc8aW5maWxlLm1hZT4nLCAnLW9tYWUnLCAnPG91dGZpbGUubWFlPic=

> <r_lp_tautomer_probability>
1

> <r_epik_Ionization_Penalty>
0.000820218

> <r_epik_Ionization_Penalty_Charging>
0

> <r_epik_Ionization_Penalty_Neutral>
0.000820218

> <r_epik_State_Penalty>
0.000527207

> <r_epik_Charging_Adjusted_Penalty>
0.000527207

> <i_epik_Tot_Q>
0

> <i_epik_Tot_abs_Q>
0

> <r_epik_Metal_State_Penalty>
-0

> <b_epik_Metal_Only>
0

> <s_lp_Force_Field>
OPLS_2005

> <r_lp_Energy>
21.819

> <b_lp_Chiralities_Consistent>
1

> <s_lp_Variant>
AV-unprocessed.smi:3326-1

> <Gold.Version>
5.8.1

> <Gold.Id.Protein>
6NUR|6NUR_protein|mol2

> <Gold.PLP.Fitness>
48.9200

> <Gold.PLP.PLP>
-47.3883

> <Gold.PLP.part.hbond>
-1.0000

> <Gold.PLP.part.metal>
0.0000

> <Gold.PLP.part.buried>
-5.2449

> <Gold.PLP.part.nonpolar>
-41.4993

> <Gold.PLP.part.repulsive>
0.0769

> <Gold.PLP.ligand.clash>
0.5021

> <Gold.PLP.ligand.torsion>
0.7611

> <Gold.PLP.Chemscore.Hbond>
1.0000

> <Gold.PLP.Chemscore.CHOScore>
0.0000

> <Gold.PLP.Chemscore.Metal>
0.0000

> <Gold.Chemscore.Hbonds>
donor molecule, donor type, donor heavy atom, donor atom, acceptor molecule, acceptor atom, score
      P1  H  7997  8008       L1    17  1.00

> <Gold.PLP.Chemscore.Internal.Correction>
0.5560

> <Gold.Rescore>
     Score         DG    S(hbond)    S(metal)    S(lipo)     H(rot)  DE(clash)    DE(int)     intcor
     13.53     -16.00       0.94        0.00      90.35       1.25       0.12       2.35       ----

> <Gold.Chemscore.Fitness>
13.5257

> <Gold.Chemscore.DG>
-15.9990

> <Gold.Chemscore.ZeroCoef>
-5.4800

> <Gold.Chemscore.Hbond>
0.9436

> <Gold.Chemscore.Metal>
0.0000

> <Gold.Chemscore.Lipo>
90.3488

> <Gold.Chemscore.Internal_Hbond>
0.0000

> <Gold.Chemscore.DEClash>
0.1214

> <Gold.Chemscore.DEInternal>
2.3519

> <Gold.Chemscore.Rot>
1.2514

> <Gold.Chemscore.Internal.Correction>
   9.000000E+99

> <Gold.Chemscore.Hbonds>
donor molecule, donor type, donor heavy atom, donor atom, acceptor molecule, acceptor atom, score
      P1  H  7997  8008       L1    17  0.77

> <Gold.Chemscore.Hbond.Weighted>
-3.1518

> <Gold.Chemscore.Metal.Weighted>
-0.0000

> <Gold.Chemscore.Lipo.Weighted>
-10.5708

> <Gold.Chemscore.Internal_Hbond.Weighted>
0.0000

> <Gold.Chemscore.DEClash.Weighted>
0.1214

> <Gold.Chemscore.DEInternal.Weighted>
2.3519

> <Gold.Chemscore.Rot.Weighted>
3.2036

> <Gold.Chemscore.Internal.Correction.Weighted>
   9.000000E+99

> <Gold.Protein.RotatedTorsions>
[ 6907 6896 6895 6894 ] final  124.30 input  -60.11 | X-H torsion
[ 7974 7965 7964 7962 ] final  -24.00 input  175.53 | X-H torsion
[ 8008 7997 7996 7995 ] final  -16.90 input   59.86 | X-H torsion
[ 10167 10162 10161 10158 ] final  -44.73 input  -65.29 | X-H torsion
[ 10718 10713 10712 10709 ] final  156.17 input   66.30 | X-H torsion
[ 10763 10752 10751 10750 ] final   67.78 input  -60.55 | X-H torsion
[ 11005 11000 10999 10996 ] final -145.70 input  -57.11 | X-H torsion

> <Gold.Protein.ActiveResidues>
 VAL166  LYS551  ARG553  GLY616  TRP617  ASP618  TYR619  PRO620  LYS621  CYS622 
 ASP623  PHE694  ASN695  SER759  ASP760  ASP761  ALA762  ILE779  LEU786  VAL792 
 PHE793  MET794  SER795  GLU796  ALA797  LYS798  CYS799  TRP800  GLU811  SER814 

> <Gold.Protein.RotatedAtoms>
  152.4090  133.6933  159.6380 H   0  0  0  0  0  0  0  0  0  0  0  0  # atno 6907 bound_to 6896
  150.7972  133.8658  159.3253 H   0  0  0  0  0  0  0  0  0  0  0  0  # atno 6908 bound_to 6896
  151.6406  135.1015  160.0192 H   0  0  0  0  0  0  0  0  0  0  0  0  # atno 6909 bound_to 6896
  146.1581  140.4693  142.8583 H   0  0  0  0  0  0  0  0  0  0  0  0  # atno 7974 bound_to 7965
  154.5018  140.2157  155.9330 H   0  0  0  0  0  0  0  0  0  0  0  0  # atno 8008 bound_to 7997
  156.1444  140.3173  155.8514 H   0  0  0  0  0  0  0  0  0  0  0  0  # atno 8009 bound_to 7997
  155.4059  140.0487  157.3025 H   0  0  0  0  0  0  0  0  0  0  0  0  # atno 8010 bound_to 7997
  140.6885  143.2915  151.3538 H   0  0  0  0  0  0  0  0  0  0  0  0  # atno 10167 bound_to 10162
  157.2085  131.0692  151.1983 H   0  0  0  0  0  0  0  0  0  0  0  0  # atno 10718 bound_to 10713
  153.0203  135.5271  154.7033 H   0  0  0  0  0  0  0  0  0  0  0  0  # atno 10763 bound_to 10752
  154.6136  135.2881  155.0407 H   0  0  0  0  0  0  0  0  0  0  0  0  # atno 10764 bound_to 10752
  154.1420  135.6576  153.4997 H   0  0  0  0  0  0  0  0  0  0  0  0  # atno 10765 bound_to 10752
  140.7896  134.2984  157.5018 H   0  0  0  0  0  0  0  0  0  0  0  0  # atno 11005 bound_to 11000
  144.7990  140.6178  143.6490 LP  0  0  0  0  0  0  0  0  0  0  0  0  # atno 17320 bound_to 7965
  145.4657  139.1508  143.3842 LP  0  0  0  0  0  0  0  0  0  0  0  0  # atno 17321 bound_to 7965
  139.6266  144.0802  152.2439 LP  0  0  0  0  0  0  0  0  0  0  0  0  # atno 17342 bound_to 10162
  140.0264  144.6114  150.7524 LP  0  0  0  0  0  0  0  0  0  0  0  0  # atno 17343 bound_to 10162
  157.3696  130.7174  149.6556 LP  0  0  0  0  0  0  0  0  0  0  0  0  # atno 17370 bound_to 10713
  155.9693  130.4202  150.4414 LP  0  0  0  0  0  0  0  0  0  0  0  0  # atno 17371 bound_to 10713
  139.8733  134.9366  156.3666 LP  0  0  0  0  0  0  0  0  0  0  0  0  # atno 17394 bound_to 11000
  140.9403  133.7519  156.0138 LP  0  0  0  0  0  0  0  0  0  0  0  0  # atno 17395 bound_to 11000

$$$$
