#       Name:                AV-unprocessed.smi:1703
#       Creating user name   scv26
#       Creation time:       Fri Mar 27 08:08:38 2020


#       File generated by GOLD software.
#

@<TRIPOS>MOLECULE
AV-unprocessed.smi:1703
    56    58     1
SMALL
NO_CHARGES


@<TRIPOS>ATOM
      1 ****         0.3467   4.4233   0.3610 C.3            1 S1                 0.0000
      2 ****        -0.5597   3.5471  -0.5218 C.3            1 S1                 0.0000
      3 ****        -0.1756   2.0541  -0.5071 C.3            1 S1                 0.0000
      4 ****        -0.5684   1.4125   0.7723 N.4            1 S1                 1.0000
      5 ****        -0.1798  -0.0177   0.8619 C.3            1 S1                 0.0000
      6 ****         1.3206  -0.2113   1.1748 C.3            1 S1                 0.0000
      7 ****         1.5888   0.2680   2.4767 O.3            1 S1                 0.0000
      8 ****         1.7763  -1.6832   1.1259 C.3            1 S1                 0.0000
      9 ****         1.5570  -2.3104  -0.1884 N.pl3          1 S1                 0.0000
     10 ****         2.2671  -2.1836  -1.3475 C.2            1 S1                 0.0000
     11 ****         3.4732  -1.3333  -1.5773 C.3            1 S1                 0.0000
     12 ****         3.1364  -0.0229  -1.9766 O.3            1 S1                 0.0000
     13 ****         1.6621  -2.9706  -2.2805 N.pl3          1 S1                 1.0000
     14 ****         0.5563  -3.6077  -1.7178 C.ar           1 S1                 0.0000
     15 ****        -0.3610  -4.4945  -2.2729 C.ar           1 S1                 0.0000
     16 ****        -1.3839  -4.9619  -1.4225 C.ar           1 S1                 0.0000
     17 ****        -1.4673  -4.5455  -0.0783 C.ar           1 S1                 0.0000
     18 ****        -0.5315  -3.6458   0.4734 C.ar           1 S1                 0.0000
     19 ****         0.4805  -3.1895  -0.3727 C.ar           1 S1                 0.0000
     20 ****        -2.0113   1.6235   1.0293 C.3            1 S1                 0.0000
     21 ****        -2.3418   3.1265   1.0370 C.3            1 S1                 0.0000
     22 ****        -3.8419   3.3838   1.2172 C.3            1 S1                 0.0000
     23 ****        -1.9423   3.7051  -0.2026 O.3            1 S1                 0.0000
     24 ****         1.3781   4.3881   0.0092 H              1 S1                 0.0000
     25 ****         0.3493   4.1018   1.4020 H              1 S1                 0.0000
     26 ****         0.0264   5.4651   0.3329 H              1 S1                 0.0000
     27 ****        -0.4446   3.9079  -1.5443 H              1 S1                 0.0000
     28 ****        -0.6783   1.5428  -1.3296 H              1 S1                 0.0000
     29 ****         0.8945   1.9500  -0.6841 H              1 S1                 0.0000
     30 ****        -0.7608  -0.5139   1.6412 H              1 S1                 0.0000
     31 ****        -0.4535  -0.5054  -0.0743 H              1 S1                 0.0000
     32 ****         1.9326   0.3591   0.4781 H              1 S1                 0.0000
     33 ****         1.4912   1.2077   2.4856 H              1 S1                 0.0000
     34 ****         2.8435  -1.7509   1.3399 H              1 S1                 0.0000
     35 ****         1.2827  -2.2708   1.8992 H              1 S1                 0.0000
     36 ****         4.0732  -1.2890  -0.6685 H              1 S1                 0.0000
     37 ****         4.0948  -1.7886  -2.3487 H              1 S1                 0.0000
     38 ****         3.9359   0.4607  -2.1216 H              1 S1                 0.0000
     39 ****        -0.2999  -4.8137  -3.3032 H              1 S1                 0.0000
     40 ****        -2.1194  -5.6527  -1.8090 H              1 S1                 0.0000
     41 ****        -2.2661  -4.9242   0.5431 H              1 S1                 0.0000
     42 ****        -0.6135  -3.3365   1.5044 H              1 S1                 0.0000
     43 ****        -2.5972   1.1073   0.2666 H              1 S1                 0.0000
     44 ****        -2.2819   1.1871   1.9918 H              1 S1                 0.0000
     45 ****        -1.8153   3.6134   1.8580 H              1 S1                 0.0000
     46 ****        -4.2031   2.9633   2.1562 H              1 S1                 0.0000
     47 ****        -4.4200   2.9392   0.4065 H              1 S1                 0.0000
     48 ****        -4.0545   4.4531   1.2298 H              1 S1                 0.0000
     49 ****        -0.0777   1.8928   1.5129 H              1 S1                 0.0000
     50 ****         1.9850  -3.0621  -3.2354 H              1 S1                 0.0000
     51 ****         2.5234   0.0258   2.7370 LP             1 S1                 0.0000
     52 ****         0.9457  -0.1417   3.1236 LP             1 S1                 0.0000
     53 ****         2.5989   0.4208  -1.2595 LP             1 S1                 0.0000
     54 ****         2.6029  -0.0542  -2.8219 LP             1 S1                 0.0000
     55 ****        -2.4799   3.2806  -0.9312 LP             1 S1                 0.0000
     56 ****        -2.1431   4.6841  -0.1675 LP             1 S1                 0.0000
@<TRIPOS>BOND
    1    1    2 1     
    2    1   24 1     
    3    1   25 1     
    4    1   26 1     
    5    2   23 1     
    6    2    3 1     
    7    2   27 1     
    8    3    4 1     
    9    3   28 1     
   10    3   29 1     
   11    4    5 1     
   12    4   20 1     
   13    4   49 1     
   14    5    6 1     
   15    5   30 1     
   16    5   31 1     
   17    6    7 1     
   18    6    8 1     
   19    6   32 1     
   20    7   33 1     
   21    8    9 1     
   22    8   34 1     
   23    8   35 1     
   24    9   19 1     
   25    9   10 1     
   26   10   11 1     
   27   10   13 2     
   28   11   12 1     
   29   11   36 1     
   30   11   37 1     
   31   12   38 1     
   32   13   14 1     
   33   13   50 1     
   34   14   19 ar    
   35   14   15 ar    
   36   15   16 ar    
   37   15   39 1     
   38   16   17 ar    
   39   16   40 1     
   40   17   18 ar    
   41   17   41 1     
   42   18   19 ar    
   43   18   42 1     
   44   20   21 1     
   45   20   43 1     
   46   20   44 1     
   47   21   22 1     
   48   21   23 1     
   49   21   45 1     
   50   22   46 1     
   51   22   47 1     
   52   22   48 1     
   53    7   51 1     
   54    7   52 1     
   55   12   53 1     
   56   12   54 1     
   57   23   55 1     
   58   23   56 1     
@<TRIPOS>SUBSTRUCTURE
      1 S1             1
@<TRIPOS>SET
LONE_PAIRS      STATIC     ATOMS    <user>   **** ""
6 51 52 53 54 55 56
DONOR_HYDROGENS      STATIC     ATOMS    <user>   **** ""
4 49 33 38 50
ATOM$BLUE        STATIC     ATOMS    COLORGROUP SYSTEM
6 51 52 53 54 55 56
ATOM$RED        STATIC     ATOMS    COLORGROUP SYSTEM
4 49 33 38 50
