AV-unprocessed.smi:3265|AV-procd|sdf|12496|dock10
  -GOLD-   2272018403D 1   1.00000     0.00000
 Structure written by MMmdl.
 41 42  0  0  0  0  0  0  0  0  2 V2000
  144.5069  134.8855  150.7413 C   0  0  0  0  0  0  0  0  0  0  0  0
  145.8903  134.4234  151.2204 C   0  0  2  0  0  0  0  0  0  0  0  0
  146.0665  132.9057  151.0478 C   0  0  0  0  0  0  0  0  0  0  0  0
  147.4466  132.4711  151.5556 C   0  0  0  0  0  0  0  0  0  0  0  0
  147.6644  132.9215  153.0087 C   0  0  0  0  0  0  0  0  0  0  0  0
  147.4900  134.3906  153.1482 N   0  3  2  0  0  0  0  0  0  0  0  0
  147.8258  134.8648  154.5148 C   0  0  0  0  0  0  0  0  0  0  0  0
  149.3414  134.8395  154.7925 C   0  0  0  0  0  0  0  0  0  0  0  0
  149.9880  136.0703  154.3535 N   0  0  0  0  0  0  0  0  0  0  0  0
  151.0357  136.6477  154.9638 C   0  0  0  0  0  0  0  0  0  0  0  0
  151.5436  136.2046  155.9938 O   0  0  0  0  0  0  0  0  0  0  0  0
  151.5903  137.9243  154.3259 C   0  0  0  0  0  0  0  0  0  0  0  0
  151.5520  139.0466  155.2478 N   0  0  0  0  0  0  0  0  0  0  0  0
  152.1848  139.1767  156.4668 C   0  0  0  0  0  0  0  0  0  0  0  0
  151.8453  140.3986  156.9729 C   0  0  0  0  0  0  0  0  0  0  0  0
  150.9943  140.9528  155.9763 C   0  0  0  0  0  0  0  0  0  0  0  0
  150.8207  140.1420  154.9454 N   0  0  0  0  0  0  0  0  0  0  0  0
  146.1444  134.8276  152.6870 C   0  0  0  0  0  0  0  0  0  0  0  0
  143.7099  134.4276  151.3280 H   0  0  0  0  0  0  0  0  0  0  0  0
  144.3439  134.6206  149.6961 H   0  0  0  0  0  0  0  0  0  0  0  0
  144.4031  135.9677  150.8255 H   0  0  0  0  0  0  0  0  0  0  0  0
  146.6353  134.9234  150.5992 H   0  0  0  0  0  0  0  0  0  0  0  0
  145.2888  132.3743  151.5981 H   0  0  0  0  0  0  0  0  0  0  0  0
  145.9527  132.6272  149.9995 H   0  0  0  0  0  0  0  0  0  0  0  0
  147.5455  131.3876  151.4826 H   0  0  0  0  0  0  0  0  0  0  0  0
  148.2236  132.8959  150.9185 H   0  0  0  0  0  0  0  0  0  0  0  0
  146.9683  132.4060  153.6724 H   0  0  0  0  0  0  0  0  0  0  0  0
  148.6702  132.6371  153.3208 H   0  0  0  0  0  0  0  0  0  0  0  0
  147.4186  135.8649  154.6713 H   0  0  0  0  0  0  0  0  0  0  0  0
  147.3341  134.2170  155.2419 H   0  0  0  0  0  0  0  0  0  0  0  0
  149.5338  134.6771  155.8547 H   0  0  0  0  0  0  0  0  0  0  0  0
  149.8214  134.0183  154.2618 H   0  0  0  0  0  0  0  0  0  0  0  0
  149.6325  136.5010  153.5118 H   0  0  0  0  0  0  0  0  0  0  0  0
  152.6212  137.7583  154.0108 H   0  0  0  0  0  0  0  0  0  0  0  0
  151.0179  138.1789  153.4321 H   0  0  0  0  0  0  0  0  0  0  0  0
  152.8146  138.3969  156.8694 H   0  0  0  0  0  0  0  0  0  0  0  0
  152.1582  140.8314  157.9114 H   0  0  0  0  0  0  0  0  0  0  0  0
  150.4998  141.9132  155.9719 H   0  0  0  0  0  0  0  0  0  0  0  0
  146.0527  135.9096  152.7727 H   0  0  0  0  0  0  0  0  0  0  0  0
  145.3808  134.3949  153.3356 H   0  0  0  0  0  0  0  0  0  0  0  0
  148.1664  134.8118  152.5276 H   0  0  0  0  0  0  0  0  0  0  0  0
  1  2  1  0  0  0  0
  1 19  1  0  0  0  0
  1 20  1  0  0  0  0
  1 21  1  0  0  0  0
  2 18  1  0  0  0  0
  2  3  1  0  0  0  0
  2 22  1  0  0  0  0
  3  4  1  0  0  0  0
  3 23  1  0  0  0  0
  3 24  1  0  0  0  0
  4  5  1  0  0  0  0
  4 25  1  0  0  0  0
  4 26  1  0  0  0  0
  5  6  1  0  0  0  0
  5 27  1  0  0  0  0
  5 28  1  0  0  0  0
  6  7  1  0  0  0  0
  6 18  1  0  0  0  0
  6 41  1  0  0  0  0
  7  8  1  0  0  0  0
  7 29  1  0  0  0  0
  7 30  1  0  0  0  0
  8  9  1  0  0  0  0
  8 31  1  0  0  0  0
  8 32  1  0  0  0  0
  9 10  1  0  0  0  0
  9 33  1  0  0  0  0
 10 11  2  0  0  0  0
 10 12  1  0  0  0  0
 12 13  1  0  0  0  0
 12 34  1  0  0  0  0
 12 35  1  0  0  0  0
 13 17  1  0  0  0  0
 13 14  1  0  0  0  0
 14 15  2  0  0  0  0
 14 36  1  0  0  0  0
 15 16  1  0  0  0  0
 15 37  1  0  0  0  0
 16 17  2  0  0  0  0
 16 38  1  0  0  0  0
 18 39  1  0  0  0  0
 18 40  1  0  0  0  0
M  CHG  1   6   1
M  END
> <s_m_source_file>
AV-unprocessed.smi

> <i_m_source_file_index>
3265

> <i_lp_mmshare_version>
43012

> <i_f3d_flags>
0

> <s_epik_input>
W0NIM11bQ0BASF0xW0NIMl1bQ0gyXVtDSDJdTihbQ0gyXTEpW0NIMl1bQ0gyXVtOSF1DKD1PKVtDSDJdbjJbY0hdW2NIXVtjSF1uMg==

> <s_epik_cmdline>
J2VwaWtfcHl0aG9uJywgJy1waCcsICc3LjAnLCAnLXRuJywgJzgnLCAnLW1hJywgJzIwMCcsICctbWV0YWxfYmluZGluZycsICctaW1hZScsICc8aW5maWxlLm1hZT4nLCAnLW9tYWUnLCAnPG91dGZpbGUubWFlPic=

> <r_lp_tautomer_probability>
1

> <r_epik_Ionization_Penalty>
0.00231455

> <r_epik_Ionization_Penalty_Charging>
0.00230623

> <r_epik_Ionization_Penalty_Neutral>
8.31727e-06

> <r_epik_State_Penalty>
0.00159065

> <r_epik_Charging_Adjusted_Penalty>
0.00389688

> <i_epik_Tot_Q>
1

> <i_epik_Tot_abs_Q>
1

> <r_epik_Metal_State_Penalty>
-0

> <b_epik_Metal_Only>
0

> <s_lp_Force_Field>
OPLS_2005

> <r_lp_Energy>
16.3652

> <b_lp_Chiralities_Consistent>
1

> <s_lp_Variant>
AV-unprocessed.smi:3265-1

> <Gold.Version>
5.8.1

> <Gold.Id.Protein>
6NUR|6NUR_protein|mol2

> <Gold.PLP.Fitness>
45.2263

> <Gold.PLP.PLP>
-31.3962

> <Gold.PLP.part.hbond>
-4.9486

> <Gold.PLP.part.metal>
0.0000

> <Gold.PLP.part.buried>
3.3547

> <Gold.PLP.part.nonpolar>
-28.9828

> <Gold.PLP.part.repulsive>
0.1493

> <Gold.PLP.ligand.clash>
0.0000

> <Gold.PLP.ligand.torsion>
0.4699

> <Gold.PLP.Chemscore.Hbond>
4.9120

> <Gold.PLP.Chemscore.CHOScore>
0.0000

> <Gold.PLP.Chemscore.Metal>
0.0000

> <Gold.Chemscore.Hbonds>
donor molecule, donor type, donor heavy atom, donor atom, acceptor molecule, acceptor atom, score
      L1  H     6    41       P1  7948  2.00
      L1  H     9    33       P1  7948  0.91
      P1  H  7989  7998       L1    17  1.00
      P1  H 10752 10763       L1    11  0.86

> <Gold.PLP.Chemscore.Internal.Correction>
0.0338

> <Gold.Rescore>
     Score         DG    S(hbond)    S(metal)    S(lipo)     H(rot)  DE(clash)    DE(int)     intcor
     17.24     -17.79       2.81        0.00      65.07       1.84       0.07       0.48       ----

> <Gold.Chemscore.Fitness>
17.2372

> <Gold.Chemscore.DG>
-17.7856

> <Gold.Chemscore.ZeroCoef>
-5.4800

> <Gold.Chemscore.Hbond>
2.8143

> <Gold.Chemscore.Metal>
0.0000

> <Gold.Chemscore.Lipo>
65.0665

> <Gold.Chemscore.Internal_Hbond>
0.0000

> <Gold.Chemscore.DEClash>
0.0729

> <Gold.Chemscore.DEInternal>
0.4755

> <Gold.Chemscore.Rot>
1.8386

> <Gold.Chemscore.Internal.Correction>
   9.000000E+99

> <Gold.Chemscore.Hbonds>
donor molecule, donor type, donor heavy atom, donor atom, acceptor molecule, acceptor atom, score
      L1  H     6    41       P1  7948  0.54
      L1  H     9    33       P1  7948  0.49
      P1  H  7989  7998       L1    17  0.33
      P1  H 10752 10763       L1    11  0.16

> <Gold.Chemscore.Hbond.Weighted>
-9.3997

> <Gold.Chemscore.Metal.Weighted>
-0.0000

> <Gold.Chemscore.Lipo.Weighted>
-7.6128

> <Gold.Chemscore.Internal_Hbond.Weighted>
0.0000

> <Gold.Chemscore.DEClash.Weighted>
0.0729

> <Gold.Chemscore.DEInternal.Weighted>
0.4755

> <Gold.Chemscore.Rot.Weighted>
4.7069

> <Gold.Chemscore.Internal.Correction.Weighted>
   9.000000E+99

> <Gold.Protein.RotatedTorsions>
[ 6907 6896 6895 6894 ] final  168.90 input  -60.11 | X-H torsion
[ 7974 7965 7964 7962 ] final   34.51 input  175.53 | X-H torsion
[ 8008 7997 7996 7995 ] final    3.00 input   59.86 | X-H torsion
[ 10167 10162 10161 10158 ] final -152.89 input  -65.29 | X-H torsion
[ 10718 10713 10712 10709 ] final  143.66 input   66.30 | X-H torsion
[ 10763 10752 10751 10750 ] final   99.84 input  -60.55 | X-H torsion
[ 11005 11000 10999 10996 ] final -158.97 input  -57.11 | X-H torsion

> <Gold.Protein.ActiveResidues>
 VAL166  LYS551  ARG553  GLY616  TRP617  ASP618  TYR619  PRO620  LYS621  CYS622 
 ASP623  PHE694  ASN695  SER759  ASP760  ASP761  ALA762  ILE779  LEU786  VAL792 
 PHE793  MET794  SER795  GLU796  ALA797  LYS798  CYS799  TRP800  GLU811  SER814 

> <Gold.Protein.RotatedAtoms>
  151.8404  133.3423  159.3641 H   0  0  0  0  0  0  0  0  0  0  0  0  # atno 6907 bound_to 6896
  150.7236  134.5397  159.5750 H   0  0  0  0  0  0  0  0  0  0  0  0  # atno 6908 bound_to 6896
  152.2869  134.7766  160.0437 H   0  0  0  0  0  0  0  0  0  0  0  0  # atno 6909 bound_to 6896
  146.1347  139.6259  142.9203 H   0  0  0  0  0  0  0  0  0  0  0  0  # atno 7974 bound_to 7965
  154.6984  140.2668  155.6744 H   0  0  0  0  0  0  0  0  0  0  0  0  # atno 8008 bound_to 7997
  156.2756  140.2777  156.1509 H   0  0  0  0  0  0  0  0  0  0  0  0  # atno 8009 bound_to 7997
  155.0799  140.0372  157.2626 H   0  0  0  0  0  0  0  0  0  0  0  0  # atno 8010 bound_to 7997
  139.7143  143.9059  152.2480 H   0  0  0  0  0  0  0  0  0  0  0  0  # atno 10167 bound_to 10162
  157.3664  131.0972  151.0869 H   0  0  0  0  0  0  0  0  0  0  0  0  # atno 10718 bound_to 10713
  153.3064  135.4099  155.1297 H   0  0  0  0  0  0  0  0  0  0  0  0  # atno 10763 bound_to 10752
  154.8564  135.3554  154.5782 H   0  0  0  0  0  0  0  0  0  0  0  0  # atno 10764 bound_to 10752
  153.6210  135.7064  153.5369 H   0  0  0  0  0  0  0  0  0  0  0  0  # atno 10765 bound_to 10752
  140.6478  134.4483  157.5234 H   0  0  0  0  0  0  0  0  0  0  0  0  # atno 11005 bound_to 11000
  145.5182  141.0433  143.2450 LP  0  0  0  0  0  0  0  0  0  0  0  0  # atno 17320 bound_to 7965
  144.7727  139.6698  143.7188 LP  0  0  0  0  0  0  0  0  0  0  0  0  # atno 17321 bound_to 7965
  139.8936  144.6951  150.8742 LP  0  0  0  0  0  0  0  0  0  0  0  0  # atno 17342 bound_to 10162
  140.7740  143.3567  151.1908 LP  0  0  0  0  0  0  0  0  0  0  0  0  # atno 17343 bound_to 10162
  157.1989  130.6386  149.5731 LP  0  0  0  0  0  0  0  0  0  0  0  0  # atno 17370 bound_to 10713
  155.9747  130.4697  150.6405 LP  0  0  0  0  0  0  0  0  0  0  0  0  # atno 17371 bound_to 10713
  139.9057  134.8455  156.1717 LP  0  0  0  0  0  0  0  0  0  0  0  0  # atno 17394 bound_to 11000
  141.0559  133.6865  156.1860 LP  0  0  0  0  0  0  0  0  0  0  0  0  # atno 17395 bound_to 11000

$$$$
