AV-unprocessed.smi:1680|AV-procd|sdf|6737|dock2
  -GOLD-   22720 7483D 1   1.00000     0.00000
 Structure written by MMmdl.
 38 39  0  0  0  0  0  0  0  0  1 V2000
  151.5356  140.9433  158.2748 C   0  0  0  0  0  0  0  0  0  0  0  0
  151.4793  139.9088  157.1488 C   0  0  0  0  0  0  0  0  0  0  0  0
  151.9005  138.7758  157.3828 O   0  0  0  0  0  0  0  0  0  0  0  0
  150.9757  140.2690  155.9445 N   0  0  0  0  0  0  0  0  0  0  0  0
  150.3963  141.5737  155.6090 C   0  0  0  0  0  0  0  0  0  0  0  0
  148.9024  141.3858  155.2811 C   0  0  0  0  0  0  0  0  0  0  0  0
  148.7448  140.4578  154.1578 N   0  0  0  0  0  0  0  0  0  0  0  0
  147.3251  140.3215  153.8319 C   0  0  0  0  0  0  0  0  0  0  0  0
  147.0431  139.2016  152.8083 C   0  0  0  0  0  0  0  0  0  0  0  0
  145.6319  138.8278  152.7908 N   0  0  0  0  0  0  0  0  0  0  0  0
  145.1407  137.6366  153.1635 C   0  0  0  0  0  0  0  0  0  0  0  0
  145.8361  136.7216  153.6057 O   0  0  0  0  0  0  0  0  0  0  0  0
  143.8090  137.5834  152.9842 N   0  0  0  0  0  0  0  0  0  0  0  0
  142.9331  136.4901  153.2158 C   0  0  0  0  0  0  0  0  0  0  0  0
  141.8291  136.5678  153.9754 N   0  0  0  0  0  0  0  0  0  0  0  0
  141.1561  135.3547  154.0396 N   0  0  0  0  0  0  0  0  0  0  0  0
  141.7786  134.4108  153.3280 C   0  0  0  0  0  0  0  0  0  0  0  0
  143.2457  134.9127  152.5060 S   0  0  0  0  0  0  0  0  0  0  0  0
  149.3479  139.1614  154.4908 C   0  0  0  0  0  0  0  0  0  0  0  0
  150.8428  139.3416  154.8174 C   0  0  0  0  0  0  0  0  0  0  0  0
  150.5348  141.2948  158.5268 H   0  0  0  0  0  0  0  0  0  0  0  0
  152.1508  141.7960  157.9859 H   0  0  0  0  0  0  0  0  0  0  0  0
  151.9717  140.5084  159.1748 H   0  0  0  0  0  0  0  0  0  0  0  0
  150.5006  142.3140  156.4006 H   0  0  0  0  0  0  0  0  0  0  0  0
  150.9216  141.9883  154.7469 H   0  0  0  0  0  0  0  0  0  0  0  0
  148.3655  141.0143  156.1556 H   0  0  0  0  0  0  0  0  0  0  0  0
  148.4660  142.3510  155.0211 H   0  0  0  0  0  0  0  0  0  0  0  0
  146.7526  140.1524  154.7450 H   0  0  0  0  0  0  0  0  0  0  0  0
  146.9623  141.2606  153.4114 H   0  0  0  0  0  0  0  0  0  0  0  0
  147.4013  139.4568  151.8107 H   0  0  0  0  0  0  0  0  0  0  0  0
  147.6054  138.3144  153.0994 H   0  0  0  0  0  0  0  0  0  0  0  0
  144.9853  139.5202  152.4422 H   0  0  0  0  0  0  0  0  0  0  0  0
  143.3729  138.4164  152.6177 H   0  0  0  0  0  0  0  0  0  0  0  0
  141.3701  133.4119  153.2861 H   0  0  0  0  0  0  0  0  0  0  0  0
  148.8284  138.7112  155.3381 H   0  0  0  0  0  0  0  0  0  0  0  0
  149.2537  138.4708  153.6539 H   0  0  0  0  0  0  0  0  0  0  0  0
  151.3732  139.7423  153.9520 H   0  0  0  0  0  0  0  0  0  0  0  0
  151.2906  138.3675  155.0184 H   0  0  0  0  0  0  0  0  0  0  0  0
  1  2  1  0  0  0  0
  1 21  1  0  0  0  0
  1 22  1  0  0  0  0
  1 23  1  0  0  0  0
  2  3  2  0  0  0  0
  2  4  1  0  0  0  0
  4 20  1  0  0  0  0
  4  5  1  0  0  0  0
  5  6  1  0  0  0  0
  5 24  1  0  0  0  0
  5 25  1  0  0  0  0
  6  7  1  0  0  0  0
  6 26  1  0  0  0  0
  6 27  1  0  0  0  0
  7  8  1  0  0  0  0
  7 19  1  0  0  0  0
  8  9  1  0  0  0  0
  8 28  1  0  0  0  0
  8 29  1  0  0  0  0
  9 10  1  0  0  0  0
  9 30  1  0  0  0  0
  9 31  1  0  0  0  0
 10 11  1  0  0  0  0
 10 32  1  0  0  0  0
 11 12  2  0  0  0  0
 11 13  1  0  0  0  0
 13 14  1  0  0  0  0
 13 33  1  0  0  0  0
 14 18  1  0  0  0  0
 14 15  2  0  0  0  0
 15 16  1  0  0  0  0
 16 17  2  0  0  0  0
 17 18  1  0  0  0  0
 17 34  1  0  0  0  0
 19 20  1  0  0  0  0
 19 35  1  0  0  0  0
 19 36  1  0  0  0  0
 20 37  1  0  0  0  0
 20 38  1  0  0  0  0
M  END
> <s_m_source_file>
AV-unprocessed.smi

> <i_m_source_file_index>
1680

> <i_lp_mmshare_version>
43012

> <i_f3d_flags>
0

> <s_epik_input>
W0NIM11DKD1PKU4xW0NIMl1bQ0gyXU4oW0NIMl1bQ0gyXTEpW0NIMl1bQ0gyXVtOSF1DKD1PKVtOSF1jMm5uW2NIXXMy

> <s_epik_cmdline>
J2VwaWtfcHl0aG9uJywgJy1waCcsICc3LjAnLCAnLXRuJywgJzgnLCAnLW1hJywgJzIwMCcsICctbWV0YWxfYmluZGluZycsICctaW1hZScsICc8aW5maWxlLm1hZT4nLCAnLW9tYWUnLCAnPG91dGZpbGUubWFlPic=

> <r_lp_tautomer_probability>
1

> <r_epik_Ionization_Penalty>
0.229992

> <r_epik_Ionization_Penalty_Charging>
0

> <r_epik_Ionization_Penalty_Neutral>
0.229992

> <r_epik_State_Penalty>
0.219013

> <r_epik_Charging_Adjusted_Penalty>
0.219013

> <i_epik_Tot_Q>
0

> <i_epik_Tot_abs_Q>
0

> <r_epik_Metal_State_Penalty>
0.556868

> <b_epik_Metal_Only>
0

> <s_lp_Force_Field>
OPLS_2005

> <r_lp_Energy>
36.5244

> <b_lp_Chiralities_Consistent>
1

> <s_lp_Variant>
AV-unprocessed.smi:1680-1

> <Gold.Version>
5.8.1

> <Gold.Id.Protein>
6NUR|6NUR_protein|mol2

> <Gold.PLP.Fitness>
40.1488

> <Gold.PLP.PLP>
-31.0388

> <Gold.PLP.part.hbond>
-3.0000

> <Gold.PLP.part.metal>
0.0000

> <Gold.PLP.part.buried>
-3.6711

> <Gold.PLP.part.nonpolar>
-25.0560

> <Gold.PLP.part.repulsive>
0.4153

> <Gold.PLP.ligand.clash>
0.0000

> <Gold.PLP.ligand.torsion>
0.6125

> <Gold.PLP.Chemscore.Hbond>
2.7537

> <Gold.PLP.Chemscore.CHOScore>
0.6853

> <Gold.PLP.Chemscore.Metal>
0.0000

> <Gold.Chemscore.Hbonds>
donor molecule, donor type, donor heavy atom, donor atom, acceptor molecule, acceptor atom, score
      L1  H    10    32       P1 10175  1.00
      L1  H    13    33       P1 10175  0.83
      P1  H 11000 11005       L1    16  0.67
      L1  C    17    34       P1 10957  0.65

> <Gold.PLP.Chemscore.Internal.Correction>
0.0179

> <Gold.Rescore>
     Score         DG    S(hbond)    S(metal)    S(lipo)     H(rot)  DE(clash)    DE(int)     intcor
     15.29     -16.17       2.45        0.00      60.60       1.79       0.19       0.69       ----

> <Gold.Chemscore.Fitness>
15.2873

> <Gold.Chemscore.DG>
-16.1692

> <Gold.Chemscore.ZeroCoef>
-5.4800

> <Gold.Chemscore.Hbond>
2.4515

> <Gold.Chemscore.Metal>
0.0000

> <Gold.Chemscore.Lipo>
60.6015

> <Gold.Chemscore.Internal_Hbond>
0.0000

> <Gold.Chemscore.DEClash>
0.1877

> <Gold.Chemscore.DEInternal>
0.6943

> <Gold.Chemscore.Rot>
1.7926

> <Gold.Chemscore.Internal.Correction>
   9.000000E+99

> <Gold.Chemscore.Hbonds>
donor molecule, donor type, donor heavy atom, donor atom, acceptor molecule, acceptor atom, score
      L1  H    10    32       P1 10175  0.98
      L1  H    13    33       P1 10175  0.78
      P1  H 11000 11005       L1    16  0.38

> <Gold.Chemscore.Hbond.Weighted>
-8.1879

> <Gold.Chemscore.Metal.Weighted>
-0.0000

> <Gold.Chemscore.Lipo.Weighted>
-7.0904

> <Gold.Chemscore.Internal_Hbond.Weighted>
0.0000

> <Gold.Chemscore.DEClash.Weighted>
0.1877

> <Gold.Chemscore.DEInternal.Weighted>
0.6943

> <Gold.Chemscore.Rot.Weighted>
4.5890

> <Gold.Chemscore.Internal.Correction.Weighted>
   9.000000E+99

> <Gold.Protein.RotatedTorsions>
[ 6907 6896 6895 6894 ] final -123.78 input  -60.11 | X-H torsion
[ 7974 7965 7964 7962 ] final  118.47 input  175.53 | X-H torsion
[ 8008 7997 7996 7995 ] final  -54.44 input   59.86 | X-H torsion
[ 10167 10162 10161 10158 ] final  -59.05 input  -65.29 | X-H torsion
[ 10718 10713 10712 10709 ] final  -90.97 input   66.30 | X-H torsion
[ 10763 10752 10751 10750 ] final   65.55 input  -60.55 | X-H torsion
[ 11005 11000 10999 10996 ] final   34.90 input  -57.11 | X-H torsion

> <Gold.Protein.ActiveResidues>
 VAL166  LYS551  ARG553  GLY616  TRP617  ASP618  TYR619  PRO620  LYS621  CYS622 
 ASP623  PHE694  ASN695  SER759  ASP760  ASP761  ALA762  ILE779  LEU786  VAL792 
 PHE793  MET794  SER795  GLU796  ALA797  LYS798  CYS799  TRP800  GLU811  SER814 

> <Gold.Protein.RotatedAtoms>
  150.8704  133.7514  159.2962 H   0  0  0  0  0  0  0  0  0  0  0  0  # atno 6907 bound_to 6896
  151.5127  135.1064  159.9868 H   0  0  0  0  0  0  0  0  0  0  0  0  # atno 6908 bound_to 6896
  152.4691  133.7944  159.6975 H   0  0  0  0  0  0  0  0  0  0  0  0  # atno 6909 bound_to 6896
  145.1548  139.3189  143.4548 H   0  0  0  0  0  0  0  0  0  0  0  0  # atno 7974 bound_to 7965
  154.4163  140.1176  156.5315 H   0  0  0  0  0  0  0  0  0  0  0  0  # atno 8008 bound_to 7997
  155.6600  140.3496  155.4760 H   0  0  0  0  0  0  0  0  0  0  0  0  # atno 8009 bound_to 7997
  155.9721  140.1143  157.0793 H   0  0  0  0  0  0  0  0  0  0  0  0  # atno 8010 bound_to 7997
  140.6159  143.2402  151.5597 H   0  0  0  0  0  0  0  0  0  0  0  0  # atno 10167 bound_to 10162
  155.9991  130.4930  150.5403 H   0  0  0  0  0  0  0  0  0  0  0  0  # atno 10718 bound_to 10713
  153.0101  135.5352  154.6685 H   0  0  0  0  0  0  0  0  0  0  0  0  # atno 10763 bound_to 10752
  154.5876  135.2856  155.0671 H   0  0  0  0  0  0  0  0  0  0  0  0  # atno 10764 bound_to 10752
  154.1776  135.6521  153.5078 H   0  0  0  0  0  0  0  0  0  0  0  0  # atno 10765 bound_to 10752
  140.2481  134.3335  155.7900 H   0  0  0  0  0  0  0  0  0  0  0  0  # atno 11005 bound_to 11000
  146.3490  140.1636  142.8590 LP  0  0  0  0  0  0  0  0  0  0  0  0  # atno 17320 bound_to 7965
  145.0393  140.8932  143.5062 LP  0  0  0  0  0  0  0  0  0  0  0  0  # atno 17321 bound_to 7965
  139.5399  144.2678  152.1328 LP  0  0  0  0  0  0  0  0  0  0  0  0  # atno 17342 bound_to 10162
  140.1887  144.4773  150.6490 LP  0  0  0  0  0  0  0  0  0  0  0  0  # atno 17343 bound_to 10162
  157.3341  131.0705  151.1839 LP  0  0  0  0  0  0  0  0  0  0  0  0  # atno 17370 bound_to 10713
  157.2709  130.6704  149.6019 LP  0  0  0  0  0  0  0  0  0  0  0  0  # atno 17371 bound_to 10713
  141.2204  133.7338  156.8994 LP  0  0  0  0  0  0  0  0  0  0  0  0  # atno 17394 bound_to 11000
  140.1585  134.9182  157.2684 LP  0  0  0  0  0  0  0  0  0  0  0  0  # atno 17395 bound_to 11000

$$$$
