AV-unprocessed.smi:3036|AV-procd|sdf|11583|dock4
  -GOLD-   2272016553D 1   1.00000     0.00000
 Structure written by MMmdl.
 42 43  0  0  0  0  0  0  0  0  2 V2000
  145.2274  134.1763  154.0792 C   0  0  0  0  0  0  0  0  0  0  0  0
  146.1744  134.8219  153.0589 C   0  0  1  0  0  0  0  0  0  0  0  0
  145.4495  135.1017  151.7286 C   0  0  0  0  0  0  0  0  0  0  0  0
  145.3073  133.9069  150.9168 N   0  0  0  0  0  0  0  0  0  0  0  0
  144.1602  133.3724  150.3690 C   0  0  0  0  0  0  0  0  0  0  0  0
  144.5204  132.2371  149.7017 C   0  0  0  0  0  0  0  0  0  0  0  0
  145.9282  132.1631  149.8952 C   0  0  0  0  0  0  0  0  0  0  0  0
  146.3958  133.1657  150.6214 N   0  0  0  0  0  0  0  0  0  0  0  0
  146.7404  136.0679  153.6249 N   0  3  0  0  0  0  0  0  0  0  0  0
  147.2565  135.9411  155.0058 C   0  0  0  0  0  0  0  0  0  0  0  0
  148.7082  136.4456  155.1373 C   0  0  0  0  0  0  0  0  0  0  0  0
  148.8619  137.9758  155.2275 C   0  0  0  0  0  0  0  0  0  0  0  0
  147.8887  138.6536  155.5576 O   0  0  0  0  0  0  0  0  0  0  0  0
  150.0618  138.5343  154.9383 N   0  0  0  0  0  0  0  0  0  0  0  0
  150.3214  139.9739  155.0370 C   0  0  0  0  0  0  0  0  0  0  0  0
  151.3783  140.2051  156.1319 C   0  0  0  0  0  0  0  0  0  0  0  0
  152.5605  139.4726  155.8195 O   0  0  0  0  0  0  0  0  0  0  0  0
  152.3335  138.0712  155.6922 C   0  0  0  0  0  0  0  0  0  0  0  0
  151.2904  137.8131  154.5901 C   0  0  0  0  0  0  0  0  0  0  0  0
  144.8180  133.2407  153.6970 H   0  0  0  0  0  0  0  0  0  0  0  0
  144.3893  134.8330  154.3157 H   0  0  0  0  0  0  0  0  0  0  0  0
  145.7476  133.9500  155.0107 H   0  0  0  0  0  0  0  0  0  0  0  0
  146.9802  134.1113  152.8654 H   0  0  0  0  0  0  0  0  0  0  0  0
  144.4502  135.4939  151.9217 H   0  0  0  0  0  0  0  0  0  0  0  0
  145.9772  135.8660  151.1553 H   0  0  0  0  0  0  0  0  0  0  0  0
  143.1937  133.8362  150.5019 H   0  0  0  0  0  0  0  0  0  0  0  0
  143.8767  131.5627  149.1564 H   0  0  0  0  0  0  0  0  0  0  0  0
  146.6193  131.4159  149.5334 H   0  0  0  0  0  0  0  0  0  0  0  0
  147.4979  136.3730  153.0290 H   0  0  0  0  0  0  0  0  0  0  0  0
  146.6182  136.5252  155.6700 H   0  0  0  0  0  0  0  0  0  0  0  0
  147.1793  134.9021  155.3308 H   0  0  0  0  0  0  0  0  0  0  0  0
  149.1667  135.9856  156.0137 H   0  0  0  0  0  0  0  0  0  0  0  0
  149.2695  136.1031  154.2671 H   0  0  0  0  0  0  0  0  0  0  0  0
  150.6871  140.3417  154.0773 H   0  0  0  0  0  0  0  0  0  0  0  0
  149.4267  140.5558  155.2623 H   0  0  0  0  0  0  0  0  0  0  0  0
  151.6273  141.2643  156.1995 H   0  0  0  0  0  0  0  0  0  0  0  0
  150.9991  139.9023  157.1092 H   0  0  0  0  0  0  0  0  0  0  0  0
  153.2757  137.5833  155.4427 H   0  0  0  0  0  0  0  0  0  0  0  0
  152.0024  137.6585  156.6464 H   0  0  0  0  0  0  0  0  0  0  0  0
  151.1532  136.7409  154.4613 H   0  0  0  0  0  0  0  0  0  0  0  0
  151.6608  138.1811  153.6323 H   0  0  0  0  0  0  0  0  0  0  0  0
  146.0202  136.7759  153.6165 H   0  0  0  0  0  0  0  0  0  0  0  0
  1  2  1  0  0  0  0
  1 20  1  0  0  0  0
  1 21  1  0  0  0  0
  1 22  1  0  0  0  0
  2  3  1  0  0  0  0
  2  9  1  0  0  0  0
  2 23  1  0  0  0  0
  3  4  1  0  0  0  0
  3 24  1  0  0  0  0
  3 25  1  0  0  0  0
  4  8  1  0  0  0  0
  4  5  1  0  0  0  0
  5  6  2  0  0  0  0
  5 26  1  0  0  0  0
  6  7  1  0  0  0  0
  6 27  1  0  0  0  0
  7  8  2  0  0  0  0
  7 28  1  0  0  0  0
  9 10  1  0  0  0  0
  9 29  1  0  0  0  0
  9 42  1  0  0  0  0
 10 11  1  0  0  0  0
 10 30  1  0  0  0  0
 10 31  1  0  0  0  0
 11 12  1  0  0  0  0
 11 32  1  0  0  0  0
 11 33  1  0  0  0  0
 12 13  2  0  0  0  0
 12 14  1  0  0  0  0
 14 19  1  0  0  0  0
 14 15  1  0  0  0  0
 15 16  1  0  0  0  0
 15 34  1  0  0  0  0
 15 35  1  0  0  0  0
 16 17  1  0  0  0  0
 16 36  1  0  0  0  0
 16 37  1  0  0  0  0
 17 18  1  0  0  0  0
 18 19  1  0  0  0  0
 18 38  1  0  0  0  0
 18 39  1  0  0  0  0
 19 40  1  0  0  0  0
 19 41  1  0  0  0  0
M  CHG  1   9   1
M  END
> <s_m_source_file>
AV-unprocessed.smi

> <i_m_source_file_index>
3036

> <i_lp_mmshare_version>
43012

> <i_f3d_flags>
0

> <s_epik_input>
bjFbY0hdW2NIXVtjSF1uMVtDSDJdW0NAQEhdKFtDSDNdKVtOSF1bQ0gyXVtDSDJdQyg9TylOMltDSDJdW0NIMl1PW0NIMl1bQ0gyXTI=

> <s_epik_cmdline>
J2VwaWtfcHl0aG9uJywgJy1waCcsICc3LjAnLCAnLXRuJywgJzgnLCAnLW1hJywgJzIwMCcsICctbWV0YWxfYmluZGluZycsICctaW1hZScsICc8aW5maWxlLm1hZT4nLCAnLW9tYWUnLCAnPG91dGZpbGUubWFlPic=

> <r_lp_tautomer_probability>
1

> <r_epik_Ionization_Penalty>
0.00797109

> <r_epik_Ionization_Penalty_Charging>
0.0079672

> <r_epik_Ionization_Penalty_Neutral>
3.88864e-06

> <r_epik_State_Penalty>
0.00597998

> <r_epik_Charging_Adjusted_Penalty>
0.0139472

> <i_epik_Tot_Q>
1

> <i_epik_Tot_abs_Q>
1

> <r_epik_Metal_State_Penalty>
0.00598029

> <b_epik_Metal_Only>
0

> <s_lp_Force_Field>
OPLS_2005

> <r_lp_Energy>
23.754

> <b_lp_Chiralities_Consistent>
1

> <s_lp_Variant>
AV-unprocessed.smi:3036-2

> <Gold.Version>
5.8.1

> <Gold.Id.Protein>
6NUR|6NUR_protein|mol2

> <Gold.PLP.Fitness>
45.3628

> <Gold.PLP.PLP>
-32.2933

> <Gold.PLP.part.hbond>
-2.0000

> <Gold.PLP.part.metal>
0.0000

> <Gold.PLP.part.buried>
-3.4552

> <Gold.PLP.part.nonpolar>
-27.9751

> <Gold.PLP.part.repulsive>
0.2457

> <Gold.PLP.ligand.clash>
0.0000

> <Gold.PLP.ligand.torsion>
1.0145

> <Gold.PLP.Chemscore.Hbond>
3.0000

> <Gold.PLP.Chemscore.CHOScore>
2.0000

> <Gold.PLP.Chemscore.Metal>
0.0000

> <Gold.Chemscore.Hbonds>
donor molecule, donor type, donor heavy atom, donor atom, acceptor molecule, acceptor atom, score
      L1  H     9    29       P1  7948  2.00
      P1  H  7997  8008       L1    17  1.00
      L1  C     5    26       P1 10186  1.00
      L1  C     7    28       P1 10747  1.00

> <Gold.PLP.Chemscore.Internal.Correction>
0.0986

> <Gold.Rescore>
     Score         DG    S(hbond)    S(metal)    S(lipo)     H(rot)  DE(clash)    DE(int)     intcor
     14.37     -15.40       1.97        0.00      73.69       2.07       0.08       0.96       ----

> <Gold.Chemscore.Fitness>
14.3668

> <Gold.Chemscore.DG>
-15.4036

> <Gold.Chemscore.ZeroCoef>
-5.4800

> <Gold.Chemscore.Hbond>
1.9750

> <Gold.Chemscore.Metal>
0.0000

> <Gold.Chemscore.Lipo>
73.6859

> <Gold.Chemscore.Internal_Hbond>
0.0000

> <Gold.Chemscore.DEClash>
0.0763

> <Gold.Chemscore.DEInternal>
0.9604

> <Gold.Chemscore.Rot>
2.0680

> <Gold.Chemscore.Internal.Correction>
   9.000000E+99

> <Gold.Chemscore.Hbonds>
donor molecule, donor type, donor heavy atom, donor atom, acceptor molecule, acceptor atom, score
      L1  H     9    29       P1  7948  0.99
      P1  H  7997  8008       L1    17  0.96

> <Gold.Chemscore.Hbond.Weighted>
-6.5964

> <Gold.Chemscore.Metal.Weighted>
-0.0000

> <Gold.Chemscore.Lipo.Weighted>
-8.6213

> <Gold.Chemscore.Internal_Hbond.Weighted>
0.0000

> <Gold.Chemscore.DEClash.Weighted>
0.0763

> <Gold.Chemscore.DEInternal.Weighted>
0.9604

> <Gold.Chemscore.Rot.Weighted>
5.2941

> <Gold.Chemscore.Internal.Correction.Weighted>
   9.000000E+99

> <Gold.Protein.RotatedTorsions>
[ 6907 6896 6895 6894 ] final  154.39 input  -60.11 | X-H torsion
[ 7974 7965 7964 7962 ] final -151.18 input  175.53 | X-H torsion
[ 8008 7997 7996 7995 ] final  -34.60 input   59.86 | X-H torsion
[ 10167 10162 10161 10158 ] final  171.88 input  -65.29 | X-H torsion
[ 10718 10713 10712 10709 ] final   60.66 input   66.30 | X-H torsion
[ 10763 10752 10751 10750 ] final   91.95 input  -60.55 | X-H torsion
[ 11005 11000 10999 10996 ] final    7.07 input  -57.11 | X-H torsion

> <Gold.Protein.ActiveResidues>
 VAL166  LYS551  ARG553  GLY616  TRP617  ASP618  TYR619  PRO620  LYS621  CYS622 
 ASP623  PHE694  ASN695  SER759  ASP760  ASP761  ALA762  ILE779  LEU786  VAL792 
 PHE793  MET794  SER795  GLU796  ALA797  LYS798  CYS799  TRP800  GLU811  SER814 

> <Gold.Protein.RotatedAtoms>
  152.0591  133.4054  159.4409 H   0  0  0  0  0  0  0  0  0  0  0  0  # atno 6907 bound_to 6896
  150.6867  134.3220  159.4800 H   0  0  0  0  0  0  0  0  0  0  0  0  # atno 6908 bound_to 6896
  152.1039  134.9321  160.0619 H   0  0  0  0  0  0  0  0  0  0  0  0  # atno 6909 bound_to 6896
  144.7865  140.4833  143.5803 H   0  0  0  0  0  0  0  0  0  0  0  0  # atno 7974 bound_to 7965
  154.4116  140.1679  156.2076 H   0  0  0  0  0  0  0  0  0  0  0  0  # atno 8008 bound_to 7997
  155.9471  140.3403  155.6353 H   0  0  0  0  0  0  0  0  0  0  0  0  # atno 8009 bound_to 7997
  155.6916  140.0734  157.2436 H   0  0  0  0  0  0  0  0  0  0  0  0  # atno 8010 bound_to 7997
  139.5059  144.3436  151.9993 H   0  0  0  0  0  0  0  0  0  0  0  0  # atno 10167 bound_to 10162
  157.5770  130.8951  149.9364 H   0  0  0  0  0  0  0  0  0  0  0  0  # atno 10718 bound_to 10713
  153.2139  135.4379  155.0411 H   0  0  0  0  0  0  0  0  0  0  0  0  # atno 10763 bound_to 10752
  154.8214  135.3339  154.7028 H   0  0  0  0  0  0  0  0  0  0  0  0  # atno 10764 bound_to 10752
  153.7464  135.7001  153.5011 H   0  0  0  0  0  0  0  0  0  0  0  0  # atno 10765 bound_to 10752
  140.5524  134.0270  155.7941 H   0  0  0  0  0  0  0  0  0  0  0  0  # atno 11005 bound_to 11000
  145.5909  139.1495  143.3183 LP  0  0  0  0  0  0  0  0  0  0  0  0  # atno 17320 bound_to 7965
  146.2099  140.6034  142.9064 LP  0  0  0  0  0  0  0  0  0  0  0  0  # atno 17321 bound_to 7965
  140.2874  144.3792  150.6099 LP  0  0  0  0  0  0  0  0  0  0  0  0  # atno 17342 bound_to 10162
  140.5972  143.2167  151.7141 LP  0  0  0  0  0  0  0  0  0  0  0  0  # atno 17343 bound_to 10162
  156.0814  130.3672  150.0572 LP  0  0  0  0  0  0  0  0  0  0  0  0  # atno 17370 bound_to 10713
  156.8717  130.9526  151.3608 LP  0  0  0  0  0  0  0  0  0  0  0  0  # atno 17371 bound_to 10713
  141.1164  133.9534  157.2815 LP  0  0  0  0  0  0  0  0  0  0  0  0  # atno 17394 bound_to 11000
  139.9448  135.0185  156.8820 LP  0  0  0  0  0  0  0  0  0  0  0  0  # atno 17395 bound_to 11000

$$$$
