AV-unprocessed.smi:3337|AV-procd|sdf|12862|dock2
  -GOLD-   2272019263D 1   1.00000     0.00000
 Structure written by MMmdl.
 46 47  0  0  0  0  0  0  0  0  2 V2000
  144.4776  132.5096  149.4892 C   0  0  0  0  0  0  0  0  0  0  0  0
  145.1308  132.8391  150.8387 C   0  0  1  0  0  0  0  0  0  0  0  0
  145.7908  131.5961  151.4601 C   0  0  0  0  0  0  0  0  0  0  0  0
  146.4791  131.9450  152.7913 C   0  0  1  0  0  0  0  0  0  0  0  0
  147.1601  130.7146  153.4071 C   0  0  0  0  0  0  0  0  0  0  0  0
  147.4829  133.0983  152.5812 C   0  0  0  0  0  0  0  0  0  0  0  0
  146.8411  134.3002  151.9864 N   0  3  2  0  0  0  0  0  0  0  0  0
  146.0145  135.0720  152.9527 C   0  0  0  0  0  0  0  0  0  0  0  0
  146.7716  135.3798  154.2598 C   0  0  0  0  0  0  0  0  0  0  0  0
  147.5639  136.5987  154.1473 N   0  0  0  0  0  0  0  0  0  0  0  0
  147.5648  137.5972  155.0451 C   0  0  0  0  0  0  0  0  0  0  0  0
  146.8983  137.5654  156.0805 O   0  0  0  0  0  0  0  0  0  0  0  0
  148.4513  138.8095  154.7190 C   0  0  2  0  0  0  0  0  0  0  0  0
  148.0417  139.5068  153.4061 C   0  0  0  0  0  0  0  0  0  0  0  0
  149.8567  138.4226  154.7207 N   0  0  0  0  0  0  0  0  0  0  0  0
  150.4147  137.2178  154.8586 C   0  0  0  0  0  0  0  0  0  0  0  0
  151.7370  137.2227  154.7680 N   0  0  0  0  0  0  0  0  0  0  0  0
  151.9458  138.5548  154.5496 C   0  0  0  0  0  0  0  0  0  0  0  0
  150.8532  139.3165  154.5013 N   0  0  0  0  0  0  0  0  0  0  0  0
  146.1625  133.9807  150.6998 C   0  0  0  0  0  0  0  0  0  0  0  0
  145.2161  132.1736  148.7605 H   0  0  0  0  0  0  0  0  0  0  0  0
  143.9733  133.3828  149.0740 H   0  0  0  0  0  0  0  0  0  0  0  0
  143.7324  131.7206  149.5956 H   0  0  0  0  0  0  0  0  0  0  0  0
  144.3321  133.1667  151.5044 H   0  0  0  0  0  0  0  0  0  0  0  0
  145.0419  130.8194  151.6212 H   0  0  0  0  0  0  0  0  0  0  0  0
  146.5226  131.1807  150.7653 H   0  0  0  0  0  0  0  0  0  0  0  0
  145.7133  132.2758  153.4941 H   0  0  0  0  0  0  0  0  0  0  0  0
  147.9509  130.3322  152.7608 H   0  0  0  0  0  0  0  0  0  0  0  0
  146.4435  129.9083  153.5674 H   0  0  0  0  0  0  0  0  0  0  0  0
  147.6059  130.9542  154.3729 H   0  0  0  0  0  0  0  0  0  0  0  0
  147.9711  133.3614  153.5205 H   0  0  0  0  0  0  0  0  0  0  0  0
  148.2791  132.7708  151.9106 H   0  0  0  0  0  0  0  0  0  0  0  0
  145.6450  135.9872  152.4911 H   0  0  0  0  0  0  0  0  0  0  0  0
  145.1303  134.4872  153.2101 H   0  0  0  0  0  0  0  0  0  0  0  0
  146.0628  135.5110  155.0778 H   0  0  0  0  0  0  0  0  0  0  0  0
  147.4278  134.5586  154.5487 H   0  0  0  0  0  0  0  0  0  0  0  0
  148.1370  136.7000  153.3219 H   0  0  0  0  0  0  0  0  0  0  0  0
  148.3192  139.5365  155.5225 H   0  0  0  0  0  0  0  0  0  0  0  0
  147.0019  139.8333  153.4433 H   0  0  0  0  0  0  0  0  0  0  0  0
  148.1510  138.8520  152.5407 H   0  0  0  0  0  0  0  0  0  0  0  0
  148.6552  140.3905  153.2288 H   0  0  0  0  0  0  0  0  0  0  0  0
  149.8423  136.3173  155.0264 H   0  0  0  0  0  0  0  0  0  0  0  0
  152.9320  138.9746  154.4156 H   0  0  0  0  0  0  0  0  0  0  0  0
  146.9299  133.6870  149.9821 H   0  0  0  0  0  0  0  0  0  0  0  0
  145.6916  134.8690  150.2808 H   0  0  0  0  0  0  0  0  0  0  0  0
  147.6047  134.9183  151.7523 H   0  0  0  0  0  0  0  0  0  0  0  0
  1  2  1  0  0  0  0
  1 21  1  0  0  0  0
  1 22  1  0  0  0  0
  1 23  1  0  0  0  0
  2 20  1  0  0  0  0
  2  3  1  0  0  0  0
  2 24  1  0  0  0  0
  3  4  1  0  0  0  0
  3 25  1  0  0  0  0
  3 26  1  0  0  0  0
  4  5  1  0  0  0  0
  4  6  1  0  0  0  0
  4 27  1  0  0  0  0
  5 28  1  0  0  0  0
  5 29  1  0  0  0  0
  5 30  1  0  0  0  0
  6  7  1  0  0  0  0
  6 31  1  0  0  0  0
  6 32  1  0  0  0  0
  7  8  1  0  0  0  0
  7 20  1  0  0  0  0
  7 46  1  0  0  0  0
  8  9  1  0  0  0  0
  8 33  1  0  0  0  0
  8 34  1  0  0  0  0
  9 10  1  0  0  0  0
  9 35  1  0  0  0  0
  9 36  1  0  0  0  0
 10 11  1  0  0  0  0
 10 37  1  0  0  0  0
 11 12  2  0  0  0  0
 11 13  1  0  0  0  0
 13 14  1  0  0  0  0
 13 15  1  0  0  0  0
 13 38  1  0  0  0  0
 14 39  1  0  0  0  0
 14 40  1  0  0  0  0
 14 41  1  0  0  0  0
 15 19  1  0  0  0  0
 15 16  1  0  0  0  0
 16 17  2  0  0  0  0
 16 42  1  0  0  0  0
 17 18  1  0  0  0  0
 18 19  2  0  0  0  0
 18 43  1  0  0  0  0
 20 44  1  0  0  0  0
 20 45  1  0  0  0  0
M  CHG  1   7   1
M  END
> <s_m_source_file>
AV-unprocessed.smi

> <i_m_source_file_index>
3337

> <i_lp_mmshare_version>
43012

> <i_f3d_flags>
0

> <s_epik_input>
W0NIM11bQ0BASF0xW0NIMl1bQ0BASF0oW0NIM10pW0NIMl1OKFtDSDJdMSlbQ0gyXVtDSDJdW05IXUMoPU8pW0NASF0oW0NIM10pbjJbY0hdbltjSF1uMg==

> <s_epik_cmdline>
J2VwaWtfcHl0aG9uJywgJy1waCcsICc3LjAnLCAnLXRuJywgJzgnLCAnLW1hJywgJzIwMCcsICctbWV0YWxfYmluZGluZycsICctaW1hZScsICc8aW5maWxlLm1hZT4nLCAnLW9tYWUnLCAnPG91dGZpbGUubWFlPic=

> <r_lp_tautomer_probability>
1

> <r_epik_Ionization_Penalty>
0.00175613

> <r_epik_Ionization_Penalty_Charging>
0.00174812

> <r_epik_Ionization_Penalty_Neutral>
8.01354e-06

> <r_epik_State_Penalty>
0.00118332

> <r_epik_Charging_Adjusted_Penalty>
0.00293143

> <i_epik_Tot_Q>
1

> <i_epik_Tot_abs_Q>
1

> <r_epik_Metal_State_Penalty>
-0

> <b_epik_Metal_Only>
0

> <s_lp_Force_Field>
OPLS_2005

> <r_lp_Energy>
24.5444

> <b_lp_Chiralities_Consistent>
1

> <s_lp_Variant>
AV-unprocessed.smi:3337-2

> <Gold.Version>
5.8.1

> <Gold.Id.Protein>
6NUR|6NUR_protein|mol2

> <Gold.PLP.Fitness>
46.5463

> <Gold.PLP.PLP>
-32.0128

> <Gold.PLP.part.hbond>
-4.0000

> <Gold.PLP.part.metal>
0.0000

> <Gold.PLP.part.buried>
-3.6156

> <Gold.PLP.part.nonpolar>
-24.5940

> <Gold.PLP.part.repulsive>
0.3026

> <Gold.PLP.ligand.clash>
0.0000

> <Gold.PLP.ligand.torsion>
0.2885

> <Gold.PLP.Chemscore.Hbond>
4.9760

> <Gold.PLP.Chemscore.CHOScore>
0.0000

> <Gold.PLP.Chemscore.Metal>
0.0000

> <Gold.Chemscore.Hbonds>
donor molecule, donor type, donor heavy atom, donor atom, acceptor molecule, acceptor atom, score
      L1  H     7    46       P1  7948  2.00
      L1  H    10    37       P1  7948  1.00
      P1  H  7989  7998       L1    19  0.90
      P1  H 10752 10763       L1    17  1.00

> <Gold.PLP.Chemscore.Internal.Correction>
0.1826

> <Gold.Rescore>
     Score         DG    S(hbond)    S(metal)    S(lipo)     H(rot)  DE(clash)    DE(int)     intcor
     16.08     -17.01       3.23        0.00      61.38       2.51       0.37       0.56       ----

> <Gold.Chemscore.Fitness>
16.0776

> <Gold.Chemscore.DG>
-17.0075

> <Gold.Chemscore.ZeroCoef>
-5.4800

> <Gold.Chemscore.Hbond>
3.2272

> <Gold.Chemscore.Metal>
0.0000

> <Gold.Chemscore.Lipo>
61.3810

> <Gold.Chemscore.Internal_Hbond>
0.0000

> <Gold.Chemscore.DEClash>
0.3742

> <Gold.Chemscore.DEInternal>
0.5556

> <Gold.Chemscore.Rot>
2.5129

> <Gold.Chemscore.Internal.Correction>
   9.000000E+99

> <Gold.Chemscore.Hbonds>
donor molecule, donor type, donor heavy atom, donor atom, acceptor molecule, acceptor atom, score
      L1  H     7    46       P1  7948  0.65
      L1  H    10    37       P1  7948  0.99
      P1  H  7989  7998       L1    19  0.17
      P1  H 10752 10763       L1    17  0.92

> <Gold.Chemscore.Hbond.Weighted>
-10.7789

> <Gold.Chemscore.Metal.Weighted>
-0.0000

> <Gold.Chemscore.Lipo.Weighted>
-7.1816

> <Gold.Chemscore.Internal_Hbond.Weighted>
0.0000

> <Gold.Chemscore.DEClash.Weighted>
0.3742

> <Gold.Chemscore.DEInternal.Weighted>
0.5556

> <Gold.Chemscore.Rot.Weighted>
6.4331

> <Gold.Chemscore.Internal.Correction.Weighted>
   9.000000E+99

> <Gold.Protein.RotatedTorsions>
[ 6907 6896 6895 6894 ] final -104.69 input  -60.11 | X-H torsion
[ 7974 7965 7964 7962 ] final  149.44 input  175.53 | X-H torsion
[ 8008 7997 7996 7995 ] final   36.40 input   59.86 | X-H torsion
[ 10167 10162 10161 10158 ] final  -19.21 input  -65.29 | X-H torsion
[ 10718 10713 10712 10709 ] final  -16.39 input   66.30 | X-H torsion
[ 10763 10752 10751 10750 ] final   48.84 input  -60.55 | X-H torsion
[ 11005 11000 10999 10996 ] final   27.99 input  -57.11 | X-H torsion

> <Gold.Protein.ActiveResidues>
 VAL166  LYS551  ARG553  GLY616  TRP617  ASP618  TYR619  PRO620  LYS621  CYS622 
 ASP623  PHE694  ASN695  SER759  ASP760  ASP761  ALA762  ILE779  LEU786  VAL792 
 PHE793  MET794  SER795  GLU796  ALA797  LYS798  CYS799  TRP800  GLU811  SER814 

> <Gold.Protein.RotatedAtoms>
  150.7299  134.0240  159.3710 H   0  0  0  0  0  0  0  0  0  0  0  0  # atno 6907 bound_to 6896
  151.8206  135.0650  160.0434 H   0  0  0  0  0  0  0  0  0  0  0  0  # atno 6908 bound_to 6896
  152.3006  133.5615  159.5652 H   0  0  0  0  0  0  0  0  0  0  0  0  # atno 6909 bound_to 6896
  144.8438  139.6281  143.6005 H   0  0  0  0  0  0  0  0  0  0  0  0  # atno 7974 bound_to 7965
  155.1868  140.3304  155.4365 H   0  0  0  0  0  0  0  0  0  0  0  0  # atno 8008 bound_to 7997
  156.2457  140.1917  156.6913 H   0  0  0  0  0  0  0  0  0  0  0  0  # atno 8009 bound_to 7997
  154.6233  140.0592  156.9628 H   0  0  0  0  0  0  0  0  0  0  0  0  # atno 8010 bound_to 7997
  140.7266  143.4840  151.0079 H   0  0  0  0  0  0  0  0  0  0  0  0  # atno 10167 bound_to 10162
  156.5883  130.4792  149.6290 H   0  0  0  0  0  0  0  0  0  0  0  0  # atno 10718 bound_to 10713
  152.9789  135.5931  154.3992 H   0  0  0  0  0  0  0  0  0  0  0  0  # atno 10763 bound_to 10752
  154.3639  135.2767  155.2306 H   0  0  0  0  0  0  0  0  0  0  0  0  # atno 10764 bound_to 10752
  154.4291  135.6040  153.6112 H   0  0  0  0  0  0  0  0  0  0  0  0  # atno 10765 bound_to 10752
  140.3203  134.2550  155.7718 H   0  0  0  0  0  0  0  0  0  0  0  0  # atno 11005 bound_to 11000
  146.2726  139.6672  142.9285 LP  0  0  0  0  0  0  0  0  0  0  0  0  # atno 17320 bound_to 7965
  145.4640  141.0434  143.2735 LP  0  0  0  0  0  0  0  0  0  0  0  0  # atno 17321 bound_to 7965
  139.8541  143.7400  152.3177 LP  0  0  0  0  0  0  0  0  0  0  0  0  # atno 17342 bound_to 10162
  139.7592  144.7511  151.0389 LP  0  0  0  0  0  0  0  0  0  0  0  0  # atno 17343 bound_to 10162
  156.2572  130.6941  151.1698 LP  0  0  0  0  0  0  0  0  0  0  0  0  # atno 17370 bound_to 10713
  157.7310  131.0612  150.5700 LP  0  0  0  0  0  0  0  0  0  0  0  0  # atno 17371 bound_to 10713
  141.2088  133.7767  157.0037 LP  0  0  0  0  0  0  0  0  0  0  0  0  # atno 17394 bound_to 11000
  140.0947  134.9571  157.1831 LP  0  0  0  0  0  0  0  0  0  0  0  0  # atno 17395 bound_to 11000

$$$$
