AV-unprocessed.smi:1990|AV-procd|sdf|8062|dock4
  -GOLD-   2272010263D 1   1.00000     0.00000
 Structure written by MMmdl.
 46 47  0  0  0  0  0  0  0  0  1 V2000
  150.9840  144.1945  158.1156 C   0  0  0  0  0  0  0  0  0  0  0  0
  151.9102  142.9777  158.0245 C   0  0  2  0  0  0  0  0  0  0  0  0
  151.2234  141.7746  157.3500 C   0  0  0  0  0  0  0  0  0  0  0  0
  152.1069  140.6162  157.3753 N   0  0  0  0  0  0  0  0  0  0  0  0
  151.6042  139.5124  156.6720 C   0  0  0  0  0  0  0  0  0  0  0  0
  151.3141  139.6512  155.2993 C   0  0  0  0  0  0  0  0  0  0  0  0
  150.8113  138.5407  154.5945 C   0  0  0  0  0  0  0  0  0  0  0  0
  150.6219  137.3203  155.2860 C   0  0  0  0  0  0  0  0  0  0  0  0
  150.1031  136.1374  154.6945 N   0  0  0  0  0  0  0  0  0  0  0  0
  150.0744  134.8896  155.1990 C   0  0  0  0  0  0  0  0  0  0  0  0
  150.4649  134.5863  156.3262 O   0  0  0  0  0  0  0  0  0  0  0  0
  149.4759  133.8140  154.2816 C   0  0  2  0  0  0  0  0  0  0  0  0
  148.0144  134.1206  153.9152 C   0  0  0  0  0  0  0  0  0  0  0  0
  149.5884  132.1523  155.0967 S   0  0  0  0  0  0  0  0  0  0  0  0
  149.0127  131.0015  153.7780 C   0  0  0  0  0  0  0  0  0  0  0  0
  151.0005  131.8513  155.3788 O   0  0  0  0  0  0  0  0  0  0  0  0
  148.6112  132.1168  156.1954 O   0  0  0  0  0  0  0  0  0  0  0  0
  150.9277  137.2923  156.6624 C   0  0  0  0  0  0  0  0  0  0  0  0
  151.4107  138.3525  157.3438 N   0  0  0  0  0  0  0  0  0  0  0  0
  152.5583  140.2917  158.7225 C   0  0  0  0  0  0  0  0  0  0  0  0
  153.2192  141.5239  159.3699 C   0  0  2  0  0  0  0  0  0  0  0  0
  153.6201  141.2645  160.8258 C   0  0  0  0  0  0  0  0  0  0  0  0
  152.2978  142.6120  159.3473 O   0  0  0  0  0  0  0  0  0  0  0  0
  150.6631  144.5188  157.1255 H   0  0  0  0  0  0  0  0  0  0  0  0
  151.4909  145.0339  158.5923 H   0  0  0  0  0  0  0  0  0  0  0  0
  150.0918  143.9682  158.7003 H   0  0  0  0  0  0  0  0  0  0  0  0
  152.7993  143.2589  157.4571 H   0  0  0  0  0  0  0  0  0  0  0  0
  150.2917  141.5381  157.8664 H   0  0  0  0  0  0  0  0  0  0  0  0
  150.9675  142.0180  156.3179 H   0  0  0  0  0  0  0  0  0  0  0  0
  151.4689  140.5930  154.7934 H   0  0  0  0  0  0  0  0  0  0  0  0
  150.5693  138.6524  153.5492 H   0  0  0  0  0  0  0  0  0  0  0  0
  149.6576  136.2636  153.7973 H   0  0  0  0  0  0  0  0  0  0  0  0
  150.0584  133.7593  153.3612 H   0  0  0  0  0  0  0  0  0  0  0  0
  147.9143  135.1148  153.4781 H   0  0  0  0  0  0  0  0  0  0  0  0
  147.3625  134.0698  154.7881 H   0  0  0  0  0  0  0  0  0  0  0  0
  147.6404  133.4033  153.1846 H   0  0  0  0  0  0  0  0  0  0  0  0
  148.9568  129.9913  154.1828 H   0  0  0  0  0  0  0  0  0  0  0  0
  149.7133  131.0104  152.9434 H   0  0  0  0  0  0  0  0  0  0  0  0
  148.0253  131.3056  153.4317 H   0  0  0  0  0  0  0  0  0  0  0  0
  150.7849  136.3884  157.2366 H   0  0  0  0  0  0  0  0  0  0  0  0
  151.7101  139.9638  159.3255 H   0  0  0  0  0  0  0  0  0  0  0  0
  153.2661  139.4628  158.6824 H   0  0  0  0  0  0  0  0  0  0  0  0
  154.1125  141.8010  158.8071 H   0  0  0  0  0  0  0  0  0  0  0  0
  154.3317  140.4415  160.8964 H   0  0  0  0  0  0  0  0  0  0  0  0
  152.7518  141.0104  161.4344 H   0  0  0  0  0  0  0  0  0  0  0  0
  154.0875  142.1468  161.2638 H   0  0  0  0  0  0  0  0  0  0  0  0
  1  2  1  0  0  0  0
  1 24  1  0  0  0  0
  1 25  1  0  0  0  0
  1 26  1  0  0  0  0
  2 23  1  0  0  0  0
  2  3  1  0  0  0  0
  2 27  1  0  0  0  0
  3  4  1  0  0  0  0
  3 28  1  0  0  0  0
  3 29  1  0  0  0  0
  4  5  1  0  0  0  0
  4 20  1  0  0  0  0
  5 19  1  0  0  0  0
  5  6  2  0  0  0  0
  6  7  1  0  0  0  0
  6 30  1  0  0  0  0
  7  8  2  0  0  0  0
  7 31  1  0  0  0  0
  8  9  1  0  0  0  0
  8 18  1  0  0  0  0
  9 10  1  0  0  0  0
  9 32  1  0  0  0  0
 10 11  2  0  0  0  0
 10 12  1  0  0  0  0
 12 13  1  0  0  0  0
 12 14  1  0  0  0  0
 12 33  1  0  0  0  0
 13 34  1  0  0  0  0
 13 35  1  0  0  0  0
 13 36  1  0  0  0  0
 14 15  1  0  0  0  0
 14 16  2  0  0  0  0
 14 17  2  0  0  0  0
 15 37  1  0  0  0  0
 15 38  1  0  0  0  0
 15 39  1  0  0  0  0
 18 19  2  0  0  0  0
 18 40  1  0  0  0  0
 20 21  1  0  0  0  0
 20 41  1  0  0  0  0
 20 42  1  0  0  0  0
 21 22  1  0  0  0  0
 21 23  1  0  0  0  0
 21 43  1  0  0  0  0
 22 44  1  0  0  0  0
 22 45  1  0  0  0  0
 22 46  1  0  0  0  0
M  END
> <s_m_source_file>
AV-unprocessed.smi

> <i_m_source_file_index>
1990

> <i_lp_mmshare_version>
43012

> <i_f3d_flags>
0

> <s_epik_input>
W0NIM11bQ0BASF0xW0NIMl1OKFtDSDJdW0NASF0oTzEpW0NIM10pYzJbY0hdW2NIXWMoW2NIXW4yKVtOSF1DKD1PKVtDQEhdKFtDSDNdKVMoPU8pKD1PKVtDSDNd

> <s_epik_cmdline>
J2VwaWtfcHl0aG9uJywgJy1waCcsICc3LjAnLCAnLXRuJywgJzgnLCAnLW1hJywgJzIwMCcsICctbWV0YWxfYmluZGluZycsICctaW1hZScsICc8aW5maWxlLm1hZT4nLCAnLW9tYWUnLCAnPG91dGZpbGUubWFlPic=

> <r_lp_tautomer_probability>
1

> <r_epik_Ionization_Penalty>
0.000334888

> <r_epik_Ionization_Penalty_Charging>
0

> <r_epik_Ionization_Penalty_Neutral>
0.000334888

> <r_epik_State_Penalty>
0.000200905

> <r_epik_Charging_Adjusted_Penalty>
0.000200905

> <i_epik_Tot_Q>
0

> <i_epik_Tot_abs_Q>
0

> <r_epik_Metal_State_Penalty>
-0

> <b_epik_Metal_Only>
0

> <s_lp_Force_Field>
OPLS_2005

> <r_lp_Energy>
20.1561

> <b_lp_Chiralities_Consistent>
1

> <s_lp_Variant>
AV-unprocessed.smi:1990-2

> <Gold.Version>
5.8.1

> <Gold.Id.Protein>
6NUR|6NUR_protein|mol2

> <Gold.PLP.Fitness>
38.5331

> <Gold.PLP.PLP>
-35.7790

> <Gold.PLP.part.hbond>
-1.0917

> <Gold.PLP.part.metal>
0.0000

> <Gold.PLP.part.buried>
-2.6648

> <Gold.PLP.part.nonpolar>
-31.7456

> <Gold.PLP.part.repulsive>
0.0585

> <Gold.PLP.ligand.clash>
0.0000

> <Gold.PLP.ligand.torsion>
0.2544

> <Gold.PLP.Chemscore.Hbond>
1.0000

> <Gold.PLP.Chemscore.CHOScore>
0.0000

> <Gold.PLP.Chemscore.Metal>
0.0000

> <Gold.Chemscore.Hbonds>
donor molecule, donor type, donor heavy atom, donor atom, acceptor molecule, acceptor atom, score
      L1  H     9    32       P1  7948  1.00

> <Gold.PLP.Chemscore.Internal.Correction>
0.2629

> <Gold.Rescore>
     Score         DG    S(hbond)    S(metal)    S(lipo)     H(rot)  DE(clash)    DE(int)     intcor
     12.44     -15.45       0.91        0.00      92.35       1.52       0.03       2.99       ----

> <Gold.Chemscore.Fitness>
12.4400

> <Gold.Chemscore.DG>
-15.4536

> <Gold.Chemscore.ZeroCoef>
-5.4800

> <Gold.Chemscore.Hbond>
0.9143

> <Gold.Chemscore.Metal>
0.0000

> <Gold.Chemscore.Lipo>
92.3514

> <Gold.Chemscore.Internal_Hbond>
0.0000

> <Gold.Chemscore.DEClash>
0.0278

> <Gold.Chemscore.DEInternal>
2.9858

> <Gold.Chemscore.Rot>
1.5177

> <Gold.Chemscore.Internal.Correction>
   9.000000E+99

> <Gold.Chemscore.Hbonds>
donor molecule, donor type, donor heavy atom, donor atom, acceptor molecule, acceptor atom, score
      L1  H     9    32       P1  7948  0.47

> <Gold.Chemscore.Hbond.Weighted>
-3.0537

> <Gold.Chemscore.Metal.Weighted>
-0.0000

> <Gold.Chemscore.Lipo.Weighted>
-10.8051

> <Gold.Chemscore.Internal_Hbond.Weighted>
0.0000

> <Gold.Chemscore.DEClash.Weighted>
0.0278

> <Gold.Chemscore.DEInternal.Weighted>
2.9858

> <Gold.Chemscore.Rot.Weighted>
3.8853

> <Gold.Chemscore.Internal.Correction.Weighted>
   9.000000E+99

> <Gold.Protein.RotatedTorsions>
[ 6907 6896 6895 6894 ] final -135.01 input  -60.11 | X-H torsion
[ 7974 7965 7964 7962 ] final  -69.34 input  175.53 | X-H torsion
[ 8008 7997 7996 7995 ] final  122.10 input   59.86 | X-H torsion
[ 10167 10162 10161 10158 ] final -139.92 input  -65.29 | X-H torsion
[ 10718 10713 10712 10709 ] final  163.30 input   66.30 | X-H torsion
[ 10763 10752 10751 10750 ] final -103.29 input  -60.55 | X-H torsion
[ 11005 11000 10999 10996 ] final -107.27 input  -57.11 | X-H torsion

> <Gold.Protein.ActiveResidues>
 VAL166  LYS551  ARG553  GLY616  TRP617  ASP618  TYR619  PRO620  LYS621  CYS622 
 ASP623  PHE694  ASN695  SER759  ASP760  ASP761  ALA762  ILE779  LEU786  VAL792 
 PHE793  MET794  SER795  GLU796  ALA797  LYS798  CYS799  TRP800  GLU811  SER814 

> <Gold.Protein.RotatedAtoms>
  150.9927  133.6133  159.2705 H   0  0  0  0  0  0  0  0  0  0  0  0  # atno 6907 bound_to 6896
  151.3348  135.0849  159.9360 H   0  0  0  0  0  0  0  0  0  0  0  0  # atno 6908 bound_to 6896
  152.5251  133.9550  159.7744 H   0  0  0  0  0  0  0  0  0  0  0  0  # atno 6909 bound_to 6896
  145.7050  140.9101  143.0711 H   0  0  0  0  0  0  0  0  0  0  0  0  # atno 7974 bound_to 7965
  156.2714  140.2793  156.1414 H   0  0  0  0  0  0  0  0  0  0  0  0  # atno 8008 bound_to 7997
  155.0949  140.0389  157.2697 H   0  0  0  0  0  0  0  0  0  0  0  0  # atno 8009 bound_to 7997
  154.6860  140.2619  155.6866 H   0  0  0  0  0  0  0  0  0  0  0  0  # atno 8010 bound_to 7997
  139.8333  143.7419  152.2665 H   0  0  0  0  0  0  0  0  0  0  0  0  # atno 10167 bound_to 10162
  157.1105  131.0466  151.2459 H   0  0  0  0  0  0  0  0  0  0  0  0  # atno 10718 bound_to 10713
  154.7796  135.4829  153.9817 H   0  0  0  0  0  0  0  0  0  0  0  0  # atno 10763 bound_to 10752
  153.1476  135.6785  153.8938 H   0  0  0  0  0  0  0  0  0  0  0  0  # atno 10764 bound_to 10752
  153.8593  135.3157  155.3415 H   0  0  0  0  0  0  0  0  0  0  0  0  # atno 10765 bound_to 10752
  141.0963  133.8966  157.1956 H   0  0  0  0  0  0  0  0  0  0  0  0  # atno 11005 bound_to 11000
  144.6958  139.8998  143.7458 LP  0  0  0  0  0  0  0  0  0  0  0  0  # atno 17320 bound_to 7965
  146.0764  139.3752  143.0491 LP  0  0  0  0  0  0  0  0  0  0  0  0  # atno 17321 bound_to 7965
  139.7633  144.7500  151.0332 LP  0  0  0  0  0  0  0  0  0  0  0  0  # atno 17342 bound_to 10162
  140.7805  143.4727  151.0125 LP  0  0  0  0  0  0  0  0  0  0  0  0  # atno 17343 bound_to 10162
  157.4563  130.7627  149.7196 LP  0  0  0  0  0  0  0  0  0  0  0  0  # atno 17370 bound_to 10713
  155.9852  130.3985  150.3275 LP  0  0  0  0  0  0  0  0  0  0  0  0  # atno 17371 bound_to 10713
  139.9800  135.0101  156.9726 LP  0  0  0  0  0  0  0  0  0  0  0  0  # atno 17394 bound_to 11000
  140.5133  134.0980  155.7275 LP  0  0  0  0  0  0  0  0  0  0  0  0  # atno 17395 bound_to 11000

$$$$
