AV-unprocessed.smi:848|AV-procd|sdf|3940|dock7
  -GOLD-   22720 1403D 1   1.00000     0.00000
 Structure written by MMmdl.
 46 48  0  0  0  0  0  0  0  0  1 V2000
  151.2303  145.3801  159.4184 C   0  0  0  0  0  0  0  0  0  0  0  0
  151.8206  144.0052  159.6552 C   0  0  0  0  0  0  0  0  0  0  0  0
  152.3895  143.6803  160.9028 C   0  0  0  0  0  0  0  0  0  0  0  0
  152.9418  142.4020  161.1155 C   0  0  0  0  0  0  0  0  0  0  0  0
  153.5477  142.0483  162.4581 C   0  0  0  0  0  0  0  0  0  0  0  0
  152.9229  141.4504  160.0759 C   0  0  0  0  0  0  0  0  0  0  0  0
  152.3572  141.7588  158.8219 C   0  0  0  0  0  0  0  0  0  0  0  0
  152.3861  140.7681  157.8642 O   0  0  0  0  0  0  0  0  0  0  0  0
  151.6859  140.9847  156.6451 C   0  0  0  0  0  0  0  0  0  0  0  0
  151.6717  139.6953  155.8070 C   0  0  1  0  0  0  0  0  0  0  0  0
  153.0023  139.2861  155.5608 O   0  0  0  0  0  0  0  0  0  0  0  0
  150.8318  138.5589  156.4258 C   0  0  0  0  0  0  0  0  0  0  0  0
  149.4915  138.9955  156.7938 N   0  0  0  0  0  0  0  0  0  0  0  0
  148.7103  138.5548  157.8128 C   0  0  0  0  0  0  0  0  0  0  0  0
  149.1794  137.4840  158.7569 C   0  0  0  0  0  0  0  0  0  0  0  0
  148.3558  137.3190  159.8938 O   0  0  0  0  0  0  0  0  0  0  0  0
  147.5161  139.1435  157.9179 N   0  0  0  0  0  0  0  0  0  0  0  0
  147.5231  140.0426  156.8704 C   0  0  0  0  0  0  0  0  0  0  0  0
  146.5411  140.9655  156.4446 C   0  0  0  0  0  0  0  0  0  0  0  0
  146.7782  141.7966  155.3300 C   0  0  0  0  0  0  0  0  0  0  0  0
  147.9978  141.7170  154.6269 C   0  0  0  0  0  0  0  0  0  0  0  0
  148.9893  140.8039  155.0345 C   0  0  0  0  0  0  0  0  0  0  0  0
  148.7471  139.9766  156.1474 C   0  0  0  0  0  0  0  0  0  0  0  0
  151.8031  143.0482  158.6200 C   0  0  0  0  0  0  0  0  0  0  0  0
  151.2255  145.9747  160.3323 H   0  0  0  0  0  0  0  0  0  0  0  0
  150.2032  145.2960  159.0626 H   0  0  0  0  0  0  0  0  0  0  0  0
  151.8116  145.9149  158.6668 H   0  0  0  0  0  0  0  0  0  0  0  0
  152.4030  144.4114  161.6984 H   0  0  0  0  0  0  0  0  0  0  0  0
  154.3713  141.3434  162.3398 H   0  0  0  0  0  0  0  0  0  0  0  0
  152.7942  141.5923  163.1005 H   0  0  0  0  0  0  0  0  0  0  0  0
  153.9339  142.9368  162.9585 H   0  0  0  0  0  0  0  0  0  0  0  0
  153.3458  140.4697  160.2398 H   0  0  0  0  0  0  0  0  0  0  0  0
  150.6572  141.2661  156.8760 H   0  0  0  0  0  0  0  0  0  0  0  0
  152.1318  141.7997  156.0721 H   0  0  0  0  0  0  0  0  0  0  0  0
  151.2514  139.9432  154.8317 H   0  0  0  0  0  0  0  0  0  0  0  0
  153.0913  138.3811  155.8180 H   0  0  0  0  0  0  0  0  0  0  0  0
  150.7626  137.7095  155.7464 H   0  0  0  0  0  0  0  0  0  0  0  0
  151.3232  138.1846  157.3246 H   0  0  0  0  0  0  0  0  0  0  0  0
  149.2257  136.5298  158.2332 H   0  0  0  0  0  0  0  0  0  0  0  0
  150.1897  137.7237  159.0890 H   0  0  0  0  0  0  0  0  0  0  0  0
  147.8474  136.5305  159.7841 H   0  0  0  0  0  0  0  0  0  0  0  0
  145.6042  141.0339  156.9773 H   0  0  0  0  0  0  0  0  0  0  0  0
  146.0205  142.4985  155.0137 H   0  0  0  0  0  0  0  0  0  0  0  0
  148.1715  142.3578  153.7750 H   0  0  0  0  0  0  0  0  0  0  0  0
  149.9246  140.7403  154.4987 H   0  0  0  0  0  0  0  0  0  0  0  0
  151.3598  143.3279  157.6765 H   0  0  0  0  0  0  0  0  0  0  0  0
  1  2  1  0  0  0  0
  1 25  1  0  0  0  0
  1 26  1  0  0  0  0
  1 27  1  0  0  0  0
  2 24  1  0  0  0  0
  2  3  2  0  0  0  0
  3  4  1  0  0  0  0
  3 28  1  0  0  0  0
  4  5  1  0  0  0  0
  4  6  2  0  0  0  0
  5 29  1  0  0  0  0
  5 30  1  0  0  0  0
  5 31  1  0  0  0  0
  6  7  1  0  0  0  0
  6 32  1  0  0  0  0
  7  8  1  0  0  0  0
  7 24  2  0  0  0  0
  8  9  1  0  0  0  0
  9 10  1  0  0  0  0
  9 33  1  0  0  0  0
  9 34  1  0  0  0  0
 10 11  1  0  0  0  0
 10 12  1  0  0  0  0
 10 35  1  0  0  0  0
 11 36  1  0  0  0  0
 12 13  1  0  0  0  0
 12 37  1  0  0  0  0
 12 38  1  0  0  0  0
 13 23  1  0  0  0  0
 13 14  1  0  0  0  0
 14 15  1  0  0  0  0
 14 17  2  0  0  0  0
 15 16  1  0  0  0  0
 15 39  1  0  0  0  0
 15 40  1  0  0  0  0
 16 41  1  0  0  0  0
 17 18  1  0  0  0  0
 18 23  2  0  0  0  0
 18 19  1  0  0  0  0
 19 20  2  0  0  0  0
 19 42  1  0  0  0  0
 20 21  1  0  0  0  0
 20 43  1  0  0  0  0
 21 22  2  0  0  0  0
 21 44  1  0  0  0  0
 22 23  1  0  0  0  0
 22 45  1  0  0  0  0
 24 46  1  0  0  0  0
M  END
> <s_m_source_file>
AV-unprocessed.smi

> <i_m_source_file_index>
848

> <i_lp_mmshare_version>
43012

> <i_f3d_flags>
0

> <s_epik_input>
W0NIM11jMVtjSF1jKFtDSDNdKVtjSF1jKFtjSF0xKU9bQ0gyXVtDQEhdKFtPSF0pW0NIMl1uKGMobjIpW0NIMl1bT0hdKWMoYzIzKVtjSF1bY0hdW2NIXVtjSF0z

> <s_epik_cmdline>
J2VwaWtfcHl0aG9uJywgJy1waCcsICc3LjAnLCAnLXRuJywgJzgnLCAnLW1hJywgJzIwMCcsICctbWV0YWxfYmluZGluZycsICctaW1hZScsICc8aW5maWxlLm1hZT4nLCAnLW9tYWUnLCAnPG91dGZpbGUubWFlPic=

> <r_lp_tautomer_probability>
1

> <r_epik_Ionization_Penalty>
0.0554234

> <r_epik_Ionization_Penalty_Charging>
0

> <r_epik_Ionization_Penalty_Neutral>
0.0554234

> <r_epik_State_Penalty>
0.0476717

> <r_epik_Charging_Adjusted_Penalty>
0.0476717

> <i_epik_Tot_Q>
0

> <i_epik_Tot_abs_Q>
0

> <r_epik_Metal_State_Penalty>
4.96399e-05

> <b_epik_Metal_Only>
0

> <s_lp_Force_Field>
OPLS_2005

> <r_lp_Energy>
17.6838

> <b_lp_Chiralities_Consistent>
1

> <s_lp_Variant>
AV-unprocessed.smi:848-2

> <Gold.Version>
5.8.1

> <Gold.Id.Protein>
6NUR|6NUR_protein|mol2

> <Gold.PLP.Fitness>
50.4320

> <Gold.PLP.PLP>
-45.8915

> <Gold.PLP.part.hbond>
-4.1108

> <Gold.PLP.part.metal>
0.0000

> <Gold.PLP.part.buried>
-5.5024

> <Gold.PLP.part.nonpolar>
-36.9500

> <Gold.PLP.part.repulsive>
0.0000

> <Gold.PLP.ligand.clash>
0.0000

> <Gold.PLP.ligand.torsion>
0.5948

> <Gold.PLP.Chemscore.Hbond>
1.8746

> <Gold.PLP.Chemscore.CHOScore>
0.0000

> <Gold.PLP.Chemscore.Metal>
0.0000

> <Gold.Chemscore.Hbonds>
donor molecule, donor type, donor heavy atom, donor atom, acceptor molecule, acceptor atom, score
      P1  H  6931  6943       L1    16  0.17
      P1  H  6934  6947       L1    16  0.19
      P1  H  7997  8010       L1    11  1.00

> <Gold.PLP.Chemscore.Internal.Correction>
0.1062

> <Gold.Rescore>
     Score         DG    S(hbond)    S(metal)    S(lipo)     H(rot)  DE(clash)    DE(int)     intcor
     17.47     -19.13       1.56        0.00     136.91       2.96       0.16       1.51       ----

> <Gold.Chemscore.Fitness>
17.4651

> <Gold.Chemscore.DG>
-19.1340

> <Gold.Chemscore.ZeroCoef>
-5.4800

> <Gold.Chemscore.Hbond>
1.5578

> <Gold.Chemscore.Metal>
0.0000

> <Gold.Chemscore.Lipo>
136.9106

> <Gold.Chemscore.Internal_Hbond>
0.0000

> <Gold.Chemscore.DEClash>
0.1615

> <Gold.Chemscore.DEInternal>
1.5074

> <Gold.Chemscore.Rot>
2.9561

> <Gold.Chemscore.Internal.Correction>
   9.000000E+99

> <Gold.Chemscore.Hbonds>
donor molecule, donor type, donor heavy atom, donor atom, acceptor molecule, acceptor atom, score
      P1  H  6931  6943       L1    16  0.16
      P1  H  6934  6947       L1    16  0.16
      P1  H  7997  8010       L1    11  0.77

> <Gold.Chemscore.Hbond.Weighted>
-5.2031

> <Gold.Chemscore.Metal.Weighted>
-0.0000

> <Gold.Chemscore.Lipo.Weighted>
-16.0185

> <Gold.Chemscore.Internal_Hbond.Weighted>
0.0000

> <Gold.Chemscore.DEClash.Weighted>
0.1615

> <Gold.Chemscore.DEInternal.Weighted>
1.5074

> <Gold.Chemscore.Rot.Weighted>
7.5677

> <Gold.Chemscore.Internal.Correction.Weighted>
   9.000000E+99

> <Gold.Protein.RotatedTorsions>
[ 6907 6896 6895 6894 ] final  -74.18 input  -60.11 | X-H torsion
[ 7974 7965 7964 7962 ] final   70.84 input  175.53 | X-H torsion
[ 8008 7997 7996 7995 ] final  106.93 input   59.86 | X-H torsion
[ 10167 10162 10161 10158 ] final   92.77 input  -65.29 | X-H torsion
[ 10718 10713 10712 10709 ] final   54.73 input   66.30 | X-H torsion
[ 10763 10752 10751 10750 ] final  -42.33 input  -60.55 | X-H torsion
[ 11005 11000 10999 10996 ] final  123.69 input  -57.11 | X-H torsion

> <Gold.Protein.ActiveResidues>
 VAL166  LYS551  ARG553  GLY616  TRP617  ASP618  TYR619  PRO620  LYS621  CYS622 
 ASP623  PHE694  ASN695  SER759  ASP760  ASP761  ALA762  ILE779  LEU786  VAL792 
 PHE793  MET794  SER795  GLU796  ALA797  LYS798  CYS799  TRP800  GLU811  SER814 

> <Gold.Protein.RotatedAtoms>
  150.7102  134.4907  159.5513 H   0  0  0  0  0  0  0  0  0  0  0  0  # atno 6907 bound_to 6896
  152.2525  134.8115  160.0453 H   0  0  0  0  0  0  0  0  0  0  0  0  # atno 6908 bound_to 6896
  151.8858  133.3470  159.3818 H   0  0  0  0  0  0  0  0  0  0  0  0  # atno 6909 bound_to 6896
  145.7732  139.2853  143.1309 H   0  0  0  0  0  0  0  0  0  0  0  0  # atno 7974 bound_to 7965
  156.1783  140.3104  155.9101 H   0  0  0  0  0  0  0  0  0  0  0  0  # atno 8008 bound_to 7997
  155.3439  140.0467  157.3062 H   0  0  0  0  0  0  0  0  0  0  0  0  # atno 8009 bound_to 7997
  154.5315  140.2232  155.8807 H   0  0  0  0  0  0  0  0  0  0  0  0  # atno 8010 bound_to 7997
  139.8244  144.6716  150.9478 H   0  0  0  0  0  0  0  0  0  0  0  0  # atno 10167 bound_to 10162
  157.5283  130.8612  149.8652 H   0  0  0  0  0  0  0  0  0  0  0  0  # atno 10718 bound_to 10713
  153.9772  135.6721  153.4749 H   0  0  0  0  0  0  0  0  0  0  0  0  # atno 10763 bound_to 10752
  153.0765  135.4946  154.8411 H   0  0  0  0  0  0  0  0  0  0  0  0  # atno 10764 bound_to 10752
  154.7185  135.3112  154.9047 H   0  0  0  0  0  0  0  0  0  0  0  0  # atno 10765 bound_to 10752
  139.9324  134.9641  156.8297 H   0  0  0  0  0  0  0  0  0  0  0  0  # atno 11005 bound_to 11000
  146.0149  140.8401  142.9952 LP  0  0  0  0  0  0  0  0  0  0  0  0  # atno 17320 bound_to 7965
  144.6809  140.2544  143.7327 LP  0  0  0  0  0  0  0  0  0  0  0  0  # atno 17321 bound_to 7965
  140.7811  143.4060  151.1070 LP  0  0  0  0  0  0  0  0  0  0  0  0  # atno 17342 bound_to 10162
  139.7718  143.8483  152.3122 LP  0  0  0  0  0  0  0  0  0  0  0  0  # atno 17343 bound_to 10162
  156.0403  130.3740  150.1453 LP  0  0  0  0  0  0  0  0  0  0  0  0  # atno 17370 bound_to 10713
  156.9638  130.9813  151.3473 LP  0  0  0  0  0  0  0  0  0  0  0  0  # atno 17371 bound_to 10713
  140.6166  134.0032  155.7600 LP  0  0  0  0  0  0  0  0  0  0  0  0  # atno 17394 bound_to 11000
  141.0920  133.9902  157.3222 LP  0  0  0  0  0  0  0  0  0  0  0  0  # atno 17395 bound_to 11000

$$$$
