AV-unprocessed.smi:2322|AV-procd|sdf|9288|dock3
  -GOLD-   2272012513D 1   1.00000     0.00000
 Structure written by MMmdl.
 38 40  0  0  0  0  0  0  0  0  1 V2000
  147.7119  132.8356  152.3224 C   0  0  0  0  0  0  0  0  0  0  0  0
  148.6130  132.3949  153.3699 N   0  0  0  0  0  0  0  0  0  0  0  0
  148.7165  131.0843  153.6917 N   0  0  0  0  0  0  0  0  0  0  0  0
  149.6213  131.0931  154.6699 C   0  0  0  0  0  0  0  0  0  0  0  0
  150.1189  132.3178  155.0132 N   0  0  0  0  0  0  0  0  0  0  0  0
  149.4444  133.0830  154.1588 C   0  0  0  0  0  0  0  0  0  0  0  0
  149.5285  134.5008  154.0259 N   0  0  0  0  0  0  0  0  0  0  0  0
  150.0599  135.4401  154.8361 C   0  0  0  0  0  0  0  0  0  0  0  0
  150.5851  135.1314  155.9045 O   0  0  0  0  0  0  0  0  0  0  0  0
  149.9725  136.7108  154.4095 N   0  0  0  0  0  0  0  0  0  0  0  0
  150.4620  137.8820  155.1292 C   0  0  1  0  0  0  0  0  0  0  0  0
  151.9565  138.0804  154.8442 C   0  0  0  0  0  0  0  0  0  0  0  0
  152.4657  139.3760  155.4938 C   0  0  0  0  0  0  0  0  0  0  0  0
  151.7024  140.4929  155.0424 O   0  0  0  0  0  0  0  0  0  0  0  0
  150.3014  140.4237  155.3131 C   0  0  2  0  0  0  0  0  0  0  0  0
  150.0008  140.5839  156.7974 C   0  0  0  0  0  0  0  0  0  0  0  0
  150.1915  141.9162  157.4839 C   0  0  0  0  0  0  0  0  0  0  0  0
  151.1216  140.7673  157.7930 C   0  0  0  0  0  0  0  0  0  0  0  0
  149.6939  139.1455  154.7023 C   0  0  0  0  0  0  0  0  0  0  0  0
  148.2816  133.3209  151.5298 H   0  0  0  0  0  0  0  0  0  0  0  0
  146.9934  133.5460  152.7317 H   0  0  0  0  0  0  0  0  0  0  0  0
  147.1695  131.9886  151.9003 H   0  0  0  0  0  0  0  0  0  0  0  0
  149.9344  130.1811  155.1562 H   0  0  0  0  0  0  0  0  0  0  0  0
  149.1259  134.8636  153.1743 H   0  0  0  0  0  0  0  0  0  0  0  0
  149.5249  136.8769  153.5188 H   0  0  0  0  0  0  0  0  0  0  0  0
  150.3335  137.7195  156.2007 H   0  0  0  0  0  0  0  0  0  0  0  0
  152.5290  137.2287  155.2132 H   0  0  0  0  0  0  0  0  0  0  0  0
  152.1268  138.1285  153.7676 H   0  0  0  0  0  0  0  0  0  0  0  0
  152.4367  139.3036  156.5810 H   0  0  0  0  0  0  0  0  0  0  0  0
  153.5089  139.5397  155.2237 H   0  0  0  0  0  0  0  0  0  0  0  0
  149.8545  141.2773  154.8020 H   0  0  0  0  0  0  0  0  0  0  0  0
  149.1543  139.9992  157.1504 H   0  0  0  0  0  0  0  0  0  0  0  0
  150.5888  142.7397  156.8938 H   0  0  0  0  0  0  0  0  0  0  0  0
  149.4659  142.1959  158.2451 H   0  0  0  0  0  0  0  0  0  0  0  0
  151.0173  140.2807  158.7605 H   0  0  0  0  0  0  0  0  0  0  0  0
  152.1376  140.8262  157.4077 H   0  0  0  0  0  0  0  0  0  0  0  0
  149.7239  139.2315  153.6152 H   0  0  0  0  0  0  0  0  0  0  0  0
  148.6403  139.0658  154.9728 H   0  0  0  0  0  0  0  0  0  0  0  0
  1  2  1  0  0  0  0
  1 20  1  0  0  0  0
  1 21  1  0  0  0  0
  1 22  1  0  0  0  0
  2  6  1  0  0  0  0
  2  3  1  0  0  0  0
  3  4  2  0  0  0  0
  4  5  1  0  0  0  0
  4 23  1  0  0  0  0
  5  6  2  0  0  0  0
  6  7  1  0  0  0  0
  7  8  1  0  0  0  0
  7 24  1  0  0  0  0
  8  9  2  0  0  0  0
  8 10  1  0  0  0  0
 10 11  1  0  0  0  0
 10 25  1  0  0  0  0
 11 19  1  0  0  0  0
 11 12  1  0  0  0  0
 11 26  1  0  0  0  0
 12 13  1  0  0  0  0
 12 27  1  0  0  0  0
 12 28  1  0  0  0  0
 13 14  1  0  0  0  0
 13 29  1  0  0  0  0
 13 30  1  0  0  0  0
 14 15  1  0  0  0  0
 15 16  1  0  0  0  0
 15 19  1  0  0  0  0
 15 31  1  0  0  0  0
 16 18  1  0  0  0  0
 16 17  1  0  0  0  0
 16 32  1  0  0  0  0
 17 18  1  0  0  0  0
 17 33  1  0  0  0  0
 17 34  1  0  0  0  0
 18 35  1  0  0  0  0
 18 36  1  0  0  0  0
 19 37  1  0  0  0  0
 19 38  1  0  0  0  0
M  END
> <s_m_source_file>
AV-unprocessed.smi

> <i_m_source_file_index>
2322

> <i_lp_mmshare_version>
43012

> <i_f3d_flags>
0

> <s_epik_input>
W0NIM11uMW5bY0hdbmMxW05IXUMoPU8pW05IXVtDQEBIXTJbQ0gyXVtDSDJdT1tDQEhdKFtDSDJdMilbQ0hdM1tDSDJdW0NIMl0z

> <s_epik_cmdline>
J2VwaWtfcHl0aG9uJywgJy1waCcsICc3LjAnLCAnLXRuJywgJzgnLCAnLW1hJywgJzIwMCcsICctbWV0YWxfYmluZGluZycsICctaW1hZScsICc8aW5maWxlLm1hZT4nLCAnLW9tYWUnLCAnPG91dGZpbGUubWFlPic=

> <r_lp_tautomer_probability>
1

> <r_epik_Ionization_Penalty>
2.16399e-05

> <r_epik_Ionization_Penalty_Charging>
0

> <r_epik_Ionization_Penalty_Neutral>
2.16399e-05

> <r_epik_State_Penalty>
-0

> <r_epik_Charging_Adjusted_Penalty>
0

> <i_epik_Tot_Q>
0

> <i_epik_Tot_abs_Q>
0

> <r_epik_Metal_State_Penalty>
-0

> <b_epik_Metal_Only>
0

> <s_lp_Force_Field>
OPLS_2005

> <r_lp_Energy>
22.4811

> <b_lp_Chiralities_Consistent>
1

> <s_lp_Variant>
AV-unprocessed.smi:2322-4

> <Gold.Version>
5.8.1

> <Gold.Id.Protein>
6NUR|6NUR_protein|mol2

> <Gold.PLP.Fitness>
39.2878

> <Gold.PLP.PLP>
-32.7343

> <Gold.PLP.part.hbond>
-2.7347

> <Gold.PLP.part.metal>
0.0000

> <Gold.PLP.part.buried>
-1.8051

> <Gold.PLP.part.nonpolar>
-27.9279

> <Gold.PLP.part.repulsive>
0.2445

> <Gold.PLP.ligand.clash>
0.0000

> <Gold.PLP.ligand.torsion>
1.2229

> <Gold.PLP.Chemscore.Hbond>
2.6400

> <Gold.PLP.Chemscore.CHOScore>
0.0000

> <Gold.PLP.Chemscore.Metal>
0.0000

> <Gold.Chemscore.Hbonds>
donor molecule, donor type, donor heavy atom, donor atom, acceptor molecule, acceptor atom, score
      L1  H     7    24       P1  7948  0.65
      L1  H    10    25       P1  7948  0.98
      P1  H  7989  7998       L1    14  0.80

> <Gold.PLP.Chemscore.Internal.Correction>
1.0794

> <Gold.Rescore>
     Score         DG    S(hbond)    S(metal)    S(lipo)     H(rot)  DE(clash)    DE(int)     intcor
     13.06     -15.46       2.19        0.00      51.33       1.31       0.00       2.39       ----

> <Gold.Chemscore.Fitness>
13.0627

> <Gold.Chemscore.DG>
-15.4550

> <Gold.Chemscore.ZeroCoef>
-5.4800

> <Gold.Chemscore.Hbond>
2.1903

> <Gold.Chemscore.Metal>
0.0000

> <Gold.Chemscore.Lipo>
51.3324

> <Gold.Chemscore.Internal_Hbond>
0.0000

> <Gold.Chemscore.DEClash>
0.0004

> <Gold.Chemscore.DEInternal>
2.3920

> <Gold.Chemscore.Rot>
1.3072

> <Gold.Chemscore.Internal.Correction>
   9.000000E+99

> <Gold.Chemscore.Hbonds>
donor molecule, donor type, donor heavy atom, donor atom, acceptor molecule, acceptor atom, score
      L1  H     7    24       P1  7948  0.05
      L1  H    10    25       P1  7948  0.77
      P1  H  7989  7998       L1    14  0.19

> <Gold.Chemscore.Hbond.Weighted>
-7.3156

> <Gold.Chemscore.Metal.Weighted>
-0.0000

> <Gold.Chemscore.Lipo.Weighted>
-6.0059

> <Gold.Chemscore.Internal_Hbond.Weighted>
0.0000

> <Gold.Chemscore.DEClash.Weighted>
0.0004

> <Gold.Chemscore.DEInternal.Weighted>
2.3920

> <Gold.Chemscore.Rot.Weighted>
3.3464

> <Gold.Chemscore.Internal.Correction.Weighted>
   9.000000E+99

> <Gold.Protein.RotatedTorsions>
[ 6907 6896 6895 6894 ] final  152.92 input  -60.11 | X-H torsion
[ 7974 7965 7964 7962 ] final  132.28 input  175.53 | X-H torsion
[ 8008 7997 7996 7995 ] final -112.56 input   59.86 | X-H torsion
[ 10167 10162 10161 10158 ] final   17.46 input  -65.29 | X-H torsion
[ 10718 10713 10712 10709 ] final    2.32 input   66.30 | X-H torsion
[ 10763 10752 10751 10750 ] final   83.26 input  -60.55 | X-H torsion
[ 11005 11000 10999 10996 ] final  110.11 input  -57.11 | X-H torsion

> <Gold.Protein.ActiveResidues>
 VAL166  LYS551  ARG553  GLY616  TRP617  ASP618  TYR619  PRO620  LYS621  CYS622 
 ASP623  PHE694  ASN695  SER759  ASP760  ASP761  ALA762  ILE779  LEU786  VAL792 
 PHE793  MET794  SER795  GLU796  ALA797  LYS798  CYS799  TRP800  GLU811  SER814 

> <Gold.Protein.RotatedAtoms>
  152.0799  133.4148  159.4496 H   0  0  0  0  0  0  0  0  0  0  0  0  # atno 6907 bound_to 6896
  150.6862  134.2994  159.4709 H   0  0  0  0  0  0  0  0  0  0  0  0  # atno 6908 bound_to 6896
  152.0834  134.9455  160.0624 H   0  0  0  0  0  0  0  0  0  0  0  0  # atno 6909 bound_to 6896
  144.9984  139.4336  143.5304 H   0  0  0  0  0  0  0  0  0  0  0  0  # atno 7974 bound_to 7965
  155.0071  140.0394  157.2384 H   0  0  0  0  0  0  0  0  0  0  0  0  # atno 8008 bound_to 7997
  154.7492  140.2763  155.6283 H   0  0  0  0  0  0  0  0  0  0  0  0  # atno 8009 bound_to 7997
  156.2881  140.2650  156.2241 H   0  0  0  0  0  0  0  0  0  0  0  0  # atno 8010 bound_to 7997
  140.5724  143.9135  150.6723 H   0  0  0  0  0  0  0  0  0  0  0  0  # atno 10167 bound_to 10162
  156.8613  130.5587  149.5663 H   0  0  0  0  0  0  0  0  0  0  0  0  # atno 10718 bound_to 10713
  153.1275  135.4698  154.9296 H   0  0  0  0  0  0  0  0  0  0  0  0  # atno 10763 bound_to 10752
  154.7634  135.3138  154.8337 H   0  0  0  0  0  0  0  0  0  0  0  0  # atno 10764 bound_to 10752
  153.8887  135.6887  153.4816 H   0  0  0  0  0  0  0  0  0  0  0  0  # atno 10765 bound_to 10752
  139.8875  134.9476  156.6229 H   0  0  0  0  0  0  0  0  0  0  0  0  # atno 11005 bound_to 11000
  146.3447  139.9358  142.8747 LP  0  0  0  0  0  0  0  0  0  0  0  0  # atno 17320 bound_to 7965
  145.2187  140.9926  143.4058 LP  0  0  0  0  0  0  0  0  0  0  0  0  # atno 17321 bound_to 7965
  140.2614  143.3521  152.1319 LP  0  0  0  0  0  0  0  0  0  0  0  0  # atno 17342 bound_to 10162
  139.5125  144.6917  151.5741 LP  0  0  0  0  0  0  0  0  0  0  0  0  # atno 17343 bound_to 10162
  156.0775  130.5794  150.9501 LP  0  0  0  0  0  0  0  0  0  0  0  0  # atno 17370 bound_to 10713
  157.6248  131.0926  150.8554 LP  0  0  0  0  0  0  0  0  0  0  0  0  # atno 17371 bound_to 10713
  140.7725  133.8726  155.8503 LP  0  0  0  0  0  0  0  0  0  0  0  0  # atno 17394 bound_to 11000
  140.9829  134.1381  157.4478 LP  0  0  0  0  0  0  0  0  0  0  0  0  # atno 17395 bound_to 11000

$$$$
