AV-unprocessed.smi:3142|AV-procd|sdf|11970|dock3
  -GOLD-   2272017373D 1   1.00000     0.00000
 Structure written by MMmdl.
 36 38  0  0  0  0  0  0  0  0  1 V2000
  151.7598  139.3100  155.7759 C   0  0  0  0  0  0  0  0  0  0  0  0
  151.0951  140.6941  155.6470 C   0  0  2  0  0  0  0  0  0  0  0  0
  150.8987  141.3976  156.9998 C   0  0  0  0  0  0  0  0  0  0  0  0
  149.7881  141.8030  157.3444 O   0  0  0  0  0  0  0  0  0  0  0  0
  151.9998  141.5359  157.7554 N   0  0  0  0  0  0  0  0  0  0  0  0
  152.0674  142.1909  159.0566 C   0  0  0  0  0  0  0  0  0  0  0  0
  152.7010  143.5657  158.9507 C   0  0  0  0  0  0  0  0  0  0  0  0
  152.0898  144.7710  159.6253 C   0  0  0  0  0  0  0  0  0  0  0  0
  152.0646  144.6519  158.1177 C   0  0  0  0  0  0  0  0  0  0  0  0
  152.7937  141.3504  160.0934 C   0  0  0  0  0  0  0  0  0  0  0  0
  153.4233  141.9791  161.3139 C   0  0  0  0  0  0  0  0  0  0  0  0
  154.2977  141.3945  160.2286 C   0  0  0  0  0  0  0  0  0  0  0  0
  149.8297  140.6098  154.9310 N   0  0  0  0  0  0  0  0  0  0  0  0
  148.9890  141.6659  154.6005 C   0  0  0  0  0  0  0  0  0  0  0  0
  147.9061  141.1213  153.9485 C   0  0  0  0  0  0  0  0  0  0  0  0
  148.0521  139.7389  153.8712 N   0  0  0  0  0  0  0  0  0  0  0  0
  149.2113  139.5093  154.4741 C   0  0  0  0  0  0  0  0  0  0  0  0
  152.7242  139.3806  156.2801 H   0  0  0  0  0  0  0  0  0  0  0  0
  151.9379  138.8723  154.7932 H   0  0  0  0  0  0  0  0  0  0  0  0
  151.1401  138.6117  156.3399 H   0  0  0  0  0  0  0  0  0  0  0  0
  151.7641  141.3223  155.0564 H   0  0  0  0  0  0  0  0  0  0  0  0
  152.8675  141.1723  157.3887 H   0  0  0  0  0  0  0  0  0  0  0  0
  151.0472  142.3433  159.4152 H   0  0  0  0  0  0  0  0  0  0  0  0
  153.7891  143.5394  158.9329 H   0  0  0  0  0  0  0  0  0  0  0  0
  151.1461  144.6401  160.1511 H   0  0  0  0  0  0  0  0  0  0  0  0
  152.7694  145.4998  160.0618 H   0  0  0  0  0  0  0  0  0  0  0  0
  152.7273  145.3011  157.5491 H   0  0  0  0  0  0  0  0  0  0  0  0
  151.1083  144.4336  157.6463 H   0  0  0  0  0  0  0  0  0  0  0  0
  152.3415  140.3722  160.2481 H   0  0  0  0  0  0  0  0  0  0  0  0
  153.3935  143.0633  161.4016 H   0  0  0  0  0  0  0  0  0  0  0  0
  153.3511  141.4336  162.2523 H   0  0  0  0  0  0  0  0  0  0  0  0
  154.8096  140.4587  160.4439 H   0  0  0  0  0  0  0  0  0  0  0  0
  154.8478  142.0934  159.6024 H   0  0  0  0  0  0  0  0  0  0  0  0
  149.2234  142.6903  154.8499 H   0  0  0  0  0  0  0  0  0  0  0  0
  147.0381  141.6142  153.5361 H   0  0  0  0  0  0  0  0  0  0  0  0
  149.6188  138.5154  154.5902 H   0  0  0  0  0  0  0  0  0  0  0  0
  1  2  1  0  0  0  0
  1 18  1  0  0  0  0
  1 19  1  0  0  0  0
  1 20  1  0  0  0  0
  2  3  1  0  0  0  0
  2 13  1  0  0  0  0
  2 21  1  0  0  0  0
  3  4  2  0  0  0  0
  3  5  1  0  0  0  0
  5  6  1  0  0  0  0
  5 22  1  0  0  0  0
  6  7  1  0  0  0  0
  6 10  1  0  0  0  0
  6 23  1  0  0  0  0
  7  9  1  0  0  0  0
  7  8  1  0  0  0  0
  7 24  1  0  0  0  0
  8  9  1  0  0  0  0
  8 25  1  0  0  0  0
  8 26  1  0  0  0  0
  9 27  1  0  0  0  0
  9 28  1  0  0  0  0
 10 12  1  0  0  0  0
 10 11  1  0  0  0  0
 10 29  1  0  0  0  0
 11 12  1  0  0  0  0
 11 30  1  0  0  0  0
 11 31  1  0  0  0  0
 12 32  1  0  0  0  0
 12 33  1  0  0  0  0
 13 17  1  0  0  0  0
 13 14  1  0  0  0  0
 14 15  2  0  0  0  0
 14 34  1  0  0  0  0
 15 16  1  0  0  0  0
 15 35  1  0  0  0  0
 16 17  2  0  0  0  0
 17 36  1  0  0  0  0
M  END
> <s_m_source_file>
AV-unprocessed.smi

> <i_m_source_file_index>
3142

> <i_lp_mmshare_version>
43012

> <i_f3d_flags>
0

> <s_epik_input>
W2NIXTFuW2NIXVtjSF1uMVtDQEhdKFtDSDNdKUMoPU8pW05IXVtDSF0oW0NIXTJbQ0gyXVtDSDJdMilbQ0hdM1tDSDJdW0NIMl0z

> <s_epik_cmdline>
J2VwaWtfcHl0aG9uJywgJy1waCcsICc3LjAnLCAnLXRuJywgJzgnLCAnLW1hJywgJzIwMCcsICctbWV0YWxfYmluZGluZycsICctaW1hZScsICc8aW5maWxlLm1hZT4nLCAnLW9tYWUnLCAnPG91dGZpbGUubWFlPic=

> <r_lp_tautomer_probability>
1

> <r_epik_Ionization_Penalty>
0.32285

> <r_epik_Ionization_Penalty_Charging>
0.32285

> <r_epik_Ionization_Penalty_Neutral>
3.37967e-08

> <r_epik_State_Penalty>
0.317502

> <r_epik_Charging_Adjusted_Penalty>
0.640352

> <i_epik_Tot_Q>
0

> <i_epik_Tot_abs_Q>
0

> <r_epik_Metal_State_Penalty>
0.20415

> <b_epik_Metal_Only>
0

> <s_lp_Force_Field>
OPLS_2005

> <r_lp_Energy>
29.0844

> <b_lp_Chiralities_Consistent>
1

> <s_lp_Variant>
AV-unprocessed.smi:3142-1

> <Gold.Version>
5.8.1

> <Gold.Id.Protein>
6NUR|6NUR_protein|mol2

> <Gold.PLP.Fitness>
46.6011

> <Gold.PLP.PLP>
-44.1382

> <Gold.PLP.part.hbond>
0.0000

> <Gold.PLP.part.metal>
0.0000

> <Gold.PLP.part.buried>
-0.4187

> <Gold.PLP.part.nonpolar>
-43.1793

> <Gold.PLP.part.repulsive>
0.6208

> <Gold.PLP.ligand.clash>
0.0000

> <Gold.PLP.ligand.torsion>
1.3719

> <Gold.PLP.Chemscore.Hbond>
0.0000

> <Gold.PLP.Chemscore.CHOScore>
1.0000

> <Gold.PLP.Chemscore.Metal>
0.0000

> <Gold.Chemscore.Hbonds>
donor molecule, donor type, donor heavy atom, donor atom, acceptor molecule, acceptor atom, score
      L1  C    14    34       P1  8028  1.00

> <Gold.PLP.Chemscore.Internal.Correction>
2.2067

> <Gold.Rescore>
     Score         DG    S(hbond)    S(metal)    S(lipo)     H(rot)  DE(clash)    DE(int)     intcor
     11.02     -13.73       0.00        0.00     110.99       1.85       0.19       2.51       ----

> <Gold.Chemscore.Fitness>
11.0225

> <Gold.Chemscore.DG>
-13.7286

> <Gold.Chemscore.ZeroCoef>
-5.4800

> <Gold.Chemscore.Hbond>
0.0000

> <Gold.Chemscore.Metal>
0.0000

> <Gold.Chemscore.Lipo>
110.9908

> <Gold.Chemscore.Internal_Hbond>
0.0000

> <Gold.Chemscore.DEClash>
0.1919

> <Gold.Chemscore.DEInternal>
2.5142

> <Gold.Chemscore.Rot>
1.8505

> <Gold.Chemscore.Internal.Correction>
   9.000000E+99

> <Gold.Chemscore.Hbond.Weighted>
-0.0000

> <Gold.Chemscore.Metal.Weighted>
-0.0000

> <Gold.Chemscore.Lipo.Weighted>
-12.9859

> <Gold.Chemscore.Internal_Hbond.Weighted>
0.0000

> <Gold.Chemscore.DEClash.Weighted>
0.1919

> <Gold.Chemscore.DEInternal.Weighted>
2.5142

> <Gold.Chemscore.Rot.Weighted>
4.7373

> <Gold.Chemscore.Internal.Correction.Weighted>
   9.000000E+99

> <Gold.Protein.RotatedTorsions>
[ 6907 6896 6895 6894 ] final   21.37 input  -60.11 | X-H torsion
[ 7974 7965 7964 7962 ] final -103.56 input  175.53 | X-H torsion
[ 8008 7997 7996 7995 ] final -170.20 input   59.86 | X-H torsion
[ 10167 10162 10161 10158 ] final  159.06 input  -65.29 | X-H torsion
[ 10718 10713 10712 10709 ] final   74.15 input   66.30 | X-H torsion
[ 10763 10752 10751 10750 ] final   91.23 input  -60.55 | X-H torsion
[ 11005 11000 10999 10996 ] final  106.15 input  -57.11 | X-H torsion

> <Gold.Protein.ActiveResidues>
 VAL166  LYS551  ARG553  GLY616  TRP617  ASP618  TYR619  PRO620  LYS621  CYS622 
 ASP623  PHE694  ASN695  SER759  ASP760  ASP761  ALA762  ILE779  LEU786  VAL792 
 PHE793  MET794  SER795  GLU796  ALA797  LYS798  CYS799  TRP800  GLU811  SER814 

> <Gold.Protein.RotatedAtoms>
  151.9108  135.0340  160.0513 H   0  0  0  0  0  0  0  0  0  0  0  0  # atno 6907 bound_to 6896
  152.2281  133.5032  159.5208 H   0  0  0  0  0  0  0  0  0  0  0  0  # atno 6908 bound_to 6896
  150.7018  134.1169  159.4063 H   0  0  0  0  0  0  0  0  0  0  0  0  # atno 6909 bound_to 6896
  145.2544  140.9248  143.3077 H   0  0  0  0  0  0  0  0  0  0  0  0  # atno 7974 bound_to 7965
  155.9151  140.1064  157.1250 H   0  0  0  0  0  0  0  0  0  0  0  0  # atno 8008 bound_to 7997
  154.4045  140.1267  156.4672 H   0  0  0  0  0  0  0  0  0  0  0  0  # atno 8009 bound_to 7997
  155.7263  140.3469  155.5041 H   0  0  0  0  0  0  0  0  0  0  0  0  # atno 8010 bound_to 7997
  139.4830  144.4766  151.8502 H   0  0  0  0  0  0  0  0  0  0  0  0  # atno 10167 bound_to 10162
  157.6580  130.9664  150.1171 H   0  0  0  0  0  0  0  0  0  0  0  0  # atno 10718 bound_to 10713
  153.2060  135.4405  155.0323 H   0  0  0  0  0  0  0  0  0  0  0  0  # atno 10763 bound_to 10752
  154.8174  135.3321  154.7140 H   0  0  0  0  0  0  0  0  0  0  0  0  # atno 10764 bound_to 10752
  153.7582  135.6993  153.4987 H   0  0  0  0  0  0  0  0  0  0  0  0  # atno 10765 bound_to 10752
  139.8810  134.9360  156.5623 H   0  0  0  0  0  0  0  0  0  0  0  0  # atno 11005 bound_to 11000
  144.9474  139.4120  143.6419 LP  0  0  0  0  0  0  0  0  0  0  0  0  # atno 17320 bound_to 7965
  146.3293  139.8465  142.8881 LP  0  0  0  0  0  0  0  0  0  0  0  0  # atno 17321 bound_to 7965
  140.4239  144.2207  150.5887 LP  0  0  0  0  0  0  0  0  0  0  0  0  # atno 17342 bound_to 10162
  140.4847  143.2367  151.8905 LP  0  0  0  0  0  0  0  0  0  0  0  0  # atno 17343 bound_to 10162
  156.2052  130.3663  149.8738 LP  0  0  0  0  0  0  0  0  0  0  0  0  # atno 17370 bound_to 10713
  156.6632  130.8790  151.3550 LP  0  0  0  0  0  0  0  0  0  0  0  0  # atno 17371 bound_to 10713
  140.8160  133.8391  155.8852 LP  0  0  0  0  0  0  0  0  0  0  0  0  # atno 17394 bound_to 11000
  140.9462  134.1837  157.4761 LP  0  0  0  0  0  0  0  0  0  0  0  0  # atno 17395 bound_to 11000

$$$$
