AV-unprocessed.smi:653|AV-procd|sdf|3208|dock1
  -GOLD-   22720 0143D 1   1.00000     0.00000
 Structure written by MMmdl.
 45 46  0  0  0  0  0  0  0  0  2 V2000
  143.8414  131.7191  150.9833 C   0  0  0  0  0  0  0  0  0  0  0  0
  144.1292  133.1571  151.3602 C   0  0  0  0  0  0  0  0  0  0  0  0
  144.7910  134.0457  150.4861 C   0  0  0  0  0  0  0  0  0  0  0  0
  145.0233  135.3738  150.8998 C   0  0  0  0  0  0  0  0  0  0  0  0
  144.5899  135.7877  152.1791 C   0  0  0  0  0  0  0  0  0  0  0  0
  144.8223  137.2121  152.6524 C   0  0  0  0  0  0  0  0  0  0  0  0
  145.6850  137.2277  153.9165 C   0  0  0  0  0  0  0  0  0  0  0  0
  145.1546  137.3052  155.0249 O   0  0  0  0  0  0  0  0  0  0  0  0
  147.0126  137.1517  153.7377 N   0  0  0  0  0  0  0  0  0  0  0  0
  148.0012  137.1514  154.8106 C   0  0  0  0  0  0  0  0  0  0  0  0
  148.6246  138.5453  155.0231 C   0  0  2  0  0  0  0  0  0  0  0  0
  147.8635  139.6781  154.3610 C   0  0  0  0  0  0  0  0  0  0  0  0
  148.9169  140.7796  154.3203 C   0  0  0  0  0  0  0  0  0  0  0  0
  150.1634  140.1126  154.1486 O   0  0  0  0  0  0  0  0  0  0  0  0
  150.0125  138.7141  154.3877 C   0  0  1  0  0  0  0  0  0  0  0  0
  151.2047  138.1520  155.1964 C   0  0  0  0  0  0  0  0  0  0  0  0
  152.5701  138.3983  154.5287 C   0  0  0  0  0  0  0  0  0  0  0  0
  151.0091  136.6561  155.4889 C   0  0  0  0  0  0  0  0  0  0  0  0
  143.9332  134.8543  153.0102 C   0  0  0  0  0  0  0  0  0  0  0  0
  143.7282  133.5914  152.5762 N   0  3  0  0  0  0  0  0  0  0  0  0
  144.5273  131.3763  150.2080 H   0  0  0  0  0  0  0  0  0  0  0  0
  142.8228  131.6245  150.6065 H   0  0  0  0  0  0  0  0  0  0  0  0
  143.9521  131.0623  151.8467 H   0  0  0  0  0  0  0  0  0  0  0  0
  145.1163  133.7171  149.5095 H   0  0  0  0  0  0  0  0  0  0  0  0
  145.5247  136.0665  150.2395 H   0  0  0  0  0  0  0  0  0  0  0  0
  145.2944  137.7884  151.8549 H   0  0  0  0  0  0  0  0  0  0  0  0
  143.8680  137.6945  152.8673 H   0  0  0  0  0  0  0  0  0  0  0  0
  147.3648  137.0951  152.7930 H   0  0  0  0  0  0  0  0  0  0  0  0
  147.5415  136.7959  155.7339 H   0  0  0  0  0  0  0  0  0  0  0  0
  148.7759  136.4271  154.5570 H   0  0  0  0  0  0  0  0  0  0  0  0
  148.6781  138.7598  156.0900 H   0  0  0  0  0  0  0  0  0  0  0  0
  147.5719  139.4024  153.3466 H   0  0  0  0  0  0  0  0  0  0  0  0
  146.9666  139.9714  154.9076 H   0  0  0  0  0  0  0  0  0  0  0  0
  148.7365  141.5010  153.5232 H   0  0  0  0  0  0  0  0  0  0  0  0
  148.9401  141.3194  155.2680 H   0  0  0  0  0  0  0  0  0  0  0  0
  149.9923  138.2364  153.4065 H   0  0  0  0  0  0  0  0  0  0  0  0
  151.2184  138.6607  156.1608 H   0  0  0  0  0  0  0  0  0  0  0  0
  152.6184  137.9417  153.5399 H   0  0  0  0  0  0  0  0  0  0  0  0
  153.3769  137.9724  155.1256 H   0  0  0  0  0  0  0  0  0  0  0  0
  152.7865  139.4599  154.4174 H   0  0  0  0  0  0  0  0  0  0  0  0
  150.9850  136.0717  154.5687 H   0  0  0  0  0  0  0  0  0  0  0  0
  150.0745  136.4771  156.0214 H   0  0  0  0  0  0  0  0  0  0  0  0
  151.8172  136.2670  156.1089 H   0  0  0  0  0  0  0  0  0  0  0  0
  143.5641  135.0784  154.0005 H   0  0  0  0  0  0  0  0  0  0  0  0
  143.2485  132.9357  153.1934 H   0  0  0  0  0  0  0  0  0  0  0  0
  1  2  1  0  0  0  0
  1 21  1  0  0  0  0
  1 22  1  0  0  0  0
  1 23  1  0  0  0  0
  2 20  1  0  0  0  0
  2  3  2  0  0  0  0
  3  4  1  0  0  0  0
  3 24  1  0  0  0  0
  4  5  2  0  0  0  0
  4 25  1  0  0  0  0
  5  6  1  0  0  0  0
  5 19  1  0  0  0  0
  6  7  1  0  0  0  0
  6 26  1  0  0  0  0
  6 27  1  0  0  0  0
  7  8  2  0  0  0  0
  7  9  1  0  0  0  0
  9 10  1  0  0  0  0
  9 28  1  0  0  0  0
 10 11  1  0  0  0  0
 10 29  1  0  0  0  0
 10 30  1  0  0  0  0
 11 15  1  0  0  0  0
 11 12  1  0  0  0  0
 11 31  1  0  0  0  0
 12 13  1  0  0  0  0
 12 32  1  0  0  0  0
 12 33  1  0  0  0  0
 13 14  1  0  0  0  0
 13 34  1  0  0  0  0
 13 35  1  0  0  0  0
 14 15  1  0  0  0  0
 15 16  1  0  0  0  0
 15 36  1  0  0  0  0
 16 17  1  0  0  0  0
 16 18  1  0  0  0  0
 16 37  1  0  0  0  0
 17 38  1  0  0  0  0
 17 39  1  0  0  0  0
 17 40  1  0  0  0  0
 18 41  1  0  0  0  0
 18 42  1  0  0  0  0
 18 43  1  0  0  0  0
 19 20  2  0  0  0  0
 19 44  1  0  0  0  0
 20 45  1  0  0  0  0
M  CHG  1  20   1
M  END
> <s_m_source_file>
AV-unprocessed.smi

> <i_m_source_file_index>
653

> <i_lp_mmshare_version>
43012

> <i_f3d_flags>
0

> <s_epik_input>
W0NIM11jMVtjSF1bY0hdYyhbY0hdbjEpW0NIMl1DKD1PKVtOSF1bQ0gyXVtDQEBIXTJbQ0gyXVtDSDJdT1tDQEhdMltDSF0oW0NIM10pW0NIM10=

> <s_epik_cmdline>
J2VwaWtfcHl0aG9uJywgJy1waCcsICc3LjAnLCAnLXRuJywgJzgnLCAnLW1hJywgJzIwMCcsICctbWV0YWxfYmluZGluZycsICctaW1hZScsICc8aW5maWxlLm1hZT4nLCAnLW9tYWUnLCAnPG91dGZpbGUubWFlPic=

> <r_epik_Ionization_Penalty>
2.12486

> <r_epik_Ionization_Penalty_Charging>
2.12486

> <r_epik_Ionization_Penalty_Neutral>
9.0873e-08

> <r_epik_State_Penalty>
2.26279

> <r_epik_Charging_Adjusted_Penalty>
4.38765

> <i_epik_Tot_Q>
1

> <i_epik_Tot_abs_Q>
1

> <r_epik_Metal_State_Penalty>
2.27914

> <b_epik_Metal_Only>
0

> <s_lp_Force_Field>
OPLS_2005

> <r_lp_Energy>
26.2023

> <b_lp_Chiralities_Consistent>
1

> <s_lp_Variant>
AV-unprocessed.smi:653-5

> <Gold.Version>
5.8.1

> <Gold.Id.Protein>
6NUR|6NUR_protein|mol2

> <Gold.PLP.Fitness>
41.1752

> <Gold.PLP.PLP>
-32.6674

> <Gold.PLP.part.hbond>
-2.9695

> <Gold.PLP.part.metal>
0.0000

> <Gold.PLP.part.buried>
-6.2875

> <Gold.PLP.part.nonpolar>
-26.0070

> <Gold.PLP.part.repulsive>
0.8801

> <Gold.PLP.ligand.clash>
0.4468

> <Gold.PLP.ligand.torsion>
1.0942

> <Gold.PLP.Chemscore.Hbond>
3.6785

> <Gold.PLP.Chemscore.CHOScore>
0.0000

> <Gold.PLP.Chemscore.Metal>
0.0000

> <Gold.Chemscore.Hbonds>
donor molecule, donor type, donor heavy atom, donor atom, acceptor molecule, acceptor atom, score
      L1  H     9    28       P1  7948  0.74
      L1  H    20    45       P1 10957  1.92
      P1  H  7989  7998       L1    14  0.98

> <Gold.PLP.Chemscore.Internal.Correction>
0.1075

> <Gold.Rescore>
     Score         DG    S(hbond)    S(metal)    S(lipo)     H(rot)  DE(clash)    DE(int)     intcor
     18.89     -20.24       2.65        0.00      84.96       1.57       0.22       1.12       ----

> <Gold.Chemscore.Fitness>
18.8932

> <Gold.Chemscore.DG>
-20.2386

> <Gold.Chemscore.ZeroCoef>
-5.4800

> <Gold.Chemscore.Hbond>
2.6460

> <Gold.Chemscore.Metal>
0.0000

> <Gold.Chemscore.Lipo>
84.9616

> <Gold.Chemscore.Internal_Hbond>
0.0000

> <Gold.Chemscore.DEClash>
0.2235

> <Gold.Chemscore.DEInternal>
1.1219

> <Gold.Chemscore.Rot>
1.5701

> <Gold.Chemscore.Internal.Correction>
   9.000000E+99

> <Gold.Chemscore.Hbonds>
donor molecule, donor type, donor heavy atom, donor atom, acceptor molecule, acceptor atom, score
      L1  H     9    28       P1  7948  0.69
      L1  H    20    45       P1 10957  0.55
      P1  H  7989  7998       L1    14  0.93

> <Gold.Chemscore.Hbond.Weighted>
-8.8377

> <Gold.Chemscore.Metal.Weighted>
-0.0000

> <Gold.Chemscore.Lipo.Weighted>
-9.9405

> <Gold.Chemscore.Internal_Hbond.Weighted>
0.0000

> <Gold.Chemscore.DEClash.Weighted>
0.2235

> <Gold.Chemscore.DEInternal.Weighted>
1.1219

> <Gold.Chemscore.Rot.Weighted>
4.0196

> <Gold.Chemscore.Internal.Correction.Weighted>
   9.000000E+99

> <Gold.Protein.RotatedTorsions>
[ 6907 6896 6895 6894 ] final  -10.10 input  -60.11 | X-H torsion
[ 7974 7965 7964 7962 ] final  144.50 input  175.53 | X-H torsion
[ 8008 7997 7996 7995 ] final  148.02 input   59.86 | X-H torsion
[ 10167 10162 10161 10158 ] final  -94.67 input  -65.29 | X-H torsion
[ 10718 10713 10712 10709 ] final   -4.94 input   66.30 | X-H torsion
[ 10763 10752 10751 10750 ] final  104.53 input  -60.55 | X-H torsion
[ 11005 11000 10999 10996 ] final  125.92 input  -57.11 | X-H torsion

> <Gold.Protein.ActiveResidues>
 VAL166  LYS551  ARG553  GLY616  TRP617  ASP618  TYR619  PRO620  LYS621  CYS622 
 ASP623  PHE694  ASN695  SER759  ASP760  ASP761  ALA762  ILE779  LEU786  VAL792 
 PHE793  MET794  SER795  GLU796  ALA797  LYS798  CYS799  TRP800  GLU811  SER814 

> <Gold.Protein.RotatedAtoms>
  151.4073  135.0980  159.9574 H   0  0  0  0  0  0  0  0  0  0  0  0  # atno 6907 bound_to 6896
  152.5031  133.8831  159.7366 H   0  0  0  0  0  0  0  0  0  0  0  0  # atno 6908 bound_to 6896
  150.9318  133.6701  159.2837 H   0  0  0  0  0  0  0  0  0  0  0  0  # atno 6909 bound_to 6896
  144.8830  139.5670  143.5834 H   0  0  0  0  0  0  0  0  0  0  0  0  # atno 7974 bound_to 7965
  156.2805  140.2140  156.5632 H   0  0  0  0  0  0  0  0  0  0  0  0  # atno 8008 bound_to 7997
  154.7196  140.0504  157.0650 H   0  0  0  0  0  0  0  0  0  0  0  0  # atno 8009 bound_to 7997
  155.0496  140.3155  155.4699 H   0  0  0  0  0  0  0  0  0  0  0  0  # atno 8010 bound_to 7997
  140.3120  143.3099  152.0138 H   0  0  0  0  0  0  0  0  0  0  0  0  # atno 10167 bound_to 10162
  156.7540  130.5248  149.5798 H   0  0  0  0  0  0  0  0  0  0  0  0  # atno 10718 bound_to 10713
  153.3671  135.3940  155.1761 H   0  0  0  0  0  0  0  0  0  0  0  0  # atno 10763 bound_to 10752
  154.8688  135.3693  154.5025 H   0  0  0  0  0  0  0  0  0  0  0  0  # atno 10764 bound_to 10752
  153.5489  135.7083  153.5661 H   0  0  0  0  0  0  0  0  0  0  0  0  # atno 10765 bound_to 10752
  139.9430  134.9633  156.8630 H   0  0  0  0  0  0  0  0  0  0  0  0  # atno 11005 bound_to 11000
  146.3007  139.7417  142.9093 LP  0  0  0  0  0  0  0  0  0  0  0  0  # atno 17320 bound_to 7965
  145.3919  141.0373  143.3119 LP  0  0  0  0  0  0  0  0  0  0  0  0  # atno 17321 bound_to 7965
  139.4892  144.6377  151.6942 LP  0  0  0  0  0  0  0  0  0  0  0  0  # atno 17342 bound_to 10162
  140.5559  144.0348  150.6147 LP  0  0  0  0  0  0  0  0  0  0  0  0  # atno 17343 bound_to 10162
  156.1383  130.6226  151.0431 LP  0  0  0  0  0  0  0  0  0  0  0  0  # atno 17370 bound_to 10713
  157.6764  131.0849  150.7482 LP  0  0  0  0  0  0  0  0  0  0  0  0  # atno 17371 bound_to 10713
  140.5904  134.0267  155.7497 LP  0  0  0  0  0  0  0  0  0  0  0  0  # atno 17394 bound_to 11000
  141.1071  133.9675  157.2976 LP  0  0  0  0  0  0  0  0  0  0  0  0  # atno 17395 bound_to 11000

$$$$
