AV-unprocessed.smi:1583|AV-procd|sdf|6363|dock7
  -GOLD-   22720 6593D 1   1.00000     0.00000
 Structure written by MMmdl.
 36 37  0  0  0  0  0  0  0  0  1 V2000
  154.1356  136.4121  163.4792 C   0  0  0  0  0  0  0  0  0  0  0  0
  154.1326  137.4934  162.5058 N   0  0  0  0  0  0  0  0  0  0  0  0
  153.9627  137.3218  161.1868 C   0  0  0  0  0  0  0  0  0  0  0  0
  153.7924  136.2203  160.6644 O   0  0  0  0  0  0  0  0  0  0  0  0
  153.9837  138.5809  160.3241 C   0  0  0  0  0  0  0  0  0  0  0  0
  152.5024  138.7195  159.2805 S   0  0  0  0  0  0  0  0  0  0  0  0
  152.2624  140.4739  159.2919 C   0  0  0  0  0  0  0  0  0  0  0  0
  152.8295  141.2862  160.1870 N   0  0  0  0  0  0  0  0  0  0  0  0
  152.3537  142.5302  159.8251 C   0  0  0  0  0  0  0  0  0  0  0  0
  152.5858  143.8041  160.3914 C   0  0  0  0  0  0  0  0  0  0  0  0
  151.9749  144.9507  159.8426 C   0  0  0  0  0  0  0  0  0  0  0  0
  151.1260  144.8402  158.7223 C   0  0  0  0  0  0  0  0  0  0  0  0
  150.8831  143.5801  158.1422 C   0  0  0  0  0  0  0  0  0  0  0  0
  151.4956  142.4392  158.6945 C   0  0  0  0  0  0  0  0  0  0  0  0
  151.4665  141.0854  158.3779 N   0  0  0  0  0  0  0  0  0  0  0  0
  150.7134  140.4829  157.2873 C   0  0  0  0  0  0  0  0  0  0  0  0
  151.0209  141.1505  155.9397 C   0  0  0  0  0  0  0  0  0  0  0  0
  150.4310  140.4049  154.8875 O   0  0  0  0  0  0  0  0  0  0  0  0
  149.1644  140.9107  154.5061 C   0  0  0  0  0  0  0  0  0  0  0  0
  154.3280  136.8097  164.4756 H   0  0  0  0  0  0  0  0  0  0  0  0
  154.9115  135.6808  163.2481 H   0  0  0  0  0  0  0  0  0  0  0  0
  153.1706  135.9036  163.4953 H   0  0  0  0  0  0  0  0  0  0  0  0
  154.2642  138.4314  162.8552 H   0  0  0  0  0  0  0  0  0  0  0  0
  154.0647  139.4650  160.9582 H   0  0  0  0  0  0  0  0  0  0  0  0
  154.8699  138.5545  159.6892 H   0  0  0  0  0  0  0  0  0  0  0  0
  153.2334  143.8988  161.2505 H   0  0  0  0  0  0  0  0  0  0  0  0
  152.1575  145.9194  160.2840 H   0  0  0  0  0  0  0  0  0  0  0  0
  150.6607  145.7232  158.3091 H   0  0  0  0  0  0  0  0  0  0  0  0
  150.2326  143.4914  157.2849 H   0  0  0  0  0  0  0  0  0  0  0  0
  150.9625  139.4223  157.2415 H   0  0  0  0  0  0  0  0  0  0  0  0
  149.6466  140.5326  157.5033 H   0  0  0  0  0  0  0  0  0  0  0  0
  150.6350  142.1711  155.9352 H   0  0  0  0  0  0  0  0  0  0  0  0
  152.1006  141.2104  155.7956 H   0  0  0  0  0  0  0  0  0  0  0  0
  148.7597  140.3083  153.6929 H   0  0  0  0  0  0  0  0  0  0  0  0
  149.2396  141.9414  154.1570 H   0  0  0  0  0  0  0  0  0  0  0  0
  148.4584  140.8720  155.3368 H   0  0  0  0  0  0  0  0  0  0  0  0
  1  2  1  0  0  0  0
  1 20  1  0  0  0  0
  1 21  1  0  0  0  0
  1 22  1  0  0  0  0
  2  3  1  0  0  0  0
  2 23  1  0  0  0  0
  3  4  2  0  0  0  0
  3  5  1  0  0  0  0
  5  6  1  0  0  0  0
  5 24  1  0  0  0  0
  5 25  1  0  0  0  0
  6  7  1  0  0  0  0
  7 15  1  0  0  0  0
  7  8  2  0  0  0  0
  8  9  1  0  0  0  0
  9 14  2  0  0  0  0
  9 10  1  0  0  0  0
 10 11  2  0  0  0  0
 10 26  1  0  0  0  0
 11 12  1  0  0  0  0
 11 27  1  0  0  0  0
 12 13  2  0  0  0  0
 12 28  1  0  0  0  0
 13 14  1  0  0  0  0
 13 29  1  0  0  0  0
 14 15  1  0  0  0  0
 15 16  1  0  0  0  0
 16 17  1  0  0  0  0
 16 30  1  0  0  0  0
 16 31  1  0  0  0  0
 17 18  1  0  0  0  0
 17 32  1  0  0  0  0
 17 33  1  0  0  0  0
 18 19  1  0  0  0  0
 19 34  1  0  0  0  0
 19 35  1  0  0  0  0
 19 36  1  0  0  0  0
M  END
> <s_m_source_file>
AV-unprocessed.smi

> <i_m_source_file_index>
1583

> <i_lp_mmshare_version>
43012

> <i_f3d_flags>
0

> <s_epik_input>
W0NIM11bTkhdQyg9TylbQ0gyXVNjKG4xKW4oW0NIMl1bQ0gyXU9bQ0gzXSljKGMxMilbY0hdW2NIXVtjSF1bY0hdMg==

> <s_epik_cmdline>
J2VwaWtfcHl0aG9uJywgJy1waCcsICc3LjAnLCAnLXRuJywgJzgnLCAnLW1hJywgJzIwMCcsICctbWV0YWxfYmluZGluZycsICctaW1hZScsICc8aW5maWxlLm1hZT4nLCAnLW9tYWUnLCAnPG91dGZpbGUubWFlPic=

> <r_epik_Ionization_Penalty>
0.0356249

> <r_epik_Ionization_Penalty_Charging>
0

> <r_epik_Ionization_Penalty_Neutral>
0.0356249

> <r_epik_State_Penalty>
0.0297112

> <r_epik_Charging_Adjusted_Penalty>
0.0297112

> <i_epik_Tot_Q>
0

> <i_epik_Tot_abs_Q>
0

> <r_epik_Metal_State_Penalty>
0.0280118

> <b_epik_Metal_Only>
0

> <s_lp_Force_Field>
OPLS_2005

> <r_lp_Energy>
5.95406

> <b_lp_Chiralities_Consistent>
1

> <s_lp_Variant>
AV-unprocessed.smi:1583-1

> <Gold.Version>
5.8.1

> <Gold.Id.Protein>
6NUR|6NUR_protein|mol2

> <Gold.PLP.Fitness>
47.7425

> <Gold.PLP.PLP>
-43.3562

> <Gold.PLP.part.hbond>
-2.0000

> <Gold.PLP.part.metal>
0.0000

> <Gold.PLP.part.buried>
-6.5522

> <Gold.PLP.part.nonpolar>
-34.5736

> <Gold.PLP.part.repulsive>
0.0942

> <Gold.PLP.ligand.clash>
0.0000

> <Gold.PLP.ligand.torsion>
0.8070

> <Gold.PLP.Chemscore.Hbond>
1.9913

> <Gold.PLP.Chemscore.CHOScore>
0.0000

> <Gold.PLP.Chemscore.Metal>
0.0000

> <Gold.Chemscore.Hbonds>
donor molecule, donor type, donor heavy atom, donor atom, acceptor molecule, acceptor atom, score
      P1  H  6896  6907       L1     4  0.80
      P1  H  7989  7998       L1    18  0.95

> <Gold.PLP.Chemscore.Internal.Correction>
0.0265

> <Gold.Rescore>
     Score         DG    S(hbond)    S(metal)    S(lipo)     H(rot)  DE(clash)    DE(int)     intcor
     17.48     -18.19       1.74        0.00     106.72       2.18       0.07       0.64       ----

> <Gold.Chemscore.Fitness>
17.4781

> <Gold.Chemscore.DG>
-18.1860

> <Gold.Chemscore.ZeroCoef>
-5.4800

> <Gold.Chemscore.Hbond>
1.7387

> <Gold.Chemscore.Metal>
0.0000

> <Gold.Chemscore.Lipo>
106.7193

> <Gold.Chemscore.Internal_Hbond>
0.0000

> <Gold.Chemscore.DEClash>
0.0659

> <Gold.Chemscore.DEInternal>
0.6419

> <Gold.Chemscore.Rot>
2.1826

> <Gold.Chemscore.Internal.Correction>
   9.000000E+99

> <Gold.Chemscore.Hbonds>
donor molecule, donor type, donor heavy atom, donor atom, acceptor molecule, acceptor atom, score
      P1  H  6896  6907       L1     4  0.79
      P1  H  7989  7998       L1    18  0.12

> <Gold.Chemscore.Hbond.Weighted>
-5.8072

> <Gold.Chemscore.Metal.Weighted>
-0.0000

> <Gold.Chemscore.Lipo.Weighted>
-12.4862

> <Gold.Chemscore.Internal_Hbond.Weighted>
0.0000

> <Gold.Chemscore.DEClash.Weighted>
0.0659

> <Gold.Chemscore.DEInternal.Weighted>
0.6419

> <Gold.Chemscore.Rot.Weighted>
5.5874

> <Gold.Chemscore.Internal.Correction.Weighted>
   9.000000E+99

> <Gold.Protein.RotatedTorsions>
[ 6907 6896 6895 6894 ] final   42.89 input  -60.11 | X-H torsion
[ 7974 7965 7964 7962 ] final -146.73 input  175.53 | X-H torsion
[ 8008 7997 7996 7995 ] final  172.44 input   59.86 | X-H torsion
[ 10167 10162 10161 10158 ] final -144.33 input  -65.29 | X-H torsion
[ 10718 10713 10712 10709 ] final  -62.54 input   66.30 | X-H torsion
[ 10763 10752 10751 10750 ] final  -19.68 input  -60.55 | X-H torsion
[ 11005 11000 10999 10996 ] final -149.39 input  -57.11 | X-H torsion

> <Gold.Protein.ActiveResidues>
 VAL166  LYS551  ARG553  GLY616  TRP617  ASP618  TYR619  PRO620  LYS621  CYS622 
 ASP623  PHE694  ASN695  SER759  ASP760  ASP761  ALA762  ILE779  LEU786  VAL792 
 PHE793  MET794  SER795  GLU796  ALA797  LYS798  CYS799  TRP800  GLU811  SER814 

> <Gold.Protein.RotatedAtoms>
  152.2135  134.8479  160.0494 H   0  0  0  0  0  0  0  0  0  0  0  0  # atno 6907 bound_to 6896
  151.9289  133.3600  159.3931 H   0  0  0  0  0  0  0  0  0  0  0  0  # atno 6908 bound_to 6896
  150.6982  134.4483  159.5368 H   0  0  0  0  0  0  0  0  0  0  0  0  # atno 6909 bound_to 6896
  144.8140  140.5418  143.5623 H   0  0  0  0  0  0  0  0  0  0  0  0  # atno 7974 bound_to 7965
  156.1174  140.1486  156.9253 H   0  0  0  0  0  0  0  0  0  0  0  0  # atno 8008 bound_to 7997
  154.4811  140.0879  156.7421 H   0  0  0  0  0  0  0  0  0  0  0  0  # atno 8009 bound_to 7997
  155.4489  140.3434  155.4300 H   0  0  0  0  0  0  0  0  0  0  0  0  # atno 8010 bound_to 7997
  139.7909  143.7967  152.2650 H   0  0  0  0  0  0  0  0  0  0  0  0  # atno 10167 bound_to 10162
  156.0848  130.4210  150.1150 H   0  0  0  0  0  0  0  0  0  0  0  0  # atno 10718 bound_to 10713
  153.6086  135.6997  153.5356 H   0  0  0  0  0  0  0  0  0  0  0  0  # atno 10763 bound_to 10752
  153.3036  135.4121  155.1274 H   0  0  0  0  0  0  0  0  0  0  0  0  # atno 10764 bound_to 10752
  154.8568  135.3655  154.5623 H   0  0  0  0  0  0  0  0  0  0  0  0  # atno 10765 bound_to 10752
  140.7512  134.3404  157.5125 H   0  0  0  0  0  0  0  0  0  0  0  0  # atno 11005 bound_to 11000
  145.5258  139.1476  143.3527 LP  0  0  0  0  0  0  0  0  0  0  0  0  # atno 17320 bound_to 7965
  146.2441  140.5399  142.8921 LP  0  0  0  0  0  0  0  0  0  0  0  0  # atno 17321 bound_to 7965
  139.8058  144.7356  150.9763 LP  0  0  0  0  0  0  0  0  0  0  0  0  # atno 17342 bound_to 10162
  140.7820  143.4299  151.0710 LP  0  0  0  0  0  0  0  0  0  0  0  0  # atno 17343 bound_to 10162
  156.9173  130.9671  151.3554 LP  0  0  0  0  0  0  0  0  0  0  0  0  # atno 17370 bound_to 10713
  157.5979  130.8491  149.8757 LP  0  0  0  0  0  0  0  0  0  0  0  0  # atno 17371 bound_to 10713
  139.8787  134.9143  156.3104 LP  0  0  0  0  0  0  0  0  0  0  0  0  # atno 17394 bound_to 11000
  140.9749  133.7304  156.0587 LP  0  0  0  0  0  0  0  0  0  0  0  0  # atno 17395 bound_to 11000

$$$$
