#       Name:                AV-unprocessed.smi:1179
#       Creating user name   scv26
#       Creation time:       Fri Mar 27 03:55:13 2020


#       File generated by GOLD software.
#

@<TRIPOS>MOLECULE
AV-unprocessed.smi:1179
    50    51     1
SMALL
NO_CHARGES


@<TRIPOS>ATOM
      1 ****        -5.6498   1.7977  -0.4090 C.3            1 S1                 0.0000
      2 ****        -4.7694   0.8490  -1.1679 C.2            1 S1                 0.0000
      3 ****        -4.2241   1.0040  -2.4731 C.2            1 S1                 0.0000
      4 ****        -3.5057  -0.1404  -2.6775 C.2            1 S1                 0.0000
      5 ****        -2.7007  -0.5752  -3.8578 C.3            1 S1                 0.0000
      6 ****        -3.6413  -0.9085  -1.5347 N.pl3          1 S1                 0.0000
      7 ****        -3.0742  -2.2140  -1.2329 C.3            1 S1                 0.0000
      8 ****        -1.6475  -2.0920  -0.6943 C.2            1 S1                 0.0000
      9 ****        -0.6972  -2.4846  -1.3711 O.2            1 S1                 0.0000
     10 ****        -1.5096  -1.5490   0.5255 N.am           1 S1                 0.0000
     11 ****        -0.2405  -1.3508   1.2139 C.3            1 S1                 0.0000
     12 ****         0.5267  -0.1381   0.6512 C.3            1 S1                 0.0000
     13 ****         1.7989   0.1115   1.3749 N.4            1 S1                 1.0000
     14 ****         2.2590   1.5172   1.2351 C.3            1 S1                 0.0000
     15 ****         3.4963   1.7890   2.1098 C.3            1 S1                 0.0000
     16 ****         4.6482   0.8119   1.8124 C.3            1 S1                 0.0000
     17 ****         5.3601   1.1163   0.4827 C.3            1 S1                 0.0000
     18 ****         4.1259  -0.6342   1.8902 C.3            1 S1                 0.0000
     19 ****         2.8756  -0.8508   1.0187 C.3            1 S1                 0.0000
     20 ****        -4.4146  -0.2969  -0.6105 N.2            1 S1                 0.0000
     21 ****        -5.9478   2.6422  -1.0306 H              1 S1                 0.0000
     22 ****        -5.1352   2.1951   0.4661 H              1 S1                 0.0000
     23 ****        -6.5588   1.3028  -0.0660 H              1 S1                 0.0000
     24 ****        -4.3436   1.8312  -3.1571 H              1 S1                 0.0000
     25 ****        -2.7234   0.1794  -4.6443 H              1 S1                 0.0000
     26 ****        -3.0914  -1.5040  -4.2739 H              1 S1                 0.0000
     27 ****        -1.6592  -0.7382  -3.5802 H              1 S1                 0.0000
     28 ****        -3.7028  -2.7244  -0.5012 H              1 S1                 0.0000
     29 ****        -3.0837  -2.8236  -2.1371 H              1 S1                 0.0000
     30 ****        -2.3469  -1.2529   1.0078 H              1 S1                 0.0000
     31 ****        -0.4509  -1.1981   2.2727 H              1 S1                 0.0000
     32 ****         0.3464  -2.2669   1.1431 H              1 S1                 0.0000
     33 ****         0.7315  -0.2588  -0.4137 H              1 S1                 0.0000
     34 ****        -0.1178   0.7377   0.7418 H              1 S1                 0.0000
     35 ****         2.4744   1.7314   0.1874 H              1 S1                 0.0000
     36 ****         1.4599   2.1961   1.5355 H              1 S1                 0.0000
     37 ****         3.8306   2.8187   1.9776 H              1 S1                 0.0000
     38 ****         3.2127   1.6967   3.1592 H              1 S1                 0.0000
     39 ****         5.3965   0.9349   2.5968 H              1 S1                 0.0000
     40 ****         4.6924   1.0234  -0.3732 H              1 S1                 0.0000
     41 ****         6.1962   0.4347   0.3235 H              1 S1                 0.0000
     42 ****         5.7616   2.1299   0.4788 H              1 S1                 0.0000
     43 ****         4.9101  -1.3352   1.6013 H              1 S1                 0.0000
     44 ****         3.8793  -0.8692   2.9266 H              1 S1                 0.0000
     45 ****         2.5306  -1.8744   1.1570 H              1 S1                 0.0000
     46 ****         3.1246  -0.7486  -0.0385 H              1 S1                 0.0000
     47 ****         1.5987  -0.0199   2.3560 H              1 S1                 0.0000
     48 ****        -0.8574  -2.8838  -2.2739 LP             1 S1                 0.0000
     49 ****         0.2350  -2.4044  -1.0181 LP             1 S1                 0.0000
     50 ****        -4.6641  -0.6364   0.2964 LP             1 S1                 0.0000
@<TRIPOS>BOND
    1    1    2 1     
    2    1   21 1     
    3    1   22 1     
    4    1   23 1     
    5    2   20 2     
    6    2    3 1     
    7    3    4 2     
    8    3   24 1     
    9    4    5 1     
   10    4    6 1     
   11    5   25 1     
   12    5   26 1     
   13    5   27 1     
   14    6    7 1     
   15    6   20 1     
   16    7    8 1     
   17    7   28 1     
   18    7   29 1     
   19    8    9 2     
   20    8   10 am    
   21   10   11 1     
   22   10   30 1     
   23   11   12 1     
   24   11   31 1     
   25   11   32 1     
   26   12   13 1     
   27   12   33 1     
   28   12   34 1     
   29   13   19 1     
   30   13   14 1     
   31   13   47 1     
   32   14   15 1     
   33   14   35 1     
   34   14   36 1     
   35   15   16 1     
   36   15   37 1     
   37   15   38 1     
   38   16   17 1     
   39   16   18 1     
   40   16   39 1     
   41   17   40 1     
   42   17   41 1     
   43   17   42 1     
   44   18   19 1     
   45   18   43 1     
   46   18   44 1     
   47   19   45 1     
   48   19   46 1     
   49    9   48 1     
   50    9   49 1     
   51   20   50 1     
@<TRIPOS>SUBSTRUCTURE
      1 S1             1
@<TRIPOS>SET
LONE_PAIRS      STATIC     ATOMS    <user>   **** ""
3 48 49 50
DONOR_HYDROGENS      STATIC     ATOMS    <user>   **** ""
2 30 47
ATOM$BLUE        STATIC     ATOMS    COLORGROUP SYSTEM
3 48 49 50
ATOM$RED        STATIC     ATOMS    COLORGROUP SYSTEM
2 30 47
