AV-unprocessed.smi:2902|AV-procd|sdf|11158|dock7
  -GOLD-   2272016 43D 1   1.00000     0.00000
 Structure written by MMmdl.
 47 48  0  0  0  0  0  0  0  0  1 V2000
  149.1382  136.1041  155.6227 C   0  0  0  0  0  0  0  0  0  0  0  0
  149.4390  135.3443  156.9207 C   0  0  0  0  0  0  0  0  0  0  0  0
  149.1711  136.1861  158.1824 C   0  0  1  0  0  0  0  0  0  0  0  0
  148.9105  135.2891  159.2625 O   0  0  0  0  0  0  0  0  0  0  0  0
  148.3338  135.8583  160.4349 C   0  0  0  0  0  0  0  0  0  0  0  0
  147.9389  134.8035  161.4719 C   0  0  0  0  0  0  0  0  0  0  0  0
  146.8543  135.4784  162.3175 C   0  0  0  0  0  0  0  0  0  0  0  0
  146.2400  136.5736  161.4308 C   0  0  0  0  0  0  0  0  0  0  0  0
  146.9985  136.5205  160.0997 C   0  0  0  0  0  0  0  0  0  0  0  0
  150.3672  137.0936  158.5132 C   0  0  0  0  0  0  0  0  0  0  0  0
  150.8545  137.0925  159.6437 O   0  0  0  0  0  0  0  0  0  0  0  0
  150.8110  137.8793  157.5193 N   0  0  0  0  0  0  0  0  0  0  0  0
  151.8910  138.8580  157.6267 C   0  0  1  0  0  0  0  0  0  0  0  0
  153.1551  138.1711  158.1793 C   0  0  0  0  0  0  0  0  0  0  0  0
  152.1168  139.5503  156.2580 C   0  0  1  0  0  0  0  0  0  0  0  0
  152.7612  138.6238  155.2097 C   0  0  0  0  0  0  0  0  0  0  0  0
  150.8808  140.1121  155.7307 N   0  0  0  0  0  0  0  0  0  0  0  0
  149.9753  140.9129  156.2978 C   0  0  0  0  0  0  0  0  0  0  0  0
  148.9637  141.2280  155.5012 N   0  0  0  0  0  0  0  0  0  0  0  0
  149.3330  140.5391  154.3809 C   0  0  0  0  0  0  0  0  0  0  0  0
  150.4729  139.8532  154.4655 N   0  0  0  0  0  0  0  0  0  0  0  0
  149.3497  135.4827  154.7524 H   0  0  0  0  0  0  0  0  0  0  0  0
  149.7462  137.0056  155.5436 H   0  0  0  0  0  0  0  0  0  0  0  0
  148.0899  136.4000  155.5710 H   0  0  0  0  0  0  0  0  0  0  0  0
  148.8440  134.4303  156.9474 H   0  0  0  0  0  0  0  0  0  0  0  0
  150.4837  135.0301  156.9040 H   0  0  0  0  0  0  0  0  0  0  0  0
  148.2871  136.8021  158.0045 H   0  0  0  0  0  0  0  0  0  0  0  0
  148.9861  136.6073  160.8883 H   0  0  0  0  0  0  0  0  0  0  0  0
  147.5170  133.9339  160.9658 H   0  0  0  0  0  0  0  0  0  0  0  0
  148.7781  134.4568  162.0740 H   0  0  0  0  0  0  0  0  0  0  0  0
  146.1087  134.7593  162.6573 H   0  0  0  0  0  0  0  0  0  0  0  0
  147.2998  135.9310  163.2042 H   0  0  0  0  0  0  0  0  0  0  0  0
  145.1694  136.4273  161.2831 H   0  0  0  0  0  0  0  0  0  0  0  0
  146.3740  137.5481  161.9018 H   0  0  0  0  0  0  0  0  0  0  0  0
  147.1202  137.5037  159.6443 H   0  0  0  0  0  0  0  0  0  0  0  0
  146.4466  135.8967  159.3948 H   0  0  0  0  0  0  0  0  0  0  0  0
  150.3486  137.8112  156.6243 H   0  0  0  0  0  0  0  0  0  0  0  0
  151.5923  139.6285  158.3403 H   0  0  0  0  0  0  0  0  0  0  0  0
  153.9548  138.8876  158.3671 H   0  0  0  0  0  0  0  0  0  0  0  0
  153.5352  137.4238  157.4822 H   0  0  0  0  0  0  0  0  0  0  0  0
  152.9501  137.6682  159.1249 H   0  0  0  0  0  0  0  0  0  0  0  0
  152.8065  140.3816  156.4182 H   0  0  0  0  0  0  0  0  0  0  0  0
  153.7493  138.2868  155.5230 H   0  0  0  0  0  0  0  0  0  0  0  0
  152.8852  139.1395  154.2568 H   0  0  0  0  0  0  0  0  0  0  0  0
  152.1494  137.7391  155.0306 H   0  0  0  0  0  0  0  0  0  0  0  0
  150.0591  141.2736  157.3127 H   0  0  0  0  0  0  0  0  0  0  0  0
  148.7435  140.5425  153.4757 H   0  0  0  0  0  0  0  0  0  0  0  0
  1  2  1  0  0  0  0
  1 22  1  0  0  0  0
  1 23  1  0  0  0  0
  1 24  1  0  0  0  0
  2  3  1  0  0  0  0
  2 25  1  0  0  0  0
  2 26  1  0  0  0  0
  3  4  1  0  0  0  0
  3 10  1  0  0  0  0
  3 27  1  0  0  0  0
  4  5  1  0  0  0  0
  5  9  1  0  0  0  0
  5  6  1  0  0  0  0
  5 28  1  0  0  0  0
  6  7  1  0  0  0  0
  6 29  1  0  0  0  0
  6 30  1  0  0  0  0
  7  8  1  0  0  0  0
  7 31  1  0  0  0  0
  7 32  1  0  0  0  0
  8  9  1  0  0  0  0
  8 33  1  0  0  0  0
  8 34  1  0  0  0  0
  9 35  1  0  0  0  0
  9 36  1  0  0  0  0
 10 11  2  0  0  0  0
 10 12  1  0  0  0  0
 12 13  1  0  0  0  0
 12 37  1  0  0  0  0
 13 14  1  0  0  0  0
 13 15  1  0  0  0  0
 13 38  1  0  0  0  0
 14 39  1  0  0  0  0
 14 40  1  0  0  0  0
 14 41  1  0  0  0  0
 15 16  1  0  0  0  0
 15 17  1  0  0  0  0
 15 42  1  0  0  0  0
 16 43  1  0  0  0  0
 16 44  1  0  0  0  0
 16 45  1  0  0  0  0
 17 21  1  0  0  0  0
 17 18  1  0  0  0  0
 18 19  2  0  0  0  0
 18 46  1  0  0  0  0
 19 20  1  0  0  0  0
 20 21  2  0  0  0  0
 20 47  1  0  0  0  0
M  END
> <s_m_source_file>
AV-unprocessed.smi

> <i_m_source_file_index>
2902

> <i_lp_mmshare_version>
43012

> <i_f3d_flags>
0

> <s_epik_input>
W0NIMl0xW0NIMl1bQ0gyXVtDSDJdW0NIXTFPW0NAQEhdKFtDSDJdW0NIM10pQyg9TylbTkhdW0NASF0oW0NIM10pW0NASF0oW0NIM10pbjJbY0hdbltjSF1uMg==

> <s_epik_cmdline>
J2VwaWtfcHl0aG9uJywgJy1waCcsICc3LjAnLCAnLXRuJywgJzgnLCAnLW1hJywgJzIwMCcsICctbWV0YWxfYmluZGluZycsICctaW1hZScsICc8aW5maWxlLm1hZT4nLCAnLW9tYWUnLCAnPG91dGZpbGUubWFlPic=

> <r_lp_tautomer_probability>
1

> <r_epik_Ionization_Penalty>
6.95617e-05

> <r_epik_Ionization_Penalty_Charging>
0

> <r_epik_Ionization_Penalty_Neutral>
6.95617e-05

> <r_epik_State_Penalty>
-0

> <r_epik_Charging_Adjusted_Penalty>
0

> <i_epik_Tot_Q>
0

> <i_epik_Tot_abs_Q>
0

> <r_epik_Metal_State_Penalty>
-0

> <b_epik_Metal_Only>
0

> <s_lp_Force_Field>
OPLS_2005

> <r_lp_Energy>
30.3462

> <b_lp_Chiralities_Consistent>
1

> <s_lp_Variant>
AV-unprocessed.smi:2902-8

> <Gold.Version>
5.8.1

> <Gold.Id.Protein>
6NUR|6NUR_protein|mol2

> <Gold.PLP.Fitness>
39.9158

> <Gold.PLP.PLP>
-32.7760

> <Gold.PLP.part.hbond>
-2.7459

> <Gold.PLP.part.metal>
0.0000

> <Gold.PLP.part.buried>
-4.3131

> <Gold.PLP.part.nonpolar>
-25.4846

> <Gold.PLP.part.repulsive>
0.2387

> <Gold.PLP.ligand.clash>
0.0000

> <Gold.PLP.ligand.torsion>
0.6528

> <Gold.PLP.Chemscore.Hbond>
1.8288

> <Gold.PLP.Chemscore.CHOScore>
0.9221

> <Gold.PLP.Chemscore.Metal>
0.0000

> <Gold.Chemscore.Hbonds>
donor molecule, donor type, donor heavy atom, donor atom, acceptor molecule, acceptor atom, score
      P1  H  6896  6907       L1    11  1.00
      P1  H  7989  7998       L1    21  1.00
      L1  C    20    47       P1  7957  0.92

> <Gold.PLP.Chemscore.Internal.Correction>
0.1928

> <Gold.Rescore>
     Score         DG    S(hbond)    S(metal)    S(lipo)     H(rot)  DE(clash)    DE(int)     intcor
      8.72     -11.95       1.88        0.00      60.70       2.69       0.02       3.21       ----

> <Gold.Chemscore.Fitness>
8.7233

> <Gold.Chemscore.DG>
-11.9533

> <Gold.Chemscore.ZeroCoef>
-5.4800

> <Gold.Chemscore.Hbond>
1.8764

> <Gold.Chemscore.Metal>
0.0000

> <Gold.Chemscore.Lipo>
60.6968

> <Gold.Chemscore.Internal_Hbond>
0.0000

> <Gold.Chemscore.DEClash>
0.0234

> <Gold.Chemscore.DEInternal>
3.2066

> <Gold.Chemscore.Rot>
2.6935

> <Gold.Chemscore.Internal.Correction>
   9.000000E+99

> <Gold.Chemscore.Hbonds>
donor molecule, donor type, donor heavy atom, donor atom, acceptor molecule, acceptor atom, score
      P1  H  6896  6907       L1    11  0.28
      P1  H  7989  7998       L1    21  0.14

> <Gold.Chemscore.Hbond.Weighted>
-6.2671

> <Gold.Chemscore.Metal.Weighted>
-0.0000

> <Gold.Chemscore.Lipo.Weighted>
-7.1015

> <Gold.Chemscore.Internal_Hbond.Weighted>
0.0000

> <Gold.Chemscore.DEClash.Weighted>
0.0234

> <Gold.Chemscore.DEInternal.Weighted>
3.2066

> <Gold.Chemscore.Rot.Weighted>
6.8954

> <Gold.Chemscore.Internal.Correction.Weighted>
   9.000000E+99

> <Gold.Protein.RotatedTorsions>
[ 6907 6896 6895 6894 ] final  -20.11 input  -60.11 | X-H torsion
[ 7974 7965 7964 7962 ] final -178.35 input  175.53 | X-H torsion
[ 8008 7997 7996 7995 ] final   54.80 input   59.86 | X-H torsion
[ 10167 10162 10161 10158 ] final  121.57 input  -65.29 | X-H torsion
[ 10718 10713 10712 10709 ] final -123.19 input   66.30 | X-H torsion
[ 10763 10752 10751 10750 ] final   75.31 input  -60.55 | X-H torsion
[ 11005 11000 10999 10996 ] final  -51.99 input  -57.11 | X-H torsion

> <Gold.Protein.ActiveResidues>
 VAL166  LYS551  ARG553  GLY616  TRP617  ASP618  TYR619  PRO620  LYS621  CYS622 
 ASP623  PHE694  ASN695  SER759  ASP760  ASP761  ALA762  ILE779  LEU786  VAL792 
 PHE793  MET794  SER795  GLU796  ALA797  LYS798  CYS799  TRP800  GLU811  SER814 

> <Gold.Protein.RotatedAtoms>
  151.2530  135.0628  159.9068 H   0  0  0  0  0  0  0  0  0  0  0  0  # atno 6907 bound_to 6896
  152.5377  134.0312  159.8036 H   0  0  0  0  0  0  0  0  0  0  0  0  # atno 6908 bound_to 6896
  151.0523  133.5564  159.2672 H   0  0  0  0  0  0  0  0  0  0  0  0  # atno 6909 bound_to 6896
  144.7130  140.0881  143.6422 H   0  0  0  0  0  0  0  0  0  0  0  0  # atno 7974 bound_to 7965
  155.4907  140.3471  155.4354 H   0  0  0  0  0  0  0  0  0  0  0  0  # atno 8008 bound_to 7997
  156.0979  140.1427  156.9535 H   0  0  0  0  0  0  0  0  0  0  0  0  # atno 8009 bound_to 7997
  154.4675  140.0912  156.7036 H   0  0  0  0  0  0  0  0  0  0  0  0  # atno 8010 bound_to 7997
  139.5911  144.7025  151.3287 H   0  0  0  0  0  0  0  0  0  0  0  0  # atno 10167 bound_to 10162
  156.1481  130.6515  150.9873 H   0  0  0  0  0  0  0  0  0  0  0  0  # atno 10718 bound_to 10713
  153.0646  135.4993  154.8171 H   0  0  0  0  0  0  0  0  0  0  0  0  # atno 10763 bound_to 10752
  154.6934  135.2988  154.9449 H   0  0  0  0  0  0  0  0  0  0  0  0  # atno 10764 bound_to 10752
  154.0196  135.6744  153.4824 H   0  0  0  0  0  0  0  0  0  0  0  0  # atno 10765 bound_to 10752
  141.0900  133.6634  156.3958 H   0  0  0  0  0  0  0  0  0  0  0  0  # atno 11005 bound_to 11000
  145.9644  139.2824  143.1136 LP  0  0  0  0  0  0  0  0  0  0  0  0  # atno 17320 bound_to 7965
  145.9185  140.9131  143.0417 LP  0  0  0  0  0  0  0  0  0  0  0  0  # atno 17321 bound_to 7965
  140.7174  143.7229  150.7682 LP  0  0  0  0  0  0  0  0  0  0  0  0  # atno 17342 bound_to 10162
  140.0785  143.4992  152.2542 LP  0  0  0  0  0  0  0  0  0  0  0  0  # atno 17343 bound_to 10162
  157.6634  131.0876  150.7786 LP  0  0  0  0  0  0  0  0  0  0  0  0  # atno 17370 bound_to 10713
  156.7856  130.4873  149.5393 LP  0  0  0  0  0  0  0  0  0  0  0  0  # atno 17371 bound_to 10713
  140.5273  134.6246  157.5338 LP  0  0  0  0  0  0  0  0  0  0  0  0  # atno 17394 bound_to 11000
  139.9725  134.7270  156.0014 LP  0  0  0  0  0  0  0  0  0  0  0  0  # atno 17395 bound_to 11000

$$$$
