AV-unprocessed.smi:1613|AV-procd|sdf|6478|dock4
  -GOLD-   22720 7143D 1   1.00000     0.00000
 Structure written by MMmdl.
 53 55  0  0  0  0  0  0  0  0  2 V2000
  150.8637  135.4234  154.9968 O   0  0  0  0  0  0  0  0  0  0  0  0
  150.0467  135.4035  155.9183 C   0  0  0  0  0  0  0  0  0  0  0  0
  149.0891  134.2168  156.0972 C   0  0  0  0  0  0  0  0  0  0  0  0
  149.7017  132.9213  155.7613 N   0  0  0  0  0  0  0  0  0  0  0  0
  149.2021  132.2376  154.6402 C   0  0  0  0  0  0  0  0  0  0  0  0
  149.7163  131.0564  154.2689 C   0  0  0  0  0  0  0  0  0  0  0  0
  150.8131  130.5338  155.0938 C   0  0  0  0  0  0  0  0  0  0  0  0
  151.2730  131.1559  156.1146 N   0  0  0  0  0  0  0  0  0  0  0  0
  150.7344  132.3982  156.4997 C   0  0  0  0  0  0  0  0  0  0  0  0
  151.1765  133.0061  157.4750 O   0  0  0  0  0  0  0  0  0  0  0  0
  149.9229  136.3992  156.8087 N   0  0  0  0  0  0  0  0  0  0  0  0
  150.7336  137.6128  156.8266 C   0  0  2  0  0  0  0  0  0  0  0  0
  150.3856  138.4874  158.0435 C   0  0  0  0  0  0  0  0  0  0  0  0
  151.1727  139.8071  158.0182 C   0  0  0  0  0  0  0  0  0  0  0  0
  150.9382  140.5602  156.7580 N   0  3  1  0  0  0  0  0  0  0  0  0
  151.5983  141.8928  156.7866 C   0  0  0  0  0  0  0  0  0  0  0  0
  151.3858  142.6646  158.1121 C   0  0  0  0  0  0  0  0  0  0  0  0
  151.3134  144.1924  157.8872 C   0  0  0  0  0  0  0  0  0  0  0  0
  151.0848  144.9488  159.2054 C   0  0  0  0  0  0  0  0  0  0  0  0
  152.1813  144.6213  160.2298 C   0  0  0  0  0  0  0  0  0  0  0  0
  152.2910  143.1060  160.4569 C   0  0  0  0  0  0  0  0  0  0  0  0
  152.5035  142.3551  159.1317 C   0  0  0  0  0  0  0  0  0  0  0  0
  151.2824  139.7441  155.5625 C   0  0  0  0  0  0  0  0  0  0  0  0
  150.5015  138.4190  155.5406 C   0  0  0  0  0  0  0  0  0  0  0  0
  148.7202  134.1975  157.1245 H   0  0  0  0  0  0  0  0  0  0  0  0
  148.2081  134.3951  155.4793 H   0  0  0  0  0  0  0  0  0  0  0  0
  148.3982  132.7296  154.1123 H   0  0  0  0  0  0  0  0  0  0  0  0
  149.3825  130.4815  153.4179 H   0  0  0  0  0  0  0  0  0  0  0  0
  151.2171  129.5690  154.7765 H   0  0  0  0  0  0  0  0  0  0  0  0
  149.2205  136.3054  157.5280 H   0  0  0  0  0  0  0  0  0  0  0  0
  151.7892  137.3370  156.8726 H   0  0  0  0  0  0  0  0  0  0  0  0
  149.3159  138.7019  158.0551 H   0  0  0  0  0  0  0  0  0  0  0  0
  150.6033  137.9522  158.9687 H   0  0  0  0  0  0  0  0  0  0  0  0
  150.8733  140.4143  158.8735 H   0  0  0  0  0  0  0  0  0  0  0  0
  152.2399  139.6081  158.1298 H   0  0  0  0  0  0  0  0  0  0  0  0
  152.6679  141.7285  156.6469 H   0  0  0  0  0  0  0  0  0  0  0  0
  151.2796  142.4865  155.9281 H   0  0  0  0  0  0  0  0  0  0  0  0
  150.4484  142.3350  158.5633 H   0  0  0  0  0  0  0  0  0  0  0  0
  152.2411  144.5408  157.4308 H   0  0  0  0  0  0  0  0  0  0  0  0
  150.5204  144.4473  157.1857 H   0  0  0  0  0  0  0  0  0  0  0  0
  151.0608  146.0229  159.0188 H   0  0  0  0  0  0  0  0  0  0  0  0
  150.1092  144.6838  159.6148 H   0  0  0  0  0  0  0  0  0  0  0  0
  153.1381  145.0084  159.8769 H   0  0  0  0  0  0  0  0  0  0  0  0
  151.9723  145.1257  161.1738 H   0  0  0  0  0  0  0  0  0  0  0  0
  153.1130  142.8928  161.1409 H   0  0  0  0  0  0  0  0  0  0  0  0
  151.3844  142.7420  160.9420 H   0  0  0  0  0  0  0  0  0  0  0  0
  152.5428  141.2836  159.3309 H   0  0  0  0  0  0  0  0  0  0  0  0
  153.4734  142.6260  158.7117 H   0  0  0  0  0  0  0  0  0  0  0  0
  151.0425  140.2903  154.6519 H   0  0  0  0  0  0  0  0  0  0  0  0
  152.3562  139.5505  155.5480 H   0  0  0  0  0  0  0  0  0  0  0  0
  150.8003  137.8313  154.6716 H   0  0  0  0  0  0  0  0  0  0  0  0
  149.4374  138.6288  155.4200 H   0  0  0  0  0  0  0  0  0  0  0  0
  149.9444  140.7361  156.7138 H   0  0  0  0  0  0  0  0  0  0  0  0
  1  2  2  0  0  0  0
  2  3  1  0  0  0  0
  2 11  1  0  0  0  0
  3  4  1  0  0  0  0
  3 25  1  0  0  0  0
  3 26  1  0  0  0  0
  4  9  1  0  0  0  0
  4  5  1  0  0  0  0
  5  6  2  0  0  0  0
  5 27  1  0  0  0  0
  6  7  1  0  0  0  0
  6 28  1  0  0  0  0
  7  8  2  0  0  0  0
  7 29  1  0  0  0  0
  8  9  1  0  0  0  0
  9 10  2  0  0  0  0
 11 12  1  0  0  0  0
 11 30  1  0  0  0  0
 12 24  1  0  0  0  0
 12 13  1  0  0  0  0
 12 31  1  0  0  0  0
 13 14  1  0  0  0  0
 13 32  1  0  0  0  0
 13 33  1  0  0  0  0
 14 15  1  0  0  0  0
 14 34  1  0  0  0  0
 14 35  1  0  0  0  0
 15 16  1  0  0  0  0
 15 23  1  0  0  0  0
 15 53  1  0  0  0  0
 16 17  1  0  0  0  0
 16 36  1  0  0  0  0
 16 37  1  0  0  0  0
 17 22  1  0  0  0  0
 17 18  1  0  0  0  0
 17 38  1  0  0  0  0
 18 19  1  0  0  0  0
 18 39  1  0  0  0  0
 18 40  1  0  0  0  0
 19 20  1  0  0  0  0
 19 41  1  0  0  0  0
 19 42  1  0  0  0  0
 20 21  1  0  0  0  0
 20 43  1  0  0  0  0
 20 44  1  0  0  0  0
 21 22  1  0  0  0  0
 21 45  1  0  0  0  0
 21 46  1  0  0  0  0
 22 47  1  0  0  0  0
 22 48  1  0  0  0  0
 23 24  1  0  0  0  0
 23 49  1  0  0  0  0
 23 50  1  0  0  0  0
 24 51  1  0  0  0  0
 24 52  1  0  0  0  0
M  CHG  1  15   1
M  END
> <s_m_source_file>
AV-unprocessed.smi

> <i_m_source_file_index>
1613

> <i_lp_mmshare_version>
43012

> <i_f3d_flags>
0

> <s_epik_input>
Tz1jMW5bY0hdW2NIXVtjSF1uMVtDSDJdQyg9TylbTkhdW0NIXTJbQ0gyXVtDSDJdTihbQ0gyXVtDSDJdMilbQ0gyXVtDSF0zW0NIMl1bQ0gyXVtDSDJdW0NIMl1bQ0gyXTM=

> <s_epik_cmdline>
J2VwaWtfcHl0aG9uJywgJy1waCcsICc3LjAnLCAnLXRuJywgJzgnLCAnLW1hJywgJzIwMCcsICctbWV0YWxfYmluZGluZycsICctaW1hZScsICc8aW5maWxlLm1hZT4nLCAnLW9tYWUnLCAnPG91dGZpbGUubWFlPic=

> <r_lp_tautomer_probability>
1

> <r_epik_Ionization_Penalty>
0.00530026

> <r_epik_Ionization_Penalty_Charging>
0.00529416

> <r_epik_Ionization_Penalty_Neutral>
6.10215e-06

> <r_epik_State_Penalty>
0.00386377

> <r_epik_Charging_Adjusted_Penalty>
0.00915793

> <i_epik_Tot_Q>
1

> <i_epik_Tot_abs_Q>
1

> <r_epik_Metal_State_Penalty>
-0

> <b_epik_Metal_Only>
0

> <s_lp_Force_Field>
OPLS_2005

> <r_lp_Energy>
30.7073

> <b_lp_Chiralities_Consistent>
1

> <s_lp_Variant>
AV-unprocessed.smi:1613-1

> <Gold.Version>
5.8.1

> <Gold.Id.Protein>
6NUR|6NUR_protein|mol2

> <Gold.PLP.Fitness>
45.0160

> <Gold.PLP.PLP>
-41.2641

> <Gold.PLP.part.hbond>
-2.0000

> <Gold.PLP.part.metal>
0.0000

> <Gold.PLP.part.buried>
-6.5903

> <Gold.PLP.part.nonpolar>
-32.8632

> <Gold.PLP.part.repulsive>
0.2832

> <Gold.PLP.ligand.clash>
0.0000

> <Gold.PLP.ligand.torsion>
0.8679

> <Gold.PLP.Chemscore.Hbond>
1.8000

> <Gold.PLP.Chemscore.CHOScore>
0.0000

> <Gold.PLP.Chemscore.Metal>
0.0000

> <Gold.Chemscore.Hbonds>
donor molecule, donor type, donor heavy atom, donor atom, acceptor molecule, acceptor atom, score
      P1  H  6896  6908       L1    10  0.74
      P1  H 10752 10764       L1     1  0.80

> <Gold.PLP.Chemscore.Internal.Correction>
0.0878

> <Gold.Rescore>
     Score         DG    S(hbond)    S(metal)    S(lipo)     H(rot)  DE(clash)    DE(int)     intcor
     18.55     -20.17       1.87        0.00     112.49       1.84       0.04       1.59       ----

> <Gold.Chemscore.Fitness>
18.5478

> <Gold.Chemscore.DG>
-20.1696

> <Gold.Chemscore.ZeroCoef>
-5.4800

> <Gold.Chemscore.Hbond>
1.8693

> <Gold.Chemscore.Metal>
0.0000

> <Gold.Chemscore.Lipo>
112.4861

> <Gold.Chemscore.Internal_Hbond>
0.0000

> <Gold.Chemscore.DEClash>
0.0359

> <Gold.Chemscore.DEInternal>
1.5859

> <Gold.Chemscore.Rot>
1.8417

> <Gold.Chemscore.Internal.Correction>
   9.000000E+99

> <Gold.Chemscore.Hbonds>
donor molecule, donor type, donor heavy atom, donor atom, acceptor molecule, acceptor atom, score
      P1  H  6896  6908       L1    10  0.74
      P1  H 10752 10764       L1     1  0.76

> <Gold.Chemscore.Hbond.Weighted>
-6.2434

> <Gold.Chemscore.Metal.Weighted>
-0.0000

> <Gold.Chemscore.Lipo.Weighted>
-13.1609

> <Gold.Chemscore.Internal_Hbond.Weighted>
0.0000

> <Gold.Chemscore.DEClash.Weighted>
0.0359

> <Gold.Chemscore.DEInternal.Weighted>
1.5859

> <Gold.Chemscore.Rot.Weighted>
4.7147

> <Gold.Chemscore.Internal.Correction.Weighted>
   9.000000E+99

> <Gold.Protein.RotatedTorsions>
[ 6907 6896 6895 6894 ] final   62.16 input  -60.11 | X-H torsion
[ 7974 7965 7964 7962 ] final -163.50 input  175.53 | X-H torsion
[ 8008 7997 7996 7995 ] final  143.01 input   59.86 | X-H torsion
[ 10167 10162 10161 10158 ] final -109.67 input  -65.29 | X-H torsion
[ 10718 10713 10712 10709 ] final -165.33 input   66.30 | X-H torsion
[ 10763 10752 10751 10750 ] final  -51.79 input  -60.55 | X-H torsion
[ 11005 11000 10999 10996 ] final -170.79 input  -57.11 | X-H torsion

> <Gold.Protein.ActiveResidues>
 VAL166  LYS551  ARG553  GLY616  TRP617  ASP618  TYR619  PRO620  LYS621  CYS622 
 ASP623  PHE694  ASN695  SER759  ASP760  ASP761  ALA762  ILE779  LEU786  VAL792 
 PHE793  MET794  SER795  GLU796  ALA797  LYS798  CYS799  TRP800  GLU811  SER814 

> <Gold.Protein.RotatedAtoms>
  152.4149  134.6060  160.0012 H   0  0  0  0  0  0  0  0  0  0  0  0  # atno 6907 bound_to 6896
  151.6226  133.3332  159.3099 H   0  0  0  0  0  0  0  0  0  0  0  0  # atno 6908 bound_to 6896
  150.8038  134.7189  159.6691 H   0  0  0  0  0  0  0  0  0  0  0  0  # atno 6909 bound_to 6896
  144.7324  140.3099  143.6190 H   0  0  0  0  0  0  0  0  0  0  0  0  # atno 7974 bound_to 7965
  156.2938  140.2273  156.4821 H   0  0  0  0  0  0  0  0  0  0  0  0  # atno 8008 bound_to 7997
  154.7844  140.0458  157.1173 H   0  0  0  0  0  0  0  0  0  0  0  0  # atno 8009 bound_to 7997
  154.9720  140.3068  155.4987 H   0  0  0  0  0  0  0  0  0  0  0  0  # atno 8010 bound_to 7997
  140.1528  143.4184  152.1482 H   0  0  0  0  0  0  0  0  0  0  0  0  # atno 10167 bound_to 10162
  156.6519  130.9011  151.3014 H   0  0  0  0  0  0  0  0  0  0  0  0  # atno 10718 bound_to 10713
  154.1323  135.6518  153.4924 H   0  0  0  0  0  0  0  0  0  0  0  0  # atno 10763 bound_to 10752
  153.0191  135.5295  154.6989 H   0  0  0  0  0  0  0  0  0  0  0  0  # atno 10764 bound_to 10752
  154.6227  135.2966  155.0278 H   0  0  0  0  0  0  0  0  0  0  0  0  # atno 10765 bound_to 10752
  140.5156  134.5759  157.5032 H   0  0  0  0  0  0  0  0  0  0  0  0  # atno 11005 bound_to 11000
  145.7676  139.1846  143.2231 LP  0  0  0  0  0  0  0  0  0  0  0  0  # atno 17320 bound_to 7965
  146.0937  140.7626  142.9583 LP  0  0  0  0  0  0  0  0  0  0  0  0  # atno 17321 bound_to 7965
  139.5417  144.7263  151.4711 LP  0  0  0  0  0  0  0  0  0  0  0  0  # atno 17342 bound_to 10162
  140.6692  143.8332  150.6978 LP  0  0  0  0  0  0  0  0  0  0  0  0  # atno 17343 bound_to 10162
  157.7138  130.9472  150.1182 LP  0  0  0  0  0  0  0  0  0  0  0  0  # atno 17370 bound_to 10713
  156.2078  130.3664  149.8708 LP  0  0  0  0  0  0  0  0  0  0  0  0  # atno 17371 bound_to 10713
  139.9634  134.7413  156.0188 LP  0  0  0  0  0  0  0  0  0  0  0  0  # atno 17394 bound_to 11000
  141.1362  133.6574  156.3600 LP  0  0  0  0  0  0  0  0  0  0  0  0  # atno 17395 bound_to 11000

$$$$
