AV-unprocessed.smi:781|AV-procd|sdf|3708|dock8
  -GOLD-   22720 1133D 1   1.00000     0.00000
 Structure written by MMmdl.
 38 40  0  0  0  0  0  0  0  0  1 V2000
  147.1496  133.7433  162.1366 C   0  0  0  0  0  0  0  0  0  0  0  0
  147.5417  134.9649  161.3781 C   0  0  0  0  0  0  0  0  0  0  0  0
  148.2858  135.1586  160.2483 C   0  0  0  0  0  0  0  0  0  0  0  0
  148.2566  136.5690  160.0839 C   0  0  0  0  0  0  0  0  0  0  0  0
  148.9259  137.1889  158.9982 N   0  0  0  0  0  0  0  0  0  0  0  0
  148.4131  138.0514  158.1044 C   0  0  0  0  0  0  0  0  0  0  0  0
  147.2511  138.4580  158.0950 O   0  0  0  0  0  0  0  0  0  0  0  0
  149.3364  138.4299  157.2098 N   0  0  0  0  0  0  0  0  0  0  0  0
  149.1051  139.3739  156.1158 C   0  0  1  0  0  0  0  0  0  0  0  0
  148.5139  140.7285  156.5867 C   0  0  1  0  0  0  0  0  0  0  0  0
  149.3225  141.3141  157.7640 C   0  0  0  0  0  0  0  0  0  0  0  0
  150.6465  141.7190  157.0919 C   0  0  0  0  0  0  0  0  0  0  0  0
  150.4122  141.3473  155.6125 C   0  0  2  0  0  0  0  0  0  0  0  0
  148.9298  141.6671  155.4586 C   0  0  0  0  0  0  0  0  0  0  0  0
  150.4063  139.8152  155.3881 C   0  0  1  0  0  0  0  0  0  0  0  0
  151.7092  139.0689  155.7545 C   0  0  0  0  0  0  0  0  0  0  0  0
  152.8122  139.6580  155.0993 O   0  0  0  0  0  0  0  0  0  0  0  0
  147.5575  137.1811  161.0274 N   0  0  0  0  0  0  0  0  0  0  0  0
  147.0947  136.1560  161.8610 O   0  0  0  0  0  0  0  0  0  0  0  0
  147.8425  132.9250  161.9408 H   0  0  0  0  0  0  0  0  0  0  0  0
  146.1499  133.4165  161.8510 H   0  0  0  0  0  0  0  0  0  0  0  0
  147.1497  133.9348  163.2098 H   0  0  0  0  0  0  0  0  0  0  0  0
  148.7714  134.4099  159.6404 H   0  0  0  0  0  0  0  0  0  0  0  0
  149.9003  136.9499  158.8911 H   0  0  0  0  0  0  0  0  0  0  0  0
  150.2668  138.0481  157.2921 H   0  0  0  0  0  0  0  0  0  0  0  0
  148.4357  138.9132  155.3865 H   0  0  0  0  0  0  0  0  0  0  0  0
  147.4406  140.6916  156.7759 H   0  0  0  0  0  0  0  0  0  0  0  0
  148.8205  142.1940  158.1687 H   0  0  0  0  0  0  0  0  0  0  0  0
  149.4645  140.6178  158.5902 H   0  0  0  0  0  0  0  0  0  0  0  0
  150.8058  142.7931  157.1943 H   0  0  0  0  0  0  0  0  0  0  0  0
  151.5106  141.2228  157.5309 H   0  0  0  0  0  0  0  0  0  0  0  0
  151.0629  141.8842  154.9215 H   0  0  0  0  0  0  0  0  0  0  0  0
  148.5210  141.3838  154.4870 H   0  0  0  0  0  0  0  0  0  0  0  0
  148.6888  142.7139  155.6530 H   0  0  0  0  0  0  0  0  0  0  0  0
  150.2455  139.6477  154.3213 H   0  0  0  0  0  0  0  0  0  0  0  0
  151.8931  139.0597  156.8283 H   0  0  0  0  0  0  0  0  0  0  0  0
  151.6444  138.0278  155.4369 H   0  0  0  0  0  0  0  0  0  0  0  0
  152.9432  139.2166  154.2741 H   0  0  0  0  0  0  0  0  0  0  0  0
  1  2  1  0  0  0  0
  1 20  1  0  0  0  0
  1 21  1  0  0  0  0
  1 22  1  0  0  0  0
  2 19  1  0  0  0  0
  2  3  2  0  0  0  0
  3  4  1  0  0  0  0
  3 23  1  0  0  0  0
  4  5  1  0  0  0  0
  4 18  2  0  0  0  0
  5  6  1  0  0  0  0
  5 24  1  0  0  0  0
  6  7  2  0  0  0  0
  6  8  1  0  0  0  0
  8  9  1  0  0  0  0
  8 25  1  0  0  0  0
  9 15  1  0  0  0  0
  9 10  1  0  0  0  0
  9 26  1  0  0  0  0
 10 14  1  0  0  0  0
 10 11  1  0  0  0  0
 10 27  1  0  0  0  0
 11 12  1  0  0  0  0
 11 28  1  0  0  0  0
 11 29  1  0  0  0  0
 12 13  1  0  0  0  0
 12 30  1  0  0  0  0
 12 31  1  0  0  0  0
 13 14  1  0  0  0  0
 13 15  1  0  0  0  0
 13 32  1  0  0  0  0
 14 33  1  0  0  0  0
 14 34  1  0  0  0  0
 15 16  1  0  0  0  0
 15 35  1  0  0  0  0
 16 17  1  0  0  0  0
 16 36  1  0  0  0  0
 16 37  1  0  0  0  0
 17 38  1  0  0  0  0
 18 19  1  0  0  0  0
M  END
> <s_m_source_file>
AV-unprocessed.smi

> <i_m_source_file_index>
781

> <i_lp_mmshare_version>
43012

> <i_f3d_flags>
0

> <s_epik_input>
W0NIM11jMVtjSF1jKG5vMSlbTkhdQyg9TylbTkhdW0NASF0oW0NAQEhdMjMpW0NASF0oW0NIMl1bT0hdKVtDQEBIXShbQ0gyXTMpW0NIMl1bQ0gyXTI=

> <s_epik_cmdline>
J2VwaWtfcHl0aG9uJywgJy1waCcsICc3LjAnLCAnLXRuJywgJzgnLCAnLW1hJywgJzIwMCcsICctbWV0YWxfYmluZGluZycsICctaW1hZScsICc8aW5maWxlLm1hZT4nLCAnLW9tYWUnLCAnPG91dGZpbGUubWFlPic=

> <r_lp_tautomer_probability>
1

> <r_epik_Ionization_Penalty>
2.32222e-05

> <r_epik_Ionization_Penalty_Charging>
0

> <r_epik_Ionization_Penalty_Neutral>
2.32222e-05

> <r_epik_State_Penalty>
-0

> <r_epik_Charging_Adjusted_Penalty>
0

> <i_epik_Tot_Q>
0

> <i_epik_Tot_abs_Q>
0

> <r_epik_Metal_State_Penalty>
-0

> <b_epik_Metal_Only>
0

> <s_lp_Force_Field>
OPLS_2005

> <r_lp_Energy>
48.8521

> <b_lp_Chiralities_Consistent>
1

> <s_lp_Variant>
AV-unprocessed.smi:781-2

> <Gold.Version>
5.8.1

> <Gold.Id.Protein>
6NUR|6NUR_protein|mol2

> <Gold.PLP.Fitness>
36.0698

> <Gold.PLP.PLP>
-28.7055

> <Gold.PLP.part.hbond>
-4.1906

> <Gold.PLP.part.metal>
0.0000

> <Gold.PLP.part.buried>
-3.3163

> <Gold.PLP.part.nonpolar>
-20.9372

> <Gold.PLP.part.repulsive>
0.2214

> <Gold.PLP.ligand.clash>
0.0000

> <Gold.PLP.ligand.torsion>
0.5590

> <Gold.PLP.Chemscore.Hbond>
2.8240

> <Gold.PLP.Chemscore.CHOScore>
0.0000

> <Gold.PLP.Chemscore.Metal>
0.0000

> <Gold.Chemscore.Hbonds>
donor molecule, donor type, donor heavy atom, donor atom, acceptor molecule, acceptor atom, score
      P1  H  6931  6943       L1    18  0.88
      P1  H  6934  6947       L1    18  0.96
      P1  H  7997  8009       L1    17  1.00

> <Gold.PLP.Chemscore.Internal.Correction>
0.0101

> <Gold.Rescore>
     Score         DG    S(hbond)    S(metal)    S(lipo)     H(rot)  DE(clash)    DE(int)     intcor
     14.62     -16.18       2.45        0.00      62.34       1.86       0.08       1.48       ----

> <Gold.Chemscore.Fitness>
14.6248

> <Gold.Chemscore.DG>
-16.1830

> <Gold.Chemscore.ZeroCoef>
-5.4800

> <Gold.Chemscore.Hbond>
2.4455

> <Gold.Chemscore.Metal>
0.0000

> <Gold.Chemscore.Lipo>
62.3352

> <Gold.Chemscore.Internal_Hbond>
0.0000

> <Gold.Chemscore.DEClash>
0.0803

> <Gold.Chemscore.DEInternal>
1.4779

> <Gold.Chemscore.Rot>
1.8587

> <Gold.Chemscore.Internal.Correction>
   9.000000E+99

> <Gold.Chemscore.Hbonds>
donor molecule, donor type, donor heavy atom, donor atom, acceptor molecule, acceptor atom, score
      P1  H  6931  6943       L1    18  0.17
      P1  H  6934  6947       L1    18  0.91
      P1  H  7997  8009       L1    17  0.88

> <Gold.Chemscore.Hbond.Weighted>
-8.1681

> <Gold.Chemscore.Metal.Weighted>
-0.0000

> <Gold.Chemscore.Lipo.Weighted>
-7.2932

> <Gold.Chemscore.Internal_Hbond.Weighted>
0.0000

> <Gold.Chemscore.DEClash.Weighted>
0.0803

> <Gold.Chemscore.DEInternal.Weighted>
1.4779

> <Gold.Chemscore.Rot.Weighted>
4.7583

> <Gold.Chemscore.Internal.Correction.Weighted>
   9.000000E+99

> <Gold.Protein.RotatedTorsions>
[ 6907 6896 6895 6894 ] final  -84.41 input  -60.11 | X-H torsion
[ 7974 7965 7964 7962 ] final   97.03 input  175.53 | X-H torsion
[ 8008 7997 7996 7995 ] final -141.28 input   59.86 | X-H torsion
[ 10167 10162 10161 10158 ] final -165.72 input  -65.29 | X-H torsion
[ 10718 10713 10712 10709 ] final  123.32 input   66.30 | X-H torsion
[ 10763 10752 10751 10750 ] final   81.83 input  -60.55 | X-H torsion
[ 11005 11000 10999 10996 ] final -174.28 input  -57.11 | X-H torsion

> <Gold.Protein.ActiveResidues>
 VAL166  LYS551  ARG553  GLY616  TRP617  ASP618  TYR619  PRO620  LYS621  CYS622 
 ASP623  PHE694  ASN695  SER759  ASP760  ASP761  ALA762  ILE779  LEU786  VAL792 
 PHE793  MET794  SER795  GLU796  ALA797  LYS798  CYS799  TRP800  GLU811  SER814 

> <Gold.Protein.RotatedAtoms>
  150.6877  134.3362  159.4848 H   0  0  0  0  0  0  0  0  0  0  0  0  # atno 6907 bound_to 6896
  152.1221  134.9195  160.0572 H   0  0  0  0  0  0  0  0  0  0  0  0  # atno 6908 bound_to 6896
  152.0397  133.3937  159.4368 H   0  0  0  0  0  0  0  0  0  0  0  0  # atno 6909 bound_to 6896
  145.4309  139.2311  143.3145 H   0  0  0  0  0  0  0  0  0  0  0  0  # atno 7974 bound_to 7965
  155.4752  140.0556  157.2974 H   0  0  0  0  0  0  0  0  0  0  0  0  # atno 8008 bound_to 7997
  154.4682  140.2028  156.0016 H   0  0  0  0  0  0  0  0  0  0  0  0  # atno 8009 bound_to 7997
  156.1011  140.3219  155.7948 H   0  0  0  0  0  0  0  0  0  0  0  0  # atno 8010 bound_to 7997
  139.6163  144.0713  152.1891 H   0  0  0  0  0  0  0  0  0  0  0  0  # atno 10167 bound_to 10162
  157.5674  131.1085  150.8430 H   0  0  0  0  0  0  0  0  0  0  0  0  # atno 10718 bound_to 10713
  153.1151  135.4751  154.9101 H   0  0  0  0  0  0  0  0  0  0  0  0  # atno 10763 bound_to 10752
  154.7520  135.3108  154.8543 H   0  0  0  0  0  0  0  0  0  0  0  0  # atno 10764 bound_to 10752
  153.9122  135.6864  153.4804 H   0  0  0  0  0  0  0  0  0  0  0  0  # atno 10765 bound_to 10752
  140.4763  134.6117  157.4902 H   0  0  0  0  0  0  0  0  0  0  0  0  # atno 11005 bound_to 11000
  146.2607  140.5046  142.8854 LP  0  0  0  0  0  0  0  0  0  0  0  0  # atno 17320 bound_to 7965
  144.8183  140.6507  143.6369 LP  0  0  0  0  0  0  0  0  0  0  0  0  # atno 17321 bound_to 7965
  140.0344  144.6056  150.7462 LP  0  0  0  0  0  0  0  0  0  0  0  0  # atno 17342 bound_to 10162
  140.7353  143.2739  151.3802 LP  0  0  0  0  0  0  0  0  0  0  0  0  # atno 17343 bound_to 10162
  156.8911  130.5213  149.5286 LP  0  0  0  0  0  0  0  0  0  0  0  0  # atno 17370 bound_to 10713
  156.0721  130.5752  150.9404 LP  0  0  0  0  0  0  0  0  0  0  0  0  # atno 17371 bound_to 10713
  139.9854  134.7070  155.9784 LP  0  0  0  0  0  0  0  0  0  0  0  0  # atno 17394 bound_to 11000
  141.1553  133.6543  156.4141 LP  0  0  0  0  0  0  0  0  0  0  0  0  # atno 17395 bound_to 11000

$$$$
