AV-unprocessed.smi:276|AV-procd|sdf|2084|dock2
  -GOLD-   2262021353D 1   1.00000     0.00000
 Structure written by MMmdl.
 57 61  0  0  0  0  0  0  0  0  1 V2000
  143.8380  135.9333  162.2422 C   0  0  0  0  0  0  0  0  0  0  0  0
  144.3281  136.4186  161.0046 O   0  0  0  0  0  0  0  0  0  0  0  0
  145.5907  137.0536  161.1291 C   0  0  2  0  0  0  0  0  0  0  0  0
  146.2422  137.4381  159.7955 C   0  0  0  0  0  0  0  0  0  0  0  0
  147.5798  137.0302  160.4275 C   0  0  2  0  0  0  0  0  0  0  0  0
  148.5002  136.4025  159.4762 N   0  0  0  0  0  0  0  0  0  0  0  0
  147.8852  135.6858  158.3661 C   0  0  0  0  0  0  0  0  0  0  0  0
  149.5095  137.1806  159.0230 C   0  0  0  0  0  0  0  0  0  0  0  0
  150.7669  136.6846  159.1402 N   0  0  0  0  0  0  0  0  0  0  0  0
  151.8130  137.4039  158.7235 C   0  0  0  0  0  0  0  0  0  0  0  0
  151.8238  138.6150  158.1628 N   0  0  0  0  0  0  0  0  0  0  0  0
  150.5591  139.1062  158.0222 C   0  0  0  0  0  0  0  0  0  0  0  0
  149.3531  138.4600  158.4152 C   0  0  0  0  0  0  0  0  0  0  0  0
  148.2637  139.2621  158.0937 N   0  0  0  0  0  0  0  0  0  0  0  0
  148.7957  140.3259  157.5566 C   0  0  0  0  0  0  0  0  0  0  0  0
  150.1691  140.3152  157.4763 N   0  0  0  0  0  0  0  0  0  0  0  0
  151.0178  141.3575  156.9277 C   0  0  0  0  0  0  0  0  0  0  0  0
  151.0228  142.6293  157.7969 C   0  0  1  0  0  0  0  0  0  0  0  0
  149.7366  143.2200  157.8218 O   0  0  0  0  0  0  0  0  0  0  0  0
  151.5381  142.3675  159.2270 C   0  0  1  0  0  0  0  0  0  0  0  0
  152.9468  141.7801  159.3580 C   0  0  0  0  0  0  0  0  0  0  0  0
  153.4061  142.2595  160.7293 C   0  0  0  0  0  0  0  0  0  0  0  0
  152.3181  143.2388  161.1818 C   0  0  0  0  0  0  0  0  0  0  0  0
  151.5903  143.5532  160.0040 O   0  0  0  0  0  0  0  0  0  0  0  0
  146.7630  136.0758  161.3397 C   0  0  0  0  0  0  0  0  0  0  0  0
  147.2280  135.7112  162.7555 C   0  0  0  0  0  0  0  0  0  0  0  0
  147.4459  134.2683  162.2879 C   0  0  0  0  0  0  0  0  0  0  0  0
  146.5957  134.5701  161.0493 C   0  0  0  0  0  0  0  0  0  0  0  0
  142.8752  135.4461  162.0886 H   0  0  0  0  0  0  0  0  0  0  0  0
  143.6939  136.7437  162.9578 H   0  0  0  0  0  0  0  0  0  0  0  0
  144.5205  135.2009  162.6756 H   0  0  0  0  0  0  0  0  0  0  0  0
  145.6014  137.8663  161.8592 H   0  0  0  0  0  0  0  0  0  0  0  0
  145.9329  136.7923  158.9711 H   0  0  0  0  0  0  0  0  0  0  0  0
  146.1611  138.4939  159.5363 H   0  0  0  0  0  0  0  0  0  0  0  0
  148.0099  137.8643  160.9837 H   0  0  0  0  0  0  0  0  0  0  0  0
  147.3438  136.3735  157.7151 H   0  0  0  0  0  0  0  0  0  0  0  0
  147.1810  134.9380  158.7307 H   0  0  0  0  0  0  0  0  0  0  0  0
  148.6358  135.1660  157.7686 H   0  0  0  0  0  0  0  0  0  0  0  0
  152.7803  136.9433  158.8606 H   0  0  0  0  0  0  0  0  0  0  0  0
  148.1974  141.1505  157.1971 H   0  0  0  0  0  0  0  0  0  0  0  0
  152.0287  140.9617  156.8202 H   0  0  0  0  0  0  0  0  0  0  0  0
  150.6651  141.5895  155.9221 H   0  0  0  0  0  0  0  0  0  0  0  0
  151.6886  143.3595  157.3349 H   0  0  0  0  0  0  0  0  0  0  0  0
  149.6490  143.7793  157.0654 H   0  0  0  0  0  0  0  0  0  0  0  0
  150.8379  141.6928  159.7237 H   0  0  0  0  0  0  0  0  0  0  0  0
  152.9474  140.6934  159.2696 H   0  0  0  0  0  0  0  0  0  0  0  0
  153.6207  142.1752  158.5977 H   0  0  0  0  0  0  0  0  0  0  0  0
  153.5109  141.4363  161.4367 H   0  0  0  0  0  0  0  0  0  0  0  0
  154.3731  142.7579  160.6521 H   0  0  0  0  0  0  0  0  0  0  0  0
  151.6477  142.7615  161.8981 H   0  0  0  0  0  0  0  0  0  0  0  0
  152.7275  144.1360  161.6464 H   0  0  0  0  0  0  0  0  0  0  0  0
  148.1334  136.2200  163.0858 H   0  0  0  0  0  0  0  0  0  0  0  0
  146.4288  135.7952  163.4933 H   0  0  0  0  0  0  0  0  0  0  0  0
  148.4872  134.0514  162.0505 H   0  0  0  0  0  0  0  0  0  0  0  0
  147.0228  133.5125  162.9497 H   0  0  0  0  0  0  0  0  0  0  0  0
  145.5706  134.2180  161.1678 H   0  0  0  0  0  0  0  0  0  0  0  0
  147.0219  134.2200  160.1095 H   0  0  0  0  0  0  0  0  0  0  0  0
  1  2  1  0  0  0  0
  1 29  1  0  0  0  0
  1 30  1  0  0  0  0
  1 31  1  0  0  0  0
  2  3  1  0  0  0  0
  3 25  1  0  0  0  0
  3  4  1  0  0  0  0
  3 32  1  0  0  0  0
  4  5  1  0  0  0  0
  4 33  1  0  0  0  0
  4 34  1  0  0  0  0
  5  6  1  0  0  0  0
  5 25  1  0  0  0  0
  5 35  1  0  0  0  0
  6  7  1  0  0  0  0
  6  8  1  0  0  0  0
  7 36  1  0  0  0  0
  7 37  1  0  0  0  0
  7 38  1  0  0  0  0
  8 13  1  0  0  0  0
  8  9  2  0  0  0  0
  9 10  1  0  0  0  0
 10 11  2  0  0  0  0
 10 39  1  0  0  0  0
 11 12  1  0  0  0  0
 12 16  1  0  0  0  0
 12 13  2  0  0  0  0
 13 14  1  0  0  0  0
 14 15  2  0  0  0  0
 15 16  1  0  0  0  0
 15 40  1  0  0  0  0
 16 17  1  0  0  0  0
 17 18  1  0  0  0  0
 17 41  1  0  0  0  0
 17 42  1  0  0  0  0
 18 19  1  0  0  0  0
 18 20  1  0  0  0  0
 18 43  1  0  0  0  0
 19 44  1  0  0  0  0
 20 24  1  0  0  0  0
 20 21  1  0  0  0  0
 20 45  1  0  0  0  0
 21 22  1  0  0  0  0
 21 46  1  0  0  0  0
 21 47  1  0  0  0  0
 22 23  1  0  0  0  0
 22 48  1  0  0  0  0
 22 49  1  0  0  0  0
 23 24  1  0  0  0  0
 23 50  1  0  0  0  0
 23 51  1  0  0  0  0
 25 28  1  0  0  0  0
 25 26  1  0  0  0  0
 26 27  1  0  0  0  0
 26 52  1  0  0  0  0
 26 53  1  0  0  0  0
 27 28  1  0  0  0  0
 27 54  1  0  0  0  0
 27 55  1  0  0  0  0
 28 56  1  0  0  0  0
 28 57  1  0  0  0  0
M  END
> <s_m_source_file>
AV-unprocessed.smi

> <i_m_source_file_index>
276

> <i_lp_mmshare_version>
43012

> <i_f3d_flags>
0

> <s_epik_input>
W0NIMl0xW0NIMl1bQ0gyXUMxMltDQEhdKE9bQ0gzXSlbQ0gyXVtDQEhdMk4oW0NIM10pYyhuW2NIXW4zKWMoYzM0KW5bY0hdbjRbQ0gyXVtDQEhdKFtPSF0pW0NAQEhdNVtDSDJdW0NIMl1bQ0gyXU81

> <s_epik_cmdline>
J2VwaWtfcHl0aG9uJywgJy1waCcsICc3LjAnLCAnLXRuJywgJzgnLCAnLW1hJywgJzIwMCcsICctbWV0YWxfYmluZGluZycsICctaW1hZScsICc8aW5maWxlLm1hZT4nLCAnLW9tYWUnLCAnPG91dGZpbGUubWFlPic=

> <r_lp_tautomer_probability>
1

> <r_epik_Ionization_Penalty>
0.00204117

> <r_epik_Ionization_Penalty_Charging>
0

> <r_epik_Ionization_Penalty_Neutral>
0.00204117

> <r_epik_State_Penalty>
0.00127401

> <r_epik_Charging_Adjusted_Penalty>
0.00127401

> <i_epik_Tot_Q>
0

> <i_epik_Tot_abs_Q>
0

> <r_epik_Metal_State_Penalty>
-0

> <b_epik_Metal_Only>
0

> <s_lp_Force_Field>
OPLS_2005

> <r_lp_Energy>
58.0628

> <b_lp_Chiralities_Consistent>
1

> <s_lp_Variant>
AV-unprocessed.smi:276-15

> <Gold.Version>
5.8.1

> <Gold.Id.Protein>
6NUR|6NUR_protein|mol2

> <Gold.PLP.Fitness>
50.2392

> <Gold.PLP.PLP>
-45.8034

> <Gold.PLP.part.hbond>
-2.6413

> <Gold.PLP.part.metal>
0.0000

> <Gold.PLP.part.buried>
-5.6222

> <Gold.PLP.part.nonpolar>
-36.7257

> <Gold.PLP.part.repulsive>
0.0422

> <Gold.PLP.ligand.clash>
0.0000

> <Gold.PLP.ligand.torsion>
1.1331

> <Gold.PLP.Chemscore.Hbond>
2.0000

> <Gold.PLP.Chemscore.CHOScore>
0.0000

> <Gold.PLP.Chemscore.Metal>
0.0000

> <Gold.Chemscore.Hbonds>
donor molecule, donor type, donor heavy atom, donor atom, acceptor molecule, acceptor atom, score
      L1  H    19    44       P1  8028  1.00
      P1  H  6896  6907       L1     9  1.00

> <Gold.PLP.Chemscore.Internal.Correction>
0.7021

> <Gold.Rescore>
     Score         DG    S(hbond)    S(metal)    S(lipo)     H(rot)  DE(clash)    DE(int)     intcor
     16.32     -18.16       1.91        0.00     113.32       2.72       0.41       1.43       ----

> <Gold.Chemscore.Fitness>
16.3153

> <Gold.Chemscore.DG>
-18.1614

> <Gold.Chemscore.ZeroCoef>
-5.4800

> <Gold.Chemscore.Hbond>
1.9100

> <Gold.Chemscore.Metal>
0.0000

> <Gold.Chemscore.Lipo>
113.3168

> <Gold.Chemscore.Internal_Hbond>
0.0000

> <Gold.Chemscore.DEClash>
0.4122

> <Gold.Chemscore.DEInternal>
1.4340

> <Gold.Chemscore.Rot>
2.7172

> <Gold.Chemscore.Internal.Correction>
   9.000000E+99

> <Gold.Chemscore.Hbonds>
donor molecule, donor type, donor heavy atom, donor atom, acceptor molecule, acceptor atom, score
      L1  H    19    44       P1  8028  0.88
      P1  H  6896  6907       L1     9  0.92

> <Gold.Chemscore.Hbond.Weighted>
-6.3793

> <Gold.Chemscore.Metal.Weighted>
-0.0000

> <Gold.Chemscore.Lipo.Weighted>
-13.2581

> <Gold.Chemscore.Internal_Hbond.Weighted>
0.0000

> <Gold.Chemscore.DEClash.Weighted>
0.4122

> <Gold.Chemscore.DEInternal.Weighted>
1.4340

> <Gold.Chemscore.Rot.Weighted>
6.9560

> <Gold.Chemscore.Internal.Correction.Weighted>
   9.000000E+99

> <Gold.Protein.RotatedTorsions>
[ 6907 6896 6895 6894 ] final  -27.36 input  -60.11 | X-H torsion
[ 7974 7965 7964 7962 ] final  -52.01 input  175.53 | X-H torsion
[ 8008 7997 7996 7995 ] final  168.24 input   59.86 | X-H torsion
[ 10167 10162 10161 10158 ] final  -41.28 input  -65.29 | X-H torsion
[ 10718 10713 10712 10709 ] final   92.84 input   66.30 | X-H torsion
[ 10763 10752 10751 10750 ] final   46.11 input  -60.55 | X-H torsion
[ 11005 11000 10999 10996 ] final -173.77 input  -57.11 | X-H torsion

> <Gold.Protein.ActiveResidues>
 VAL166  LYS551  ARG553  GLY616  TRP617  ASP618  TYR619  PRO620  LYS621  CYS622 
 ASP623  PHE694  ASN695  SER759  ASP760  ASP761  ALA762  ILE779  LEU786  VAL792 
 PHE793  MET794  SER795  GLU796  ALA797  LYS798  CYS799  TRP800  GLU811  SER814 

> <Gold.Protein.RotatedAtoms>
  151.1479  135.0213  159.8654 H   0  0  0  0  0  0  0  0  0  0  0  0  # atno 6907 bound_to 6896
  152.5453  134.1422  159.8494 H   0  0  0  0  0  0  0  0  0  0  0  0  # atno 6908 bound_to 6896
  151.1504  133.4865  159.2628 H   0  0  0  0  0  0  0  0  0  0  0  0  # atno 6909 bound_to 6896
  145.9127  140.7901  142.9687 H   0  0  0  0  0  0  0  0  0  0  0  0  # atno 7974 bound_to 7965
  156.1564  140.1596  156.8685 H   0  0  0  0  0  0  0  0  0  0  0  0  # atno 8008 bound_to 7997
  154.5119  140.0799  156.8042 H   0  0  0  0  0  0  0  0  0  0  0  0  # atno 8009 bound_to 7997
  155.3794  140.3404  155.4248 H   0  0  0  0  0  0  0  0  0  0  0  0  # atno 8010 bound_to 7997
  140.7008  143.3104  151.3043 H   0  0  0  0  0  0  0  0  0  0  0  0  # atno 10167 bound_to 10162
  157.6957  131.0457  150.3943 H   0  0  0  0  0  0  0  0  0  0  0  0  # atno 10718 bound_to 10713
  152.9815  135.6018  154.3546 H   0  0  0  0  0  0  0  0  0  0  0  0  # atno 10763 bound_to 10752
  154.3233  135.2769  155.2510 H   0  0  0  0  0  0  0  0  0  0  0  0  # atno 10764 bound_to 10752
  154.4667  135.5952  153.6349 H   0  0  0  0  0  0  0  0  0  0  0  0  # atno 10765 bound_to 10752
  140.4820  134.6066  157.4923 H   0  0  0  0  0  0  0  0  0  0  0  0  # atno 11005 bound_to 11000
  144.6745  140.1851  143.7402 LP  0  0  0  0  0  0  0  0  0  0  0  0  # atno 17320 bound_to 7965
  145.8651  139.2242  143.1694 LP  0  0  0  0  0  0  0  0  0  0  0  0  # atno 17321 bound_to 7965
  139.6525  144.0337  152.2636 LP  0  0  0  0  0  0  0  0  0  0  0  0  # atno 17342 bound_to 10162
  139.9878  144.6383  150.7842 LP  0  0  0  0  0  0  0  0  0  0  0  0  # atno 17343 bound_to 10162
  156.4343  130.3978  149.6739 LP  0  0  0  0  0  0  0  0  0  0  0  0  # atno 17370 bound_to 10713
  156.3945  130.7644  151.2647 LP  0  0  0  0  0  0  0  0  0  0  0  0  # atno 17371 bound_to 10713
  139.9820  134.7121  155.9841 LP  0  0  0  0  0  0  0  0  0  0  0  0  # atno 17394 bound_to 11000
  141.1526  133.6546  156.4061 LP  0  0  0  0  0  0  0  0  0  0  0  0  # atno 17395 bound_to 11000

$$$$
