AV-unprocessed.smi:2774|AV-procd|sdf|10682|dock2
  -GOLD-   2272015123D 1   1.00000     0.00000
 Structure written by MMmdl.
 35 36  0  0  0  0  0  0  0  0  2 V2000
  149.1982  142.1168  154.7405 O   0  0  0  0  0  0  0  0  0  0  0  0
  149.4534  141.1994  155.7862 C   0  0  2  0  0  0  0  0  0  0  0  0
  149.9305  141.9797  157.0236 C   0  0  0  0  0  0  0  0  0  0  0  0
  151.0048  142.9361  156.6772 N   0  3  0  0  0  0  0  0  0  0  0  0
  151.7734  143.4720  157.8225 C   0  0  1  0  0  0  0  0  0  0  0  0
  151.0586  144.6877  158.4541 C   0  0  0  0  0  0  0  0  0  0  0  0
  151.8502  145.3073  159.6179 C   0  0  0  0  0  0  0  0  0  0  0  0
  152.0766  144.3193  160.7702 C   0  0  0  0  0  0  0  0  0  0  0  0
  153.0489  142.8918  160.2219 S   0  0  0  0  0  0  0  0  0  0  0  0
  151.9839  142.3519  158.8573 C   0  0  0  0  0  0  0  0  0  0  0  0
  150.4699  140.1464  155.3744 C   0  0  0  0  0  0  0  0  0  0  0  0
  151.7617  140.1157  155.9437 C   0  0  0  0  0  0  0  0  0  0  0  0
  152.6588  139.1123  155.5261 C   0  0  0  0  0  0  0  0  0  0  0  0
  152.3447  138.1730  154.6086 N   0  0  0  0  0  0  0  0  0  0  0  0
  151.1076  138.2051  154.0688 C   0  0  0  0  0  0  0  0  0  0  0  0
  150.1365  139.1657  154.4165 C   0  0  0  0  0  0  0  0  0  0  0  0
  149.3809  142.9892  155.0563 H   0  0  0  0  0  0  0  0  0  0  0  0
  148.5119  140.6987  156.0168 H   0  0  0  0  0  0  0  0  0  0  0  0
  149.0937  142.5372  157.4467 H   0  0  0  0  0  0  0  0  0  0  0  0
  150.2729  141.2866  157.7921 H   0  0  0  0  0  0  0  0  0  0  0  0
  151.6432  142.4940  156.0308 H   0  0  0  0  0  0  0  0  0  0  0  0
  152.7539  143.7801  157.4559 H   0  0  0  0  0  0  0  0  0  0  0  0
  150.8973  145.4627  157.7053 H   0  0  0  0  0  0  0  0  0  0  0  0
  150.0678  144.3934  158.8036 H   0  0  0  0  0  0  0  0  0  0  0  0
  152.8102  145.6771  159.2557 H   0  0  0  0  0  0  0  0  0  0  0  0
  151.3120  146.1780  159.9941 H   0  0  0  0  0  0  0  0  0  0  0  0
  152.6047  144.8079  161.5894 H   0  0  0  0  0  0  0  0  0  0  0  0
  151.1229  143.9702  161.1674 H   0  0  0  0  0  0  0  0  0  0  0  0
  151.0283  142.0199  159.2655 H   0  0  0  0  0  0  0  0  0  0  0  0
  152.4492  141.4838  158.3892 H   0  0  0  0  0  0  0  0  0  0  0  0
  152.0634  140.8418  156.6845 H   0  0  0  0  0  0  0  0  0  0  0  0
  153.6545  139.0621  155.9413 H   0  0  0  0  0  0  0  0  0  0  0  0
  150.8836  137.4418  153.3386 H   0  0  0  0  0  0  0  0  0  0  0  0
  149.1605  139.1447  153.9543 H   0  0  0  0  0  0  0  0  0  0  0  0
  150.5681  143.7170  156.2087 H   0  0  0  0  0  0  0  0  0  0  0  0
  1  2  1  0  0  0  0
  1 17  1  0  0  0  0
  2  3  1  0  0  0  0
  2 11  1  0  0  0  0
  2 18  1  0  0  0  0
  3  4  1  0  0  0  0
  3 19  1  0  0  0  0
  3 20  1  0  0  0  0
  4  5  1  0  0  0  0
  4 21  1  0  0  0  0
  4 35  1  0  0  0  0
  5 10  1  0  0  0  0
  5  6  1  0  0  0  0
  5 22  1  0  0  0  0
  6  7  1  0  0  0  0
  6 23  1  0  0  0  0
  6 24  1  0  0  0  0
  7  8  1  0  0  0  0
  7 25  1  0  0  0  0
  7 26  1  0  0  0  0
  8  9  1  0  0  0  0
  8 27  1  0  0  0  0
  8 28  1  0  0  0  0
  9 10  1  0  0  0  0
 10 29  1  0  0  0  0
 10 30  1  0  0  0  0
 11 16  1  0  0  0  0
 11 12  2  0  0  0  0
 12 13  1  0  0  0  0
 12 31  1  0  0  0  0
 13 14  2  0  0  0  0
 13 32  1  0  0  0  0
 14 15  1  0  0  0  0
 15 16  2  0  0  0  0
 15 33  1  0  0  0  0
 16 34  1  0  0  0  0
M  CHG  1   4   1
M  END
> <s_m_source_file>
AV-unprocessed.smi

> <i_m_source_file_index>
2774

> <i_lp_mmshare_version>
43012

> <i_f3d_flags>
0

> <s_epik_input>
W2NIXTFbY0hdbltjSF1bY0hdYzFbQ0BIXShbT0hdKVtDSDJdW05IXVtDQEBIXTJbQ0gyXVtDSDJdW0NIMl1TW0NIMl0y

> <s_epik_cmdline>
J2VwaWtfcHl0aG9uJywgJy1waCcsICc3LjAnLCAnLXRuJywgJzgnLCAnLW1hJywgJzIwMCcsICctbWV0YWxfYmluZGluZycsICctaW1hZScsICc8aW5maWxlLm1hZT4nLCAnLW9tYWUnLCAnPG91dGZpbGUubWFlPic=

> <r_epik_Ionization_Penalty>
0.0205977

> <r_epik_Ionization_Penalty_Charging>
0.0185619

> <r_epik_Ionization_Penalty_Neutral>
0.00203589

> <r_epik_State_Penalty>
0.0147768

> <r_epik_Charging_Adjusted_Penalty>
0.0333386

> <i_epik_Tot_Q>
1

> <i_epik_Tot_abs_Q>
1

> <r_epik_Metal_State_Penalty>
0.0152254

> <b_epik_Metal_Only>
0

> <s_lp_Force_Field>
OPLS_2005

> <r_lp_Energy>
10.4363

> <b_lp_Chiralities_Consistent>
1

> <s_lp_Variant>
AV-unprocessed.smi:2774-3

> <Gold.Version>
5.8.1

> <Gold.Id.Protein>
6NUR|6NUR_protein|mol2

> <Gold.PLP.Fitness>
53.7519

> <Gold.PLP.PLP>
-42.4434

> <Gold.PLP.part.hbond>
-2.8785

> <Gold.PLP.part.metal>
0.0000

> <Gold.PLP.part.buried>
-5.4833

> <Gold.PLP.part.nonpolar>
-34.9254

> <Gold.PLP.part.repulsive>
0.1400

> <Gold.PLP.ligand.clash>
0.0000

> <Gold.PLP.ligand.torsion>
0.5777

> <Gold.PLP.Chemscore.Hbond>
3.0000

> <Gold.PLP.Chemscore.CHOScore>
1.1314

> <Gold.PLP.Chemscore.Metal>
0.0000

> <Gold.Chemscore.Hbonds>
donor molecule, donor type, donor heavy atom, donor atom, acceptor molecule, acceptor atom, score
      L1  H     1    17       P1  8028  1.00
      L1  H     4    35       P1  8028  2.00
      L1  C    15    33       P1  7948  0.19
      L1  C    15    33       P1  7949  0.93

> <Gold.PLP.Chemscore.Internal.Correction>
0.0698

> <Gold.Rescore>
     Score         DG    S(hbond)    S(metal)    S(lipo)     H(rot)  DE(clash)    DE(int)     intcor
     20.48     -20.79       1.99        0.00     116.97       1.97       0.02       0.28       ----

> <Gold.Chemscore.Fitness>
20.4838

> <Gold.Chemscore.DG>
-20.7856

> <Gold.Chemscore.ZeroCoef>
-5.4800

> <Gold.Chemscore.Hbond>
1.9940

> <Gold.Chemscore.Metal>
0.0000

> <Gold.Chemscore.Lipo>
116.9663

> <Gold.Chemscore.Internal_Hbond>
0.0000

> <Gold.Chemscore.DEClash>
0.0211

> <Gold.Chemscore.DEInternal>
0.2806

> <Gold.Chemscore.Rot>
1.9686

> <Gold.Chemscore.Internal.Correction>
   9.000000E+99

> <Gold.Chemscore.Hbonds>
donor molecule, donor type, donor heavy atom, donor atom, acceptor molecule, acceptor atom, score
      L1  H     1    17       P1  8028  0.97
      L1  H     4    35       P1  8028  0.90

> <Gold.Chemscore.Hbond.Weighted>
-6.6601

> <Gold.Chemscore.Metal.Weighted>
-0.0000

> <Gold.Chemscore.Lipo.Weighted>
-13.6851

> <Gold.Chemscore.Internal_Hbond.Weighted>
0.0000

> <Gold.Chemscore.DEClash.Weighted>
0.0211

> <Gold.Chemscore.DEInternal.Weighted>
0.2806

> <Gold.Chemscore.Rot.Weighted>
5.0396

> <Gold.Chemscore.Internal.Correction.Weighted>
   9.000000E+99

> <Gold.Protein.RotatedTorsions>
[ 6907 6896 6895 6894 ] final  -74.82 input  -60.11 | X-H torsion
[ 7974 7965 7964 7962 ] final  -73.36 input  175.53 | X-H torsion
[ 8008 7997 7996 7995 ] final -117.02 input   59.86 | X-H torsion
[ 10167 10162 10161 10158 ] final -168.52 input  -65.29 | X-H torsion
[ 10718 10713 10712 10709 ] final  112.28 input   66.30 | X-H torsion
[ 10763 10752 10751 10750 ] final  121.95 input  -60.55 | X-H torsion
[ 11005 11000 10999 10996 ] final   48.04 input  -57.11 | X-H torsion

> <Gold.Protein.ActiveResidues>
 VAL166  LYS551  ARG553  GLY616  TRP617  ASP618  TYR619  PRO620  LYS621  CYS622 
 ASP623  PHE694  ASN695  SER759  ASP760  ASP761  ALA762  ILE779  LEU786  VAL792 
 PHE793  MET794  SER795  GLU796  ALA797  LYS798  CYS799  TRP800  GLU811  SER814 

> <Gold.Protein.RotatedAtoms>
  150.7080  134.4812  159.5471 H   0  0  0  0  0  0  0  0  0  0  0  0  # atno 6907 bound_to 6896
  152.2449  134.8188  160.0464 H   0  0  0  0  0  0  0  0  0  0  0  0  # atno 6908 bound_to 6896
  151.8957  133.3491  159.3850 H   0  0  0  0  0  0  0  0  0  0  0  0  # atno 6909 bound_to 6896
  145.6531  140.9276  143.0974 H   0  0  0  0  0  0  0  0  0  0  0  0  # atno 7974 bound_to 7965
  155.0770  140.0394  157.2627 H   0  0  0  0  0  0  0  0  0  0  0  0  # atno 8008 bound_to 7997
  154.6937  140.2658  155.6763 H   0  0  0  0  0  0  0  0  0  0  0  0  # atno 8009 bound_to 7997
  156.2737  140.2754  156.1524 H   0  0  0  0  0  0  0  0  0  0  0  0  # atno 8010 bound_to 7997
  139.5980  144.1070  152.1711 H   0  0  0  0  0  0  0  0  0  0  0  0  # atno 10167 bound_to 10162
  157.6401  131.0965  150.6872 H   0  0  0  0  0  0  0  0  0  0  0  0  # atno 10718 bound_to 10713
  153.6221  135.3411  155.3014 H   0  0  0  0  0  0  0  0  0  0  0  0  # atno 10763 bound_to 10752
  154.8598  135.4275  154.2196 H   0  0  0  0  0  0  0  0  0  0  0  0  # atno 10764 bound_to 10752
  153.3072  135.7029  153.7222 H   0  0  0  0  0  0  0  0  0  0  0  0  # atno 10765 bound_to 10752
  140.1226  134.4810  155.8585 H   0  0  0  0  0  0  0  0  0  0  0  0  # atno 11005 bound_to 11000
  144.7115  139.8352  143.7413 LP  0  0  0  0  0  0  0  0  0  0  0  0  # atno 17320 bound_to 7965
  146.1187  139.4202  143.0242 LP  0  0  0  0  0  0  0  0  0  0  0  0  # atno 17321 bound_to 7965
  140.0660  144.5818  150.7227 LP  0  0  0  0  0  0  0  0  0  0  0  0  # atno 17342 bound_to 10162
  140.7227  143.2605  151.4223 LP  0  0  0  0  0  0  0  0  0  0  0  0  # atno 17343 bound_to 10162
  156.7197  130.4677  149.5526 LP  0  0  0  0  0  0  0  0  0  0  0  0  # atno 17370 bound_to 10713
  156.1674  130.6414  151.0794 LP  0  0  0  0  0  0  0  0  0  0  0  0  # atno 17371 bound_to 10713
  141.2155  133.6766  156.6917 LP  0  0  0  0  0  0  0  0  0  0  0  0  # atno 17394 bound_to 11000
  140.2946  134.8213  157.4045 LP  0  0  0  0  0  0  0  0  0  0  0  0  # atno 17395 bound_to 11000

$$$$
