AV-unprocessed.smi:1598|AV-procd|sdf|6421|dock10
  -GOLD-   22720 7 63D 1   1.00000     0.00000
 Structure written by MMmdl.
 39 39  0  0  0  0  0  0  0  0  1 V2000
  147.4730  135.1563  162.4309 C   0  0  0  0  0  0  0  0  0  0  0  0
  147.0128  134.6011  161.2120 O   0  0  0  0  0  0  0  0  0  0  0  0
  147.7717  135.0364  160.0942 C   0  0  0  0  0  0  0  0  0  0  0  0
  147.1816  136.3448  159.5383 C   0  0  2  0  0  0  0  0  0  0  0  0
  145.8598  136.1181  158.7920 C   0  0  0  0  0  0  0  0  0  0  0  0
  148.1382  136.9978  158.6518 N   0  0  0  0  0  0  0  0  0  0  0  0
  149.4421  137.1992  158.9074 C   0  0  0  0  0  0  0  0  0  0  0  0
  149.9735  136.8681  159.9665 O   0  0  0  0  0  0  0  0  0  0  0  0
  150.3018  137.8576  157.8113 C   0  0  0  0  0  0  0  0  0  0  0  0
  150.7571  139.2411  158.1114 N   0  0  0  0  0  0  0  0  0  0  0  0
  152.1334  139.4923  158.4110 C   0  0  0  0  0  0  0  0  0  0  0  0
  153.1358  138.3288  158.3926 C   0  0  0  0  0  0  0  0  0  0  0  0
  154.3621  138.7446  158.7126 F   0  0  0  0  0  0  0  0  0  0  0  0
  152.7982  137.3983  159.2860 F   0  0  0  0  0  0  0  0  0  0  0  0
  153.2295  137.7673  157.1876 F   0  0  0  0  0  0  0  0  0  0  0  0
  152.5417  140.7465  158.6779 C   0  0  0  0  0  0  0  0  0  0  0  0
  151.5994  141.8312  158.6704 C   0  0  0  0  0  0  0  0  0  0  0  0
  150.2951  141.6115  158.3886 C   0  0  0  0  0  0  0  0  0  0  0  0
  149.2879  142.6970  158.3656 C   0  0  0  0  0  0  0  0  0  0  0  0
  149.7699  143.9020  158.6949 N   0  0  0  0  0  0  0  0  0  0  0  0
  148.0949  142.5954  158.0799 O   0  0  0  0  0  0  0  0  0  0  0  0
  149.8096  140.2409  158.0834 C   0  0  0  0  0  0  0  0  0  0  0  0
  148.6368  139.9733  157.8052 O   0  0  0  0  0  0  0  0  0  0  0  0
  146.8654  134.7834  163.2553 H   0  0  0  0  0  0  0  0  0  0  0  0
  147.3975  136.2443  162.4212 H   0  0  0  0  0  0  0  0  0  0  0  0
  148.5099  134.8784  162.6244 H   0  0  0  0  0  0  0  0  0  0  0  0
  148.8117  135.1904  160.3863 H   0  0  0  0  0  0  0  0  0  0  0  0
  147.7671  134.2666  159.3208 H   0  0  0  0  0  0  0  0  0  0  0  0
  146.9705  137.0087  160.3782 H   0  0  0  0  0  0  0  0  0  0  0  0
  145.1204  135.6463  159.4395 H   0  0  0  0  0  0  0  0  0  0  0  0
  145.9971  135.4765  157.9210 H   0  0  0  0  0  0  0  0  0  0  0  0
  145.4392  137.0627  158.4452 H   0  0  0  0  0  0  0  0  0  0  0  0
  147.7849  137.2959  157.7543 H   0  0  0  0  0  0  0  0  0  0  0  0
  151.1570  137.2054  157.6250 H   0  0  0  0  0  0  0  0  0  0  0  0
  149.7552  137.7939  156.8753 H   0  0  0  0  0  0  0  0  0  0  0  0
  153.5767  140.9607  158.8990 H   0  0  0  0  0  0  0  0  0  0  0  0
  151.9802  142.8159  158.8975 H   0  0  0  0  0  0  0  0  0  0  0  0
  149.1586  144.7053  158.7107 H   0  0  0  0  0  0  0  0  0  0  0  0
  150.7469  144.0010  158.9299 H   0  0  0  0  0  0  0  0  0  0  0  0
  1  2  1  0  0  0  0
  1 24  1  0  0  0  0
  1 25  1  0  0  0  0
  1 26  1  0  0  0  0
  2  3  1  0  0  0  0
  3  4  1  0  0  0  0
  3 27  1  0  0  0  0
  3 28  1  0  0  0  0
  4  5  1  0  0  0  0
  4  6  1  0  0  0  0
  4 29  1  0  0  0  0
  5 30  1  0  0  0  0
  5 31  1  0  0  0  0
  5 32  1  0  0  0  0
  6  7  1  0  0  0  0
  6 33  1  0  0  0  0
  7  8  2  0  0  0  0
  7  9  1  0  0  0  0
  9 10  1  0  0  0  0
  9 34  1  0  0  0  0
  9 35  1  0  0  0  0
 10 22  1  0  0  0  0
 10 11  1  0  0  0  0
 11 12  1  0  0  0  0
 11 16  2  0  0  0  0
 12 13  1  0  0  0  0
 12 14  1  0  0  0  0
 12 15  1  0  0  0  0
 16 17  1  0  0  0  0
 16 36  1  0  0  0  0
 17 18  2  0  0  0  0
 17 37  1  0  0  0  0
 18 19  1  0  0  0  0
 18 22  1  0  0  0  0
 19 20  1  0  0  0  0
 19 21  2  0  0  0  0
 20 38  1  0  0  0  0
 20 39  1  0  0  0  0
 22 23  2  0  0  0  0
M  END
> <s_m_source_file>
AV-unprocessed.smi

> <i_m_source_file_index>
1598

> <i_lp_mmshare_version>
43012

> <i_f3d_flags>
0

> <s_epik_input>
W0NIM11PW0NIMl1bQ0BIXShbQ0gzXSlbTkhdQyg9TylbQ0gyXW4xYyhDKEYpKEYpRilbY0hdW2NIXWMoYzE9TylDKD1PKVtOSDJd

> <s_epik_cmdline>
J2VwaWtfcHl0aG9uJywgJy1waCcsICc3LjAnLCAnLXRuJywgJzgnLCAnLW1hJywgJzIwMCcsICctbWV0YWxfYmluZGluZycsICctaW1hZScsICc8aW5maWxlLm1hZT4nLCAnLW9tYWUnLCAnPG91dGZpbGUubWFlPic=

> <r_lp_tautomer_probability>
1

> <r_epik_Ionization_Penalty>
2.07884e-06

> <r_epik_Ionization_Penalty_Charging>
8.00383e-10

> <r_epik_Ionization_Penalty_Neutral>
2.07804e-06

> <r_epik_State_Penalty>
-0

> <r_epik_Charging_Adjusted_Penalty>
8.00383e-10

> <i_epik_Tot_Q>
0

> <i_epik_Tot_abs_Q>
0

> <r_epik_Metal_State_Penalty>
-0

> <b_epik_Metal_Only>
0

> <s_lp_Force_Field>
OPLS_2005

> <r_lp_Energy>
25.9184

> <b_lp_Chiralities_Consistent>
1

> <s_lp_Variant>
AV-unprocessed.smi:1598-1

> <Gold.Version>
5.8.1

> <Gold.Id.Protein>
6NUR|6NUR_protein|mol2

> <Gold.PLP.Fitness>
32.0305

> <Gold.PLP.PLP>
-27.3708

> <Gold.PLP.part.hbond>
-3.8735

> <Gold.PLP.part.metal>
0.0000

> <Gold.PLP.part.buried>
-4.3402

> <Gold.PLP.part.nonpolar>
-19.5637

> <Gold.PLP.part.repulsive>
0.3960

> <Gold.PLP.ligand.clash>
3.8808

> <Gold.PLP.ligand.torsion>
0.6147

> <Gold.PLP.Chemscore.Hbond>
1.9100

> <Gold.PLP.Chemscore.CHOScore>
0.0000

> <Gold.PLP.Chemscore.Metal>
0.0000

> <Gold.Chemscore.Hbonds>
donor molecule, donor type, donor heavy atom, donor atom, acceptor molecule, acceptor atom, score
      L1  H    20    38       P1  8029  0.31
      P1  H  6896  6907       L1     8  0.78

> <Gold.PLP.Chemscore.Internal.Correction>
4.0399

> <Gold.Rescore>
     Score         DG    S(hbond)    S(metal)    S(lipo)     H(rot)  DE(clash)    DE(int)     intcor
      3.95     -10.16       1.61        0.00      47.09       2.43       0.00       6.20       ----

> <Gold.Chemscore.Fitness>
3.9518

> <Gold.Chemscore.DG>
-10.1561

> <Gold.Chemscore.ZeroCoef>
-5.4800

> <Gold.Chemscore.Hbond>
1.6120

> <Gold.Chemscore.Metal>
0.0000

> <Gold.Chemscore.Lipo>
47.0925

> <Gold.Chemscore.Internal_Hbond>
0.0000

> <Gold.Chemscore.DEClash>
0.0040

> <Gold.Chemscore.DEInternal>
6.2003

> <Gold.Chemscore.Rot>
2.4289

> <Gold.Chemscore.Internal.Correction>
   9.000000E+99

> <Gold.Chemscore.Hbonds>
donor molecule, donor type, donor heavy atom, donor atom, acceptor molecule, acceptor atom, score
      L1  H    20    38       P1  8029  0.25
      P1  H  6896  6907       L1     8  0.65

> <Gold.Chemscore.Hbond.Weighted>
-5.3842

> <Gold.Chemscore.Metal.Weighted>
-0.0000

> <Gold.Chemscore.Lipo.Weighted>
-5.5098

> <Gold.Chemscore.Internal_Hbond.Weighted>
0.0000

> <Gold.Chemscore.DEClash.Weighted>
0.0040

> <Gold.Chemscore.DEInternal.Weighted>
6.2003

> <Gold.Chemscore.Rot.Weighted>
6.2180

> <Gold.Chemscore.Internal.Correction.Weighted>
   9.000000E+99

> <Gold.Protein.RotatedTorsions>
[ 6907 6896 6895 6894 ] final  -32.59 input  -60.11 | X-H torsion
[ 7974 7965 7964 7962 ] final -175.58 input  175.53 | X-H torsion
[ 8008 7997 7996 7995 ] final  -11.12 input   59.86 | X-H torsion
[ 10167 10162 10161 10158 ] final   92.67 input  -65.29 | X-H torsion
[ 10718 10713 10712 10709 ] final  -79.76 input   66.30 | X-H torsion
[ 10763 10752 10751 10750 ] final   48.67 input  -60.55 | X-H torsion
[ 11005 11000 10999 10996 ] final  111.27 input  -57.11 | X-H torsion

> <Gold.Protein.ActiveResidues>
 VAL166  LYS551  ARG553  GLY616  TRP617  ASP618  TYR619  PRO620  LYS621  CYS622 
 ASP623  PHE694  ASN695  SER759  ASP760  ASP761  ALA762  ILE779  LEU786  VAL792 
 PHE793  MET794  SER795  GLU796  ALA797  LYS798  CYS799  TRP800  GLU811  SER814 

> <Gold.Protein.RotatedAtoms>
  151.0768  134.9833  159.8335 H   0  0  0  0  0  0  0  0  0  0  0  0  # atno 6907 bound_to 6896
  152.5415  134.2231  159.8805 H   0  0  0  0  0  0  0  0  0  0  0  0  # atno 6908 bound_to 6896
  151.2259  133.4433  159.2635 H   0  0  0  0  0  0  0  0  0  0  0  0  # atno 6909 bound_to 6896
  144.7128  140.1299  143.6399 H   0  0  0  0  0  0  0  0  0  0  0  0  # atno 7974 bound_to 7965
  154.5493  140.2311  155.8511 H   0  0  0  0  0  0  0  0  0  0  0  0  # atno 8008 bound_to 7997
  156.1932  140.3072  155.9335 H   0  0  0  0  0  0  0  0  0  0  0  0  # atno 8009 bound_to 7997
  155.3102  140.0435  157.3025 H   0  0  0  0  0  0  0  0  0  0  0  0  # atno 8010 bound_to 7997
  139.8254  144.6712  150.9465 H   0  0  0  0  0  0  0  0  0  0  0  0  # atno 10167 bound_to 10162
  156.0085  130.4555  150.3697 H   0  0  0  0  0  0  0  0  0  0  0  0  # atno 10718 bound_to 10713
  152.9790  135.5936  154.3964 H   0  0  0  0  0  0  0  0  0  0  0  0  # atno 10763 bound_to 10752
  154.3614  135.2767  155.2319 H   0  0  0  0  0  0  0  0  0  0  0  0  # atno 10764 bound_to 10752
  154.4315  135.6035  153.6126 H   0  0  0  0  0  0  0  0  0  0  0  0  # atno 10765 bound_to 10752
  139.8900  134.9504  156.6406 H   0  0  0  0  0  0  0  0  0  0  0  0  # atno 11005 bound_to 11000
  145.9296  139.2598  143.1333 LP  0  0  0  0  0  0  0  0  0  0  0  0  # atno 17320 bound_to 7965
  145.9536  140.8889  143.0246 LP  0  0  0  0  0  0  0  0  0  0  0  0  # atno 17321 bound_to 7965
  140.7810  143.4051  151.1085 LP  0  0  0  0  0  0  0  0  0  0  0  0  # atno 17342 bound_to 10162
  139.7708  143.8497  152.3120 LP  0  0  0  0  0  0  0  0  0  0  0  0  # atno 17343 bound_to 10162
  157.1782  131.0386  151.2761 LP  0  0  0  0  0  0  0  0  0  0  0  0  # atno 17370 bound_to 10713
  157.4169  130.7416  149.6882 LP  0  0  0  0  0  0  0  0  0  0  0  0  # atno 17371 bound_to 10713
  140.7596  133.8828  155.8408 LP  0  0  0  0  0  0  0  0  0  0  0  0  # atno 17394 bound_to 11000
  140.9933  134.1249  157.4388 LP  0  0  0  0  0  0  0  0  0  0  0  0  # atno 17395 bound_to 11000

$$$$
