AV-unprocessed.smi:1712|AV-procd|sdf|6904|dock2
  -GOLD-   22720 8103D 1   1.00000     0.00000
 Structure written by MMmdl.
 38 39  0  0  0  0  0  0  0  0  2 V2000
  148.6351  135.6794  156.6596 C   0  0  0  0  0  0  0  0  0  0  0  0
  148.5373  135.7645  155.1159 C   0  0  1  0  0  0  0  0  0  0  0  0
  147.0548  135.7642  154.6566 C   0  0  0  0  0  0  0  0  0  0  0  0
  146.8402  135.0371  153.4073 N   0  0  0  0  0  0  0  0  0  0  0  0
  145.7744  134.2728  153.1271 C   0  0  0  0  0  0  0  0  0  0  0  0
  144.8482  134.0812  153.9152 O   0  0  0  0  0  0  0  0  0  0  0  0
  145.8606  133.7473  151.8943 N   0  0  0  0  0  0  0  0  0  0  0  0
  144.9277  132.8903  151.2580 C   0  0  0  0  0  0  0  0  0  0  0  0
  145.1111  132.3031  149.9766 C   0  0  0  0  0  0  0  0  0  0  0  0
  144.0745  131.5502  149.6369 N   0  0  0  0  0  0  0  0  0  0  0  0
  143.2309  131.6521  150.6889 N   0  0  0  0  0  0  0  0  0  0  0  0
  143.7088  132.4570  151.6992 C   0  0  0  0  0  0  0  0  0  0  0  0
  149.2546  136.9510  154.5411 N   0  3  0  0  0  0  0  0  0  0  0  0
  148.6554  138.2788  154.8525 C   0  0  0  0  0  0  0  0  0  0  0  0
  149.4497  139.4175  154.1895 C   0  0  0  0  0  0  0  0  0  0  0  0
  150.8079  139.3642  154.5991 O   0  0  0  0  0  0  0  0  0  0  0  0
  151.4207  138.1463  154.2047 C   0  0  0  0  0  0  0  0  0  0  0  0
  150.7034  136.9689  154.8843 C   0  0  0  0  0  0  0  0  0  0  0  0
  142.3422  131.1721  150.7022 H   0  0  0  0  0  0  0  0  0  0  0  0
  148.1089  134.8100  157.0516 H   0  0  0  0  0  0  0  0  0  0  0  0
  148.2076  136.5626  157.1353 H   0  0  0  0  0  0  0  0  0  0  0  0
  149.6634  135.5675  157.0026 H   0  0  0  0  0  0  0  0  0  0  0  0
  149.0187  134.8666  154.7249 H   0  0  0  0  0  0  0  0  0  0  0  0
  146.4200  135.3707  155.4526 H   0  0  0  0  0  0  0  0  0  0  0  0
  146.6999  136.7754  154.4681 H   0  0  0  0  0  0  0  0  0  0  0  0
  147.5521  135.1335  152.6977 H   0  0  0  0  0  0  0  0  0  0  0  0
  146.6794  133.9829  151.3530 H   0  0  0  0  0  0  0  0  0  0  0  0
  145.9442  132.3963  149.2958 H   0  0  0  0  0  0  0  0  0  0  0  0
  143.1513  132.6391  152.6061 H   0  0  0  0  0  0  0  0  0  0  0  0
  147.6332  138.3411  154.4807 H   0  0  0  0  0  0  0  0  0  0  0  0
  148.6232  138.4234  155.9336 H   0  0  0  0  0  0  0  0  0  0  0  0
  149.3827  139.3565  153.1019 H   0  0  0  0  0  0  0  0  0  0  0  0
  149.0325  140.3823  154.4786 H   0  0  0  0  0  0  0  0  0  0  0  0
  151.4000  138.0439  153.1184 H   0  0  0  0  0  0  0  0  0  0  0  0
  152.4692  138.1676  154.5021 H   0  0  0  0  0  0  0  0  0  0  0  0
  150.8211  137.0422  155.9667 H   0  0  0  0  0  0  0  0  0  0  0  0
  151.1955  136.0489  154.5756 H   0  0  0  0  0  0  0  0  0  0  0  0
  149.1932  136.8548  153.5374 H   0  0  0  0  0  0  0  0  0  0  0  0
  1  2  1  0  0  0  0
  1 20  1  0  0  0  0
  1 21  1  0  0  0  0
  1 22  1  0  0  0  0
  2  3  1  0  0  0  0
  2 13  1  0  0  0  0
  2 23  1  0  0  0  0
  3  4  1  0  0  0  0
  3 24  1  0  0  0  0
  3 25  1  0  0  0  0
  4  5  1  0  0  0  0
  4 26  1  0  0  0  0
  5  6  2  0  0  0  0
  5  7  1  0  0  0  0
  7  8  1  0  0  0  0
  7 27  1  0  0  0  0
  8 12  2  0  0  0  0
  8  9  1  0  0  0  0
  9 10  2  0  0  0  0
  9 28  1  0  0  0  0
 10 11  1  0  0  0  0
 11 19  1  0  0  0  0
 11 12  1  0  0  0  0
 12 29  1  0  0  0  0
 13 18  1  0  0  0  0
 13 14  1  0  0  0  0
 13 38  1  0  0  0  0
 14 15  1  0  0  0  0
 14 30  1  0  0  0  0
 14 31  1  0  0  0  0
 15 16  1  0  0  0  0
 15 32  1  0  0  0  0
 15 33  1  0  0  0  0
 16 17  1  0  0  0  0
 17 18  1  0  0  0  0
 17 34  1  0  0  0  0
 17 35  1  0  0  0  0
 18 36  1  0  0  0  0
 18 37  1  0  0  0  0
M  CHG  1  13   1
M  END
> <s_m_source_file>
AV-unprocessed.smi

> <i_m_source_file_index>
1712

> <i_lp_mmshare_version>
43012

> <i_f3d_flags>
0

> <s_epik_input>
W0NIMl0xW0NIMl1PW0NIMl1bQ0gyXU4xW0NASF0oW0NIM10pW0NIMl1bTkhdQyg9TylbTkhdYzJbY0hdbltuSF1bY0hdMg==

> <s_epik_cmdline>
J2VwaWtfcHl0aG9uJywgJy1waCcsICc3LjAnLCAnLXRuJywgJzgnLCAnLW1hJywgJzIwMCcsICctbWV0YWxfYmluZGluZycsICctaW1hZScsICc8aW5maWxlLm1hZT4nLCAnLW9tYWUnLCAnPG91dGZpbGUubWFlPic=

> <r_lp_tautomer_probability>
0.5

> <r_epik_Ionization_Penalty>
0.646007

> <r_epik_Ionization_Penalty_Charging>
0.645968

> <r_epik_Ionization_Penalty_Neutral>
3.91929e-05

> <r_epik_State_Penalty>
0.664063

> <r_epik_Charging_Adjusted_Penalty>
1.31003

> <i_epik_Tot_Q>
1

> <i_epik_Tot_abs_Q>
1

> <r_epik_Metal_State_Penalty>
0.664064

> <b_epik_Metal_Only>
0

> <s_lp_Force_Field>
OPLS_2005

> <r_lp_Energy>
23.8856

> <b_lp_Chiralities_Consistent>
1

> <s_lp_Variant>
AV-unprocessed.smi:1712-4

> <Gold.Version>
5.8.1

> <Gold.Id.Protein>
6NUR|6NUR_protein|mol2

> <Gold.PLP.Fitness>
43.9743

> <Gold.PLP.PLP>
-23.9568

> <Gold.PLP.part.hbond>
-5.6359

> <Gold.PLP.part.metal>
0.0000

> <Gold.PLP.part.buried>
-4.7714

> <Gold.PLP.part.nonpolar>
-15.2455

> <Gold.PLP.part.repulsive>
0.5605

> <Gold.PLP.ligand.clash>
0.0000

> <Gold.PLP.ligand.torsion>
0.6198

> <Gold.PLP.Chemscore.Hbond>
5.5650

> <Gold.PLP.Chemscore.CHOScore>
1.4987

> <Gold.PLP.Chemscore.Metal>
0.0000

> <Gold.Chemscore.Hbonds>
donor molecule, donor type, donor heavy atom, donor atom, acceptor molecule, acceptor atom, score
      L1  H     4    26       P1  7948  1.00
      L1  H    11    19       P1 10952  0.70
      L1  H    13    38       P1  7948  2.00
      P1  H  7989  7998       L1    16  0.99
      P1  H 10785 10796       L1    10  0.59
      L1  C    12    29       P1 10957  0.67

> <Gold.PLP.Chemscore.Internal.Correction>
0.0662

> <Gold.Rescore>
     Score         DG    S(hbond)    S(metal)    S(lipo)     H(rot)  DE(clash)    DE(int)     intcor
     13.93     -16.38       2.64        0.00      54.58       1.68       0.47       1.98       ----

> <Gold.Chemscore.Fitness>
13.9300

> <Gold.Chemscore.DG>
-16.3770

> <Gold.Chemscore.ZeroCoef>
-5.4800

> <Gold.Chemscore.Hbond>
2.6362

> <Gold.Chemscore.Metal>
0.0000

> <Gold.Chemscore.Lipo>
54.5779

> <Gold.Chemscore.Internal_Hbond>
0.0000

> <Gold.Chemscore.DEClash>
0.4694

> <Gold.Chemscore.DEInternal>
1.9776

> <Gold.Chemscore.Rot>
1.6771

> <Gold.Chemscore.Internal.Correction>
   9.000000E+99

> <Gold.Chemscore.Hbonds>
donor molecule, donor type, donor heavy atom, donor atom, acceptor molecule, acceptor atom, score
      L1  H     4    26       P1  7948  0.94
      L1  H    11    19       P1 10952  0.10
      L1  H    13    38       P1  7948  0.99
      P1  H  7989  7998       L1    16  0.19
      P1  H 10785 10796       L1    10  0.12

> <Gold.Chemscore.Hbond.Weighted>
-8.8049

> <Gold.Chemscore.Metal.Weighted>
-0.0000

> <Gold.Chemscore.Lipo.Weighted>
-6.3856

> <Gold.Chemscore.Internal_Hbond.Weighted>
0.0000

> <Gold.Chemscore.DEClash.Weighted>
0.4694

> <Gold.Chemscore.DEInternal.Weighted>
1.9776

> <Gold.Chemscore.Rot.Weighted>
4.2935

> <Gold.Chemscore.Internal.Correction.Weighted>
   9.000000E+99

> <Gold.Protein.RotatedTorsions>
[ 6907 6896 6895 6894 ] final  158.88 input  -60.11 | X-H torsion
[ 7974 7965 7964 7962 ] final   35.23 input  175.53 | X-H torsion
[ 8008 7997 7996 7995 ] final  -60.93 input   59.86 | X-H torsion
[ 10167 10162 10161 10158 ] final   75.19 input  -65.29 | X-H torsion
[ 10718 10713 10712 10709 ] final -114.91 input   66.30 | X-H torsion
[ 10763 10752 10751 10750 ] final   61.14 input  -60.55 | X-H torsion
[ 11005 11000 10999 10996 ] final  107.45 input  -57.11 | X-H torsion

> <Gold.Protein.ActiveResidues>
 VAL166  LYS551  ARG553  GLY616  TRP617  ASP618  TYR619  PRO620  LYS621  CYS622 
 ASP623  PHE694  ASN695  SER759  ASP760  ASP761  ALA762  ILE779  LEU786  VAL792 
 PHE793  MET794  SER795  GLU796  ALA797  LYS798  CYS799  TRP800  GLU811  SER814 

> <Gold.Protein.RotatedAtoms>
  151.9939  133.3801  159.4154 H   0  0  0  0  0  0  0  0  0  0  0  0  # atno 6907 bound_to 6896
  150.6918  134.3907  159.5084 H   0  0  0  0  0  0  0  0  0  0  0  0  # atno 6908 bound_to 6896
  152.1644  134.8885  160.0590 H   0  0  0  0  0  0  0  0  0  0  0  0  # atno 6909 bound_to 6896
  146.1297  139.6168  142.9235 H   0  0  0  0  0  0  0  0  0  0  0  0  # atno 7974 bound_to 7965
  154.4423  140.1028  156.6352 H   0  0  0  0  0  0  0  0  0  0  0  0  # atno 8008 bound_to 7997
  155.5562  140.3486  155.4461 H   0  0  0  0  0  0  0  0  0  0  0  0  # atno 8009 bound_to 7997
  156.0493  140.1300  157.0057 H   0  0  0  0  0  0  0  0  0  0  0  0  # atno 8010 bound_to 7997
  140.0056  144.5653  150.7701 H   0  0  0  0  0  0  0  0  0  0  0  0  # atno 10167 bound_to 10162
  156.0861  130.6052  150.8836 H   0  0  0  0  0  0  0  0  0  0  0  0  # atno 10718 bound_to 10713
  152.9941  135.5511  154.5985 H   0  0  0  0  0  0  0  0  0  0  0  0  # atno 10763 bound_to 10752
  154.5332  135.2815  155.1164 H   0  0  0  0  0  0  0  0  0  0  0  0  # atno 10764 bound_to 10752
  154.2471  135.6405  153.5280 H   0  0  0  0  0  0  0  0  0  0  0  0  # atno 10765 bound_to 10752
  139.8828  134.9401  156.5821 H   0  0  0  0  0  0  0  0  0  0  0  0  # atno 11005 bound_to 11000
  145.5287  141.0428  143.2395 LP  0  0  0  0  0  0  0  0  0  0  0  0  # atno 17320 bound_to 7965
  144.7678  139.6805  143.7207 LP  0  0  0  0  0  0  0  0  0  0  0  0  # atno 17321 bound_to 7965
  140.7401  143.2801  151.3625 LP  0  0  0  0  0  0  0  0  0  0  0  0  # atno 17342 bound_to 10162
  139.6241  144.0849  152.2418 LP  0  0  0  0  0  0  0  0  0  0  0  0  # atno 17343 bound_to 10162
  157.5995  131.0942  150.8984 LP  0  0  0  0  0  0  0  0  0  0  0  0  # atno 17370 bound_to 10713
  156.9144  130.5292  149.5280 LP  0  0  0  0  0  0  0  0  0  0  0  0  # atno 17371 bound_to 10713
  140.8019  133.8498  155.8734 LP  0  0  0  0  0  0  0  0  0  0  0  0  # atno 17394 bound_to 11000
  140.9585  134.1687  157.4673 LP  0  0  0  0  0  0  0  0  0  0  0  0  # atno 17395 bound_to 11000

$$$$
