AV-unprocessed.smi:226|AV-procd|sdf|1726|dock6
  -GOLD-   2262020213D 1   1.00000     0.00000
 Structure written by MMmdl.
 54 58  0  0  0  0  0  0  0  0  1 V2000
  147.4775  136.5337  158.4862 O   0  0  0  0  0  0  0  0  0  0  0  0
  146.5119  136.8296  159.1898 C   0  0  0  0  0  0  0  0  0  0  0  0
  146.5267  136.7210  160.5287 N   0  0  0  0  0  0  0  0  0  0  0  0
  147.6231  136.2665  161.3187 C   0  0  0  0  0  0  0  0  0  0  0  0
  147.3735  135.1105  162.2629 C   0  0  0  0  0  0  0  0  0  0  0  0
  147.5508  136.4993  162.8122 C   0  0  0  0  0  0  0  0  0  0  0  0
  145.2280  137.3654  158.5191 C   0  0  1  0  0  0  0  0  0  0  0  0
  144.8788  138.7844  159.0005 C   0  0  0  0  0  0  0  0  0  0  0  0
  145.5668  139.7022  157.9913 C   0  0  0  0  0  0  0  0  0  0  0  0
  145.4483  138.9284  156.6778 C   0  0  0  0  0  0  0  0  0  0  0  0
  145.3351  137.5284  157.0643 N   0  0  0  0  0  0  0  0  0  0  0  0
  145.2017  136.5079  156.1727 C   0  0  0  0  0  0  0  0  0  0  0  0
  145.3892  135.2369  156.6172 N   0  0  0  0  0  0  0  0  0  0  0  0
  145.2811  134.1986  155.7853 C   0  0  0  0  0  0  0  0  0  0  0  0
  145.0018  134.2022  154.4823 N   0  0  0  0  0  0  0  0  0  0  0  0
  144.8145  135.4712  154.0206 C   0  0  0  0  0  0  0  0  0  0  0  0
  144.8868  136.6700  154.7893 C   0  0  0  0  0  0  0  0  0  0  0  0
  144.6193  137.7604  153.9676 N   0  0  0  0  0  0  0  0  0  0  0  0
  144.3985  137.2389  152.7927 C   0  0  0  0  0  0  0  0  0  0  0  0
  144.5285  135.8714  152.7265 N   0  0  0  0  0  0  0  0  0  0  0  0
  144.3083  135.0440  151.5759 C   0  0  0  0  0  0  0  0  0  0  0  0
  143.7163  133.6383  151.7148 C   0  0  0  0  0  0  0  0  0  0  0  0
  144.6261  133.1268  150.5764 C   0  0  0  0  0  0  0  0  0  0  0  0
  145.3478  131.8013  150.8642 C   0  0  0  0  0  0  0  0  0  0  0  0
  146.3357  131.5300  149.8908 O   0  0  0  0  0  0  0  0  0  0  0  0
  143.9958  133.0042  149.1710 C   0  0  0  0  0  0  0  0  0  0  0  0
  142.8602  132.1641  149.1382 O   0  0  0  0  0  0  0  0  0  0  0  0
  145.4795  134.3886  150.8365 C   0  0  0  0  0  0  0  0  0  0  0  0
  145.6909  136.9907  161.0266 H   0  0  0  0  0  0  0  0  0  0  0  0
  148.6156  136.3123  160.8729 H   0  0  0  0  0  0  0  0  0  0  0  0
  146.3730  134.6824  162.2901 H   0  0  0  0  0  0  0  0  0  0  0  0
  148.1863  134.4030  162.4148 H   0  0  0  0  0  0  0  0  0  0  0  0
  148.4819  136.7202  163.3301 H   0  0  0  0  0  0  0  0  0  0  0  0
  146.6692  137.0023  163.2054 H   0  0  0  0  0  0  0  0  0  0  0  0
  144.4066  136.6944  158.7749 H   0  0  0  0  0  0  0  0  0  0  0  0
  143.7990  138.9313  158.9495 H   0  0  0  0  0  0  0  0  0  0  0  0
  145.1846  138.9903  160.0272 H   0  0  0  0  0  0  0  0  0  0  0  0
  145.1191  140.6951  157.9412 H   0  0  0  0  0  0  0  0  0  0  0  0
  146.6175  139.8198  158.2597 H   0  0  0  0  0  0  0  0  0  0  0  0
  144.5500  139.2279  156.1362 H   0  0  0  0  0  0  0  0  0  0  0  0
  146.3164  139.1064  156.0427 H   0  0  0  0  0  0  0  0  0  0  0  0
  145.4448  133.2266  156.2269 H   0  0  0  0  0  0  0  0  0  0  0  0
  144.1415  137.8442  151.9354 H   0  0  0  0  0  0  0  0  0  0  0  0
  143.7090  135.6455  150.8914 H   0  0  0  0  0  0  0  0  0  0  0  0
  143.9506  133.1855  152.6799 H   0  0  0  0  0  0  0  0  0  0  0  0
  142.6472  133.5802  151.5079 H   0  0  0  0  0  0  0  0  0  0  0  0
  145.8153  131.8119  151.8494 H   0  0  0  0  0  0  0  0  0  0  0  0
  144.6459  130.9667  150.8651 H   0  0  0  0  0  0  0  0  0  0  0  0
  147.1488  131.3398  150.3338 H   0  0  0  0  0  0  0  0  0  0  0  0
  143.6930  133.9827  148.7971 H   0  0  0  0  0  0  0  0  0  0  0  0
  144.7144  132.6057  148.4543 H   0  0  0  0  0  0  0  0  0  0  0  0
  142.0889  132.6978  149.2540 H   0  0  0  0  0  0  0  0  0  0  0  0
  145.7977  134.9210  149.9396 H   0  0  0  0  0  0  0  0  0  0  0  0
  146.3291  134.1965  151.4940 H   0  0  0  0  0  0  0  0  0  0  0  0
  1  2  2  0  0  0  0
  2  3  1  0  0  0  0
  2  7  1  0  0  0  0
  3  4  1  0  0  0  0
  3 29  1  0  0  0  0
  4  6  1  0  0  0  0
  4  5  1  0  0  0  0
  4 30  1  0  0  0  0
  5  6  1  0  0  0  0
  5 31  1  0  0  0  0
  5 32  1  0  0  0  0
  6 33  1  0  0  0  0
  6 34  1  0  0  0  0
  7 11  1  0  0  0  0
  7  8  1  0  0  0  0
  7 35  1  0  0  0  0
  8  9  1  0  0  0  0
  8 36  1  0  0  0  0
  8 37  1  0  0  0  0
  9 10  1  0  0  0  0
  9 38  1  0  0  0  0
  9 39  1  0  0  0  0
 10 11  1  0  0  0  0
 10 40  1  0  0  0  0
 10 41  1  0  0  0  0
 11 12  1  0  0  0  0
 12 17  1  0  0  0  0
 12 13  2  0  0  0  0
 13 14  1  0  0  0  0
 14 15  2  0  0  0  0
 14 42  1  0  0  0  0
 15 16  1  0  0  0  0
 16 20  1  0  0  0  0
 16 17  2  0  0  0  0
 17 18  1  0  0  0  0
 18 19  2  0  0  0  0
 19 20  1  0  0  0  0
 19 43  1  0  0  0  0
 20 21  1  0  0  0  0
 21 28  1  0  0  0  0
 21 22  1  0  0  0  0
 21 44  1  0  0  0  0
 22 23  1  0  0  0  0
 22 45  1  0  0  0  0
 22 46  1  0  0  0  0
 23 24  1  0  0  0  0
 23 26  1  0  0  0  0
 23 28  1  0  0  0  0
 24 25  1  0  0  0  0
 24 47  1  0  0  0  0
 24 48  1  0  0  0  0
 25 49  1  0  0  0  0
 26 27  1  0  0  0  0
 26 50  1  0  0  0  0
 26 51  1  0  0  0  0
 27 52  1  0  0  0  0
 28 53  1  0  0  0  0
 28 54  1  0  0  0  0
M  END
> <s_m_source_file>
AV-unprocessed.smi

> <i_m_source_file_index>
226

> <i_lp_mmshare_version>
43012

> <i_f3d_flags>
0

> <s_epik_input>
W0NIMl0xW0NIMl1bQ0hdMVtOSF1DKD1PKVtDQEBIXTJbQ0gyXVtDSDJdW0NIMl1OMmMobltjSF1uMyljKGMzNCluW2NIXW40W0NIXShbQ0gyXTUpW0NIMl1DNShbQ0gyXVtPSF0pW0NIMl1bT0hd

> <s_epik_cmdline>
J2VwaWtfcHl0aG9uJywgJy1waCcsICc3LjAnLCAnLXRuJywgJzgnLCAnLW1hJywgJzIwMCcsICctbWV0YWxfYmluZGluZycsICctaW1hZScsICc8aW5maWxlLm1hZT4nLCAnLW9tYWUnLCAnPG91dGZpbGUubWFlPic=

> <r_lp_tautomer_probability>
1

> <r_epik_Ionization_Penalty>
0.000818715

> <r_epik_Ionization_Penalty_Charging>
0

> <r_epik_Ionization_Penalty_Neutral>
0.000818715

> <r_epik_State_Penalty>
0.000426447

> <r_epik_Charging_Adjusted_Penalty>
0.000426447

> <i_epik_Tot_Q>
0

> <i_epik_Tot_abs_Q>
0

> <r_epik_Metal_State_Penalty>
-0

> <b_epik_Metal_Only>
0

> <s_lp_Force_Field>
OPLS_2005

> <r_lp_Energy>
62.928

> <b_lp_Chiralities_Consistent>
1

> <s_lp_Variant>
AV-unprocessed.smi:226-2

> <Gold.Version>
5.8.1

> <Gold.Id.Protein>
6NUR|6NUR_protein|mol2

> <Gold.PLP.Fitness>
49.6967

> <Gold.PLP.PLP>
-38.3840

> <Gold.PLP.part.hbond>
-4.0000

> <Gold.PLP.part.metal>
0.0000

> <Gold.PLP.part.buried>
-7.0922

> <Gold.PLP.part.nonpolar>
-27.3374

> <Gold.PLP.part.repulsive>
0.3575

> <Gold.PLP.ligand.clash>
0.0000

> <Gold.PLP.ligand.torsion>
1.0090

> <Gold.PLP.Chemscore.Hbond>
2.8037

> <Gold.PLP.Chemscore.CHOScore>
1.4500

> <Gold.PLP.Chemscore.Metal>
0.0000

> <Gold.Chemscore.Hbonds>
donor molecule, donor type, donor heavy atom, donor atom, acceptor molecule, acceptor atom, score
      L1  H    25    49       P1 10747  0.99
      L1  H    27    52       P1 10186  0.98
      P1  H 10785 10796       L1    27  0.86
      L1  C    19    43       P1 10171  1.00
      L1  C    19    43       P1 10175  0.44

> <Gold.PLP.Chemscore.Internal.Correction>
0.5695

> <Gold.Rescore>
     Score         DG    S(hbond)    S(metal)    S(lipo)     H(rot)  DE(clash)    DE(int)     intcor
     12.18     -14.00       2.70        0.00      72.85       3.52       0.01       1.81       ----

> <Gold.Chemscore.Fitness>
12.1819

> <Gold.Chemscore.DG>
-14.0050

> <Gold.Chemscore.ZeroCoef>
-5.4800

> <Gold.Chemscore.Hbond>
2.7017

> <Gold.Chemscore.Metal>
0.0000

> <Gold.Chemscore.Lipo>
72.8524

> <Gold.Chemscore.Internal_Hbond>
0.0000

> <Gold.Chemscore.DEClash>
0.0120

> <Gold.Chemscore.DEInternal>
1.8111

> <Gold.Chemscore.Rot>
3.5244

> <Gold.Chemscore.Internal.Correction>
   9.000000E+99

> <Gold.Chemscore.Hbonds>
donor molecule, donor type, donor heavy atom, donor atom, acceptor molecule, acceptor atom, score
      L1  H    25    49       P1 10747  0.93
      L1  H    27    52       P1 10186  0.90
      P1  H 10785 10796       L1    27  0.79

> <Gold.Chemscore.Hbond.Weighted>
-9.0238

> <Gold.Chemscore.Metal.Weighted>
-0.0000

> <Gold.Chemscore.Lipo.Weighted>
-8.5237

> <Gold.Chemscore.Internal_Hbond.Weighted>
0.0000

> <Gold.Chemscore.DEClash.Weighted>
0.0120

> <Gold.Chemscore.DEInternal.Weighted>
1.8111

> <Gold.Chemscore.Rot.Weighted>
9.0225

> <Gold.Chemscore.Internal.Correction.Weighted>
   9.000000E+99

> <Gold.Protein.RotatedTorsions>
[ 6907 6896 6895 6894 ] final -154.52 input  -60.11 | X-H torsion
[ 7974 7965 7964 7962 ] final  -16.88 input  175.53 | X-H torsion
[ 8008 7997 7996 7995 ] final   12.59 input   59.86 | X-H torsion
[ 10167 10162 10161 10158 ] final  -35.83 input  -65.29 | X-H torsion
[ 10718 10713 10712 10709 ] final -170.99 input   66.30 | X-H torsion
[ 10763 10752 10751 10750 ] final   17.24 input  -60.55 | X-H torsion
[ 11005 11000 10999 10996 ] final  -28.21 input  -57.11 | X-H torsion

> <Gold.Protein.ActiveResidues>
 VAL166  LYS551  ARG553  GLY616  TRP617  ASP618  TYR619  PRO620  LYS621  CYS622 
 ASP623  PHE694  ASN695  SER759  ASP760  ASP761  ALA762  ILE779  LEU786  VAL792 
 PHE793  MET794  SER795  GLU796  ALA797  LYS798  CYS799  TRP800  GLU811  SER814 

> <Gold.Protein.RotatedAtoms>
  151.2587  133.4313  159.2614 H   0  0  0  0  0  0  0  0  0  0  0  0  # atno 6907 bound_to 6896
  151.0551  134.9699  159.8241 H   0  0  0  0  0  0  0  0  0  0  0  0  # atno 6908 bound_to 6896
  152.5389  134.2539  159.8962 H   0  0  0  0  0  0  0  0  0  0  0  0  # atno 6909 bound_to 6896
  146.1967  140.3699  142.8438 H   0  0  0  0  0  0  0  0  0  0  0  0  # atno 7974 bound_to 7965
  154.8227  140.2886  155.5776 H   0  0  0  0  0  0  0  0  0  0  0  0  # atno 8008 bound_to 7997
  156.2999  140.2547  156.3067 H   0  0  0  0  0  0  0  0  0  0  0  0  # atno 8009 bound_to 7997
  154.9321  140.0383  157.2042 H   0  0  0  0  0  0  0  0  0  0  0  0  # atno 8010 bound_to 7997
  140.7156  143.3450  151.2275 H   0  0  0  0  0  0  0  0  0  0  0  0  # atno 10167 bound_to 10162
  156.7343  130.9318  151.3106 H   0  0  0  0  0  0  0  0  0  0  0  0  # atno 10718 bound_to 10713
  153.1357  135.6749  153.9107 H   0  0  0  0  0  0  0  0  0  0  0  0  # atno 10763 bound_to 10752
  153.8579  135.3085  155.3437 H   0  0  0  0  0  0  0  0  0  0  0  0  # atno 10764 bound_to 10752
  154.7745  135.4921  153.9799 H   0  0  0  0  0  0  0  0  0  0  0  0  # atno 10765 bound_to 10752
  140.9188  133.7412  156.0772 H   0  0  0  0  0  0  0  0  0  0  0  0  # atno 11005 bound_to 11000
  144.8596  140.7120  143.6116 LP  0  0  0  0  0  0  0  0  0  0  0  0  # atno 17320 bound_to 7965
  145.3619  139.1679  143.4378 LP  0  0  0  0  0  0  0  0  0  0  0  0  # atno 17321 bound_to 7965
  139.6967  143.9600  152.2886 LP  0  0  0  0  0  0  0  0  0  0  0  0  # atno 17342 bound_to 10162
  139.9280  144.6759  150.8392 LP  0  0  0  0  0  0  0  0  0  0  0  0  # atno 17343 bound_to 10162
  157.6845  130.9172  150.0352 LP  0  0  0  0  0  0  0  0  0  0  0  0  # atno 17370 bound_to 10713
  156.1507  130.3642  149.9442 LP  0  0  0  0  0  0  0  0  0  0  0  0  # atno 17371 bound_to 10713
  140.8015  134.3503  157.5438 LP  0  0  0  0  0  0  0  0  0  0  0  0  # atno 17394 bound_to 11000
  139.8771  134.9200  156.3241 LP  0  0  0  0  0  0  0  0  0  0  0  0  # atno 17395 bound_to 11000

$$$$
