AV-unprocessed.smi:1372|AV-procd|sdf|5585|dock2
  -GOLD-   22720 5183D 1   1.00000     0.00000
 Structure written by MMmdl.
 42 44  0  0  0  0  0  0  0  0  2 V2000
  151.6878  137.3181  154.9101 C   0  0  0  0  0  0  0  0  0  0  0  0
  152.1474  139.0105  155.4709 S   0  0  0  0  0  0  0  0  0  0  0  0
  153.6090  139.1416  155.3673 O   0  0  0  0  0  0  0  0  0  0  0  0
  151.2764  139.9755  154.7836 O   0  0  0  0  0  0  0  0  0  0  0  0
  151.6820  138.9799  157.2573 C   0  0  0  0  0  0  0  0  0  0  0  0
  151.8033  140.3441  157.8585 C   0  0  0  0  0  0  0  0  0  0  0  0
  151.2139  141.4784  157.3833 N   0  3  0  0  0  0  0  0  0  0  0  0
  151.5422  142.5612  158.1993 C   0  0  0  0  0  0  0  0  0  0  0  0
  151.1866  143.9042  158.1193 C   0  0  0  0  0  0  0  0  0  0  0  0
  151.6950  144.7541  159.1235 C   0  0  0  0  0  0  0  0  0  0  0  0
  152.5210  144.2605  160.1544 C   0  0  0  0  0  0  0  0  0  0  0  0
  152.8751  142.8970  160.2246 C   0  0  0  0  0  0  0  0  0  0  0  0
  152.3693  142.0644  159.2265 C   0  0  0  0  0  0  0  0  0  0  0  0
  152.5045  140.6945  158.9766 N   0  0  0  0  0  0  0  0  0  0  0  0
  153.3217  139.8819  159.8914 C   0  0  0  0  0  0  0  0  0  0  0  0
  153.9481  138.6532  159.2038 C   0  0  1  0  0  0  0  0  0  0  0  0
  155.0845  139.0489  158.4594 O   0  0  0  0  0  0  0  0  0  0  0  0
  154.2690  137.5645  160.2148 C   0  0  0  0  0  0  0  0  0  0  0  0
  154.8408  136.3414  159.7997 C   0  0  0  0  0  0  0  0  0  0  0  0
  155.1443  135.3428  160.7456 C   0  0  0  0  0  0  0  0  0  0  0  0
  154.8821  135.5626  162.1114 C   0  0  0  0  0  0  0  0  0  0  0  0
  154.3170  136.7821  162.5313 C   0  0  0  0  0  0  0  0  0  0  0  0
  154.0116  137.7803  161.5858 C   0  0  0  0  0  0  0  0  0  0  0  0
  151.9032  137.2208  153.8462 H   0  0  0  0  0  0  0  0  0  0  0  0
  150.6236  137.1527  155.0765 H   0  0  0  0  0  0  0  0  0  0  0  0
  152.2643  136.5752  155.4608 H   0  0  0  0  0  0  0  0  0  0  0  0
  150.6520  138.6330  157.3389 H   0  0  0  0  0  0  0  0  0  0  0  0
  152.3159  138.2625  157.7775 H   0  0  0  0  0  0  0  0  0  0  0  0
  150.5535  144.2840  157.3308 H   0  0  0  0  0  0  0  0  0  0  0  0
  151.4457  145.8051  159.1032 H   0  0  0  0  0  0  0  0  0  0  0  0
  152.8911  144.9419  160.9068 H   0  0  0  0  0  0  0  0  0  0  0  0
  153.5082  142.5291  161.0185 H   0  0  0  0  0  0  0  0  0  0  0  0
  154.0991  140.5223  160.3075 H   0  0  0  0  0  0  0  0  0  0  0  0
  152.6985  139.5799  160.7340 H   0  0  0  0  0  0  0  0  0  0  0  0
  153.2349  138.2481  158.4848 H   0  0  0  0  0  0  0  0  0  0  0  0
  155.7375  138.3687  158.5270 H   0  0  0  0  0  0  0  0  0  0  0  0
  155.0515  136.1654  158.7548 H   0  0  0  0  0  0  0  0  0  0  0  0
  155.5799  134.4086  160.4233 H   0  0  0  0  0  0  0  0  0  0  0  0
  155.1162  134.7973  162.8367 H   0  0  0  0  0  0  0  0  0  0  0  0
  154.1186  136.9522  163.5794 H   0  0  0  0  0  0  0  0  0  0  0  0
  153.5809  138.7133  161.9190 H   0  0  0  0  0  0  0  0  0  0  0  0
  150.6347  141.5079  156.5538 H   0  0  0  0  0  0  0  0  0  0  0  0
  1  2  1  0  0  0  0
  1 24  1  0  0  0  0
  1 25  1  0  0  0  0
  1 26  1  0  0  0  0
  2  3  2  0  0  0  0
  2  4  2  0  0  0  0
  2  5  1  0  0  0  0
  5  6  1  0  0  0  0
  5 27  1  0  0  0  0
  5 28  1  0  0  0  0
  6 14  1  0  0  0  0
  6  7  2  0  0  0  0
  7  8  1  0  0  0  0
  7 42  1  0  0  0  0
  8 13  2  0  0  0  0
  8  9  1  0  0  0  0
  9 10  2  0  0  0  0
  9 29  1  0  0  0  0
 10 11  1  0  0  0  0
 10 30  1  0  0  0  0
 11 12  2  0  0  0  0
 11 31  1  0  0  0  0
 12 13  1  0  0  0  0
 12 32  1  0  0  0  0
 13 14  1  0  0  0  0
 14 15  1  0  0  0  0
 15 16  1  0  0  0  0
 15 33  1  0  0  0  0
 15 34  1  0  0  0  0
 16 17  1  0  0  0  0
 16 18  1  0  0  0  0
 16 35  1  0  0  0  0
 17 36  1  0  0  0  0
 18 23  1  0  0  0  0
 18 19  2  0  0  0  0
 19 20  1  0  0  0  0
 19 37  1  0  0  0  0
 20 21  2  0  0  0  0
 20 38  1  0  0  0  0
 21 22  1  0  0  0  0
 21 39  1  0  0  0  0
 22 23  2  0  0  0  0
 22 40  1  0  0  0  0
 23 41  1  0  0  0  0
M  CHG  1   7   1
M  END
> <s_m_source_file>
AV-unprocessed.smi

> <i_m_source_file_index>
1372

> <i_lp_mmshare_version>
43012

> <i_f3d_flags>
0

> <s_epik_input>
W2NIXTFbY0hdW2NIXVtjSF1jKGMxMiluKGMobjIpW0NIMl1TKD1PKSg9TylbQ0gzXSlbQ0gyXVtDQEhdKFtPSF0pYzNbY0hdW2NIXVtjSF1bY0hdW2NIXTM=

> <s_epik_cmdline>
J2VwaWtfcHl0aG9uJywgJy1waCcsICc3LjAnLCAnLXRuJywgJzgnLCAnLW1hJywgJzIwMCcsICctbWV0YWxfYmluZGluZycsICctaW1hZScsICc8aW5maWxlLm1hZT4nLCAnLW9tYWUnLCAnPG91dGZpbGUubWFlPic=

> <r_epik_Ionization_Penalty>
2.1801

> <r_epik_Ionization_Penalty_Charging>
2.1801

> <r_epik_Ionization_Penalty_Neutral>
1.34362e-06

> <r_epik_State_Penalty>
2.32206

> <r_epik_Charging_Adjusted_Penalty>
4.50216

> <i_epik_Tot_Q>
1

> <i_epik_Tot_abs_Q>
1

> <r_epik_Metal_State_Penalty>
6.40294

> <b_epik_Metal_Only>
0

> <s_lp_Force_Field>
OPLS_2005

> <r_lp_Energy>
11.7857

> <b_lp_Chiralities_Consistent>
1

> <s_lp_Variant>
AV-unprocessed.smi:1372-4

> <Gold.Version>
5.8.1

> <Gold.Id.Protein>
6NUR|6NUR_protein|mol2

> <Gold.PLP.Fitness>
53.8314

> <Gold.PLP.PLP>
-46.1549

> <Gold.PLP.part.hbond>
-2.7588

> <Gold.PLP.part.metal>
0.0000

> <Gold.PLP.part.buried>
-7.2993

> <Gold.PLP.part.nonpolar>
-37.1629

> <Gold.PLP.part.repulsive>
0.1256

> <Gold.PLP.ligand.clash>
0.0000

> <Gold.PLP.ligand.torsion>
0.7478

> <Gold.PLP.Chemscore.Hbond>
2.9920

> <Gold.PLP.Chemscore.CHOScore>
0.0000

> <Gold.PLP.Chemscore.Metal>
0.0000

> <Gold.Chemscore.Hbonds>
donor molecule, donor type, donor heavy atom, donor atom, acceptor molecule, acceptor atom, score
      P1  H  7989  7998       L1     4  1.00
      P1  H  7997  8008       L1    17  0.94
      P1  H  7997  8009       L1     3  0.76

> <Gold.PLP.Chemscore.Internal.Correction>
0.1962

> <Gold.Rescore>
     Score         DG    S(hbond)    S(metal)    S(lipo)     H(rot)  DE(clash)    DE(int)     intcor
     22.21     -24.17       2.91        0.00     129.00       2.40       0.07       1.89       ----

> <Gold.Chemscore.Fitness>
22.2073

> <Gold.Chemscore.DG>
-24.1710

> <Gold.Chemscore.ZeroCoef>
-5.4800

> <Gold.Chemscore.Hbond>
2.9130

> <Gold.Chemscore.Metal>
0.0000

> <Gold.Chemscore.Lipo>
129.0003

> <Gold.Chemscore.Internal_Hbond>
0.0000

> <Gold.Chemscore.DEClash>
0.0742

> <Gold.Chemscore.DEInternal>
1.8896

> <Gold.Chemscore.Rot>
2.3951

> <Gold.Chemscore.Internal.Correction>
   9.000000E+99

> <Gold.Chemscore.Hbonds>
donor molecule, donor type, donor heavy atom, donor atom, acceptor molecule, acceptor atom, score
      P1  H  7989  7998       L1     4  0.99
      P1  H  7997  8008       L1    17  0.70
      P1  H  7997  8009       L1     3  0.72

> <Gold.Chemscore.Hbond.Weighted>
-9.7294

> <Gold.Chemscore.Metal.Weighted>
-0.0000

> <Gold.Chemscore.Lipo.Weighted>
-15.0930

> <Gold.Chemscore.Internal_Hbond.Weighted>
0.0000

> <Gold.Chemscore.DEClash.Weighted>
0.0742

> <Gold.Chemscore.DEInternal.Weighted>
1.8896

> <Gold.Chemscore.Rot.Weighted>
6.1314

> <Gold.Chemscore.Internal.Correction.Weighted>
   9.000000E+99

> <Gold.Protein.RotatedTorsions>
[ 6907 6896 6895 6894 ] final  113.83 input  -60.11 | X-H torsion
[ 7974 7965 7964 7962 ] final -178.76 input  175.53 | X-H torsion
[ 8008 7997 7996 7995 ] final -139.50 input   59.86 | X-H torsion
[ 10167 10162 10161 10158 ] final   77.62 input  -65.29 | X-H torsion
[ 10718 10713 10712 10709 ] final    3.25 input   66.30 | X-H torsion
[ 10763 10752 10751 10750 ] final  -36.37 input  -60.55 | X-H torsion
[ 11005 11000 10999 10996 ] final -177.69 input  -57.11 | X-H torsion

> <Gold.Protein.ActiveResidues>
 VAL166  LYS551  ARG553  GLY616  TRP617  ASP618  TYR619  PRO620  LYS621  CYS622 
 ASP623  PHE694  ASN695  SER759  ASP760  ASP761  ALA762  ILE779  LEU786  VAL792 
 PHE793  MET794  SER795  GLU796  ALA797  LYS798  CYS799  TRP800  GLU811  SER814 

> <Gold.Protein.RotatedAtoms>
  152.4838  133.8320  159.7107 H   0  0  0  0  0  0  0  0  0  0  0  0  # atno 6907 bound_to 6896
  150.8908  133.7237  159.2912 H   0  0  0  0  0  0  0  0  0  0  0  0  # atno 6908 bound_to 6896
  151.4710  135.1049  159.9804 H   0  0  0  0  0  0  0  0  0  0  0  0  # atno 6909 bound_to 6896
  144.7132  140.0821  143.6425 H   0  0  0  0  0  0  0  0  0  0  0  0  # atno 7974 bound_to 7965
  155.4459  140.0535  157.3006 H   0  0  0  0  0  0  0  0  0  0  0  0  # atno 8008 bound_to 7997
  154.4798  140.2076  155.9748 H   0  0  0  0  0  0  0  0  0  0  0  0  # atno 8009 bound_to 7997
  156.1188  140.3192  155.8182 H   0  0  0  0  0  0  0  0  0  0  0  0  # atno 8010 bound_to 7997
  139.9796  144.5836  150.7912 H   0  0  0  0  0  0  0  0  0  0  0  0  # atno 10167 bound_to 10162
  156.8750  130.5633  149.5655 H   0  0  0  0  0  0  0  0  0  0  0  0  # atno 10718 bound_to 10713
  153.8786  135.6824  153.4768 H   0  0  0  0  0  0  0  0  0  0  0  0  # atno 10763 bound_to 10752
  153.1247  135.4724  154.9250 H   0  0  0  0  0  0  0  0  0  0  0  0  # atno 10764 bound_to 10752
  154.7680  135.3230  154.8199 H   0  0  0  0  0  0  0  0  0  0  0  0  # atno 10765 bound_to 10752
  140.4381  134.6457  157.4744 H   0  0  0  0  0  0  0  0  0  0  0  0  # atno 11005 bound_to 11000
  145.9693  139.2858  143.1108 LP  0  0  0  0  0  0  0  0  0  0  0  0  # atno 17320 bound_to 7965
  145.9134  140.9165  143.0442 LP  0  0  0  0  0  0  0  0  0  0  0  0  # atno 17321 bound_to 7965
  140.7493  143.2937  151.3261 LP  0  0  0  0  0  0  0  0  0  0  0  0  # atno 17342 bound_to 10162
  139.6419  144.0523  152.2561 LP  0  0  0  0  0  0  0  0  0  0  0  0  # atno 17343 bound_to 10162
  156.0707  130.5740  150.9377 LP  0  0  0  0  0  0  0  0  0  0  0  0  # atno 17370 bound_to 10713
  157.6174  131.0932  150.8686 LP  0  0  0  0  0  0  0  0  0  0  0  0  # atno 17371 bound_to 10713
  140.0089  134.6721  155.9412 LP  0  0  0  0  0  0  0  0  0  0  0  0  # atno 17394 bound_to 11000
  141.1717  133.6538  156.4677 LP  0  0  0  0  0  0  0  0  0  0  0  0  # atno 17395 bound_to 11000

$$$$
