AV-unprocessed.smi:2397|AV-procd|sdf|9496|dock1
  -GOLD-   2272013123D 1   1.00000     0.00000
 Structure written by MMmdl.
 37 38  0  0  0  0  0  0  0  0  2 V2000
  147.3045  141.3253  154.1081 C   0  0  0  0  0  0  0  0  0  0  0  0
  147.7998  139.9999  153.5100 C   0  0  0  0  0  0  0  0  0  0  0  0
  146.7407  138.8878  153.5538 C   0  0  0  0  0  0  0  0  0  0  0  0
  149.1179  139.5546  154.1269 C   0  0  0  0  0  0  0  0  0  0  0  0
  149.7049  138.4368  153.6711 N   0  3  0  0  0  0  0  0  0  0  0  0
  150.8771  138.0259  154.2117 C   0  0  0  0  0  0  0  0  0  0  0  0
  151.4827  138.7637  155.2450 C   0  0  0  0  0  0  0  0  0  0  0  0
  150.8178  139.9326  155.6740 C   0  0  0  0  0  0  0  0  0  0  0  0
  151.3045  140.7678  156.7003 N   0  0  0  0  0  0  0  0  0  0  0  0
  150.6223  142.0610  156.6896 C   0  0  0  0  0  0  0  0  0  0  0  0
  151.2762  143.0321  157.6817 C   0  0  0  0  0  0  0  0  0  0  0  0
  151.2830  142.4392  158.9722 O   0  0  0  0  0  0  0  0  0  0  0  0
  152.0691  141.2545  158.9978 C   0  0  0  0  0  0  0  0  0  0  0  0
  151.4823  140.1879  158.0425 C   0  0  2  0  0  0  0  0  0  0  0  0
  152.3823  138.9379  158.1253 C   0  0  0  0  0  0  0  0  0  0  0  0
  151.8415  137.7917  158.5525 N   0  0  0  0  0  0  0  0  0  0  0  0
  153.5696  139.0173  157.8194 O   0  0  0  0  0  0  0  0  0  0  0  0
  149.6480  140.2984  155.1079 N   0  0  0  0  0  0  0  0  0  0  0  0
  148.0516  142.1112  153.9931 H   0  0  0  0  0  0  0  0  0  0  0  0
  147.0860  141.2261  155.1720 H   0  0  0  0  0  0  0  0  0  0  0  0
  146.3927  141.6620  153.6139 H   0  0  0  0  0  0  0  0  0  0  0  0
  147.9942  140.1951  152.4539 H   0  0  0  0  0  0  0  0  0  0  0  0
  147.0976  137.9857  153.0563 H   0  0  0  0  0  0  0  0  0  0  0  0
  145.8241  139.2000  153.0528 H   0  0  0  0  0  0  0  0  0  0  0  0
  146.4828  138.6232  154.5798 H   0  0  0  0  0  0  0  0  0  0  0  0
  151.2922  137.1174  153.8004 H   0  0  0  0  0  0  0  0  0  0  0  0
  152.4139  138.4318  155.6790 H   0  0  0  0  0  0  0  0  0  0  0  0
  150.6440  142.5038  155.6927 H   0  0  0  0  0  0  0  0  0  0  0  0
  149.5725  141.9170  156.9506 H   0  0  0  0  0  0  0  0  0  0  0  0
  152.2920  143.2858  157.3734 H   0  0  0  0  0  0  0  0  0  0  0  0
  150.7128  143.9645  157.7224 H   0  0  0  0  0  0  0  0  0  0  0  0
  153.1014  141.4963  158.7364 H   0  0  0  0  0  0  0  0  0  0  0  0
  152.0851  140.8815  160.0228 H   0  0  0  0  0  0  0  0  0  0  0  0
  150.4979  139.9186  158.4280 H   0  0  0  0  0  0  0  0  0  0  0  0
  152.4147  136.9644  158.6368 H   0  0  0  0  0  0  0  0  0  0  0  0
  150.8654  137.7636  158.8105 H   0  0  0  0  0  0  0  0  0  0  0  0
  149.2763  137.8915  152.9225 H   0  0  0  0  0  0  0  0  0  0  0  0
  1  2  1  0  0  0  0
  1 19  1  0  0  0  0
  1 20  1  0  0  0  0
  1 21  1  0  0  0  0
  2  3  1  0  0  0  0
  2  4  1  0  0  0  0
  2 22  1  0  0  0  0
  3 23  1  0  0  0  0
  3 24  1  0  0  0  0
  3 25  1  0  0  0  0
  4 18  1  0  0  0  0
  4  5  2  0  0  0  0
  5  6  1  0  0  0  0
  5 37  1  0  0  0  0
  6  7  2  0  0  0  0
  6 26  1  0  0  0  0
  7  8  1  0  0  0  0
  7 27  1  0  0  0  0
  8  9  1  0  0  0  0
  8 18  2  0  0  0  0
  9 14  1  0  0  0  0
  9 10  1  0  0  0  0
 10 11  1  0  0  0  0
 10 28  1  0  0  0  0
 10 29  1  0  0  0  0
 11 12  1  0  0  0  0
 11 30  1  0  0  0  0
 11 31  1  0  0  0  0
 12 13  1  0  0  0  0
 13 14  1  0  0  0  0
 13 32  1  0  0  0  0
 13 33  1  0  0  0  0
 14 15  1  0  0  0  0
 14 34  1  0  0  0  0
 15 16  1  0  0  0  0
 15 17  2  0  0  0  0
 16 35  1  0  0  0  0
 16 36  1  0  0  0  0
M  CHG  1   5   1
M  END
> <s_m_source_file>
AV-unprocessed.smi

> <i_m_source_file_index>
2397

> <i_lp_mmshare_version>
43012

> <i_f3d_flags>
0

> <s_epik_input>
W0NIM11bQ0hdKFtDSDNdKWMxbltjSF1bY0hdYyhuMSlOMltDSDJdW0NIMl1PW0NIMl1bQ0BIXTJDKD1PKVtOSDJd

> <s_epik_cmdline>
J2VwaWtfcHl0aG9uJywgJy1waCcsICc3LjAnLCAnLXRuJywgJzgnLCAnLW1hJywgJzIwMCcsICctbWV0YWxfYmluZGluZycsICctaW1hZScsICc8aW5maWxlLm1hZT4nLCAnLW9tYWUnLCAnPG91dGZpbGUubWFlPic=

> <r_lp_tautomer_probability>
0.999336

> <r_epik_Ionization_Penalty>
1.74009

> <r_epik_Ionization_Penalty_Charging>
1.74009

> <r_epik_Ionization_Penalty_Neutral>
2.46902e-07

> <r_epik_State_Penalty>
1.8491

> <r_epik_Charging_Adjusted_Penalty>
3.5892

> <i_epik_Tot_Q>
1

> <i_epik_Tot_abs_Q>
1

> <r_epik_Metal_State_Penalty>
1.87997

> <b_epik_Metal_Only>
0

> <s_lp_Force_Field>
OPLS_2005

> <r_lp_Energy>
12.8895

> <b_lp_Chiralities_Consistent>
1

> <s_lp_Variant>
AV-unprocessed.smi:2397-4

> <Gold.Version>
5.8.1

> <Gold.Id.Protein>
6NUR|6NUR_protein|mol2

> <Gold.PLP.Fitness>
39.5663

> <Gold.PLP.PLP>
-30.7475

> <Gold.PLP.part.hbond>
-3.0000

> <Gold.PLP.part.metal>
0.0000

> <Gold.PLP.part.buried>
-1.2776

> <Gold.PLP.part.nonpolar>
-27.5101

> <Gold.PLP.part.repulsive>
0.2842

> <Gold.PLP.ligand.clash>
0.0000

> <Gold.PLP.ligand.torsion>
0.2392

> <Gold.PLP.Chemscore.Hbond>
3.0000

> <Gold.PLP.Chemscore.CHOScore>
0.0000

> <Gold.PLP.Chemscore.Metal>
0.0000

> <Gold.Chemscore.Hbonds>
donor molecule, donor type, donor heavy atom, donor atom, acceptor molecule, acceptor atom, score
      L1  H     5    37       P1  7948  2.00
      P1  H  7997  8010       L1    17  1.00

> <Gold.PLP.Chemscore.Internal.Correction>
0.2972

> <Gold.Rescore>
     Score         DG    S(hbond)    S(metal)    S(lipo)     H(rot)  DE(clash)    DE(int)     intcor
     14.44     -14.99       1.96        0.00      63.98       1.77       0.12       0.43       ----

> <Gold.Chemscore.Fitness>
14.4416

> <Gold.Chemscore.DG>
-14.9924

> <Gold.Chemscore.ZeroCoef>
-5.4800

> <Gold.Chemscore.Hbond>
1.9649

> <Gold.Chemscore.Metal>
0.0000

> <Gold.Chemscore.Lipo>
63.9764

> <Gold.Chemscore.Internal_Hbond>
0.0000

> <Gold.Chemscore.DEClash>
0.1191

> <Gold.Chemscore.DEInternal>
0.4318

> <Gold.Chemscore.Rot>
1.7717

> <Gold.Chemscore.Internal.Correction>
   9.000000E+99

> <Gold.Chemscore.Hbonds>
donor molecule, donor type, donor heavy atom, donor atom, acceptor molecule, acceptor atom, score
      L1  H     5    37       P1  7948  0.93
      P1  H  7997  8010       L1    17  1.00

> <Gold.Chemscore.Hbond.Weighted>
-6.5628

> <Gold.Chemscore.Metal.Weighted>
-0.0000

> <Gold.Chemscore.Lipo.Weighted>
-7.4852

> <Gold.Chemscore.Internal_Hbond.Weighted>
0.0000

> <Gold.Chemscore.DEClash.Weighted>
0.1191

> <Gold.Chemscore.DEInternal.Weighted>
0.4318

> <Gold.Chemscore.Rot.Weighted>
4.5357

> <Gold.Chemscore.Internal.Correction.Weighted>
   9.000000E+99

> <Gold.Protein.RotatedTorsions>
[ 6907 6896 6895 6894 ] final -120.47 input  -60.11 | X-H torsion
[ 7974 7965 7964 7962 ] final -116.41 input  175.53 | X-H torsion
[ 8008 7997 7996 7995 ] final   44.66 input   59.86 | X-H torsion
[ 10167 10162 10161 10158 ] final   -1.51 input  -65.29 | X-H torsion
[ 10718 10713 10712 10709 ] final   73.94 input   66.30 | X-H torsion
[ 10763 10752 10751 10750 ] final   78.24 input  -60.55 | X-H torsion
[ 11005 11000 10999 10996 ] final  -51.91 input  -57.11 | X-H torsion

> <Gold.Protein.ActiveResidues>
 VAL166  LYS551  ARG553  GLY616  TRP617  ASP618  TYR619  PRO620  LYS621  CYS622 
 ASP623  PHE694  ASN695  SER759  ASP760  ASP761  ALA762  ILE779  LEU786  VAL792 
 PHE793  MET794  SER795  GLU796  ALA797  LYS798  CYS799  TRP800  GLU811  SER814 

> <Gold.Protein.RotatedAtoms>
  150.8396  133.7958  159.3065 H   0  0  0  0  0  0  0  0  0  0  0  0  # atno 6907 bound_to 6896
  151.5663  135.1062  159.9994 H   0  0  0  0  0  0  0  0  0  0  0  0  # atno 6908 bound_to 6896
  152.4462  133.7498  159.6744 H   0  0  0  0  0  0  0  0  0  0  0  0  # atno 6909 bound_to 6896
  145.0971  140.8528  143.3948 H   0  0  0  0  0  0  0  0  0  0  0  0  # atno 7974 bound_to 7965
  155.3230  140.3398  155.4241 H   0  0  0  0  0  0  0  0  0  0  0  0  # atno 8008 bound_to 7997
  156.1900  140.1694  156.8148 H   0  0  0  0  0  0  0  0  0  0  0  0  # atno 8009 bound_to 7997
  154.5430  140.0721  156.8526 H   0  0  0  0  0  0  0  0  0  0  0  0  # atno 8010 bound_to 7997
  140.6813  143.6767  150.8140 H   0  0  0  0  0  0  0  0  0  0  0  0  # atno 10167 bound_to 10162
  157.6570  130.9653  150.1141 H   0  0  0  0  0  0  0  0  0  0  0  0  # atno 10718 bound_to 10713
  153.0859  135.4884  154.8596 H   0  0  0  0  0  0  0  0  0  0  0  0  # atno 10763 bound_to 10752
  154.7210  135.3039  154.9050 H   0  0  0  0  0  0  0  0  0  0  0  0  # atno 10764 bound_to 10752
  153.9714  135.6800  153.4800 H   0  0  0  0  0  0  0  0  0  0  0  0  # atno 10765 bound_to 10752
  141.0896  133.6635  156.3947 H   0  0  0  0  0  0  0  0  0  0  0  0  # atno 11005 bound_to 11000
  145.0999  139.2830  143.5692 LP  0  0  0  0  0  0  0  0  0  0  0  0  # atno 17320 bound_to 7965
  146.3530  140.0562  142.8632 LP  0  0  0  0  0  0  0  0  0  0  0  0  # atno 17321 bound_to 7965
  140.0467  143.5291  152.2693 LP  0  0  0  0  0  0  0  0  0  0  0  0  # atno 17342 bound_to 10162
  139.6138  144.7615  151.2893 LP  0  0  0  0  0  0  0  0  0  0  0  0  # atno 17343 bound_to 10162
  156.2029  130.3661  149.8765 LP  0  0  0  0  0  0  0  0  0  0  0  0  # atno 17370 bound_to 10713
  156.6664  130.8803  151.3555 LP  0  0  0  0  0  0  0  0  0  0  0  0  # atno 17371 bound_to 10713
  140.5282  134.6238  157.5341 LP  0  0  0  0  0  0  0  0  0  0  0  0  # atno 17394 bound_to 11000
  139.9720  134.7277  156.0023 LP  0  0  0  0  0  0  0  0  0  0  0  0  # atno 17395 bound_to 11000

$$$$
