AV-unprocessed.smi:53|AV-procd|sdf|526|dock4
  -GOLD-   2262016403D 1   1.00000     0.00000
 Structure written by MMmdl.
 30 31  0  0  0  0  0  0  0  0  1 V2000
  154.2339  141.9235  160.5489 N   0  0  0  0  0  0  0  0  0  0  0  0
  153.4234  141.2805  159.6962 C   0  0  0  0  0  0  0  0  0  0  0  0
  152.3913  142.0017  158.9864 C   0  0  0  0  0  0  0  0  0  0  0  0
  151.6132  141.2857  158.1450 C   0  0  0  0  0  0  0  0  0  0  0  0
  151.7846  139.9193  157.9607 N   0  0  0  0  0  0  0  0  0  0  0  0
  150.9060  139.1103  157.0220 C   0  0  1  0  0  0  0  0  0  0  0  0
  149.9024  139.9264  156.4911 O   0  0  0  0  0  0  0  0  0  0  0  0
  150.1677  140.2010  155.1189 C   0  0  2  0  0  0  0  0  0  0  0  0
  148.8857  140.6125  154.3746 C   0  0  0  0  0  0  0  0  0  0  0  0
  149.2122  141.1685  153.1187 O   0  0  0  0  0  0  0  0  0  0  0  0
  150.8297  138.9058  154.6344 C   0  0  2  0  0  0  0  0  0  0  0  0
  149.8625  137.9097  154.3534 O   0  0  0  0  0  0  0  0  0  0  0  0
  151.6836  138.5000  155.8284 C   0  0  1  0  0  0  0  0  0  0  0  0
  152.9937  139.0188  155.6708 O   0  0  0  0  0  0  0  0  0  0  0  0
  152.8062  139.2426  158.6695 C   0  0  0  0  0  0  0  0  0  0  0  0
  153.0005  138.0359  158.5260 O   0  0  0  0  0  0  0  0  0  0  0  0
  153.5845  139.9838  159.5178 N   0  0  0  0  0  0  0  0  0  0  0  0
  150.4161  138.3611  157.6472 H   0  0  0  0  0  0  0  0  0  0  0  0
  150.9093  140.9991  155.0510 H   0  0  0  0  0  0  0  0  0  0  0  0
  151.4199  139.0644  153.7305 H   0  0  0  0  0  0  0  0  0  0  0  0
  151.7534  137.4176  155.9457 H   0  0  0  0  0  0  0  0  0  0  0  0
  154.9539  141.4168  161.0431 H   0  0  0  0  0  0  0  0  0  0  0  0
  154.1226  142.9166  160.6942 H   0  0  0  0  0  0  0  0  0  0  0  0
  152.2221  143.0630  159.1009 H   0  0  0  0  0  0  0  0  0  0  0  0
  150.8407  141.8208  157.6142 H   0  0  0  0  0  0  0  0  0  0  0  0
  148.2619  139.7374  154.1906 H   0  0  0  0  0  0  0  0  0  0  0  0
  148.2947  141.3193  154.9580 H   0  0  0  0  0  0  0  0  0  0  0  0
  149.1063  140.5016  152.4574 H   0  0  0  0  0  0  0  0  0  0  0  0
  150.0957  137.4837  153.5430 H   0  0  0  0  0  0  0  0  0  0  0  0
  153.2719  138.8532  154.7826 H   0  0  0  0  0  0  0  0  0  0  0  0
  1  2  1  0  0  0  0
  1 22  1  0  0  0  0
  1 23  1  0  0  0  0
  2 17  2  0  0  0  0
  2  3  1  0  0  0  0
  3  4  2  0  0  0  0
  3 24  1  0  0  0  0
  4  5  1  0  0  0  0
  4 25  1  0  0  0  0
  5  6  1  0  0  0  0
  5 15  1  0  0  0  0
  6 18  1  0  0  0  0
  6 13  1  0  0  0  0
  6  7  1  0  0  0  0
  7  8  1  0  0  0  0
  8 19  1  0  0  0  0
  8  9  1  0  0  0  0
  8 11  1  0  0  0  0
  9 10  1  0  0  0  0
  9 26  1  0  0  0  0
  9 27  1  0  0  0  0
 10 28  1  0  0  0  0
 11 20  1  0  0  0  0
 11 12  1  0  0  0  0
 11 13  1  0  0  0  0
 12 29  1  0  0  0  0
 13 21  1  0  0  0  0
 13 14  1  0  0  0  0
 14 30  1  0  0  0  0
 15 16  2  0  0  0  0
 15 17  1  0  0  0  0
M  END
> <s_m_source_file>
AV-unprocessed.smi

> <i_m_source_file_index>
53

> <i_lp_mmshare_version>
43012

> <i_f3d_flags>
0

> <s_epik_input>
W05IMl1jMVtjSF1bY0hdbihjKD1PKW4xKVtDQEBIXTJPW0NASF0oW0NIMl1bT0hdKVtDQEBIXShbT0hdKVtDQEBIXTJbT0hd

> <s_epik_cmdline>
J2VwaWtfcHl0aG9uJywgJy1waCcsICc3LjAnLCAnLXRuJywgJzgnLCAnLW1hJywgJzIwMCcsICctbWV0YWxfYmluZGluZycsICctaW1hZScsICc8aW5maWxlLm1hZT4nLCAnLW9tYWUnLCAnPG91dGZpbGUubWFlPic=

> <r_lp_tautomer_probability>
0.99996

> <r_epik_Ionization_Penalty>
0.00069087

> <r_epik_Ionization_Penalty_Charging>
2.61959e-08

> <r_epik_Ionization_Penalty_Neutral>
0.000690844

> <r_epik_State_Penalty>
1.15523e-05

> <r_epik_Charging_Adjusted_Penalty>
1.15785e-05

> <i_epik_Tot_Q>
0

> <i_epik_Tot_abs_Q>
0

> <r_epik_Metal_State_Penalty>
-0

> <b_epik_Metal_Only>
0

> <s_epik_Chemistry_Notes>
This compound contains an acetal/aminal-like group ( X-CH(R)-Y where X, Y are N, S, or O) that may be acid/base labile, releasing an aldehyde.

> <s_lp_Force_Field>
OPLS_2005

> <r_lp_Energy>
36.7572

> <b_lp_Chiralities_Consistent>
1

> <s_lp_Variant>
AV-unprocessed.smi:53-14

> <Gold.Version>
5.8.1

> <Gold.Id.Protein>
6NUR|6NUR_protein|mol2

> <Gold.PLP.Fitness>
36.7303

> <Gold.PLP.PLP>
-27.5483

> <Gold.PLP.part.hbond>
-4.6399

> <Gold.PLP.part.metal>
0.0000

> <Gold.PLP.part.buried>
-3.8567

> <Gold.PLP.part.nonpolar>
-19.2980

> <Gold.PLP.part.repulsive>
0.0305

> <Gold.PLP.ligand.clash>
0.0000

> <Gold.PLP.ligand.torsion>
0.1444

> <Gold.PLP.Chemscore.Hbond>
3.1366

> <Gold.PLP.Chemscore.CHOScore>
0.0000

> <Gold.PLP.Chemscore.Metal>
0.0000

> <Gold.Chemscore.Hbonds>
donor molecule, donor type, donor heavy atom, donor atom, acceptor molecule, acceptor atom, score
      L1  H    10    28       P1  7957  0.72
      L1  H    12    29       P1  7948  0.16
      P1  H  7997  8010       L1    14  1.00
      P1  H  8011  8017       L1    10  1.00

> <Gold.PLP.Chemscore.Internal.Correction>
0.0610

> <Gold.Rescore>
     Score         DG    S(hbond)    S(metal)    S(lipo)     H(rot)  DE(clash)    DE(int)     intcor
      7.59      -8.03       2.00        0.00      45.77       3.71       0.11       0.34       ----

> <Gold.Chemscore.Fitness>
7.5881

> <Gold.Chemscore.DG>
-8.0343

> <Gold.Chemscore.ZeroCoef>
-5.4800

> <Gold.Chemscore.Hbond>
2.0046

> <Gold.Chemscore.Metal>
0.0000

> <Gold.Chemscore.Lipo>
45.7725

> <Gold.Chemscore.Internal_Hbond>
0.0000

> <Gold.Chemscore.DEClash>
0.1086

> <Gold.Chemscore.DEInternal>
0.3376

> <Gold.Chemscore.Rot>
3.7095

> <Gold.Chemscore.Internal.Correction>
   9.000000E+99

> <Gold.Chemscore.Hbonds>
donor molecule, donor type, donor heavy atom, donor atom, acceptor molecule, acceptor atom, score
      L1  H    10    28       P1  7957  0.68
      L1  H    12    29       P1  7948  0.06
      P1  H  7997  8010       L1    14  0.26
      P1  H  8011  8017       L1    10  0.44

> <Gold.Chemscore.Hbond.Weighted>
-6.6953

> <Gold.Chemscore.Metal.Weighted>
-0.0000

> <Gold.Chemscore.Lipo.Weighted>
-5.3554

> <Gold.Chemscore.Internal_Hbond.Weighted>
0.0000

> <Gold.Chemscore.DEClash.Weighted>
0.1086

> <Gold.Chemscore.DEInternal.Weighted>
0.3376

> <Gold.Chemscore.Rot.Weighted>
9.4964

> <Gold.Chemscore.Internal.Correction.Weighted>
   9.000000E+99

> <Gold.Protein.RotatedTorsions>
[ 6907 6896 6895 6894 ] final   33.92 input  -60.11 | X-H torsion
[ 7974 7965 7964 7962 ] final  -61.61 input  175.53 | X-H torsion
[ 8008 7997 7996 7995 ] final   81.98 input   59.86 | X-H torsion
[ 10167 10162 10161 10158 ] final  158.35 input  -65.29 | X-H torsion
[ 10718 10713 10712 10709 ] final    8.62 input   66.30 | X-H torsion
[ 10763 10752 10751 10750 ] final   58.91 input  -60.55 | X-H torsion
[ 11005 11000 10999 10996 ] final  -40.76 input  -57.11 | X-H torsion

> <Gold.Protein.ActiveResidues>
 VAL166  LYS551  ARG553  GLY616  TRP617  ASP618  TYR619  PRO620  LYS621  CYS622 
 ASP623  PHE694  ASN695  SER759  ASP760  ASP761  ALA762  ILE779  LEU786  VAL792 
 PHE793  MET794  SER795  GLU796  ALA797  LYS798  CYS799  TRP800  GLU811  SER814 

> <Gold.Protein.RotatedAtoms>
  152.0952  134.9380  160.0570 H   0  0  0  0  0  0  0  0  0  0  0  0  # atno 6907 bound_to 6896
  152.0616  133.4060  159.4428 H   0  0  0  0  0  0  0  0  0  0  0  0  # atno 6908 bound_to 6896
  150.6838  134.3114  159.4791 H   0  0  0  0  0  0  0  0  0  0  0  0  # atno 6909 bound_to 6896
  145.8013  140.8653  143.0230 H   0  0  0  0  0  0  0  0  0  0  0  0  # atno 7974 bound_to 7965
  155.9044  140.3431  155.6051 H   0  0  0  0  0  0  0  0  0  0  0  0  # atno 8008 bound_to 7997
  155.7461  140.0814  157.2242 H   0  0  0  0  0  0  0  0  0  0  0  0  # atno 8009 bound_to 7997
  154.4047  140.1562  156.2659 H   0  0  0  0  0  0  0  0  0  0  0  0  # atno 8010 bound_to 7997
  139.4826  144.4833  151.8413 H   0  0  0  0  0  0  0  0  0  0  0  0  # atno 10167 bound_to 10162
  156.9544  130.5909  149.5658 H   0  0  0  0  0  0  0  0  0  0  0  0  # atno 10718 bound_to 10713
  152.9882  135.5590  154.5628 H   0  0  0  0  0  0  0  0  0  0  0  0  # atno 10763 bound_to 10752
  154.5043  135.2799  155.1397 H   0  0  0  0  0  0  0  0  0  0  0  0  # atno 10764 bound_to 10752
  154.2814  135.6344  153.5401 H   0  0  0  0  0  0  0  0  0  0  0  0  # atno 10765 bound_to 10752
  141.0198  133.6868  156.2365 H   0  0  0  0  0  0  0  0  0  0  0  0  # atno 11005 bound_to 11000
  144.6768  140.0263  143.7483 LP  0  0  0  0  0  0  0  0  0  0  0  0  # atno 17320 bound_to 7965
  145.9875  139.2988  143.1005 LP  0  0  0  0  0  0  0  0  0  0  0  0  # atno 17321 bound_to 7965
  140.4310  144.2115  150.5888 LP  0  0  0  0  0  0  0  0  0  0  0  0  # atno 17342 bound_to 10162
  140.4779  143.2389  151.8997 LP  0  0  0  0  0  0  0  0  0  0  0  0  # atno 17343 bound_to 10162
  156.0349  130.5437  150.8628 LP  0  0  0  0  0  0  0  0  0  0  0  0  # atno 17370 bound_to 10713
  157.5700  131.0946  150.9431 LP  0  0  0  0  0  0  0  0  0  0  0  0  # atno 17371 bound_to 10713
  140.6593  134.4985  157.5582 LP  0  0  0  0  0  0  0  0  0  0  0  0  # atno 17394 bound_to 11000
  139.9139  134.8287  156.1433 LP  0  0  0  0  0  0  0  0  0  0  0  0  # atno 17395 bound_to 11000

$$$$
