AV-unprocessed.smi:3161|AV-procd|sdf|12058|dock8
  -GOLD-   2272017483D 1   1.00000     0.00000
 Structure written by MMmdl.
 41 42  0  0  0  0  0  0  0  0  2 V2000
  149.7581  136.0297  155.3977 C   0  0  0  0  0  0  0  0  0  0  0  0
  150.0892  137.4725  155.1451 C   0  0  0  0  0  0  0  0  0  0  0  0
  151.0260  138.0057  154.2145 C   0  0  0  0  0  0  0  0  0  0  0  0
  151.0820  139.3275  154.2413 N   0  0  0  0  0  0  0  0  0  0  0  0
  150.1819  139.6839  155.1817 N   0  0  0  0  0  0  0  0  0  0  0  0
  149.9797  141.0881  155.4894 C   0  0  0  0  0  0  0  0  0  0  0  0
  149.8904  141.3706  157.0078 C   0  0  1  0  0  0  0  0  0  0  0  0
  150.8558  140.4981  157.8284 C   0  0  0  0  0  0  0  0  0  0  0  0
  150.1522  142.7970  157.3034 N   0  3  0  0  0  0  0  0  0  0  0  0
  151.5488  143.2420  157.1099 C   0  0  0  0  0  0  0  0  0  0  0  0
  152.1474  143.7579  158.4263 C   0  0  1  0  0  0  0  0  0  0  0  0
  151.3323  144.9293  159.0080 C   0  0  0  0  0  0  0  0  0  0  0  0
  151.9026  145.3620  160.3636 C   0  0  0  0  0  0  0  0  0  0  0  0
  152.0034  144.1479  161.2927 C   0  0  0  0  0  0  0  0  0  0  0  0
  152.7703  143.0088  160.6026 C   0  0  0  0  0  0  0  0  0  0  0  0
  152.1462  142.6826  159.3637 O   0  0  0  0  0  0  0  0  0  0  0  0
  149.5732  138.5841  155.7487 C   0  0  0  0  0  0  0  0  0  0  0  0
  150.0346  135.3968  154.5542 H   0  0  0  0  0  0  0  0  0  0  0  0
  148.6914  135.8847  155.5703 H   0  0  0  0  0  0  0  0  0  0  0  0
  150.2814  135.6453  156.2733 H   0  0  0  0  0  0  0  0  0  0  0  0
  151.6649  137.4738  153.5249 H   0  0  0  0  0  0  0  0  0  0  0  0
  150.8017  141.6551  155.0504 H   0  0  0  0  0  0  0  0  0  0  0  0
  149.0718  141.4092  154.9789 H   0  0  0  0  0  0  0  0  0  0  0  0
  148.8797  141.1422  157.3503 H   0  0  0  0  0  0  0  0  0  0  0  0
  150.6280  139.4370  157.7237 H   0  0  0  0  0  0  0  0  0  0  0  0
  150.7912  140.7351  158.8908 H   0  0  0  0  0  0  0  0  0  0  0  0
  151.8897  140.6488  157.5159 H   0  0  0  0  0  0  0  0  0  0  0  0
  149.5805  143.3453  156.6762 H   0  0  0  0  0  0  0  0  0  0  0  0
  152.1445  142.4052  156.7453 H   0  0  0  0  0  0  0  0  0  0  0  0
  151.5889  144.0227  156.3489 H   0  0  0  0  0  0  0  0  0  0  0  0
  153.1736  144.0847  158.2478 H   0  0  0  0  0  0  0  0  0  0  0  0
  151.3349  145.7734  158.3175 H   0  0  0  0  0  0  0  0  0  0  0  0
  150.2906  144.6290  159.1309 H   0  0  0  0  0  0  0  0  0  0  0  0
  152.8914  145.8004  160.2234 H   0  0  0  0  0  0  0  0  0  0  0  0
  151.2772  146.1343  160.8122 H   0  0  0  0  0  0  0  0  0  0  0  0
  152.4965  144.4257  162.2249 H   0  0  0  0  0  0  0  0  0  0  0  0
  151.0025  143.8047  161.5580 H   0  0  0  0  0  0  0  0  0  0  0  0
  153.8123  143.2858  160.4356 H   0  0  0  0  0  0  0  0  0  0  0  0
  152.7754  142.1231  161.2383 H   0  0  0  0  0  0  0  0  0  0  0  0
  148.8287  138.6815  156.5253 H   0  0  0  0  0  0  0  0  0  0  0  0
  149.8656  142.9959  158.2513 H   0  0  0  0  0  0  0  0  0  0  0  0
  1  2  1  0  0  0  0
  1 18  1  0  0  0  0
  1 19  1  0  0  0  0
  1 20  1  0  0  0  0
  2 17  2  0  0  0  0
  2  3  1  0  0  0  0
  3  4  2  0  0  0  0
  3 21  1  0  0  0  0
  4  5  1  0  0  0  0
  5  6  1  0  0  0  0
  5 17  1  0  0  0  0
  6  7  1  0  0  0  0
  6 22  1  0  0  0  0
  6 23  1  0  0  0  0
  7  8  1  0  0  0  0
  7  9  1  0  0  0  0
  7 24  1  0  0  0  0
  8 25  1  0  0  0  0
  8 26  1  0  0  0  0
  8 27  1  0  0  0  0
  9 10  1  0  0  0  0
  9 28  1  0  0  0  0
  9 41  1  0  0  0  0
 10 11  1  0  0  0  0
 10 29  1  0  0  0  0
 10 30  1  0  0  0  0
 11 16  1  0  0  0  0
 11 12  1  0  0  0  0
 11 31  1  0  0  0  0
 12 13  1  0  0  0  0
 12 32  1  0  0  0  0
 12 33  1  0  0  0  0
 13 14  1  0  0  0  0
 13 34  1  0  0  0  0
 13 35  1  0  0  0  0
 14 15  1  0  0  0  0
 14 36  1  0  0  0  0
 14 37  1  0  0  0  0
 15 16  1  0  0  0  0
 15 38  1  0  0  0  0
 15 39  1  0  0  0  0
 17 40  1  0  0  0  0
M  CHG  1   9   1
M  END
> <s_m_source_file>
AV-unprocessed.smi

> <i_m_source_file_index>
3161

> <i_lp_mmshare_version>
43012

> <i_f3d_flags>
0

> <s_epik_input>
W0NIM11jMVtjSF1ubihbY0hdMSlbQ0gyXVtDQEhdKFtDSDNdKVtOSF1bQ0gyXVtDQEBIXTJbQ0gyXVtDSDJdW0NIMl1bQ0gyXU8y

> <s_epik_cmdline>
J2VwaWtfcHl0aG9uJywgJy1waCcsICc3LjAnLCAnLXRuJywgJzgnLCAnLW1hJywgJzIwMCcsICctbWV0YWxfYmluZGluZycsICctaW1hZScsICc8aW5maWxlLm1hZT4nLCAnLW9tYWUnLCAnPG91dGZpbGUubWFlPic=

> <r_lp_tautomer_probability>
1

> <r_epik_Ionization_Penalty>
0.00849661

> <r_epik_Ionization_Penalty_Charging>
0.00848754

> <r_epik_Ionization_Penalty_Neutral>
9.06711e-06

> <r_epik_State_Penalty>
0.00639836

> <r_epik_Charging_Adjusted_Penalty>
0.0148859

> <i_epik_Tot_Q>
1

> <i_epik_Tot_abs_Q>
1

> <r_epik_Metal_State_Penalty>
0.00639921

> <b_epik_Metal_Only>
0

> <s_lp_Force_Field>
OPLS_2005

> <r_lp_Energy>
12.4103

> <b_lp_Chiralities_Consistent>
1

> <s_lp_Variant>
AV-unprocessed.smi:3161-4

> <Gold.Version>
5.8.1

> <Gold.Id.Protein>
6NUR|6NUR_protein|mol2

> <Gold.PLP.Fitness>
48.8922

> <Gold.PLP.PLP>
-38.5328

> <Gold.PLP.part.hbond>
-2.0000

> <Gold.PLP.part.metal>
0.0000

> <Gold.PLP.part.buried>
-5.1172

> <Gold.PLP.part.nonpolar>
-31.8182

> <Gold.PLP.part.repulsive>
0.1824

> <Gold.PLP.ligand.clash>
0.0000

> <Gold.PLP.ligand.torsion>
0.8335

> <Gold.PLP.Chemscore.Hbond>
3.0000

> <Gold.PLP.Chemscore.CHOScore>
0.9979

> <Gold.PLP.Chemscore.Metal>
0.0000

> <Gold.Chemscore.Hbonds>
donor molecule, donor type, donor heavy atom, donor atom, acceptor molecule, acceptor atom, score
      L1  H     9    28       P1  8028  2.00
      P1  H  7989  7998       L1     4  1.00
      L1  C     3    21       P1  7949  0.91

> <Gold.PLP.Chemscore.Internal.Correction>
0.0325

> <Gold.Rescore>
     Score         DG    S(hbond)    S(metal)    S(lipo)     H(rot)  DE(clash)    DE(int)     intcor
     19.44     -20.35       1.88        0.00     107.84       1.57       0.21       0.70       ----

> <Gold.Chemscore.Fitness>
19.4417

> <Gold.Chemscore.DG>
-20.3536

> <Gold.Chemscore.ZeroCoef>
-5.4800

> <Gold.Chemscore.Hbond>
1.8802

> <Gold.Chemscore.Metal>
0.0000

> <Gold.Chemscore.Lipo>
107.8354

> <Gold.Chemscore.Internal_Hbond>
0.0000

> <Gold.Chemscore.DEClash>
0.2077

> <Gold.Chemscore.DEInternal>
0.7042

> <Gold.Chemscore.Rot>
1.5714

> <Gold.Chemscore.Internal.Correction>
   9.000000E+99

> <Gold.Chemscore.Hbonds>
donor molecule, donor type, donor heavy atom, donor atom, acceptor molecule, acceptor atom, score
      L1  H     9    28       P1  8028  1.00
      P1  H  7989  7998       L1     4  0.55

> <Gold.Chemscore.Hbond.Weighted>
-6.2797

> <Gold.Chemscore.Metal.Weighted>
-0.0000

> <Gold.Chemscore.Lipo.Weighted>
-12.6167

> <Gold.Chemscore.Internal_Hbond.Weighted>
0.0000

> <Gold.Chemscore.DEClash.Weighted>
0.2077

> <Gold.Chemscore.DEInternal.Weighted>
0.7042

> <Gold.Chemscore.Rot.Weighted>
4.0228

> <Gold.Chemscore.Internal.Correction.Weighted>
   9.000000E+99

> <Gold.Protein.RotatedTorsions>
[ 6907 6896 6895 6894 ] final  -12.11 input  -60.11 | X-H torsion
[ 7974 7965 7964 7962 ] final   63.38 input  175.53 | X-H torsion
[ 8008 7997 7996 7995 ] final  -76.91 input   59.86 | X-H torsion
[ 10167 10162 10161 10158 ] final   39.90 input  -65.29 | X-H torsion
[ 10718 10713 10712 10709 ] final  -62.19 input   66.30 | X-H torsion
[ 10763 10752 10751 10750 ] final -122.15 input  -60.55 | X-H torsion
[ 11005 11000 10999 10996 ] final  -48.63 input  -57.11 | X-H torsion

> <Gold.Protein.ActiveResidues>
 VAL166  LYS551  ARG553  GLY616  TRP617  ASP618  TYR619  PRO620  LYS621  CYS622 
 ASP623  PHE694  ASN695  SER759  ASP760  ASP761  ALA762  ILE779  LEU786  VAL792 
 PHE793  MET794  SER795  GLU796  ALA797  LYS798  CYS799  TRP800  GLU811  SER814 

> <Gold.Protein.RotatedAtoms>
  151.3756  135.0930  159.9479 H   0  0  0  0  0  0  0  0  0  0  0  0  # atno 6907 bound_to 6896
  152.5123  133.9122  159.7504 H   0  0  0  0  0  0  0  0  0  0  0  0  # atno 6908 bound_to 6896
  150.9545  133.6458  159.2795 H   0  0  0  0  0  0  0  0  0  0  0  0  # atno 6909 bound_to 6896
  145.8625  139.3324  143.0810 H   0  0  0  0  0  0  0  0  0  0  0  0  # atno 7974 bound_to 7965
  154.5548  140.0719  156.8725 H   0  0  0  0  0  0  0  0  0  0  0  0  # atno 8008 bound_to 7997
  155.2924  140.3379  155.4233 H   0  0  0  0  0  0  0  0  0  0  0  0  # atno 8009 bound_to 7997
  156.1992  140.1715  156.7920 H   0  0  0  0  0  0  0  0  0  0  0  0  # atno 8010 bound_to 7997
  140.3794  144.1999  150.6131 H   0  0  0  0  0  0  0  0  0  0  0  0  # atno 10167 bound_to 10162
  156.0872  130.4206  150.1100 H   0  0  0  0  0  0  0  0  0  0  0  0  # atno 10718 bound_to 10713
  154.8683  135.4143  154.2735 H   0  0  0  0  0  0  0  0  0  0  0  0  # atno 10763 bound_to 10752
  153.3641  135.7004  153.6695 H   0  0  0  0  0  0  0  0  0  0  0  0  # atno 10764 bound_to 10752
  153.5583  135.3615  155.2761 H   0  0  0  0  0  0  0  0  0  0  0  0  # atno 10765 bound_to 10752
  141.0712  133.6678  156.3468 H   0  0  0  0  0  0  0  0  0  0  0  0  # atno 11005 bound_to 11000
  145.9232  140.9101  143.0394 LP  0  0  0  0  0  0  0  0  0  0  0  0  # atno 17320 bound_to 7965
  144.6726  140.1317  143.7443 LP  0  0  0  0  0  0  0  0  0  0  0  0  # atno 17321 bound_to 7965
  140.4952  143.2335  151.8759 LP  0  0  0  0  0  0  0  0  0  0  0  0  # atno 17342 bound_to 10162
  139.4796  144.5121  151.8918 LP  0  0  0  0  0  0  0  0  0  0  0  0  # atno 17343 bound_to 10162
  156.9118  130.9654  151.3562 LP  0  0  0  0  0  0  0  0  0  0  0  0  # atno 17370 bound_to 10713
  157.6010  130.8512  149.8801 LP  0  0  0  0  0  0  0  0  0  0  0  0  # atno 17371 bound_to 10713
  140.5670  134.5878  157.5448 LP  0  0  0  0  0  0  0  0  0  0  0  0  # atno 17394 bound_to 11000
  139.9525  134.7592  156.0416 LP  0  0  0  0  0  0  0  0  0  0  0  0  # atno 17395 bound_to 11000

$$$$
