AV-unprocessed.smi:2030|AV-procd|sdf|8227|dock4
  -GOLD-   2272010493D 1   1.00000     0.00000
 Structure written by MMmdl.
 35 36  0  0  0  0  0  0  0  0  3 V2000
  153.3472  141.8443  161.8270 C   0  0  0  0  0  0  0  0  0  0  0  0
  152.6895  142.1476  160.5565 N   0  0  0  0  0  0  0  0  0  0  0  0
  152.7827  141.1290  159.6310 N   0  0  0  0  0  0  0  0  0  0  0  0
  152.0765  141.1094  158.5433 C   0  0  0  0  0  0  0  0  0  0  0  0
  152.2029  139.9558  157.6034 C   0  0  0  0  0  0  0  0  0  0  0  0
  153.2140  139.2595  157.7555 O   0  0  0  0  0  0  0  0  0  0  0  0
  151.2271  139.7671  156.6656 N   0  5  0  0  0  0  0  0  0  0  0  0
  150.8298  138.4740  156.1090 C   0  0  0  0  0  0  0  0  0  0  0  0
  150.6266  138.5995  154.5833 C   0  0  0  0  0  0  0  0  0  0  0  0
  149.3581  139.3404  154.1709 C   0  0  0  0  0  0  0  0  0  0  0  0
  149.1307  140.6899  154.5260 C   0  0  0  0  0  0  0  0  0  0  0  0
  147.9435  141.3254  154.1085 C   0  0  0  0  0  0  0  0  0  0  0  0
  147.0017  140.5993  153.3506 C   0  0  0  0  0  0  0  0  0  0  0  0
  147.2724  139.2538  153.0289 C   0  0  0  0  0  0  0  0  0  0  0  0
  148.4221  138.6805  153.4461 N   0  3  0  0  0  0  0  0  0  0  0  0
  151.0961  142.2298  158.2478 C   0  0  0  0  0  0  0  0  0  0  0  0
  151.5050  143.5515  158.9256 C   0  0  0  0  0  0  0  0  0  0  0  0
  152.0649  143.3323  160.3336 C   0  0  0  0  0  0  0  0  0  0  0  0
  151.9496  144.2225  161.1760 O   0  0  0  0  0  0  0  0  0  0  0  0
  153.3558  142.6787  162.5292 H   0  0  0  0  0  0  0  0  0  0  0  0
  154.3852  141.5575  161.6536 H   0  0  0  0  0  0  0  0  0  0  0  0
  152.8461  141.0077  162.3150 H   0  0  0  0  0  0  0  0  0  0  0  0
  151.5730  137.6984  156.2997 H   0  0  0  0  0  0  0  0  0  0  0  0
  149.9032  138.1167  156.5587 H   0  0  0  0  0  0  0  0  0  0  0  0
  151.4826  139.1189  154.1509 H   0  0  0  0  0  0  0  0  0  0  0  0
  150.6214  137.6077  154.1290 H   0  0  0  0  0  0  0  0  0  0  0  0
  149.8674  141.2346  155.0988 H   0  0  0  0  0  0  0  0  0  0  0  0
  147.7596  142.3583  154.3648 H   0  0  0  0  0  0  0  0  0  0  0  0
  146.0871  141.0684  153.0189 H   0  0  0  0  0  0  0  0  0  0  0  0
  146.6113  138.6241  152.4519 H   0  0  0  0  0  0  0  0  0  0  0  0
  151.0243  142.4084  157.1744 H   0  0  0  0  0  0  0  0  0  0  0  0
  150.1004  141.9330  158.5789 H   0  0  0  0  0  0  0  0  0  0  0  0
  152.2831  144.0388  158.3371 H   0  0  0  0  0  0  0  0  0  0  0  0
  150.6588  144.2385  158.9589 H   0  0  0  0  0  0  0  0  0  0  0  0
  148.6013  137.7080  153.1957 H   0  0  0  0  0  0  0  0  0  0  0  0
  1  2  1  0  0  0  0
  1 20  1  0  0  0  0
  1 21  1  0  0  0  0
  1 22  1  0  0  0  0
  2 18  1  0  0  0  0
  2  3  1  0  0  0  0
  3  4  2  0  0  0  0
  4  5  1  0  0  0  0
  4 16  1  0  0  0  0
  5  6  2  0  0  0  0
  5  7  1  0  0  0  0
  7  8  1  0  0  0  0
  8  9  1  0  0  0  0
  8 23  1  0  0  0  0
  8 24  1  0  0  0  0
  9 10  1  0  0  0  0
  9 25  1  0  0  0  0
  9 26  1  0  0  0  0
 10 15  1  0  0  0  0
 10 11  2  0  0  0  0
 11 12  1  0  0  0  0
 11 27  1  0  0  0  0
 12 13  2  0  0  0  0
 12 28  1  0  0  0  0
 13 14  1  0  0  0  0
 13 29  1  0  0  0  0
 14 15  2  0  0  0  0
 14 30  1  0  0  0  0
 15 35  1  0  0  0  0
 16 17  1  0  0  0  0
 16 31  1  0  0  0  0
 16 32  1  0  0  0  0
 17 18  1  0  0  0  0
 17 33  1  0  0  0  0
 17 34  1  0  0  0  0
 18 19  2  0  0  0  0
M  CHG  1   7  -1
M  CHG  1  15   1
M  END
> <s_m_source_file>
AV-unprocessed.smi

> <i_m_source_file_index>
2030

> <i_lp_mmshare_version>
43012

> <i_f3d_flags>
0

> <s_epik_input>
Tz1DMVtDSDJdW0NIMl1DKD1OTjFbQ0gzXSlDKD1PKVtOSF1bQ0gyXVtDSDJdYzJbY0hdW2NIXVtjSF1bY0hdbjI=

> <s_epik_cmdline>
J2VwaWtfcHl0aG9uJywgJy1waCcsICc3LjAnLCAnLXRuJywgJzgnLCAnLW1hJywgJzIwMCcsICctbWV0YWxfYmluZGluZycsICctaW1hZScsICc8aW5maWxlLm1hZT4nLCAnLW9tYWUnLCAnPG91dGZpbGUubWFlPic=

> <r_epik_Ionization_Penalty>
6.31213

> <r_epik_Ionization_Penalty_Charging>
6.31213

> <r_epik_Ionization_Penalty_Neutral>
3.33061e-09

> <r_epik_State_Penalty>
7.27833

> <r_epik_Charging_Adjusted_Penalty>
13.5905

> <i_epik_Tot_Q>
0

> <i_epik_Tot_abs_Q>
2

> <r_epik_Metal_State_Penalty>
3.36613

> <b_epik_Metal_Only>
1

> <s_epik_Chemistry_Notes>
This compound has an imine and may undergo hydrolysis.

> <s_lp_Force_Field>
OPLS_2005

> <r_lp_Energy>
24.6461

> <b_lp_Chiralities_Consistent>
1

> <s_lp_Variant>
AV-unprocessed.smi:2030-4

> <Gold.Version>
5.8.1

> <Gold.Id.Protein>
6NUR|6NUR_protein|mol2

> <Gold.PLP.Fitness>
49.2257

> <Gold.PLP.PLP>
-41.1190

> <Gold.PLP.part.hbond>
-3.0000

> <Gold.PLP.part.metal>
0.0000

> <Gold.PLP.part.buried>
-2.2961

> <Gold.PLP.part.nonpolar>
-35.8620

> <Gold.PLP.part.repulsive>
0.1871

> <Gold.PLP.ligand.clash>
0.0000

> <Gold.PLP.ligand.torsion>
0.4690

> <Gold.PLP.Chemscore.Hbond>
3.0000

> <Gold.PLP.Chemscore.CHOScore>
0.0000

> <Gold.PLP.Chemscore.Metal>
0.0000

> <Gold.Chemscore.Hbonds>
donor molecule, donor type, donor heavy atom, donor atom, acceptor molecule, acceptor atom, score
      L1  H    15    35       P1  7948  2.00
      P1  H  7997  8010       L1     6  1.00

> <Gold.PLP.Chemscore.Internal.Correction>
0.0447

> <Gold.Rescore>
     Score         DG    S(hbond)    S(metal)    S(lipo)     H(rot)  DE(clash)    DE(int)     intcor
     17.42     -17.90       1.97        0.00      82.44       1.49       0.15       0.33       ----

> <Gold.Chemscore.Fitness>
17.4206

> <Gold.Chemscore.DG>
-17.9009

> <Gold.Chemscore.ZeroCoef>
-5.4800

> <Gold.Chemscore.Hbond>
1.9694

> <Gold.Chemscore.Metal>
0.0000

> <Gold.Chemscore.Lipo>
82.4413

> <Gold.Chemscore.Internal_Hbond>
0.0000

> <Gold.Chemscore.DEClash>
0.1538

> <Gold.Chemscore.DEInternal>
0.3265

> <Gold.Chemscore.Rot>
1.4854

> <Gold.Chemscore.Internal.Correction>
   9.000000E+99

> <Gold.Chemscore.Hbonds>
donor molecule, donor type, donor heavy atom, donor atom, acceptor molecule, acceptor atom, score
      L1  H    15    35       P1  7948  0.92
      P1  H  7997  8010       L1     6  0.55

> <Gold.Chemscore.Hbond.Weighted>
-6.5779

> <Gold.Chemscore.Metal.Weighted>
-0.0000

> <Gold.Chemscore.Lipo.Weighted>
-9.6456

> <Gold.Chemscore.Internal_Hbond.Weighted>
0.0000

> <Gold.Chemscore.DEClash.Weighted>
0.1538

> <Gold.Chemscore.DEInternal.Weighted>
0.3265

> <Gold.Chemscore.Rot.Weighted>
3.8026

> <Gold.Chemscore.Internal.Correction.Weighted>
   9.000000E+99

> <Gold.Protein.RotatedTorsions>
[ 6907 6896 6895 6894 ] final  -13.02 input  -60.11 | X-H torsion
[ 7974 7965 7964 7962 ] final   19.60 input  175.53 | X-H torsion
[ 8008 7997 7996 7995 ] final   46.37 input   59.86 | X-H torsion
[ 10167 10162 10161 10158 ] final  144.14 input  -65.29 | X-H torsion
[ 10718 10713 10712 10709 ] final  159.53 input   66.30 | X-H torsion
[ 10763 10752 10751 10750 ] final   33.71 input  -60.55 | X-H torsion
[ 11005 11000 10999 10996 ] final  153.94 input  -57.11 | X-H torsion

> <Gold.Protein.ActiveResidues>
 VAL166  LYS551  ARG553  GLY616  TRP617  ASP618  TYR619  PRO620  LYS621  CYS622 
 ASP623  PHE694  ASN695  SER759  ASP760  ASP761  ALA762  ILE779  LEU786  VAL792 
 PHE793  MET794  SER795  GLU796  ALA797  LYS798  CYS799  TRP800  GLU811  SER814 

> <Gold.Protein.RotatedAtoms>
  151.3614  135.0904  159.9435 H   0  0  0  0  0  0  0  0  0  0  0  0  # atno 6907 bound_to 6896
  152.5161  133.9255  159.7565 H   0  0  0  0  0  0  0  0  0  0  0  0  # atno 6908 bound_to 6896
  150.9650  133.6350  159.2777 H   0  0  0  0  0  0  0  0  0  0  0  0  # atno 6909 bound_to 6896
  146.2143  139.8289  142.8664 H   0  0  0  0  0  0  0  0  0  0  0  0  # atno 7974 bound_to 7965
  155.3513  140.3413  155.4239 H   0  0  0  0  0  0  0  0  0  0  0  0  # atno 8008 bound_to 7997
  156.1762  140.1648  156.8393 H   0  0  0  0  0  0  0  0  0  0  0  0  # atno 8009 bound_to 7997
  154.5285  140.0750  156.8284 H   0  0  0  0  0  0  0  0  0  0  0  0  # atno 8010 bound_to 7997
  139.4953  144.5992  151.6516 H   0  0  0  0  0  0  0  0  0  0  0  0  # atno 10167 bound_to 10162
  157.1629  131.0591  151.2223 H   0  0  0  0  0  0  0  0  0  0  0  0  # atno 10718 bound_to 10713
  153.0199  135.6380  154.1553 H   0  0  0  0  0  0  0  0  0  0  0  0  # atno 10763 bound_to 10752
  154.1289  135.2842  155.3192 H   0  0  0  0  0  0  0  0  0  0  0  0  # atno 10764 bound_to 10752
  154.6209  135.5525  153.7636 H   0  0  0  0  0  0  0  0  0  0  0  0  # atno 10765 bound_to 10752
  140.1444  134.8717  157.2373 H   0  0  0  0  0  0  0  0  0  0  0  0  # atno 11005 bound_to 11000
  145.3018  141.0196  143.3604 LP  0  0  0  0  0  0  0  0  0  0  0  0  # atno 17320 bound_to 7965
  144.9001  139.4661  143.6637 LP  0  0  0  0  0  0  0  0  0  0  0  0  # atno 17321 bound_to 7965
  140.5638  144.0224  150.6182 LP  0  0  0  0  0  0  0  0  0  0  0  0  # atno 17342 bound_to 10162
  140.3319  143.3072  152.0678 LP  0  0  0  0  0  0  0  0  0  0  0  0  # atno 17343 bound_to 10162
  157.4116  130.7388  149.6843 LP  0  0  0  0  0  0  0  0  0  0  0  0  # atno 17370 bound_to 10713
  155.9751  130.4094  150.3876 LP  0  0  0  0  0  0  0  0  0  0  0  0  # atno 17371 bound_to 10713
  140.2682  134.3491  155.7382 LP  0  0  0  0  0  0  0  0  0  0  0  0  # atno 17394 bound_to 11000
  141.2190  133.7408  156.9183 LP  0  0  0  0  0  0  0  0  0  0  0  0  # atno 17395 bound_to 11000

$$$$
