AV-unprocessed.smi:1056|AV-procd|sdf|4643|dock3
  -GOLD-   22720 3143D 1   1.00000     0.00000
 Structure written by MMmdl.
 44 46  0  0  0  0  0  0  0  0  3 V2000
  151.4896  143.8843  159.2692 C   0  0  0  0  0  0  0  0  0  0  0  0
  151.4865  142.5823  158.4876 C   0  0  0  0  0  0  0  0  0  0  0  0
  150.6996  142.4853  157.3179 C   0  0  0  0  0  0  0  0  0  0  0  0
  150.6689  141.2929  156.5625 C   0  0  0  0  0  0  0  0  0  0  0  0
  149.9793  140.9791  155.4039 N   0  0  0  0  0  0  0  0  0  0  0  0
  150.3633  139.7236  155.1938 C   0  0  0  0  0  0  0  0  0  0  0  0
  151.2166  139.1834  156.0851 N   0  0  0  0  0  0  0  0  0  0  0  0
  151.7690  137.8409  156.0706 C   0  0  0  0  0  0  0  0  0  0  0  0
  151.1885  136.9816  154.9319 C   0  0  1  0  0  0  0  0  0  0  0  0
  152.1716  136.8094  153.9295 O   0  0  0  0  0  0  0  0  0  0  0  0
  150.7430  135.5937  155.4314 C   0  0  0  0  0  0  0  0  0  0  0  0
  149.4631  135.1599  154.8182 N   0  3  2  0  0  0  0  0  0  0  0  0
  148.2623  135.7544  155.4618 C   0  0  0  0  0  0  0  0  0  0  0  0
  147.0175  135.5156  154.5867 C   0  0  0  0  0  0  0  0  0  0  0  0
  146.9522  134.1098  154.1691 N   0  5  0  0  0  0  0  0  0  0  0  0
  148.0029  133.2339  154.0939 C   0  0  0  0  0  0  0  0  0  0  0  0
  147.9554  132.1036  153.6141 O   0  0  0  0  0  0  0  0  0  0  0  0
  149.3566  133.6784  154.7115 C   0  0  0  0  0  0  0  0  0  0  0  0
  151.4532  140.1912  157.0133 C   0  0  0  0  0  0  0  0  0  0  0  0
  152.2409  140.2753  158.1749 C   0  0  0  0  0  0  0  0  0  0  0  0
  152.2595  141.4742  158.9181 C   0  0  0  0  0  0  0  0  0  0  0  0
  153.1115  141.5554  160.1723 C   0  0  0  0  0  0  0  0  0  0  0  0
  150.8520  144.6332  158.7985 H   0  0  0  0  0  0  0  0  0  0  0  0
  152.4985  144.2934  159.3270 H   0  0  0  0  0  0  0  0  0  0  0  0
  151.1223  143.7221  160.2828 H   0  0  0  0  0  0  0  0  0  0  0  0
  150.1109  143.3294  156.9897 H   0  0  0  0  0  0  0  0  0  0  0  0
  149.9989  139.1620  154.3459 H   0  0  0  0  0  0  0  0  0  0  0  0
  152.8549  137.9078  155.9855 H   0  0  0  0  0  0  0  0  0  0  0  0
  151.5588  137.3791  157.0360 H   0  0  0  0  0  0  0  0  0  0  0  0
  150.3469  137.5136  154.4898 H   0  0  0  0  0  0  0  0  0  0  0  0
  151.7486  136.4958  153.1443 H   0  0  0  0  0  0  0  0  0  0  0  0
  151.5289  134.8722  155.2015 H   0  0  0  0  0  0  0  0  0  0  0  0
  150.6360  135.5897  156.5173 H   0  0  0  0  0  0  0  0  0  0  0  0
  148.1238  135.3121  156.4498 H   0  0  0  0  0  0  0  0  0  0  0  0
  148.3866  136.8255  155.6152 H   0  0  0  0  0  0  0  0  0  0  0  0
  146.1271  135.8200  155.1360 H   0  0  0  0  0  0  0  0  0  0  0  0
  147.0713  136.1737  153.7191 H   0  0  0  0  0  0  0  0  0  0  0  0
  150.1715  133.2978  154.0940 H   0  0  0  0  0  0  0  0  0  0  0  0
  149.4566  133.2260  155.6993 H   0  0  0  0  0  0  0  0  0  0  0  0
  152.8251  139.4240  158.4914 H   0  0  0  0  0  0  0  0  0  0  0  0
  153.6340  140.6171  160.3601 H   0  0  0  0  0  0  0  0  0  0  0  0
  152.4912  141.7729  161.0420 H   0  0  0  0  0  0  0  0  0  0  0  0
  153.8601  142.3419  160.0751 H   0  0  0  0  0  0  0  0  0  0  0  0
  149.4714  135.5001  153.8671 H   0  0  0  0  0  0  0  0  0  0  0  0
  1  2  1  0  0  0  0
  1 23  1  0  0  0  0
  1 24  1  0  0  0  0
  1 25  1  0  0  0  0
  2 21  1  0  0  0  0
  2  3  2  0  0  0  0
  3  4  1  0  0  0  0
  3 26  1  0  0  0  0
  4 19  2  0  0  0  0
  4  5  1  0  0  0  0
  5  6  2  0  0  0  0
  6  7  1  0  0  0  0
  6 27  1  0  0  0  0
  7  8  1  0  0  0  0
  7 19  1  0  0  0  0
  8  9  1  0  0  0  0
  8 28  1  0  0  0  0
  8 29  1  0  0  0  0
  9 10  1  0  0  0  0
  9 11  1  0  0  0  0
  9 30  1  0  0  0  0
 10 31  1  0  0  0  0
 11 12  1  0  0  0  0
 11 32  1  0  0  0  0
 11 33  1  0  0  0  0
 12 18  1  0  0  0  0
 12 13  1  0  0  0  0
 12 44  1  0  0  0  0
 13 14  1  0  0  0  0
 13 34  1  0  0  0  0
 13 35  1  0  0  0  0
 14 15  1  0  0  0  0
 14 36  1  0  0  0  0
 14 37  1  0  0  0  0
 15 16  1  0  0  0  0
 16 17  2  0  0  0  0
 16 18  1  0  0  0  0
 18 38  1  0  0  0  0
 18 39  1  0  0  0  0
 19 20  1  0  0  0  0
 20 21  2  0  0  0  0
 20 40  1  0  0  0  0
 21 22  1  0  0  0  0
 22 41  1  0  0  0  0
 22 42  1  0  0  0  0
 22 43  1  0  0  0  0
M  CHG  1  12   1
M  CHG  1  15  -1
M  END
> <s_m_source_file>
AV-unprocessed.smi

> <i_m_source_file_index>
1056

> <i_lp_mmshare_version>
43012

> <i_f3d_flags>
0

> <s_epik_input>
W0NIM11jKFtjSF0xKWMoW0NIM10pW2NIXWMoYzEyKW4oW2NIXW4yKVtDSDJdW0NASF0oW09IXSlbQ0gyXU4zW0NIMl1bQ0gyXVtOSF1DKD1PKVtDSDJdMw==

> <s_epik_cmdline>
J2VwaWtfcHl0aG9uJywgJy1waCcsICc3LjAnLCAnLXRuJywgJzgnLCAnLW1hJywgJzIwMCcsICctbWV0YWxfYmluZGluZycsICctaW1hZScsICc8aW5maWxlLm1hZT4nLCAnLW9tYWUnLCAnPG91dGZpbGUubWFlPic=

> <r_epik_Ionization_Penalty>
5.13411

> <r_epik_Ionization_Penalty_Charging>
5.04792

> <r_epik_Ionization_Penalty_Neutral>
0.0861879

> <r_epik_State_Penalty>
5.18224

> <r_epik_Charging_Adjusted_Penalty>
10.2302

> <i_epik_Tot_Q>
0

> <i_epik_Tot_abs_Q>
2

> <r_epik_Metal_State_Penalty>
1.33873

> <b_epik_Metal_Only>
1

> <s_lp_Force_Field>
OPLS_2005

> <r_lp_Energy>
15.7703

> <b_lp_Chiralities_Consistent>
1

> <s_lp_Variant>
AV-unprocessed.smi:1056-14

> <Gold.Version>
5.8.1

> <Gold.Id.Protein>
6NUR|6NUR_protein|mol2

> <Gold.PLP.Fitness>
49.0804

> <Gold.PLP.PLP>
-40.1040

> <Gold.PLP.part.hbond>
-3.8885

> <Gold.PLP.part.metal>
0.0000

> <Gold.PLP.part.buried>
-1.0791

> <Gold.PLP.part.nonpolar>
-34.3050

> <Gold.PLP.part.repulsive>
0.3426

> <Gold.PLP.ligand.clash>
0.0000

> <Gold.PLP.ligand.torsion>
1.5334

> <Gold.PLP.Chemscore.Hbond>
3.9920

> <Gold.PLP.Chemscore.CHOScore>
0.0000

> <Gold.PLP.Chemscore.Metal>
0.0000

> <Gold.Chemscore.Hbonds>
donor molecule, donor type, donor heavy atom, donor atom, acceptor molecule, acceptor atom, score
      L1  H    10    31       P1  7949  1.00
      L1  H    12    44       P1  7948  1.33
      P1  H 10752 10765       L1    10  0.55

> <Gold.PLP.Chemscore.Internal.Correction>
0.0672

> <Gold.Rescore>
     Score         DG    S(hbond)    S(metal)    S(lipo)     H(rot)  DE(clash)    DE(int)     intcor
     17.07     -18.57       2.46        0.00      92.35       2.31       0.06       1.44       ----

> <Gold.Chemscore.Fitness>
17.0685

> <Gold.Chemscore.DG>
-18.5747

> <Gold.Chemscore.ZeroCoef>
-5.4800

> <Gold.Chemscore.Hbond>
2.4597

> <Gold.Chemscore.Metal>
0.0000

> <Gold.Chemscore.Lipo>
92.3494

> <Gold.Chemscore.Internal_Hbond>
0.0000

> <Gold.Chemscore.DEClash>
0.0650

> <Gold.Chemscore.DEInternal>
1.4412

> <Gold.Chemscore.Rot>
2.3147

> <Gold.Chemscore.Internal.Correction>
   9.000000E+99

> <Gold.Chemscore.Hbonds>
donor molecule, donor type, donor heavy atom, donor atom, acceptor molecule, acceptor atom, score
      L1  H    10    31       P1  7949  0.99
      L1  H    12    44       P1  7948  0.20
      P1  H 10752 10765       L1    10  0.08

> <Gold.Chemscore.Hbond.Weighted>
-8.2153

> <Gold.Chemscore.Metal.Weighted>
-0.0000

> <Gold.Chemscore.Lipo.Weighted>
-10.8049

> <Gold.Chemscore.Internal_Hbond.Weighted>
0.0000

> <Gold.Chemscore.DEClash.Weighted>
0.0650

> <Gold.Chemscore.DEInternal.Weighted>
1.4412

> <Gold.Chemscore.Rot.Weighted>
5.9256

> <Gold.Chemscore.Internal.Correction.Weighted>
   9.000000E+99

> <Gold.Protein.RotatedTorsions>
[ 6907 6896 6895 6894 ] final -171.52 input  -60.11 | X-H torsion
[ 7974 7965 7964 7962 ] final -157.90 input  175.53 | X-H torsion
[ 8008 7997 7996 7995 ] final  108.92 input   59.86 | X-H torsion
[ 10167 10162 10161 10158 ] final   38.25 input  -65.29 | X-H torsion
[ 10718 10713 10712 10709 ] final  160.03 input   66.30 | X-H torsion
[ 10763 10752 10751 10750 ] final  151.96 input  -60.55 | X-H torsion
[ 11005 11000 10999 10996 ] final  -82.22 input  -57.11 | X-H torsion

> <Gold.Protein.ActiveResidues>
 VAL166  LYS551  ARG553  GLY616  TRP617  ASP618  TYR619  PRO620  LYS621  CYS622 
 ASP623  PHE694  ASN695  SER759  ASP760  ASP761  ALA762  ILE779  LEU786  VAL792 
 PHE793  MET794  SER795  GLU796  ALA797  LYS798  CYS799  TRP800  GLU811  SER814 

> <Gold.Protein.RotatedAtoms>
  151.5252  133.3459  159.2908 H   0  0  0  0  0  0  0  0  0  0  0  0  # atno 6907 bound_to 6896
  150.8628  134.7986  159.7106 H   0  0  0  0  0  0  0  0  0  0  0  0  # atno 6908 bound_to 6896
  152.4642  134.5123  159.9809 H   0  0  0  0  0  0  0  0  0  0  0  0  # atno 6909 bound_to 6896
  144.7528  140.3904  143.6035 H   0  0  0  0  0  0  0  0  0  0  0  0  # atno 7974 bound_to 7965
  156.1940  140.3067  155.9389 H   0  0  0  0  0  0  0  0  0  0  0  0  # atno 8008 bound_to 7997
  155.3109  140.0451  157.3052 H   0  0  0  0  0  0  0  0  0  0  0  0  # atno 8009 bound_to 7997
  154.5487  140.2284  155.8530 H   0  0  0  0  0  0  0  0  0  0  0  0  # atno 8010 bound_to 7997
  140.3954  144.1795  150.6132 H   0  0  0  0  0  0  0  0  0  0  0  0  # atno 10167 bound_to 10162
  157.1561  131.0576  151.2256 H   0  0  0  0  0  0  0  0  0  0  0  0  # atno 10718 bound_to 10713
  154.1123  135.2838  155.3228 H   0  0  0  0  0  0  0  0  0  0  0  0  # atno 10763 bound_to 10752
  154.6481  135.5378  153.7872 H   0  0  0  0  0  0  0  0  0  0  0  0  # atno 10764 bound_to 10752
  153.0341  135.6503  154.1281 H   0  0  0  0  0  0  0  0  0  0  0  0  # atno 10765 bound_to 10752
  141.1664  133.7234  156.8539 H   0  0  0  0  0  0  0  0  0  0  0  0  # atno 11005 bound_to 11000
  145.6883  139.1633  143.2661 LP  0  0  0  0  0  0  0  0  0  0  0  0  # atno 17320 bound_to 7965
  146.1501  140.6937  142.9326 LP  0  0  0  0  0  0  0  0  0  0  0  0  # atno 17321 bound_to 7965
  140.4795  143.2384  151.8975 LP  0  0  0  0  0  0  0  0  0  0  0  0  # atno 17342 bound_to 10162
  139.4787  144.5284  151.8702 LP  0  0  0  0  0  0  0  0  0  0  0  0  # atno 17343 bound_to 10162
  157.4176  130.7419  149.6888 LP  0  0  0  0  0  0  0  0  0  0  0  0  # atno 17370 bound_to 10713
  155.9762  130.4079  150.3796 LP  0  0  0  0  0  0  0  0  0  0  0  0  # atno 17371 bound_to 10713
  140.1896  134.8975  157.3045 LP  0  0  0  0  0  0  0  0  0  0  0  0  # atno 17394 bound_to 11000
  140.2304  134.3915  155.7524 LP  0  0  0  0  0  0  0  0  0  0  0  0  # atno 17395 bound_to 11000

$$$$
