AV-unprocessed.smi:2454|AV-procd|sdf|9696|dock3
  -GOLD-   2272013333D 1   1.00000     0.00000
 Structure written by MMmdl.
 42 43  0  0  0  0  0  0  0  0  1 V2000
  152.2139  138.1136  155.2465 C   0  0  0  0  0  0  0  0  0  0  0  0
  152.8073  137.0141  155.9144 O   0  0  0  0  0  0  0  0  0  0  0  0
  152.2393  136.7836  157.1927 C   0  0  0  0  0  0  0  0  0  0  0  0
  150.8323  136.2344  157.0796 C   0  0  0  0  0  0  0  0  0  0  0  0
  150.2835  135.8789  155.8294 C   0  0  0  0  0  0  0  0  0  0  0  0
  148.9599  135.3838  155.8175 C   0  0  0  0  0  0  0  0  0  0  0  0
  148.4552  135.0365  154.5298 N   0  0  0  0  0  0  0  0  0  0  0  0
  147.5786  134.0868  154.1384 C   0  0  0  0  0  0  0  0  0  0  0  0
  147.0631  133.3280  154.9577 O   0  0  0  0  0  0  0  0  0  0  0  0
  147.3167  134.0283  152.8222 N   0  0  0  0  0  0  0  0  0  0  0  0
  146.4155  133.0914  152.1583 C   0  0  1  0  0  0  0  0  0  0  0  0
  146.5030  133.2819  150.6337 C   0  0  0  0  0  0  0  0  0  0  0  0
  145.6376  132.2516  149.8934 C   0  0  0  0  0  0  0  0  0  0  0  0
  146.0135  130.8164  150.2941 C   0  0  0  0  0  0  0  0  0  0  0  0
  145.9164  130.6072  151.8204 C   0  0  1  0  0  0  0  0  0  0  0  0
  146.2758  129.1642  152.2309 C   0  0  0  0  0  0  0  0  0  0  0  0
  145.3035  128.3176  151.8908 F   0  0  0  0  0  0  0  0  0  0  0  0
  147.4054  128.7865  151.6322 F   0  0  0  0  0  0  0  0  0  0  0  0
  146.4627  129.0977  153.5491 F   0  0  0  0  0  0  0  0  0  0  0  0
  146.7860  131.6500  152.5552 C   0  0  0  0  0  0  0  0  0  0  0  0
  148.2758  135.2694  156.9848 N   0  0  0  0  0  0  0  0  0  0  0  0
  148.8888  135.6361  158.1127 C   0  0  0  0  0  0  0  0  0  0  0  0
  150.1290  136.1122  158.2252 N   0  0  0  0  0  0  0  0  0  0  0  0
  152.6787  138.2432  154.2692 H   0  0  0  0  0  0  0  0  0  0  0  0
  152.3512  139.0377  155.8092 H   0  0  0  0  0  0  0  0  0  0  0  0
  151.1461  137.9524  155.0923 H   0  0  0  0  0  0  0  0  0  0  0  0
  152.8535  136.0750  157.7508 H   0  0  0  0  0  0  0  0  0  0  0  0
  152.2204  137.7118  157.7671 H   0  0  0  0  0  0  0  0  0  0  0  0
  150.8562  135.9862  154.9194 H   0  0  0  0  0  0  0  0  0  0  0  0
  148.8211  135.5992  153.7757 H   0  0  0  0  0  0  0  0  0  0  0  0
  147.7887  134.6956  152.2281 H   0  0  0  0  0  0  0  0  0  0  0  0
  145.3839  133.2730  152.4653 H   0  0  0  0  0  0  0  0  0  0  0  0
  146.1872  134.2904  150.3632 H   0  0  0  0  0  0  0  0  0  0  0  0
  147.5394  133.1844  150.3067 H   0  0  0  0  0  0  0  0  0  0  0  0
  144.5850  132.4301  150.1170 H   0  0  0  0  0  0  0  0  0  0  0  0
  145.7505  132.3784  148.8163 H   0  0  0  0  0  0  0  0  0  0  0  0
  145.3593  130.1145  149.7763 H   0  0  0  0  0  0  0  0  0  0  0  0
  147.0271  130.5995  149.9549 H   0  0  0  0  0  0  0  0  0  0  0  0
  144.8791  130.7786  152.1122 H   0  0  0  0  0  0  0  0  0  0  0  0
  147.8389  131.4680  152.3342 H   0  0  0  0  0  0  0  0  0  0  0  0
  146.6742  131.5315  153.6337 H   0  0  0  0  0  0  0  0  0  0  0  0
  148.3224  135.5359  159.0267 H   0  0  0  0  0  0  0  0  0  0  0  0
  1  2  1  0  0  0  0
  1 24  1  0  0  0  0
  1 25  1  0  0  0  0
  1 26  1  0  0  0  0
  2  3  1  0  0  0  0
  3  4  1  0  0  0  0
  3 27  1  0  0  0  0
  3 28  1  0  0  0  0
  4 23  1  0  0  0  0
  4  5  2  0  0  0  0
  5  6  1  0  0  0  0
  5 29  1  0  0  0  0
  6  7  1  0  0  0  0
  6 21  2  0  0  0  0
  7  8  1  0  0  0  0
  7 30  1  0  0  0  0
  8  9  2  0  0  0  0
  8 10  1  0  0  0  0
 10 11  1  0  0  0  0
 10 31  1  0  0  0  0
 11 20  1  0  0  0  0
 11 12  1  0  0  0  0
 11 32  1  0  0  0  0
 12 13  1  0  0  0  0
 12 33  1  0  0  0  0
 12 34  1  0  0  0  0
 13 14  1  0  0  0  0
 13 35  1  0  0  0  0
 13 36  1  0  0  0  0
 14 15  1  0  0  0  0
 14 37  1  0  0  0  0
 14 38  1  0  0  0  0
 15 16  1  0  0  0  0
 15 20  1  0  0  0  0
 15 39  1  0  0  0  0
 16 17  1  0  0  0  0
 16 18  1  0  0  0  0
 16 19  1  0  0  0  0
 20 40  1  0  0  0  0
 20 41  1  0  0  0  0
 21 22  1  0  0  0  0
 22 23  2  0  0  0  0
 22 42  1  0  0  0  0
M  END
> <s_m_source_file>
AV-unprocessed.smi

> <i_m_source_file_index>
2454

> <i_lp_mmshare_version>
43012

> <i_f3d_flags>
0

> <s_epik_input>
W0NIM11PW0NIMl1jMVtjSF1jKG5bY0hdbjEpW05IXUMoPU8pW05IXVtDQEBIXTJbQ0gyXVtDSDJdW0NIMl1bQ0BASF0oQyhGKShGKUYpW0NIMl0y

> <s_epik_cmdline>
J2VwaWtfcHl0aG9uJywgJy1waCcsICc3LjAnLCAnLXRuJywgJzgnLCAnLW1hJywgJzIwMCcsICctbWV0YWxfYmluZGluZycsICctaW1hZScsICc8aW5maWxlLm1hZT4nLCAnLW9tYWUnLCAnPG91dGZpbGUubWFlPic=

> <r_lp_tautomer_probability>
1

> <r_epik_Ionization_Penalty>
3.01554e-05

> <r_epik_Ionization_Penalty_Charging>
0

> <r_epik_Ionization_Penalty_Neutral>
3.01554e-05

> <r_epik_State_Penalty>
-0

> <r_epik_Charging_Adjusted_Penalty>
0

> <i_epik_Tot_Q>
0

> <i_epik_Tot_abs_Q>
0

> <r_epik_Metal_State_Penalty>
-0

> <b_epik_Metal_Only>
0

> <s_lp_Force_Field>
OPLS_2005

> <r_lp_Energy>
13.6068

> <b_lp_Chiralities_Consistent>
1

> <s_lp_Variant>
AV-unprocessed.smi:2454-2

> <Gold.Version>
5.8.1

> <Gold.Id.Protein>
6NUR|6NUR_protein|mol2

> <Gold.PLP.Fitness>
40.6015

> <Gold.PLP.PLP>
-31.1298

> <Gold.PLP.part.hbond>
-4.0000

> <Gold.PLP.part.metal>
0.0000

> <Gold.PLP.part.buried>
-1.4678

> <Gold.PLP.part.nonpolar>
-26.4277

> <Gold.PLP.part.repulsive>
0.0389

> <Gold.PLP.ligand.clash>
0.0000

> <Gold.PLP.ligand.torsion>
0.6608

> <Gold.PLP.Chemscore.Hbond>
3.5840

> <Gold.PLP.Chemscore.CHOScore>
0.0000

> <Gold.PLP.Chemscore.Metal>
0.0000

> <Gold.Chemscore.Hbonds>
donor molecule, donor type, donor heavy atom, donor atom, acceptor molecule, acceptor atom, score
      L1  H     7    30       P1  7948  1.00
      L1  H    10    31       P1  7948  1.00
      P1  H  6896  6908       L1    23  0.91
      P1  H 10752 10763       L1     2  0.66

> <Gold.PLP.Chemscore.Internal.Correction>
0.0413

> <Gold.Rescore>
     Score         DG    S(hbond)    S(metal)    S(lipo)     H(rot)  DE(clash)    DE(int)     intcor
     16.73     -21.26       3.17        0.00      79.44       1.60       1.94       2.59       ----

> <Gold.Chemscore.Fitness>
16.7309

> <Gold.Chemscore.DG>
-21.2578

> <Gold.Chemscore.ZeroCoef>
-5.4800

> <Gold.Chemscore.Hbond>
3.1703

> <Gold.Chemscore.Metal>
0.0000

> <Gold.Chemscore.Lipo>
79.4357

> <Gold.Chemscore.Internal_Hbond>
0.0000

> <Gold.Chemscore.DEClash>
1.9417

> <Gold.Chemscore.DEInternal>
2.5851

> <Gold.Chemscore.Rot>
1.6035

> <Gold.Chemscore.Internal.Correction>
   9.000000E+99

> <Gold.Chemscore.Hbonds>
donor molecule, donor type, donor heavy atom, donor atom, acceptor molecule, acceptor atom, score
      L1  H     7    30       P1  7948  0.89
      L1  H    10    31       P1  7948  0.64
      P1  H  6896  6908       L1    23  0.20
      P1  H 10752 10763       L1     2  0.56

> <Gold.Chemscore.Hbond.Weighted>
-10.5889

> <Gold.Chemscore.Metal.Weighted>
-0.0000

> <Gold.Chemscore.Lipo.Weighted>
-9.2940

> <Gold.Chemscore.Internal_Hbond.Weighted>
0.0000

> <Gold.Chemscore.DEClash.Weighted>
1.9417

> <Gold.Chemscore.DEInternal.Weighted>
2.5851

> <Gold.Chemscore.Rot.Weighted>
4.1050

> <Gold.Chemscore.Internal.Correction.Weighted>
   9.000000E+99

> <Gold.Protein.RotatedTorsions>
[ 6907 6896 6895 6894 ] final -168.80 input  -60.11 | X-H torsion
[ 7974 7965 7964 7962 ] final -132.66 input  175.53 | X-H torsion
[ 8008 7997 7996 7995 ] final   76.84 input   59.86 | X-H torsion
[ 10167 10162 10161 10158 ] final -132.54 input  -65.29 | X-H torsion
[ 10718 10713 10712 10709 ] final -123.38 input   66.30 | X-H torsion
[ 10763 10752 10751 10750 ] final   81.50 input  -60.55 | X-H torsion
[ 11005 11000 10999 10996 ] final -162.37 input  -57.11 | X-H torsion

> <Gold.Protein.ActiveResidues>
 VAL166  LYS551  ARG553  GLY616  TRP617  ASP618  TYR619  PRO620  LYS621  CYS622 
 ASP623  PHE694  ASN695  SER759  ASP760  ASP761  ALA762  ILE779  LEU786  VAL792 
 PHE793  MET794  SER795  GLU796  ALA797  LYS798  CYS799  TRP800  GLU811  SER814 

> <Gold.Protein.RotatedAtoms>
  151.4814  133.3545  159.2838 H   0  0  0  0  0  0  0  0  0  0  0  0  # atno 6907 bound_to 6896
  150.8895  134.8299  159.7294 H   0  0  0  0  0  0  0  0  0  0  0  0  # atno 6908 bound_to 6896
  152.4814  134.4722  159.9691 H   0  0  0  0  0  0  0  0  0  0  0  0  # atno 6909 bound_to 6896
  144.9265  140.7077  143.4933 H   0  0  0  0  0  0  0  0  0  0  0  0  # atno 7974 bound_to 7965
  155.8330  140.3465  155.5584 H   0  0  0  0  0  0  0  0  0  0  0  0  # atno 8008 bound_to 7997
  155.8222  140.0914  157.1862 H   0  0  0  0  0  0  0  0  0  0  0  0  # atno 8009 bound_to 7997
  154.4004  140.1428  156.3500 H   0  0  0  0  0  0  0  0  0  0  0  0  # atno 8010 bound_to 7997
  139.9075  143.6534  152.2582 H   0  0  0  0  0  0  0  0  0  0  0  0  # atno 10167 bound_to 10162
  156.1497  130.6525  150.9895 H   0  0  0  0  0  0  0  0  0  0  0  0  # atno 10718 bound_to 10713
  153.1122  135.4763  154.9054 H   0  0  0  0  0  0  0  0  0  0  0  0  # atno 10763 bound_to 10752
  154.7492  135.3101  154.8591 H   0  0  0  0  0  0  0  0  0  0  0  0  # atno 10764 bound_to 10752
  153.9177  135.6858  153.4802 H   0  0  0  0  0  0  0  0  0  0  0  0  # atno 10765 bound_to 10752
  140.6100  134.4859  157.5214 H   0  0  0  0  0  0  0  0  0  0  0  0  # atno 11005 bound_to 11000
  145.3211  139.1788  143.4587 LP  0  0  0  0  0  0  0  0  0  0  0  0  # atno 17320 bound_to 7965
  146.3228  140.3229  142.8634 LP  0  0  0  0  0  0  0  0  0  0  0  0  # atno 17321 bound_to 7965
  139.6972  144.7640  151.1336 LP  0  0  0  0  0  0  0  0  0  0  0  0  # atno 17342 bound_to 10162
  140.7693  143.5508  150.9207 LP  0  0  0  0  0  0  0  0  0  0  0  0  # atno 17343 bound_to 10162
  157.6646  131.0874  150.7758 LP  0  0  0  0  0  0  0  0  0  0  0  0  # atno 17370 bound_to 10713
  156.7827  130.4864  149.5398 LP  0  0  0  0  0  0  0  0  0  0  0  0  # atno 17371 bound_to 10713
  139.9196  134.8175  156.1253 LP  0  0  0  0  0  0  0  0  0  0  0  0  # atno 17394 bound_to 11000
  141.0815  133.6752  156.2345 LP  0  0  0  0  0  0  0  0  0  0  0  0  # atno 17395 bound_to 11000

$$$$
