#       Name:                AV-unprocessed.smi:3003
#       Creating user name   scv26
#       Creation time:       Fri Mar 27 16:36:48 2020


#       File generated by GOLD software.
#

@<TRIPOS>MOLECULE
AV-unprocessed.smi:3003
    47    48     1
SMALL
NO_CHARGES


@<TRIPOS>ATOM
      1 ****        -2.5009  -3.0703  -5.1728 C.3            1 S1                 0.0000
      2 ****        -3.3242  -3.4936  -3.6133 S.3            1 S1                 0.0000
      3 ****        -2.9655  -2.0121  -2.6230 C.3            1 S1                 0.0000
      4 ****        -3.8915  -1.9538  -1.3979 C.3            1 S1                 0.0000
      5 ****        -1.4938  -1.9491  -2.1977 C.2            1 S1                 0.0000
      6 ****        -1.0557  -2.7353  -1.3571 O.2            1 S1                 0.0000
      7 ****        -0.7390  -1.0077  -2.7858 N.am           1 S1                 0.0000
      8 ****         0.6704  -0.7675  -2.4935 C.3            1 S1                 0.0000
      9 ****         0.9141  -0.0567  -1.1701 C.ar           1 S1                 0.0000
     10 ****         0.0563   0.9612  -0.7040 C.ar           1 S1                 0.0000
     11 ****         0.3334   1.5762   0.5316 C.ar           1 S1                 0.0000
     12 ****         1.4652   1.1599   1.2725 C.ar           1 S1                 0.0000
     13 ****         1.7560   1.7557   2.5192 N.3            1 S1                 0.0000
     14 ****         0.6587   1.7679   3.4839 C.3            1 S1                 0.0000
     15 ****         0.9930   2.6944   4.6658 C.3            1 S1                 0.0000
     16 ****         2.2345   2.3086   5.2461 O.3            1 S1                 0.0000
     17 ****         3.3074   2.4145   4.3166 C.3            1 S1                 0.0000
     18 ****         3.0559   1.4743   3.1259 C.3            1 S1                 0.0000
     19 ****         2.2971   0.1931   0.8114 N.ar           1 S1                 0.0000
     20 ****         2.0259  -0.3947  -0.3729 C.ar           1 S1                 0.0000
     21 ****        -2.6567  -3.8636  -5.9038 H              1 S1                 0.0000
     22 ****        -1.4283  -2.9486  -5.0233 H              1 S1                 0.0000
     23 ****        -2.9057  -2.1431  -5.5785 H              1 S1                 0.0000
     24 ****        -3.1892  -1.1450  -3.2468 H              1 S1                 0.0000
     25 ****        -3.6836  -1.0760  -0.7848 H              1 S1                 0.0000
     26 ****        -3.7795  -2.8362  -0.7665 H              1 S1                 0.0000
     27 ****        -4.9365  -1.8980  -1.7037 H              1 S1                 0.0000
     28 ****        -1.1740  -0.4072  -3.4713 H              1 S1                 0.0000
     29 ****         1.2159  -1.7126  -2.5163 H              1 S1                 0.0000
     30 ****         1.0844  -0.1529  -3.2930 H              1 S1                 0.0000
     31 ****        -0.8026   1.2714  -1.2805 H              1 S1                 0.0000
     32 ****        -0.3141   2.3636   0.8875 H              1 S1                 0.0000
     33 ****        -0.2750   2.0971   3.0305 H              1 S1                 0.0000
     34 ****         0.4954   0.7508   3.8429 H              1 S1                 0.0000
     35 ****         1.0384   3.7355   4.3420 H              1 S1                 0.0000
     36 ****         0.2123   2.6312   5.4239 H              1 S1                 0.0000
     37 ****         3.4123   3.4476   3.9814 H              1 S1                 0.0000
     38 ****         4.2382   2.1460   4.8163 H              1 S1                 0.0000
     39 ****         3.0828   0.4359   3.4588 H              1 S1                 0.0000
     40 ****         3.8512   1.6030   2.3909 H              1 S1                 0.0000
     41 ****         2.7166  -1.1624  -0.6891 H              1 S1                 0.0000
     42 ****        -1.6606  -3.4189  -0.9486 LP             1 S1                 0.0000
     43 ****        -0.0950  -2.6902  -1.0831 LP             1 S1                 0.0000
     44 ****         1.8619   2.7035   2.2184 LP             1 S1                 0.0000
     45 ****         2.1665   1.3600   5.5554 LP             1 S1                 0.0000
     46 ****         2.4243   2.9015   6.0286 LP             1 S1                 0.0000
     47 ****         3.0999  -0.0804   1.3412 LP             1 S1                 0.0000
@<TRIPOS>BOND
    1    1    2 1     
    2    1   21 1     
    3    1   22 1     
    4    1   23 1     
    5    2    3 1     
    6    3    4 1     
    7    3    5 1     
    8    3   24 1     
    9    4   25 1     
   10    4   26 1     
   11    4   27 1     
   12    5    6 2     
   13    5    7 am    
   14    7    8 1     
   15    7   28 1     
   16    8    9 1     
   17    8   29 1     
   18    8   30 1     
   19    9   20 ar    
   20    9   10 ar    
   21   10   11 ar    
   22   10   31 1     
   23   11   12 ar    
   24   11   32 1     
   25   12   13 1     
   26   12   19 ar    
   27   13   18 1     
   28   13   14 1     
   29   14   15 1     
   30   14   33 1     
   31   14   34 1     
   32   15   16 1     
   33   15   35 1     
   34   15   36 1     
   35   16   17 1     
   36   17   18 1     
   37   17   37 1     
   38   17   38 1     
   39   18   39 1     
   40   18   40 1     
   41   19   20 ar    
   42   20   41 1     
   43    6   42 1     
   44    6   43 1     
   45   13   44 1     
   46   16   45 1     
   47   16   46 1     
   48   19   47 1     
@<TRIPOS>SUBSTRUCTURE
      1 S1             1
@<TRIPOS>SET
LONE_PAIRS      STATIC     ATOMS    <user>   **** ""
6 42 43 44 45 46 47
DONOR_HYDROGENS      STATIC     ATOMS    <user>   **** ""
1 28
ATOM$BLUE        STATIC     ATOMS    COLORGROUP SYSTEM
6 42 43 44 45 46 47
ATOM$RED        STATIC     ATOMS    COLORGROUP SYSTEM
1 28
