AV-unprocessed.smi:2568|AV-procd|sdf|10094|dock3
  -GOLD-   2272014113D 1   1.00000     0.00000
 Structure written by MMmdl.
 25 26  0  0  0  0  0  0  0  0  2 V2000
  148.3515  134.7999  154.9874 C   0  0  0  0  0  0  0  0  0  0  0  0
  147.2461  134.2798  154.1323 C   0  0  0  0  0  0  0  0  0  0  0  0
  146.1450  133.6748  154.5868 N   0  0  0  0  0  0  0  0  0  0  0  0
  145.4040  133.3628  153.4596 N   0  0  0  0  0  0  0  0  0  0  0  0
  146.1248  133.8058  152.4238 C   0  0  0  0  0  0  0  0  0  0  0  0
  145.7183  133.7017  150.9874 C   0  0  2  0  0  0  0  0  0  0  0  0
  144.3492  134.3544  150.7150 C   0  0  0  0  0  0  0  0  0  0  0  0
  143.9540  134.1320  149.3105 N   0  3  0  0  0  0  0  0  0  0  0  0
  143.9704  132.6966  148.9658 C   0  0  0  0  0  0  0  0  0  0  0  0
  145.3450  132.0882  149.2953 C   0  0  0  0  0  0  0  0  0  0  0  0
  145.6545  132.3141  150.6668 O   0  0  0  0  0  0  0  0  0  0  0  0
  147.2752  134.3866  152.7963 N   0  0  0  0  0  0  0  0  0  0  0  0
  147.9908  134.7998  152.2159 H   0  0  0  0  0  0  0  0  0  0  0  0
  148.2137  134.4851  156.0224 H   0  0  0  0  0  0  0  0  0  0  0  0
  148.3692  135.8894  154.9540 H   0  0  0  0  0  0  0  0  0  0  0  0
  149.3108  134.4205  154.6344 H   0  0  0  0  0  0  0  0  0  0  0  0
  146.4877  134.1756  150.3745 H   0  0  0  0  0  0  0  0  0  0  0  0
  143.5863  133.9290  151.3688 H   0  0  0  0  0  0  0  0  0  0  0  0
  144.3847  135.4254  150.9162 H   0  0  0  0  0  0  0  0  0  0  0  0
  143.0266  134.5033  149.1593 H   0  0  0  0  0  0  0  0  0  0  0  0
  143.1880  132.1844  149.5274 H   0  0  0  0  0  0  0  0  0  0  0  0
  143.7394  132.5748  147.9073 H   0  0  0  0  0  0  0  0  0  0  0  0
  145.3363  131.0145  149.1067 H   0  0  0  0  0  0  0  0  0  0  0  0
  146.1228  132.5161  148.6606 H   0  0  0  0  0  0  0  0  0  0  0  0
  144.6047  134.6170  148.7091 H   0  0  0  0  0  0  0  0  0  0  0  0
  1 14  1  0  0  0  0
  1 15  1  0  0  0  0
  1 16  1  0  0  0  0
  1  2  1  0  0  0  0
  2  3  2  0  0  0  0
  2 12  1  0  0  0  0
  3  4  1  0  0  0  0
  4  5  2  0  0  0  0
  5 12  1  0  0  0  0
  5  6  1  0  0  0  0
  6 11  1  0  0  0  0
  6  7  1  0  0  0  0
  6 17  1  0  0  0  0
  7  8  1  0  0  0  0
  7 18  1  0  0  0  0
  7 19  1  0  0  0  0
  8  9  1  0  0  0  0
  8 20  1  0  0  0  0
  8 25  1  0  0  0  0
  9 10  1  0  0  0  0
  9 21  1  0  0  0  0
  9 22  1  0  0  0  0
 10 11  1  0  0  0  0
 10 23  1  0  0  0  0
 10 24  1  0  0  0  0
 12 13  1  0  0  0  0
M  CHG  1   8   1
M  END
> <s_m_source_file>
AV-unprocessed.smi

> <i_m_source_file_index>
2568

> <i_lp_mmshare_version>
43012

> <i_f3d_flags>
0

> <s_epik_input>
W0NIM11jMW5bbkhdYyhuMSlbQ0BASF0yW0NIMl1bTkhdW0NIMl1bQ0gyXU8y

> <s_epik_cmdline>
J2VwaWtfcHl0aG9uJywgJy1waCcsICc3LjAnLCAnLXRuJywgJzgnLCAnLW1hJywgJzIwMCcsICctbWV0YWxfYmluZGluZycsICctaW1hZScsICc8aW5maWxlLm1hZT4nLCAnLW9tYWUnLCAnPG91dGZpbGUubWFlPic=

> <r_lp_tautomer_probability>
0.0517155

> <r_epik_Ionization_Penalty>
0.290065

> <r_epik_Ionization_Penalty_Charging>
0.125708

> <r_epik_Ionization_Penalty_Neutral>
0.164357

> <r_epik_State_Penalty>
2.14308

> <r_epik_Charging_Adjusted_Penalty>
2.26879

> <i_epik_Tot_Q>
1

> <i_epik_Tot_abs_Q>
1

> <r_epik_Metal_State_Penalty>
2.44434

> <b_epik_Metal_Only>
0

> <s_lp_Force_Field>
OPLS_2005

> <r_lp_Energy>
13.5699

> <b_lp_Chiralities_Consistent>
1

> <s_lp_Variant>
AV-unprocessed.smi:2568-7

> <Gold.Version>
5.8.1

> <Gold.Id.Protein>
6NUR|6NUR_protein|mol2

> <Gold.PLP.Fitness>
31.3446

> <Gold.PLP.PLP>
-19.3920

> <Gold.PLP.part.hbond>
-3.0000

> <Gold.PLP.part.metal>
0.0000

> <Gold.PLP.part.buried>
-3.8754

> <Gold.PLP.part.nonpolar>
-13.2565

> <Gold.PLP.part.repulsive>
0.4105

> <Gold.PLP.ligand.clash>
0.0000

> <Gold.PLP.ligand.torsion>
0.0242

> <Gold.PLP.Chemscore.Hbond>
4.0000

> <Gold.PLP.Chemscore.CHOScore>
0.0000

> <Gold.PLP.Chemscore.Metal>
0.0000

> <Gold.Chemscore.Hbonds>
donor molecule, donor type, donor heavy atom, donor atom, acceptor molecule, acceptor atom, score
      L1  H     8    20       P1 10186  1.92
      L1  H     8    25       P1  7921  1.00
      L1  H    12    13       P1  7948  0.98

> <Gold.PLP.Chemscore.Internal.Correction>
0.0009

> <Gold.Rescore>
     Score         DG    S(hbond)    S(metal)    S(lipo)     H(rot)  DE(clash)    DE(int)     intcor
     17.28     -17.32       2.91        0.00      40.09       1.00       0.00       0.04       ----

> <Gold.Chemscore.Fitness>
17.2809

> <Gold.Chemscore.DG>
-17.3237

> <Gold.Chemscore.ZeroCoef>
-5.4800

> <Gold.Chemscore.Hbond>
2.9080

> <Gold.Chemscore.Metal>
0.0000

> <Gold.Chemscore.Lipo>
40.0938

> <Gold.Chemscore.Internal_Hbond>
0.0000

> <Gold.Chemscore.DEClash>
0.0048

> <Gold.Chemscore.DEInternal>
0.0381

> <Gold.Chemscore.Rot>
1.0000

> <Gold.Chemscore.Internal.Correction>
   9.000000E+99

> <Gold.Chemscore.Hbonds>
donor molecule, donor type, donor heavy atom, donor atom, acceptor molecule, acceptor atom, score
      L1  H     8    20       P1 10186  0.86
      L1  H     8    25       P1  7921  0.99
      L1  H    12    13       P1  7948  0.47

> <Gold.Chemscore.Hbond.Weighted>
-9.7128

> <Gold.Chemscore.Metal.Weighted>
-0.0000

> <Gold.Chemscore.Lipo.Weighted>
-4.6910

> <Gold.Chemscore.Internal_Hbond.Weighted>
0.0000

> <Gold.Chemscore.DEClash.Weighted>
0.0048

> <Gold.Chemscore.DEInternal.Weighted>
0.0381

> <Gold.Chemscore.Rot.Weighted>
2.5600

> <Gold.Chemscore.Internal.Correction.Weighted>
   9.000000E+99

> <Gold.Protein.RotatedTorsions>
[ 6907 6896 6895 6894 ] final   77.50 input  -60.11 | X-H torsion
[ 7974 7965 7964 7962 ] final -164.79 input  175.53 | X-H torsion
[ 8008 7997 7996 7995 ] final   28.98 input   59.86 | X-H torsion
[ 10167 10162 10161 10158 ] final -116.39 input  -65.29 | X-H torsion
[ 10718 10713 10712 10709 ] final    2.33 input   66.30 | X-H torsion
[ 10763 10752 10751 10750 ] final   73.53 input  -60.55 | X-H torsion
[ 11005 11000 10999 10996 ] final -126.41 input  -57.11 | X-H torsion

> <Gold.Protein.ActiveResidues>
 VAL166  LYS551  ARG553  GLY616  TRP617  ASP618  TYR619  PRO620  LYS621  CYS622 
 ASP623  PHE694  ASN695  SER759  ASP760  ASP761  ALA762  ILE779  LEU786  VAL792 
 PHE793  MET794  SER795  GLU796  ALA797  LYS798  CYS799  TRP800  GLU811  SER814 

> <Gold.Protein.RotatedAtoms>
  152.5120  134.3807  159.9349 H   0  0  0  0  0  0  0  0  0  0  0  0  # atno 6907 bound_to 6896
  151.3764  133.3830  159.2713 H   0  0  0  0  0  0  0  0  0  0  0  0  # atno 6908 bound_to 6896
  150.9538  134.8955  159.7747 H   0  0  0  0  0  0  0  0  0  0  0  0  # atno 6909 bound_to 6896
  144.7287  140.2909  143.6220 H   0  0  0  0  0  0  0  0  0  0  0  0  # atno 7974 bound_to 7965
  155.0673  140.3196  155.4641 H   0  0  0  0  0  0  0  0  0  0  0  0  # atno 8008 bound_to 7997
  156.2799  140.2118  156.5745 H   0  0  0  0  0  0  0  0  0  0  0  0  # atno 8009 bound_to 7997
  154.7083  140.0500  157.0513 H   0  0  0  0  0  0  0  0  0  0  0  0  # atno 8010 bound_to 7997
  140.0797  143.4799  152.1932 H   0  0  0  0  0  0  0  0  0  0  0  0  # atno 10167 bound_to 10162
  156.8614  130.5588  149.5663 H   0  0  0  0  0  0  0  0  0  0  0  0  # atno 10718 bound_to 10713
  153.0527  135.5059  154.7907 H   0  0  0  0  0  0  0  0  0  0  0  0  # atno 10763 bound_to 10752
  154.6757  135.2960  154.9685 H   0  0  0  0  0  0  0  0  0  0  0  0  # atno 10764 bound_to 10752
  154.0488  135.6707  153.4850 H   0  0  0  0  0  0  0  0  0  0  0  0  # atno 10765 bound_to 10752
  140.9684  134.0840  157.3896 H   0  0  0  0  0  0  0  0  0  0  0  0  # atno 11005 bound_to 11000
  145.7856  139.1907  143.2132 LP  0  0  0  0  0  0  0  0  0  0  0  0  # atno 17320 bound_to 7965
  146.0798  140.7777  142.9647 LP  0  0  0  0  0  0  0  0  0  0  0  0  # atno 17321 bound_to 7965
  139.5787  144.7500  151.3698 LP  0  0  0  0  0  0  0  0  0  0  0  0  # atno 17342 bound_to 10162
  140.7084  143.7455  150.7522 LP  0  0  0  0  0  0  0  0  0  0  0  0  # atno 17343 bound_to 10162
  156.0775  130.5793  150.9501 LP  0  0  0  0  0  0  0  0  0  0  0  0  # atno 17370 bound_to 10713
  157.6248  131.0926  150.8554 LP  0  0  0  0  0  0  0  0  0  0  0  0  # atno 17371 bound_to 10713
  139.8903  135.0111  156.6728 LP  0  0  0  0  0  0  0  0  0  0  0  0  # atno 17394 bound_to 11000
  140.7365  133.9014  155.8248 LP  0  0  0  0  0  0  0  0  0  0  0  0  # atno 17395 bound_to 11000

$$$$
