AV-unprocessed.smi:1464|AV-procd|sdf|5945|dock5
  -GOLD-   22720 6 23D 1   1.00000     0.00000
 Structure written by MMmdl.
 41 42  0  0  0  0  0  0  0  0  1 V2000
  153.4699  142.0058  161.0881 C   0  0  0  0  0  0  0  0  0  0  0  0
  153.0653  142.2905  159.6300 C   0  0  2  0  0  0  0  0  0  0  0  0
  152.5173  143.7275  159.5199 C   0  0  0  0  0  0  0  0  0  0  0  0
  152.1276  144.0806  158.0807 C   0  0  0  0  0  0  0  0  0  0  0  0
  151.0939  143.0869  157.5438 C   0  0  0  0  0  0  0  0  0  0  0  0
  151.6151  141.6389  157.6223 C   0  0  2  0  0  0  0  0  0  0  0  0
  150.5802  140.7265  157.1388 N   0  0  0  0  0  0  0  0  0  0  0  0
  150.6029  140.0729  155.9675 C   0  0  0  0  0  0  0  0  0  0  0  0
  151.5065  140.2002  155.1401 O   0  0  0  0  0  0  0  0  0  0  0  0
  149.4060  139.1527  155.6882 C   0  0  0  0  0  0  0  0  0  0  0  0
  148.4941  139.6833  154.6647 N   0  0  0  0  0  0  0  0  0  0  0  0
  148.0749  138.7430  153.7359 N   0  0  0  0  0  0  0  0  0  0  0  0
  147.2594  139.0842  152.7962 C   0  0  0  0  0  0  0  0  0  0  0  0
  146.8669  138.1210  151.8994 O   0  0  0  0  0  0  0  0  0  0  0  0
  146.7702  140.4411  152.6854 C   0  0  0  0  0  0  0  0  0  0  0  0
  147.1893  141.3516  153.5913 C   0  0  0  0  0  0  0  0  0  0  0  0
  148.1147  140.9984  154.6694 C   0  0  0  0  0  0  0  0  0  0  0  0
  148.5157  141.8078  155.5058 O   0  0  0  0  0  0  0  0  0  0  0  0
  152.0496  141.2574  159.0638 C   0  0  1  0  0  0  0  0  0  0  0  0
  152.6034  139.8161  159.1125 C   0  0  0  0  0  0  0  0  0  0  0  0
  147.4483  137.3906  152.0439 H   0  0  0  0  0  0  0  0  0  0  0  0
  152.5973  141.9546  161.7398 H   0  0  0  0  0  0  0  0  0  0  0  0
  154.1230  142.7900  161.4721 H   0  0  0  0  0  0  0  0  0  0  0  0
  154.0179  141.0692  161.1839 H   0  0  0  0  0  0  0  0  0  0  0  0
  153.9710  142.2383  159.0239 H   0  0  0  0  0  0  0  0  0  0  0  0
  151.6488  143.8429  160.1701 H   0  0  0  0  0  0  0  0  0  0  0  0
  153.2629  144.4400  159.8746 H   0  0  0  0  0  0  0  0  0  0  0  0
  151.7259  145.0935  158.0409 H   0  0  0  0  0  0  0  0  0  0  0  0
  153.0137  144.0720  157.4445 H   0  0  0  0  0  0  0  0  0  0  0  0
  150.1696  143.1803  158.1158 H   0  0  0  0  0  0  0  0  0  0  0  0
  150.8463  143.3436  156.5131 H   0  0  0  0  0  0  0  0  0  0  0  0
  152.4922  141.5536  156.9774 H   0  0  0  0  0  0  0  0  0  0  0  0
  149.7949  140.5666  157.7529 H   0  0  0  0  0  0  0  0  0  0  0  0
  149.7625  138.1649  155.3890 H   0  0  0  0  0  0  0  0  0  0  0  0
  148.8729  138.9994  156.6282 H   0  0  0  0  0  0  0  0  0  0  0  0
  146.0873  140.7119  151.8937 H   0  0  0  0  0  0  0  0  0  0  0  0
  146.8329  142.3687  153.5208 H   0  0  0  0  0  0  0  0  0  0  0  0
  151.1606  141.2869  159.6962 H   0  0  0  0  0  0  0  0  0  0  0  0
  153.5286  139.7295  158.5417 H   0  0  0  0  0  0  0  0  0  0  0  0
  151.8973  139.0930  158.7044 H   0  0  0  0  0  0  0  0  0  0  0  0
  152.8085  139.4946  160.1327 H   0  0  0  0  0  0  0  0  0  0  0  0
  1  2  1  0  0  0  0
  1 22  1  0  0  0  0
  1 23  1  0  0  0  0
  1 24  1  0  0  0  0
  2 19  1  0  0  0  0
  2  3  1  0  0  0  0
  2 25  1  0  0  0  0
  3  4  1  0  0  0  0
  3 26  1  0  0  0  0
  3 27  1  0  0  0  0
  4  5  1  0  0  0  0
  4 28  1  0  0  0  0
  4 29  1  0  0  0  0
  5  6  1  0  0  0  0
  5 30  1  0  0  0  0
  5 31  1  0  0  0  0
  6  7  1  0  0  0  0
  6 19  1  0  0  0  0
  6 32  1  0  0  0  0
  7  8  1  0  0  0  0
  7 33  1  0  0  0  0
  8  9  2  0  0  0  0
  8 10  1  0  0  0  0
 10 34  1  0  0  0  0
 10 35  1  0  0  0  0
 10 11  1  0  0  0  0
 11 12  1  0  0  0  0
 11 17  1  0  0  0  0
 12 13  2  0  0  0  0
 13 14  1  0  0  0  0
 13 15  1  0  0  0  0
 14 21  1  0  0  0  0
 15 36  1  0  0  0  0
 15 16  2  0  0  0  0
 16 37  1  0  0  0  0
 16 17  1  0  0  0  0
 17 18  2  0  0  0  0
 19 20  1  0  0  0  0
 19 38  1  0  0  0  0
 20 39  1  0  0  0  0
 20 40  1  0  0  0  0
 20 41  1  0  0  0  0
M  END
> <s_m_source_file>
AV-unprocessed.smi

> <i_m_source_file_index>
1464

> <i_lp_mmshare_version>
43012

> <i_f3d_flags>
0

> <s_epik_input>
W0NIM11bQ0BASF0xW0NIMl1bQ0gyXVtDSDJdW0NASF0oW0NASF0xW0NIM10pW05IXUMoPU8pW0NIMl1uMltuSF1jKD1PKVtjSF1bY0hdYzI9Tw==

> <s_epik_cmdline>
J2VwaWtfcHl0aG9uJywgJy1waCcsICc3LjAnLCAnLXRuJywgJzgnLCAnLW1hJywgJzIwMCcsICctbWV0YWxfYmluZGluZycsICctaW1hZScsICc8aW5maWxlLm1hZT4nLCAnLW9tYWUnLCAnPG91dGZpbGUubWFlPic=

> <r_lp_tautomer_probability>
0.9996

> <r_epik_Ionization_Penalty>
2.10335

> <r_epik_Ionization_Penalty_Charging>
3.98079e-08

> <r_epik_Ionization_Penalty_Neutral>
2.10335

> <r_epik_State_Penalty>
1.67957

> <r_epik_Charging_Adjusted_Penalty>
1.67957

> <i_epik_Tot_Q>
0

> <i_epik_Tot_abs_Q>
0

> <r_epik_Metal_State_Penalty>
1.67957

> <b_epik_Metal_Only>
0

> <s_lp_Force_Field>
OPLS_2005

> <r_lp_Energy>
21.8095

> <b_lp_Chiralities_Consistent>
1

> <s_lp_Variant>
AV-unprocessed.smi:1464-11

> <Gold.Version>
5.8.1

> <Gold.Id.Protein>
6NUR|6NUR_protein|mol2

> <Gold.PLP.Fitness>
44.6853

> <Gold.PLP.PLP>
-39.5647

> <Gold.PLP.part.hbond>
-2.0000

> <Gold.PLP.part.metal>
0.0000

> <Gold.PLP.part.buried>
-3.3468

> <Gold.PLP.part.nonpolar>
-35.6374

> <Gold.PLP.part.repulsive>
1.7502

> <Gold.PLP.ligand.clash>
0.0000

> <Gold.PLP.ligand.torsion>
0.4446

> <Gold.PLP.Chemscore.Hbond>
2.0000

> <Gold.PLP.Chemscore.CHOScore>
0.0000

> <Gold.PLP.Chemscore.Metal>
0.0000

> <Gold.Chemscore.Hbonds>
donor molecule, donor type, donor heavy atom, donor atom, acceptor molecule, acceptor atom, score
      L1  H    14    21       P1  7948  1.00
      P1  H  7989  7998       L1     9  1.00

> <Gold.PLP.Chemscore.Internal.Correction>
0.0097

> <Gold.Rescore>
     Score         DG    S(hbond)    S(metal)    S(lipo)     H(rot)  DE(clash)    DE(int)     intcor
     14.48     -17.90       1.93        0.00      99.62       2.22       0.29       3.13       ----

> <Gold.Chemscore.Fitness>
14.4800

> <Gold.Chemscore.DG>
-17.8970

> <Gold.Chemscore.ZeroCoef>
-5.4800

> <Gold.Chemscore.Hbond>
1.9313

> <Gold.Chemscore.Metal>
0.0000

> <Gold.Chemscore.Lipo>
99.6216

> <Gold.Chemscore.Internal_Hbond>
0.0000

> <Gold.Chemscore.DEClash>
0.2850

> <Gold.Chemscore.DEInternal>
3.1320

> <Gold.Chemscore.Rot>
2.2224

> <Gold.Chemscore.Internal.Correction>
   9.000000E+99

> <Gold.Chemscore.Hbonds>
donor molecule, donor type, donor heavy atom, donor atom, acceptor molecule, acceptor atom, score
      L1  H    14    21       P1  7948  0.99
      P1  H  7989  7998       L1     9  0.94

> <Gold.Chemscore.Hbond.Weighted>
-6.4506

> <Gold.Chemscore.Metal.Weighted>
-0.0000

> <Gold.Chemscore.Lipo.Weighted>
-11.6557

> <Gold.Chemscore.Internal_Hbond.Weighted>
0.0000

> <Gold.Chemscore.DEClash.Weighted>
0.2850

> <Gold.Chemscore.DEInternal.Weighted>
3.1320

> <Gold.Chemscore.Rot.Weighted>
5.6893

> <Gold.Chemscore.Internal.Correction.Weighted>
   9.000000E+99

> <Gold.Protein.RotatedTorsions>
[ 6907 6896 6895 6894 ] final   -6.22 input  -60.11 | X-H torsion
[ 7974 7965 7964 7962 ] final  104.75 input  175.53 | X-H torsion
[ 8008 7997 7996 7995 ] final  -43.77 input   59.86 | X-H torsion
[ 10167 10162 10161 10158 ] final  142.63 input  -65.29 | X-H torsion
[ 10718 10713 10712 10709 ] final  127.68 input   66.30 | X-H torsion
[ 10763 10752 10751 10750 ] final  -48.67 input  -60.55 | X-H torsion
[ 11005 11000 10999 10996 ] final  -11.53 input  -57.11 | X-H torsion

> <Gold.Protein.ActiveResidues>
 VAL166  LYS551  ARG553  GLY616  TRP617  ASP618  TYR619  PRO620  LYS621  CYS622 
 ASP623  PHE694  ASN695  SER759  ASP760  ASP761  ALA762  ILE779  LEU786  VAL792 
 PHE793  MET794  SER795  GLU796  ALA797  LYS798  CYS799  TRP800  GLU811  SER814 

> <Gold.Protein.RotatedAtoms>
  151.4690  135.1044  159.9745 H   0  0  0  0  0  0  0  0  0  0  0  0  # atno 6907 bound_to 6896
  152.4824  133.8283  159.7100 H   0  0  0  0  0  0  0  0  0  0  0  0  # atno 6908 bound_to 6896
  150.8906  133.7188  159.2932 H   0  0  0  0  0  0  0  0  0  0  0  0  # atno 6909 bound_to 6896
  145.3287  139.2492  143.3672 H   0  0  0  0  0  0  0  0  0  0  0  0  # atno 7974 bound_to 7965
  154.3997  140.1439  156.3573 H   0  0  0  0  0  0  0  0  0  0  0  0  # atno 8008 bound_to 7997
  155.8213  140.3469  155.5495 H   0  0  0  0  0  0  0  0  0  0  0  0  # atno 8009 bound_to 7997
  155.8284  140.0908  157.1797 H   0  0  0  0  0  0  0  0  0  0  0  0  # atno 8010 bound_to 7997
  139.4989  144.6094  151.6305 H   0  0  0  0  0  0  0  0  0  0  0  0  # atno 10167 bound_to 10162
  157.5312  131.1098  150.9006 H   0  0  0  0  0  0  0  0  0  0  0  0  # atno 10718 bound_to 10713
  154.0816  135.6590  153.4839 H   0  0  0  0  0  0  0  0  0  0  0  0  # atno 10763 bound_to 10752
  153.0354  135.5181  154.7468 H   0  0  0  0  0  0  0  0  0  0  0  0  # atno 10764 bound_to 10752
  154.6565  135.3008  154.9889 H   0  0  0  0  0  0  0  0  0  0  0  0  # atno 10765 bound_to 10752
  140.7562  133.8552  155.9086 H   0  0  0  0  0  0  0  0  0  0  0  0  # atno 11005 bound_to 11000
  146.3054  140.3861  142.8689 LP  0  0  0  0  0  0  0  0  0  0  0  0  # atno 17320 bound_to 7965
  144.8881  140.7488  143.5944 LP  0  0  0  0  0  0  0  0  0  0  0  0  # atno 17321 bound_to 7965
  140.5765  144.0020  150.6244 LP  0  0  0  0  0  0  0  0  0  0  0  0  # atno 17342 bound_to 10162
  140.3155  143.3170  152.0836 LP  0  0  0  0  0  0  0  0  0  0  0  0  # atno 17343 bound_to 10162
  156.9587  130.5447  149.5285 LP  0  0  0  0  0  0  0  0  0  0  0  0  # atno 17370 bound_to 10713
  156.0424  130.5505  150.8801 LP  0  0  0  0  0  0  0  0  0  0  0  0  # atno 17371 bound_to 10713
  140.9705  134.1537  157.4580 LP  0  0  0  0  0  0  0  0  0  0  0  0  # atno 17394 bound_to 11000
  139.8778  134.9977  156.5860 LP  0  0  0  0  0  0  0  0  0  0  0  0  # atno 17395 bound_to 11000

$$$$
