AV-unprocessed.smi:73|AV-procd|sdf|760|dock4
  -GOLD-   2262017 93D 1   1.00000     0.00000
 Structure written by MMmdl.
 35 36  0  0  0  0  0  0  0  0  2 V2000
  147.0425  139.8846  157.4139 C   0  0  0  0  0  0  0  0  0  0  0  0
  147.7999  140.9932  156.6668 C   0  0  0  0  0  0  0  0  0  0  0  0
  149.2200  140.7375  156.3540 N   0  0  0  0  0  0  0  0  0  0  0  0
  150.0441  140.7275  157.5781 C   0  0  0  0  0  0  0  0  0  0  0  0
  150.4237  142.0768  158.0967 C   0  0  0  0  0  0  0  0  0  0  0  0
  149.7064  142.8659  158.9000 N   0  0  0  0  0  0  0  0  0  0  0  0
  150.4729  143.9925  159.0997 N   0  0  0  0  0  0  0  0  0  0  0  0
  151.5981  143.7938  158.4089 C   0  0  0  0  0  0  0  0  0  0  0  0
  152.7645  144.7132  158.2910 C   0  0  0  0  0  0  0  0  0  0  0  0
  151.6314  142.6011  157.7608 O   0  0  0  0  0  0  0  0  0  0  0  0
  149.3664  139.4662  155.6135 C   0  0  1  0  0  0  0  0  0  0  0  0
  148.7089  139.4316  154.2116 C   0  0  0  0  0  0  0  0  0  0  0  0
  149.5733  138.6376  153.3177 N   0  3  0  0  0  0  0  0  0  0  0  0
  150.6791  138.0901  154.1152 C   0  0  0  0  0  0  0  0  0  0  0  0
  150.8186  139.0374  155.3033 C   0  0  1  0  0  0  0  0  0  0  0  0
  151.6176  140.1364  154.9000 O   0  0  0  0  0  0  0  0  0  0  0  0
  151.2979  138.5381  156.1459 H   0  0  0  0  0  0  0  0  0  0  0  0
  146.0951  140.2657  157.7953 H   0  0  0  0  0  0  0  0  0  0  0  0
  147.6152  139.5164  158.2656 H   0  0  0  0  0  0  0  0  0  0  0  0
  146.8002  139.0415  156.7689 H   0  0  0  0  0  0  0  0  0  0  0  0
  147.2591  141.2509  155.7547 H   0  0  0  0  0  0  0  0  0  0  0  0
  147.7188  141.8698  157.3069 H   0  0  0  0  0  0  0  0  0  0  0  0
  149.5398  140.1686  158.3680 H   0  0  0  0  0  0  0  0  0  0  0  0
  150.9877  140.2136  157.4091 H   0  0  0  0  0  0  0  0  0  0  0  0
  152.5356  145.6773  158.7456 H   0  0  0  0  0  0  0  0  0  0  0  0
  153.0117  144.8712  157.2409 H   0  0  0  0  0  0  0  0  0  0  0  0
  153.6299  144.2839  158.7961 H   0  0  0  0  0  0  0  0  0  0  0  0
  148.9142  138.6645  156.2003 H   0  0  0  0  0  0  0  0  0  0  0  0
  147.7068  139.0036  154.2506 H   0  0  0  0  0  0  0  0  0  0  0  0
  148.6302  140.4317  153.7836 H   0  0  0  0  0  0  0  0  0  0  0  0
  149.0553  137.8989  152.8639 H   0  0  0  0  0  0  0  0  0  0  0  0
  150.3870  137.0994  154.4659 H   0  0  0  0  0  0  0  0  0  0  0  0
  151.5931  137.9825  153.5296 H   0  0  0  0  0  0  0  0  0  0  0  0
  152.4621  140.0647  155.3197 H   0  0  0  0  0  0  0  0  0  0  0  0
  149.9594  139.2602  152.6222 H   0  0  0  0  0  0  0  0  0  0  0  0
  1  2  1  0  0  0  0
  1 18  1  0  0  0  0
  1 19  1  0  0  0  0
  1 20  1  0  0  0  0
  2  3  1  0  0  0  0
  2 21  1  0  0  0  0
  2 22  1  0  0  0  0
  3  4  1  0  0  0  0
  3 11  1  0  0  0  0
  4  5  1  0  0  0  0
  4 23  1  0  0  0  0
  4 24  1  0  0  0  0
  5 10  1  0  0  0  0
  5  6  2  0  0  0  0
  6  7  1  0  0  0  0
  7  8  2  0  0  0  0
  8  9  1  0  0  0  0
  8 10  1  0  0  0  0
  9 25  1  0  0  0  0
  9 26  1  0  0  0  0
  9 27  1  0  0  0  0
 11 15  1  0  0  0  0
 11 12  1  0  0  0  0
 11 28  1  0  0  0  0
 12 13  1  0  0  0  0
 12 29  1  0  0  0  0
 12 30  1  0  0  0  0
 13 14  1  0  0  0  0
 13 31  1  0  0  0  0
 13 35  1  0  0  0  0
 14 15  1  0  0  0  0
 14 32  1  0  0  0  0
 14 33  1  0  0  0  0
 15 17  1  0  0  0  0
 15 16  1  0  0  0  0
 16 34  1  0  0  0  0
M  CHG  1  13   1
M  END
> <s_m_source_file>
AV-unprocessed.smi

> <i_m_source_file_index>
73

> <i_lp_mmshare_version>
43012

> <i_f3d_flags>
0

> <s_epik_input>
W09IXVtDQEBIXTFbQ0gyXVtOSF1bQ0gyXVtDQEhdMU4oW0NIMl1bQ0gzXSlbQ0gyXWMybm5jKG8yKVtDSDNd

> <s_epik_cmdline>
J2VwaWtfcHl0aG9uJywgJy1waCcsICc3LjAnLCAnLXRuJywgJzgnLCAnLW1hJywgJzIwMCcsICctbWV0YWxfYmluZGluZycsICctaW1hZScsICc8aW5maWxlLm1hZT4nLCAnLW9tYWUnLCAnPG91dGZpbGUubWFlPic=

> <r_lp_tautomer_probability>
1

> <r_epik_Ionization_Penalty>
0.00160433

> <r_epik_Ionization_Penalty_Charging>
0.000122314

> <r_epik_Ionization_Penalty_Neutral>
0.00148202

> <r_epik_State_Penalty>
-0

> <r_epik_Charging_Adjusted_Penalty>
0.000122314

> <i_epik_Tot_Q>
1

> <i_epik_Tot_abs_Q>
1

> <r_epik_Metal_State_Penalty>
-0

> <b_epik_Metal_Only>
0

> <s_lp_Force_Field>
OPLS_2005

> <r_lp_Energy>
44.8836

> <b_lp_Chiralities_Consistent>
1

> <s_lp_Variant>
AV-unprocessed.smi:73-2

> <Gold.Version>
5.8.1

> <Gold.Id.Protein>
6NUR|6NUR_protein|mol2

> <Gold.PLP.Fitness>
35.9606

> <Gold.PLP.PLP>
-25.5755

> <Gold.PLP.part.hbond>
-3.4106

> <Gold.PLP.part.metal>
0.0000

> <Gold.PLP.part.buried>
-3.9156

> <Gold.PLP.part.nonpolar>
-18.0756

> <Gold.PLP.part.repulsive>
0.4517

> <Gold.PLP.ligand.clash>
0.0000

> <Gold.PLP.ligand.torsion>
0.6399

> <Gold.PLP.Chemscore.Hbond>
3.8800

> <Gold.PLP.Chemscore.CHOScore>
0.0000

> <Gold.PLP.Chemscore.Metal>
0.0000

> <Gold.Chemscore.Hbonds>
donor molecule, donor type, donor heavy atom, donor atom, acceptor molecule, acceptor atom, score
      L1  H    13    31       P1  7948  2.00
      L1  H    13    35       P1  7957  0.86
      P1  H  7989  7998       L1    16  1.00

> <Gold.PLP.Chemscore.Internal.Correction>
0.0250

> <Gold.Rescore>
     Score         DG    S(hbond)    S(metal)    S(lipo)     H(rot)  DE(clash)    DE(int)     intcor
     12.55     -12.99       2.62        0.00      44.19       2.51       0.00       0.45       ----

> <Gold.Chemscore.Fitness>
12.5454

> <Gold.Chemscore.DG>
-12.9910

> <Gold.Chemscore.ZeroCoef>
-5.4800

> <Gold.Chemscore.Hbond>
2.6208

> <Gold.Chemscore.Metal>
0.0000

> <Gold.Chemscore.Lipo>
44.1937

> <Gold.Chemscore.Internal_Hbond>
0.0000

> <Gold.Chemscore.DEClash>
0.0000

> <Gold.Chemscore.DEInternal>
0.4457

> <Gold.Chemscore.Rot>
2.5051

> <Gold.Chemscore.Internal.Correction>
   9.000000E+99

> <Gold.Chemscore.Hbonds>
donor molecule, donor type, donor heavy atom, donor atom, acceptor molecule, acceptor atom, score
      L1  H    13    31       P1  7948  0.95
      L1  H    13    35       P1  7957  0.75
      P1  H  7989  7998       L1    16  0.82

> <Gold.Chemscore.Hbond.Weighted>
-8.7535

> <Gold.Chemscore.Metal.Weighted>
-0.0000

> <Gold.Chemscore.Lipo.Weighted>
-5.1707

> <Gold.Chemscore.Internal_Hbond.Weighted>
0.0000

> <Gold.Chemscore.DEClash.Weighted>
0.0000

> <Gold.Chemscore.DEInternal.Weighted>
0.4457

> <Gold.Chemscore.Rot.Weighted>
6.4131

> <Gold.Chemscore.Internal.Correction.Weighted>
   9.000000E+99

> <Gold.Protein.RotatedTorsions>
[ 6907 6896 6895 6894 ] final   19.42 input  -60.11 | X-H torsion
[ 7974 7965 7964 7962 ] final -115.62 input  175.53 | X-H torsion
[ 8008 7997 7996 7995 ] final  -29.00 input   59.86 | X-H torsion
[ 10167 10162 10161 10158 ] final  -33.89 input  -65.29 | X-H torsion
[ 10718 10713 10712 10709 ] final   65.99 input   66.30 | X-H torsion
[ 10763 10752 10751 10750 ] final -113.81 input  -60.55 | X-H torsion
[ 11005 11000 10999 10996 ] final  -33.44 input  -57.11 | X-H torsion

> <Gold.Protein.ActiveResidues>
 VAL166  LYS551  ARG553  GLY616  TRP617  ASP618  TYR619  PRO620  LYS621  CYS622 
 ASP623  PHE694  ASN695  SER759  ASP760  ASP761  ALA762  ILE779  LEU786  VAL792 
 PHE793  MET794  SER795  GLU796  ALA797  LYS798  CYS799  TRP800  GLU811  SER814 

> <Gold.Protein.RotatedAtoms>
  151.8806  135.0455  160.0488 H   0  0  0  0  0  0  0  0  0  0  0  0  # atno 6907 bound_to 6896
  152.2516  133.5215  159.5337 H   0  0  0  0  0  0  0  0  0  0  0  0  # atno 6908 bound_to 6896
  150.7085  134.0869  159.3960 H   0  0  0  0  0  0  0  0  0  0  0  0  # atno 6909 bound_to 6896
  145.1062  140.8583  143.3897 H   0  0  0  0  0  0  0  0  0  0  0  0  # atno 7974 bound_to 7965
  154.4308  140.1830  156.1179 H   0  0  0  0  0  0  0  0  0  0  0  0  # atno 8008 bound_to 7997
  156.0166  140.3345  155.6970 H   0  0  0  0  0  0  0  0  0  0  0  0  # atno 8009 bound_to 7997
  155.6035  140.0643  157.2717 H   0  0  0  0  0  0  0  0  0  0  0  0  # atno 8010 bound_to 7997
  140.7196  143.3588  151.2006 H   0  0  0  0  0  0  0  0  0  0  0  0  # atno 10167 bound_to 10162
  157.6141  130.9243  150.0049 H   0  0  0  0  0  0  0  0  0  0  0  0  # atno 10718 bound_to 10713
  154.8413  135.4441  154.1407 H   0  0  0  0  0  0  0  0  0  0  0  0  # atno 10763 bound_to 10752
  153.2593  135.6934  153.7601 H   0  0  0  0  0  0  0  0  0  0  0  0  # atno 10764 bound_to 10752
  153.6884  135.3391  155.3171 H   0  0  0  0  0  0  0  0  0  0  0  0  # atno 10765 bound_to 10752
  140.9635  133.7151  156.1407 H   0  0  0  0  0  0  0  0  0  0  0  0  # atno 11005 bound_to 11000
  145.0898  139.2898  143.5740 LP  0  0  0  0  0  0  0  0  0  0  0  0  # atno 17320 bound_to 7965
  146.3528  140.0432  142.8641 LP  0  0  0  0  0  0  0  0  0  0  0  0  # atno 17321 bound_to 7965
  139.7135  143.9338  152.2957 LP  0  0  0  0  0  0  0  0  0  0  0  0  # atno 17342 bound_to 10162
  139.9071  144.6878  150.8602 LP  0  0  0  0  0  0  0  0  0  0  0  0  # atno 17343 bound_to 10162
  156.1255  130.3644  149.9817 LP  0  0  0  0  0  0  0  0  0  0  0  0  # atno 17370 bound_to 10713
  156.7888  130.9248  151.3646 LP  0  0  0  0  0  0  0  0  0  0  0  0  # atno 17371 bound_to 10713
  140.7433  134.4126  157.5552 LP  0  0  0  0  0  0  0  0  0  0  0  0  # atno 17394 bound_to 11000
  139.8886  134.8851  156.2464 LP  0  0  0  0  0  0  0  0  0  0  0  0  # atno 17395 bound_to 11000

$$$$
