AV-unprocessed.smi:1433|AV-procd|sdf|5843|dock8
  -GOLD-   22720 5503D 1   1.00000     0.00000
 Structure written by MMmdl.
 45 46  0  0  0  0  0  0  0  0  2 V2000
  144.3611  134.2711  150.2681 C   0  0  0  0  0  0  0  0  0  0  0  0
  145.3303  135.0576  151.1581 C   0  0  2  0  0  0  0  0  0  0  0  0
  146.0489  134.1503  152.1707 C   0  0  0  0  0  0  0  0  0  0  0  0
  146.9325  134.9433  153.0659 N   0  3  2  0  0  0  0  0  0  0  0  0
  147.7670  134.0750  153.9597 C   0  0  1  0  0  0  0  0  0  0  0  0
  148.6769  133.1599  153.1079 C   0  0  0  0  0  0  0  0  0  0  0  0
  148.6148  134.8651  154.9969 C   0  0  0  0  0  0  0  0  0  0  0  0
  149.3061  136.0077  154.4092 N   0  0  0  0  0  0  0  0  0  0  0  0
  149.8028  137.0474  155.0974 C   0  0  0  0  0  0  0  0  0  0  0  0
  149.6769  137.1771  156.3148 O   0  0  0  0  0  0  0  0  0  0  0  0
  150.5767  138.0895  154.2899 C   0  0  0  0  0  0  0  0  0  0  0  0
  149.8763  139.3619  154.2837 N   0  0  0  0  0  0  0  0  0  0  0  0
  148.5624  139.6143  153.9485 C   0  0  0  0  0  0  0  0  0  0  0  0
  148.3528  140.9541  154.1076 C   0  0  0  0  0  0  0  0  0  0  0  0
  149.6140  141.4440  154.5480 C   0  0  0  0  0  0  0  0  0  0  0  0
  150.5230  140.4886  154.6561 N   0  0  0  0  0  0  0  0  0  0  0  0
  146.1283  135.9959  153.7458 C   0  0  0  0  0  0  0  0  0  0  0  0
  145.3453  136.8602  152.7362 C   0  0  1  0  0  0  0  0  0  0  0  0
  146.2281  137.8604  151.9676 C   0  0  0  0  0  0  0  0  0  0  0  0
  144.5766  136.0383  151.8615 O   0  0  0  0  0  0  0  0  0  0  0  0
  144.8862  133.5065  149.6949 H   0  0  0  0  0  0  0  0  0  0  0  0
  143.8605  134.9310  149.5592 H   0  0  0  0  0  0  0  0  0  0  0  0
  143.5921  133.7757  150.8617 H   0  0  0  0  0  0  0  0  0  0  0  0
  146.0632  135.5418  150.5125 H   0  0  0  0  0  0  0  0  0  0  0  0
  145.3171  133.6078  152.7721 H   0  0  0  0  0  0  0  0  0  0  0  0
  146.6193  133.4022  151.6233 H   0  0  0  0  0  0  0  0  0  0  0  0
  147.0814  133.4414  154.5249 H   0  0  0  0  0  0  0  0  0  0  0  0
  149.2517  132.4700  153.7260 H   0  0  0  0  0  0  0  0  0  0  0  0
  149.3868  133.7474  152.5249 H   0  0  0  0  0  0  0  0  0  0  0  0
  148.1154  132.5392  152.4120 H   0  0  0  0  0  0  0  0  0  0  0  0
  147.9763  135.2375  155.7987 H   0  0  0  0  0  0  0  0  0  0  0  0
  149.3709  134.2313  155.4623 H   0  0  0  0  0  0  0  0  0  0  0  0
  149.4573  135.9879  153.4104 H   0  0  0  0  0  0  0  0  0  0  0  0
  151.5762  138.2232  154.7069 H   0  0  0  0  0  0  0  0  0  0  0  0
  150.6996  137.7511  153.2602 H   0  0  0  0  0  0  0  0  0  0  0  0
  147.8939  138.8278  153.6302 H   0  0  0  0  0  0  0  0  0  0  0  0
  147.4380  141.5012  153.9343 H   0  0  0  0  0  0  0  0  0  0  0  0
  149.8935  142.4583  154.7918 H   0  0  0  0  0  0  0  0  0  0  0  0
  145.4338  135.5190  154.4394 H   0  0  0  0  0  0  0  0  0  0  0  0
  146.7619  136.6627  154.3299 H   0  0  0  0  0  0  0  0  0  0  0  0
  144.6239  137.4521  153.3004 H   0  0  0  0  0  0  0  0  0  0  0  0
  146.6937  138.5703  152.6516 H   0  0  0  0  0  0  0  0  0  0  0  0
  145.6348  138.4333  151.2544 H   0  0  0  0  0  0  0  0  0  0  0  0
  147.0304  137.3695  151.4177 H   0  0  0  0  0  0  0  0  0  0  0  0
  147.5833  135.4389  152.4735 H   0  0  0  0  0  0  0  0  0  0  0  0
  1  2  1  0  0  0  0
  1 21  1  0  0  0  0
  1 22  1  0  0  0  0
  1 23  1  0  0  0  0
  2 20  1  0  0  0  0
  2  3  1  0  0  0  0
  2 24  1  0  0  0  0
  3  4  1  0  0  0  0
  3 25  1  0  0  0  0
  3 26  1  0  0  0  0
  4  5  1  0  0  0  0
  4 17  1  0  0  0  0
  4 45  1  0  0  0  0
  5  6  1  0  0  0  0
  5  7  1  0  0  0  0
  5 27  1  0  0  0  0
  6 28  1  0  0  0  0
  6 29  1  0  0  0  0
  6 30  1  0  0  0  0
  7  8  1  0  0  0  0
  7 31  1  0  0  0  0
  7 32  1  0  0  0  0
  8  9  1  0  0  0  0
  8 33  1  0  0  0  0
  9 10  2  0  0  0  0
  9 11  1  0  0  0  0
 11 12  1  0  0  0  0
 11 34  1  0  0  0  0
 11 35  1  0  0  0  0
 12 16  1  0  0  0  0
 12 13  1  0  0  0  0
 13 14  2  0  0  0  0
 13 36  1  0  0  0  0
 14 15  1  0  0  0  0
 14 37  1  0  0  0  0
 15 16  2  0  0  0  0
 15 38  1  0  0  0  0
 17 18  1  0  0  0  0
 17 39  1  0  0  0  0
 17 40  1  0  0  0  0
 18 19  1  0  0  0  0
 18 20  1  0  0  0  0
 18 41  1  0  0  0  0
 19 42  1  0  0  0  0
 19 43  1  0  0  0  0
 19 44  1  0  0  0  0
M  CHG  1   4   1
M  END
> <s_m_source_file>
AV-unprocessed.smi

> <i_m_source_file_index>
1433

> <i_lp_mmshare_version>
43012

> <i_f3d_flags>
0

> <s_epik_input>
W0NIM11bQ0BASF0xW0NIMl1OKFtDSDJdW0NASF0oTzEpW0NIM10pW0NASF0oW0NIM10pW0NIMl1bTkhdQyg9TylbQ0gyXW4yW2NIXVtjSF1bY0hdbjI=

> <s_epik_cmdline>
J2VwaWtfcHl0aG9uJywgJy1waCcsICc3LjAnLCAnLXRuJywgJzgnLCAnLW1hJywgJzIwMCcsICctbWV0YWxfYmluZGluZycsICctaW1hZScsICc8aW5maWxlLm1hZT4nLCAnLW9tYWUnLCAnPG91dGZpbGUubWFlPic=

> <r_lp_tautomer_probability>
1

> <r_epik_Ionization_Penalty>
0.748405

> <r_epik_Ionization_Penalty_Charging>
0.748396

> <r_epik_Ionization_Penalty_Neutral>
8.54426e-06

> <r_epik_State_Penalty>
0.775162

> <r_epik_Charging_Adjusted_Penalty>
1.52356

> <i_epik_Tot_Q>
1

> <i_epik_Tot_abs_Q>
1

> <r_epik_Metal_State_Penalty>
0.775167

> <b_epik_Metal_Only>
0

> <s_lp_Force_Field>
OPLS_2005

> <r_lp_Energy>
20.9037

> <b_lp_Chiralities_Consistent>
1

> <s_lp_Variant>
AV-unprocessed.smi:1433-9

> <Gold.Version>
5.8.1

> <Gold.Id.Protein>
6NUR|6NUR_protein|mol2

> <Gold.PLP.Fitness>
47.8782

> <Gold.PLP.PLP>
-33.6297

> <Gold.PLP.part.hbond>
-3.0000

> <Gold.PLP.part.metal>
0.0000

> <Gold.PLP.part.buried>
-0.1270

> <Gold.PLP.part.nonpolar>
-29.4873

> <Gold.PLP.part.repulsive>
0.3004

> <Gold.PLP.ligand.clash>
0.0000

> <Gold.PLP.ligand.torsion>
0.4118

> <Gold.PLP.Chemscore.Hbond>
4.0000

> <Gold.PLP.Chemscore.CHOScore>
1.0000

> <Gold.PLP.Chemscore.Metal>
0.0000

> <Gold.Chemscore.Hbonds>
donor molecule, donor type, donor heavy atom, donor atom, acceptor molecule, acceptor atom, score
      L1  H     4    45       P1  7948  2.00
      L1  H     8    33       P1  7948  1.00
      P1  H  7989  7998       L1    16  1.00
      L1  C    15    38       P1  8028  0.79

> <Gold.PLP.Chemscore.Internal.Correction>
0.0722

> <Gold.Rescore>
     Score         DG    S(hbond)    S(metal)    S(lipo)     H(rot)  DE(clash)    DE(int)     intcor
     17.43     -18.11       2.75        0.00      70.20       1.87       0.09       0.60       ----

> <Gold.Chemscore.Fitness>
17.4275

> <Gold.Chemscore.DG>
-18.1090

> <Gold.Chemscore.ZeroCoef>
-5.4800

> <Gold.Chemscore.Hbond>
2.7520

> <Gold.Chemscore.Metal>
0.0000

> <Gold.Chemscore.Lipo>
70.2015

> <Gold.Chemscore.Internal_Hbond>
0.0000

> <Gold.Chemscore.DEClash>
0.0853

> <Gold.Chemscore.DEInternal>
0.5962

> <Gold.Chemscore.Rot>
1.8657

> <Gold.Chemscore.Internal.Correction>
   9.000000E+99

> <Gold.Chemscore.Hbonds>
donor molecule, donor type, donor heavy atom, donor atom, acceptor molecule, acceptor atom, score
      L1  H     4    45       P1  7948  1.00
      L1  H     8    33       P1  7948  0.38
      P1  H  7989  7998       L1    16  0.26

> <Gold.Chemscore.Hbond.Weighted>
-9.1916

> <Gold.Chemscore.Metal.Weighted>
-0.0000

> <Gold.Chemscore.Lipo.Weighted>
-8.2136

> <Gold.Chemscore.Internal_Hbond.Weighted>
0.0000

> <Gold.Chemscore.DEClash.Weighted>
0.0853

> <Gold.Chemscore.DEInternal.Weighted>
0.5962

> <Gold.Chemscore.Rot.Weighted>
4.7761

> <Gold.Chemscore.Internal.Correction.Weighted>
   9.000000E+99

> <Gold.Protein.RotatedTorsions>
[ 6907 6896 6895 6894 ] final    4.60 input  -60.11 | X-H torsion
[ 7974 7965 7964 7962 ] final -112.39 input  175.53 | X-H torsion
[ 8008 7997 7996 7995 ] final   25.63 input   59.86 | X-H torsion
[ 10167 10162 10161 10158 ] final    5.29 input  -65.29 | X-H torsion
[ 10718 10713 10712 10709 ] final  -57.85 input   66.30 | X-H torsion
[ 10763 10752 10751 10750 ] final -169.09 input  -60.55 | X-H torsion
[ 11005 11000 10999 10996 ] final  -75.87 input  -57.11 | X-H torsion

> <Gold.Protein.ActiveResidues>
 VAL166  LYS551  ARG553  GLY616  TRP617  ASP618  TYR619  PRO620  LYS621  CYS622 
 ASP623  PHE694  ASN695  SER759  ASP760  ASP761  ALA762  ILE779  LEU786  VAL792 
 PHE793  MET794  SER795  GLU796  ALA797  LYS798  CYS799  TRP800  GLU811  SER814 

> <Gold.Protein.RotatedAtoms>
  151.6440  135.1009  160.0146 H   0  0  0  0  0  0  0  0  0  0  0  0  # atno 6907 bound_to 6896
  152.4038  133.6854  159.6347 H   0  0  0  0  0  0  0  0  0  0  0  0  # atno 6908 bound_to 6896
  150.7935  133.8661  159.3286 H   0  0  0  0  0  0  0  0  0  0  0  0  # atno 6909 bound_to 6896
  145.1446  140.8796  143.3682 H   0  0  0  0  0  0  0  0  0  0  0  0  # atno 7974 bound_to 7965
  155.0147  140.3140  155.4816 H   0  0  0  0  0  0  0  0  0  0  0  0  # atno 8008 bound_to 7997
  156.2903  140.2208  156.5204 H   0  0  0  0  0  0  0  0  0  0  0  0  # atno 8009 bound_to 7997
  154.7504  140.0466  157.0876 H   0  0  0  0  0  0  0  0  0  0  0  0  # atno 8010 bound_to 7997
  140.6490  143.7592  150.7544 H   0  0  0  0  0  0  0  0  0  0  0  0  # atno 10167 bound_to 10162
  156.1179  130.4169  150.0496 H   0  0  0  0  0  0  0  0  0  0  0  0  # atno 10718 bound_to 10713
  154.6560  135.2918  154.9927 H   0  0  0  0  0  0  0  0  0  0  0  0  # atno 10763 bound_to 10752
  154.1004  135.6577  153.4871 H   0  0  0  0  0  0  0  0  0  0  0  0  # atno 10764 bound_to 10752
  153.0402  135.5241  154.7489 H   0  0  0  0  0  0  0  0  0  0  0  0  # atno 10765 bound_to 10752
  141.1649  133.6962  156.7583 H   0  0  0  0  0  0  0  0  0  0  0  0  # atno 11005 bound_to 11000
  145.0495  139.3193  143.5936 LP  0  0  0  0  0  0  0  0  0  0  0  0  # atno 17320 bound_to 7965
  146.3501  139.9898  142.8687 LP  0  0  0  0  0  0  0  0  0  0  0  0  # atno 17321 bound_to 7965
  140.1239  143.4587  152.2296 LP  0  0  0  0  0  0  0  0  0  0  0  0  # atno 17342 bound_to 10162
  139.5703  144.7459  151.3910 LP  0  0  0  0  0  0  0  0  0  0  0  0  # atno 17343 bound_to 10162
  156.8443  130.9436  151.3630 LP  0  0  0  0  0  0  0  0  0  0  0  0  # atno 17370 bound_to 10713
  157.6363  130.8769  149.9365 LP  0  0  0  0  0  0  0  0  0  0  0  0  # atno 17371 bound_to 10713
  140.2553  134.8509  157.3706 LP  0  0  0  0  0  0  0  0  0  0  0  0  # atno 17394 bound_to 11000
  140.1663  134.4664  155.7861 LP  0  0  0  0  0  0  0  0  0  0  0  0  # atno 17395 bound_to 11000

$$$$
