AV-unprocessed.smi:2489|AV-procd|sdf|9797|dock2
  -GOLD-   2272013433D 1   1.00000     0.00000
 Structure written by MMmdl.
 33 34  0  0  0  0  0  0  0  0  1 V2000
  152.6855  137.0250  157.8801 C   0  0  0  0  0  0  0  0  0  0  0  0
  152.7142  136.9460  156.4626 O   0  0  0  0  0  0  0  0  0  0  0  0
  151.9621  137.8561  155.7522 C   0  0  0  0  0  0  0  0  0  0  0  0
  151.3865  137.6051  154.4843 C   0  0  0  0  0  0  0  0  0  0  0  0
  150.6417  138.6295  153.8720 C   0  0  0  0  0  0  0  0  0  0  0  0
  150.4475  139.8407  154.4318 N   0  0  0  0  0  0  0  0  0  0  0  0
  150.9917  140.0993  155.6457 C   0  0  0  0  0  0  0  0  0  0  0  0
  150.8515  141.3385  156.3252 N   0  0  0  0  0  0  0  0  0  0  0  0
  150.9623  141.5859  157.6436 C   0  0  0  0  0  0  0  0  0  0  0  0
  151.2016  140.7311  158.4975 O   0  0  0  0  0  0  0  0  0  0  0  0
  150.7461  143.0469  158.0583 C   0  0  2  0  0  0  0  0  0  0  0  0
  151.8520  144.0110  157.5916 C   0  0  0  0  0  0  0  0  0  0  0  0
  152.6461  144.2704  158.8550 C   0  0  0  0  0  0  0  0  0  0  0  0
  151.5591  144.1878  159.9209 C   0  0  2  0  0  0  0  0  0  0  0  0
  152.0871  143.9285  161.3355 C   0  0  0  0  0  0  0  0  0  0  0  0
  150.7519  143.1034  159.4842 O   0  0  0  0  0  0  0  0  0  0  0  0
  151.7528  139.1251  156.3294 C   0  0  0  0  0  0  0  0  0  0  0  0
  153.3240  136.2464  158.2971 H   0  0  0  0  0  0  0  0  0  0  0  0
  151.6784  136.8678  158.2682 H   0  0  0  0  0  0  0  0  0  0  0  0
  153.0632  137.9854  158.2334 H   0  0  0  0  0  0  0  0  0  0  0  0
  151.4995  136.6606  153.9741 H   0  0  0  0  0  0  0  0  0  0  0  0
  150.1893  138.4721  152.9041 H   0  0  0  0  0  0  0  0  0  0  0  0
  150.6371  142.1329  155.7405 H   0  0  0  0  0  0  0  0  0  0  0  0
  149.7802  143.3954  157.6889 H   0  0  0  0  0  0  0  0  0  0  0  0
  152.4734  143.6250  156.7826 H   0  0  0  0  0  0  0  0  0  0  0  0
  151.4026  144.9406  157.2394 H   0  0  0  0  0  0  0  0  0  0  0  0
  153.3860  143.4816  158.9991 H   0  0  0  0  0  0  0  0  0  0  0  0
  153.1633  145.2301  158.8455 H   0  0  0  0  0  0  0  0  0  0  0  0
  150.9559  145.0970  159.9046 H   0  0  0  0  0  0  0  0  0  0  0  0
  152.7304  144.7434  161.6682 H   0  0  0  0  0  0  0  0  0  0  0  0
  152.6654  143.0052  161.3785 H   0  0  0  0  0  0  0  0  0  0  0  0
  151.2657  143.8402  162.0468 H   0  0  0  0  0  0  0  0  0  0  0  0
  152.1798  139.3466  157.2970 H   0  0  0  0  0  0  0  0  0  0  0  0
  1  2  1  0  0  0  0
  1 18  1  0  0  0  0
  1 19  1  0  0  0  0
  1 20  1  0  0  0  0
  2  3  1  0  0  0  0
  3 17  1  0  0  0  0
  3  4  2  0  0  0  0
  4  5  1  0  0  0  0
  4 21  1  0  0  0  0
  5  6  2  0  0  0  0
  5 22  1  0  0  0  0
  6  7  1  0  0  0  0
  7  8  1  0  0  0  0
  7 17  2  0  0  0  0
  8  9  1  0  0  0  0
  8 23  1  0  0  0  0
  9 10  2  0  0  0  0
  9 11  1  0  0  0  0
 11 16  1  0  0  0  0
 11 12  1  0  0  0  0
 11 24  1  0  0  0  0
 12 13  1  0  0  0  0
 12 25  1  0  0  0  0
 12 26  1  0  0  0  0
 13 14  1  0  0  0  0
 13 27  1  0  0  0  0
 13 28  1  0  0  0  0
 14 15  1  0  0  0  0
 14 16  1  0  0  0  0
 14 29  1  0  0  0  0
 15 30  1  0  0  0  0
 15 31  1  0  0  0  0
 15 32  1  0  0  0  0
 17 33  1  0  0  0  0
M  END
> <s_m_source_file>
AV-unprocessed.smi

> <i_m_source_file_index>
2489

> <i_lp_mmshare_version>
43012

> <i_f3d_flags>
0

> <s_epik_input>
W0NIM11PYzFbY0hdW2NIXW5jKFtjSF0xKVtOSF1DKD1PKVtDQEBIXTJbQ0gyXVtDSDJdW0NASF0oTzIpW0NIM10=

> <s_epik_cmdline>
J2VwaWtfcHl0aG9uJywgJy1waCcsICc3LjAnLCAnLXRuJywgJzgnLCAnLW1hJywgJzIwMCcsICctbWV0YWxfYmluZGluZycsICctaW1hZScsICc8aW5maWxlLm1hZT4nLCAnLW9tYWUnLCAnPG91dGZpbGUubWFlPic=

> <r_epik_Ionization_Penalty>
0.0871917

> <r_epik_Ionization_Penalty_Charging>
0

> <r_epik_Ionization_Penalty_Neutral>
0.0871917

> <r_epik_State_Penalty>
0.146479

> <r_epik_Charging_Adjusted_Penalty>
0.146479

> <i_epik_Tot_Q>
0

> <i_epik_Tot_abs_Q>
0

> <r_epik_Metal_State_Penalty>
0.067489

> <b_epik_Metal_Only>
0

> <s_lp_Force_Field>
OPLS_2005

> <r_lp_Energy>
22.1888

> <b_lp_Chiralities_Consistent>
1

> <s_lp_Variant>
AV-unprocessed.smi:2489-3

> <Gold.Version>
5.8.1

> <Gold.Id.Protein>
6NUR|6NUR_protein|mol2

> <Gold.PLP.Fitness>
44.5658

> <Gold.PLP.PLP>
-35.9073

> <Gold.PLP.part.hbond>
-2.2535

> <Gold.PLP.part.metal>
0.0000

> <Gold.PLP.part.buried>
-5.5989

> <Gold.PLP.part.nonpolar>
-28.5030

> <Gold.PLP.part.repulsive>
0.2613

> <Gold.PLP.ligand.clash>
0.0000

> <Gold.PLP.ligand.torsion>
0.5887

> <Gold.PLP.Chemscore.Hbond>
1.6120

> <Gold.PLP.Chemscore.CHOScore>
1.6629

> <Gold.PLP.Chemscore.Metal>
0.0000

> <Gold.Chemscore.Hbonds>
donor molecule, donor type, donor heavy atom, donor atom, acceptor molecule, acceptor atom, score
      P1  H  7989  7998       L1     6  0.80
      P1  H 10752 10765       L1     2  0.89
      L1  C     5    22       P1  7948  0.55
      L1  C     5    22       P1  7957  1.00

> <Gold.PLP.Chemscore.Internal.Correction>
0.0111

> <Gold.Rescore>
     Score         DG    S(hbond)    S(metal)    S(lipo)     H(rot)  DE(clash)    DE(int)     intcor
     13.99     -16.13       0.91        0.00      91.96       1.23       0.06       2.08       ----

> <Gold.Chemscore.Fitness>
13.9929

> <Gold.Chemscore.DG>
-16.1297

> <Gold.Chemscore.ZeroCoef>
-5.4800

> <Gold.Chemscore.Hbond>
0.9071

> <Gold.Chemscore.Metal>
0.0000

> <Gold.Chemscore.Lipo>
91.9615

> <Gold.Chemscore.Internal_Hbond>
0.0000

> <Gold.Chemscore.DEClash>
0.0553

> <Gold.Chemscore.DEInternal>
2.0815

> <Gold.Chemscore.Rot>
1.2264

> <Gold.Chemscore.Internal.Correction>
   9.000000E+99

> <Gold.Chemscore.Hbonds>
donor molecule, donor type, donor heavy atom, donor atom, acceptor molecule, acceptor atom, score
      P1  H  7989  7998       L1     6  0.04
      P1  H 10752 10765       L1     2  0.49

> <Gold.Chemscore.Hbond.Weighted>
-3.0297

> <Gold.Chemscore.Metal.Weighted>
-0.0000

> <Gold.Chemscore.Lipo.Weighted>
-10.7595

> <Gold.Chemscore.Internal_Hbond.Weighted>
0.0000

> <Gold.Chemscore.DEClash.Weighted>
0.0553

> <Gold.Chemscore.DEInternal.Weighted>
2.0815

> <Gold.Chemscore.Rot.Weighted>
3.1396

> <Gold.Chemscore.Internal.Correction.Weighted>
   9.000000E+99

> <Gold.Protein.RotatedTorsions>
[ 6907 6896 6895 6894 ] final  -34.61 input  -60.11 | X-H torsion
[ 7974 7965 7964 7962 ] final -161.57 input  175.53 | X-H torsion
[ 8008 7997 7996 7995 ] final  -49.27 input   59.86 | X-H torsion
[ 10167 10162 10161 10158 ] final   -7.11 input  -65.29 | X-H torsion
[ 10718 10713 10712 10709 ] final  -74.03 input   66.30 | X-H torsion
[ 10763 10752 10751 10750 ] final -141.61 input  -60.55 | X-H torsion
[ 11005 11000 10999 10996 ] final -156.31 input  -57.11 | X-H torsion

> <Gold.Protein.ActiveResidues>
 VAL166  LYS551  ARG553  GLY616  TRP617  ASP618  TYR619  PRO620  LYS621  CYS622 
 ASP623  PHE694  ASN695  SER759  ASP760  ASP761  ALA762  ILE779  LEU786  VAL792 
 PHE793  MET794  SER795  GLU796  ALA797  LYS798  CYS799  TRP800  GLU811  SER814 

> <Gold.Protein.RotatedAtoms>
  151.0505  134.9669  159.8208 H   0  0  0  0  0  0  0  0  0  0  0  0  # atno 6907 bound_to 6896
  152.5380  134.2544  159.8921 H   0  0  0  0  0  0  0  0  0  0  0  0  # atno 6908 bound_to 6896
  151.2559  133.4283  159.2647 H   0  0  0  0  0  0  0  0  0  0  0  0  # atno 6909 bound_to 6896
  144.7386  140.3378  143.6140 H   0  0  0  0  0  0  0  0  0  0  0  0  # atno 7974 bound_to 7965
  154.4041  140.1301  156.4476 H   0  0  0  0  0  0  0  0  0  0  0  0  # atno 8008 bound_to 7997
  155.7398  140.3490  155.5079 H   0  0  0  0  0  0  0  0  0  0  0  0  # atno 8009 bound_to 7997
  155.9050  140.1026  157.1312 H   0  0  0  0  0  0  0  0  0  0  0  0  # atno 8010 bound_to 7997
  140.7019  143.6117  150.8697 H   0  0  0  0  0  0  0  0  0  0  0  0  # atno 10167 bound_to 10162
  156.0258  130.4407  150.2831 H   0  0  0  0  0  0  0  0  0  0  0  0  # atno 10718 bound_to 10713
  154.8539  135.3519  154.5895 H   0  0  0  0  0  0  0  0  0  0  0  0  # atno 10763 bound_to 10752
  153.6505  135.6994  153.5215 H   0  0  0  0  0  0  0  0  0  0  0  0  # atno 10764 bound_to 10752
  153.2898  135.4238  155.1114 H   0  0  0  0  0  0  0  0  0  0  0  0  # atno 10765 bound_to 10752
  140.6770  134.4186  157.5229 H   0  0  0  0  0  0  0  0  0  0  0  0  # atno 11005 bound_to 11000
  145.7405  139.1763  143.2378 LP  0  0  0  0  0  0  0  0  0  0  0  0  # atno 17320 bound_to 7965
  146.1137  140.7396  142.9491 LP  0  0  0  0  0  0  0  0  0  0  0  0  # atno 17321 bound_to 7965
  139.9840  143.5920  152.2933 LP  0  0  0  0  0  0  0  0  0  0  0  0  # atno 17342 bound_to 10162
  139.6551  144.7662  151.2071 LP  0  0  0  0  0  0  0  0  0  0  0  0  # atno 17343 bound_to 10162
  157.0934  131.0176  151.3113 LP  0  0  0  0  0  0  0  0  0  0  0  0  # atno 17370 bound_to 10713
  157.4836  130.7780  149.7438 LP  0  0  0  0  0  0  0  0  0  0  0  0  # atno 17371 bound_to 10713
  139.8964  134.8661  156.2091 LP  0  0  0  0  0  0  0  0  0  0  0  0  # atno 17394 bound_to 11000
  141.0348  133.6969  156.1493 LP  0  0  0  0  0  0  0  0  0  0  0  0  # atno 17395 bound_to 11000

$$$$
