AV-unprocessed.smi:148|AV-procd|sdf|1224|dock8
  -GOLD-   2262018423D 1   1.00000     0.00000
 Structure written by MMmdl.
 63 67  0  0  0  0  0  0  0  0  1 V2000
  145.9858  138.1089  160.2661 O   0  0  0  0  0  0  0  0  0  0  0  0
  145.1506  137.0204  160.5995 C   0  0  0  0  0  0  0  0  0  0  0  0
  145.8488  136.0295  161.5672 C   0  0  2  0  0  0  0  0  0  0  0  0
  146.8407  135.1060  160.8127 C   0  0  0  0  0  0  0  0  0  0  0  0
  147.8232  135.8258  160.0208 N   0  0  0  0  0  0  0  0  0  0  0  0
  149.0344  136.3165  160.4559 C   0  0  0  0  0  0  0  0  0  0  0  0
  149.7441  136.9323  159.5500 N   0  0  0  0  0  0  0  0  0  0  0  0
  148.9568  136.8672  158.4082 C   0  0  0  0  0  0  0  0  0  0  0  0
  149.1092  137.3377  157.0784 C   0  0  0  0  0  0  0  0  0  0  0  0
  150.2133  138.0073  156.6823 N   0  0  0  0  0  0  0  0  0  0  0  0
  151.4154  137.2405  157.0170 C   0  0  0  0  0  0  0  0  0  0  0  0
  152.6793  138.0932  156.8724 C   0  0  0  0  0  0  0  0  0  0  0  0
  152.7549  138.6677  155.4572 C   0  0  0  0  0  0  0  0  0  0  0  0
  151.4765  139.4562  155.1447 C   0  0  0  0  0  0  0  0  0  0  0  0
  150.1862  138.6124  155.3344 C   0  0  2  0  0  0  0  0  0  0  0  0
  148.9132  139.4879  155.0567 C   0  0  1  0  0  0  0  0  0  0  0  0
  149.1925  140.8860  154.4720 C   0  0  0  0  0  0  0  0  0  0  0  0
  147.8698  141.3810  153.8757 C   0  0  0  0  0  0  0  0  0  0  0  0
  146.9824  140.1417  153.7176 C   0  0  0  0  0  0  0  0  0  0  0  0
  147.8679  138.9383  154.0579 C   0  0  1  0  0  0  0  0  0  0  0  0
  148.4842  138.4755  152.8707 O   0  0  0  0  0  0  0  0  0  0  0  0
  148.1078  137.0893  156.1933 N   0  0  0  0  0  0  0  0  0  0  0  0
  147.0156  136.4304  156.5935 C   0  0  0  0  0  0  0  0  0  0  0  0
  146.7317  135.9393  157.8027 N   0  0  0  0  0  0  0  0  0  0  0  0
  147.7425  136.1811  158.6862 C   0  0  0  0  0  0  0  0  0  0  0  0
  144.8283  135.1780  162.3732 C   0  0  1  0  0  0  0  0  0  0  0  0
  143.6147  135.9416  162.8782 C   0  0  0  0  0  0  0  0  0  0  0  0
  142.6307  134.8229  163.2014 C   0  0  0  0  0  0  0  0  0  0  0  0
  142.9181  133.7782  162.2801 O   0  0  0  0  0  0  0  0  0  0  0  0
  144.1295  134.0616  161.5881 C   0  0  0  0  0  0  0  0  0  0  0  0
  145.5538  138.6288  159.6055 H   0  0  0  0  0  0  0  0  0  0  0  0
  144.2201  137.3917  161.0296 H   0  0  0  0  0  0  0  0  0  0  0  0
  144.8910  136.5452  159.6548 H   0  0  0  0  0  0  0  0  0  0  0  0
  146.4356  136.6161  162.2756 H   0  0  0  0  0  0  0  0  0  0  0  0
  147.3935  134.4785  161.5118 H   0  0  0  0  0  0  0  0  0  0  0  0
  146.2947  134.4292  160.1540 H   0  0  0  0  0  0  0  0  0  0  0  0
  149.3808  136.1962  161.4720 H   0  0  0  0  0  0  0  0  0  0  0  0
  151.3474  136.8651  158.0395 H   0  0  0  0  0  0  0  0  0  0  0  0
  151.4864  136.3705  156.3625 H   0  0  0  0  0  0  0  0  0  0  0  0
  152.6658  138.9030  157.6032 H   0  0  0  0  0  0  0  0  0  0  0  0
  153.5642  137.4928  157.0842 H   0  0  0  0  0  0  0  0  0  0  0  0
  153.6289  139.3120  155.3587 H   0  0  0  0  0  0  0  0  0  0  0  0
  152.8767  137.8595  154.7350 H   0  0  0  0  0  0  0  0  0  0  0  0
  151.4339  140.3376  155.7866 H   0  0  0  0  0  0  0  0  0  0  0  0
  151.5553  139.8222  154.1217 H   0  0  0  0  0  0  0  0  0  0  0  0
  150.2230  137.8002  154.6078 H   0  0  0  0  0  0  0  0  0  0  0  0
  148.4066  139.6485  156.0103 H   0  0  0  0  0  0  0  0  0  0  0  0
  149.5786  141.5817  155.2177 H   0  0  0  0  0  0  0  0  0  0  0  0
  149.9344  140.8126  153.6756 H   0  0  0  0  0  0  0  0  0  0  0  0
  147.3918  142.1037  154.5381 H   0  0  0  0  0  0  0  0  0  0  0  0
  148.0388  141.8768  152.9194 H   0  0  0  0  0  0  0  0  0  0  0  0
  146.1634  140.1985  154.4359 H   0  0  0  0  0  0  0  0  0  0  0  0
  146.5326  140.0709  152.7260 H   0  0  0  0  0  0  0  0  0  0  0  0
  147.2571  138.1372  154.4684 H   0  0  0  0  0  0  0  0  0  0  0  0
  148.6761  139.2208  152.3224 H   0  0  0  0  0  0  0  0  0  0  0  0
  146.2614  136.2756  155.8363 H   0  0  0  0  0  0  0  0  0  0  0  0
  145.3316  134.7320  163.2327 H   0  0  0  0  0  0  0  0  0  0  0  0
  143.8255  136.5657  163.7470 H   0  0  0  0  0  0  0  0  0  0  0  0
  143.2110  136.5787  162.0897 H   0  0  0  0  0  0  0  0  0  0  0  0
  142.7981  134.4489  164.2121 H   0  0  0  0  0  0  0  0  0  0  0  0
  141.5924  135.1470  163.1269 H   0  0  0  0  0  0  0  0  0  0  0  0
  143.8755  134.3974  160.5815 H   0  0  0  0  0  0  0  0  0  0  0  0
  144.7418  133.1638  161.5019 H   0  0  0  0  0  0  0  0  0  0  0  0
  1  2  1  0  0  0  0
  1 31  1  0  0  0  0
  2  3  1  0  0  0  0
  2 32  1  0  0  0  0
  2 33  1  0  0  0  0
  3  4  1  0  0  0  0
  3 26  1  0  0  0  0
  3 34  1  0  0  0  0
  4  5  1  0  0  0  0
  4 35  1  0  0  0  0
  4 36  1  0  0  0  0
  5 25  1  0  0  0  0
  5  6  1  0  0  0  0
  6  7  2  0  0  0  0
  6 37  1  0  0  0  0
  7  8  1  0  0  0  0
  8 25  2  0  0  0  0
  8  9  1  0  0  0  0
  9 10  1  0  0  0  0
  9 22  2  0  0  0  0
 10 15  1  0  0  0  0
 10 11  1  0  0  0  0
 11 12  1  0  0  0  0
 11 38  1  0  0  0  0
 11 39  1  0  0  0  0
 12 13  1  0  0  0  0
 12 40  1  0  0  0  0
 12 41  1  0  0  0  0
 13 14  1  0  0  0  0
 13 42  1  0  0  0  0
 13 43  1  0  0  0  0
 14 15  1  0  0  0  0
 14 44  1  0  0  0  0
 14 45  1  0  0  0  0
 15 16  1  0  0  0  0
 15 46  1  0  0  0  0
 16 20  1  0  0  0  0
 16 17  1  0  0  0  0
 16 47  1  0  0  0  0
 17 18  1  0  0  0  0
 17 48  1  0  0  0  0
 17 49  1  0  0  0  0
 18 19  1  0  0  0  0
 18 50  1  0  0  0  0
 18 51  1  0  0  0  0
 19 20  1  0  0  0  0
 19 52  1  0  0  0  0
 19 53  1  0  0  0  0
 20 21  1  0  0  0  0
 20 54  1  0  0  0  0
 21 55  1  0  0  0  0
 22 23  1  0  0  0  0
 23 24  2  0  0  0  0
 23 56  1  0  0  0  0
 24 25  1  0  0  0  0
 26 30  1  0  0  0  0
 26 27  1  0  0  0  0
 26 57  1  0  0  0  0
 27 28  1  0  0  0  0
 27 58  1  0  0  0  0
 27 59  1  0  0  0  0
 28 29  1  0  0  0  0
 28 60  1  0  0  0  0
 28 61  1  0  0  0  0
 29 30  1  0  0  0  0
 30 62  1  0  0  0  0
 30 63  1  0  0  0  0
M  END
> <s_m_source_file>
AV-unprocessed.smi

> <i_m_source_file_index>
148

> <i_lp_mmshare_version>
43012

> <i_f3d_flags>
0

> <s_epik_input>
W0NIMl0xT1tDSDJdW0NIMl1bQ0BIXTFbQ0BIXShbQ0gyXVtPSF0pW0NIMl1uKFtjSF1uMiljKGMyMyluW2NIXW5jM040W0NIMl1bQ0gyXVtDSDJdW0NIMl1bQ0BIXTRbQ0BASF01W0NIMl1bQ0gyXVtDSDJdW0NASF01W09IXQ==

> <s_epik_cmdline>
J2VwaWtfcHl0aG9uJywgJy1waCcsICc3LjAnLCAnLXRuJywgJzgnLCAnLW1hJywgJzIwMCcsICctbWV0YWxfYmluZGluZycsICctaW1hZScsICc8aW5maWxlLm1hZT4nLCAnLW9tYWUnLCAnPG91dGZpbGUubWFlPic=

> <r_lp_tautomer_probability>
1

> <r_epik_Ionization_Penalty>
0.00556303

> <r_epik_Ionization_Penalty_Charging>
0

> <r_epik_Ionization_Penalty_Neutral>
0.00556303

> <r_epik_State_Penalty>
0.00401767

> <r_epik_Charging_Adjusted_Penalty>
0.00401767

> <i_epik_Tot_Q>
0

> <i_epik_Tot_abs_Q>
0

> <r_epik_Metal_State_Penalty>
-0

> <b_epik_Metal_Only>
0

> <s_lp_Force_Field>
OPLS_2005

> <r_lp_Energy>
70.7604

> <b_lp_Chiralities_Consistent>
1

> <s_lp_Variant>
AV-unprocessed.smi:148-23

> <Gold.Version>
5.8.1

> <Gold.Id.Protein>
6NUR|6NUR_protein|mol2

> <Gold.PLP.Fitness>
39.6579

> <Gold.PLP.PLP>
-37.6791

> <Gold.PLP.part.hbond>
-2.8995

> <Gold.PLP.part.metal>
0.0000

> <Gold.PLP.part.buried>
-6.3930

> <Gold.PLP.part.nonpolar>
-29.8209

> <Gold.PLP.part.repulsive>
0.1150

> <Gold.PLP.ligand.clash>
0.0000

> <Gold.PLP.ligand.torsion>
2.3049

> <Gold.PLP.Chemscore.Hbond>
1.9684

> <Gold.PLP.Chemscore.CHOScore>
0.0000

> <Gold.PLP.Chemscore.Metal>
0.0000

> <Gold.Chemscore.Hbonds>
donor molecule, donor type, donor heavy atom, donor atom, acceptor molecule, acceptor atom, score
      L1  H    21    55       P1  7957  1.00
      P1  H  6896  6908       L1     7  0.02
      P1  H  6934  6947       L1     1  0.91

> <Gold.PLP.Chemscore.Internal.Correction>
0.6834

> <Gold.Rescore>
     Score         DG    S(hbond)    S(metal)    S(lipo)     H(rot)  DE(clash)    DE(int)     intcor
      9.23     -14.53       1.74        0.00     100.27       3.32       0.25       5.05       ----

> <Gold.Chemscore.Fitness>
9.2292

> <Gold.Chemscore.DG>
-14.5315

> <Gold.Chemscore.ZeroCoef>
-5.4800

> <Gold.Chemscore.Hbond>
1.7426

> <Gold.Chemscore.Metal>
0.0000

> <Gold.Chemscore.Lipo>
100.2678

> <Gold.Chemscore.Internal_Hbond>
0.0000

> <Gold.Chemscore.DEClash>
0.2539

> <Gold.Chemscore.DEInternal>
5.0483

> <Gold.Chemscore.Rot>
3.3203

> <Gold.Chemscore.Internal.Correction>
   9.000000E+99

> <Gold.Chemscore.Hbonds>
donor molecule, donor type, donor heavy atom, donor atom, acceptor molecule, acceptor atom, score
      L1  H    21    55       P1  7957  0.96
      P1  H  6934  6947       L1     1  0.49

> <Gold.Chemscore.Hbond.Weighted>
-5.8202

> <Gold.Chemscore.Metal.Weighted>
-0.0000

> <Gold.Chemscore.Lipo.Weighted>
-11.7313

> <Gold.Chemscore.Internal_Hbond.Weighted>
0.0000

> <Gold.Chemscore.DEClash.Weighted>
0.2539

> <Gold.Chemscore.DEInternal.Weighted>
5.0483

> <Gold.Chemscore.Rot.Weighted>
8.5000

> <Gold.Chemscore.Internal.Correction.Weighted>
   9.000000E+99

> <Gold.Protein.RotatedTorsions>
[ 6907 6896 6895 6894 ] final -143.98 input  -60.11 | X-H torsion
[ 7974 7965 7964 7962 ] final -177.01 input  175.53 | X-H torsion
[ 8008 7997 7996 7995 ] final -168.73 input   59.86 | X-H torsion
[ 10167 10162 10161 10158 ] final   86.75 input  -65.29 | X-H torsion
[ 10718 10713 10712 10709 ] final  -41.52 input   66.30 | X-H torsion
[ 10763 10752 10751 10750 ] final -176.42 input  -60.55 | X-H torsion
[ 11005 11000 10999 10996 ] final -164.70 input  -57.11 | X-H torsion

> <Gold.Protein.ActiveResidues>
 VAL166  LYS551  ARG553  GLY616  TRP617  ASP618  TYR619  PRO620  LYS621  CYS622 
 ASP623  PHE694  ASN695  SER759  ASP760  ASP761  ALA762  ILE779  LEU786  VAL792 
 PHE793  MET794  SER795  GLU796  ALA797  LYS798  CYS799  TRP800  GLU811  SER814 

> <Gold.Protein.RotatedAtoms>
  151.1078  133.5195  159.2606 H   0  0  0  0  0  0  0  0  0  0  0  0  # atno 6907 bound_to 6896
  151.2001  135.0438  159.8878 H   0  0  0  0  0  0  0  0  0  0  0  0  # atno 6908 bound_to 6896
  152.5448  134.0908  159.8329 H   0  0  0  0  0  0  0  0  0  0  0  0  # atno 6909 bound_to 6896
  144.7127  140.1084  143.6412 H   0  0  0  0  0  0  0  0  0  0  0  0  # atno 7974 bound_to 7965
  155.8953  140.1032  157.1389 H   0  0  0  0  0  0  0  0  0  0  0  0  # atno 8008 bound_to 7997
  154.4019  140.1303  156.4432 H   0  0  0  0  0  0  0  0  0  0  0  0  # atno 8009 bound_to 7997
  155.7486  140.3465  155.5141 H   0  0  0  0  0  0  0  0  0  0  0  0  # atno 8010 bound_to 7997
  139.8843  144.6422  150.8808 H   0  0  0  0  0  0  0  0  0  0  0  0  # atno 10167 bound_to 10162
  156.2695  130.4205  149.8453 H   0  0  0  0  0  0  0  0  0  0  0  0  # atno 10718 bound_to 10713
  154.5726  135.2829  155.0812 H   0  0  0  0  0  0  0  0  0  0  0  0  # atno 10763 bound_to 10752
  154.2179  135.6396  153.5139 H   0  0  0  0  0  0  0  0  0  0  0  0  # atno 10764 bound_to 10752
  153.0062  135.5507  154.6354 H   0  0  0  0  0  0  0  0  0  0  0  0  # atno 10765 bound_to 10752
  140.5840  134.5113  157.5183 H   0  0  0  0  0  0  0  0  0  0  0  0  # atno 11005 bound_to 11000
  145.9476  139.2711  143.1231 LP  0  0  0  0  0  0  0  0  0  0  0  0  # atno 17320 bound_to 7965
  145.9357  140.9016  143.0333 LP  0  0  0  0  0  0  0  0  0  0  0  0  # atno 17321 bound_to 7965
  140.7739  143.3560  151.1920 LP  0  0  0  0  0  0  0  0  0  0  0  0  # atno 17342 bound_to 10162
  139.7167  143.9289  152.2969 LP  0  0  0  0  0  0  0  0  0  0  0  0  # atno 17343 bound_to 10162
  156.5940  130.8518  151.3415 LP  0  0  0  0  0  0  0  0  0  0  0  0  # atno 17370 bound_to 10713
  157.7279  130.9649  150.1719 LP  0  0  0  0  0  0  0  0  0  0  0  0  # atno 17371 bound_to 10713
  139.9304  134.7974  156.0947 LP  0  0  0  0  0  0  0  0  0  0  0  0  # atno 17394 bound_to 11000
  141.0978  133.6689  156.2685 LP  0  0  0  0  0  0  0  0  0  0  0  0  # atno 17395 bound_to 11000

$$$$
