AV-unprocessed.smi:209|AV-procd|sdf|1607|dock2
  -GOLD-   2262019523D 1   1.00000     0.00000
 Structure written by MMmdl.
 48 52  0  0  0  0  0  0  0  0  1 V2000
  143.4303  132.0133  149.3919 O   0  0  0  0  0  0  0  0  0  0  0  0
  144.1438  132.8573  149.9299 C   0  0  0  0  0  0  0  0  0  0  0  0
  143.7786  134.0946  150.2611 N   0  0  0  0  0  0  0  0  0  0  0  0
  144.8174  134.8265  150.9657 C   0  0  0  0  0  0  0  0  0  0  0  0
  145.8695  133.7519  151.3368 C   0  0  2  0  0  0  0  0  0  0  0  0
  145.6079  132.6431  150.2878 C   0  0  1  0  0  0  0  0  0  0  0  0
  146.0083  131.2143  150.7128 C   0  0  0  0  0  0  0  0  0  0  0  0
  145.6329  130.9155  152.1666 C   0  0  0  0  0  0  0  0  0  0  0  0
  146.2172  131.9937  153.0838 C   0  0  0  0  0  0  0  0  0  0  0  0
  145.6794  133.3041  152.7293 N   0  0  0  0  0  0  0  0  0  0  0  0
  145.8613  134.2152  153.7196 C   0  0  0  0  0  0  0  0  0  0  0  0
  144.8014  134.9123  154.2099 N   0  0  0  0  0  0  0  0  0  0  0  0
  144.9786  135.8147  155.1794 C   0  0  0  0  0  0  0  0  0  0  0  0
  146.1097  136.1710  155.7912 N   0  0  0  0  0  0  0  0  0  0  0  0
  147.1760  135.4740  155.3045 C   0  0  0  0  0  0  0  0  0  0  0  0
  147.1407  134.4879  154.2790 C   0  0  0  0  0  0  0  0  0  0  0  0
  148.4185  133.9892  154.0577 N   0  0  0  0  0  0  0  0  0  0  0  0
  149.1675  134.6473  154.9000 C   0  0  0  0  0  0  0  0  0  0  0  0
  148.5045  135.5658  155.6829 N   0  0  0  0  0  0  0  0  0  0  0  0
  149.0855  136.4272  156.7018 C   0  0  0  0  0  0  0  0  0  0  0  0
  148.5139  136.1987  158.1136 C   0  0  0  0  0  0  0  0  0  0  0  0
  148.2249  134.6943  158.2909 C   0  0  0  0  0  0  0  0  0  0  0  0
  149.3886  133.9012  158.1641 O   0  0  0  0  0  0  0  0  0  0  0  0
  149.2994  136.8779  159.2445 C   0  0  0  0  0  0  0  0  0  0  0  0
  148.1201  137.5459  159.7447 O   0  0  0  0  0  0  0  0  0  0  0  0
  147.3976  137.1555  158.5560 C   0  0  0  0  0  0  0  0  0  0  0  0
  146.8815  134.1409  151.2174 H   0  0  0  0  0  0  0  0  0  0  0  0
  146.1596  132.8883  149.3790 H   0  0  0  0  0  0  0  0  0  0  0  0
  142.8530  134.4701  150.1124 H   0  0  0  0  0  0  0  0  0  0  0  0
  145.2457  135.5603  150.2819 H   0  0  0  0  0  0  0  0  0  0  0  0
  144.4048  135.3684  151.8172 H   0  0  0  0  0  0  0  0  0  0  0  0
  145.5603  130.4726  150.0502 H   0  0  0  0  0  0  0  0  0  0  0  0
  147.0872  131.1041  150.5974 H   0  0  0  0  0  0  0  0  0  0  0  0
  144.5484  130.8774  152.2770 H   0  0  0  0  0  0  0  0  0  0  0  0
  146.0116  129.9344  152.4542 H   0  0  0  0  0  0  0  0  0  0  0  0
  145.9908  131.7412  154.1200 H   0  0  0  0  0  0  0  0  0  0  0  0
  147.3044  132.0163  152.9958 H   0  0  0  0  0  0  0  0  0  0  0  0
  144.0866  136.3253  155.5111 H   0  0  0  0  0  0  0  0  0  0  0  0
  150.2315  134.4761  154.9735 H   0  0  0  0  0  0  0  0  0  0  0  0
  150.1668  136.2838  156.7005 H   0  0  0  0  0  0  0  0  0  0  0  0
  148.9274  137.4595  156.3871 H   0  0  0  0  0  0  0  0  0  0  0  0
  147.8024  134.4876  159.2742 H   0  0  0  0  0  0  0  0  0  0  0  0
  147.4984  134.3495  157.5545 H   0  0  0  0  0  0  0  0  0  0  0  0
  149.6361  133.8730  157.2525 H   0  0  0  0  0  0  0  0  0  0  0  0
  149.7327  136.1890  159.9704 H   0  0  0  0  0  0  0  0  0  0  0  0
  150.0490  137.5908  158.8977 H   0  0  0  0  0  0  0  0  0  0  0  0
  147.2440  138.0026  157.8868 H   0  0  0  0  0  0  0  0  0  0  0  0
  146.4507  136.6643  158.7830 H   0  0  0  0  0  0  0  0  0  0  0  0
  1  2  2  0  0  0  0
  2  6  1  0  0  0  0
  2  3  1  0  0  0  0
  3  4  1  0  0  0  0
  3 29  1  0  0  0  0
  4  5  1  0  0  0  0
  4 30  1  0  0  0  0
  4 31  1  0  0  0  0
  5 27  1  0  0  0  0
  5 10  1  0  0  0  0
  5  6  1  0  0  0  0
  6 28  1  0  0  0  0
  6  7  1  0  0  0  0
  7  8  1  0  0  0  0
  7 32  1  0  0  0  0
  7 33  1  0  0  0  0
  8  9  1  0  0  0  0
  8 34  1  0  0  0  0
  8 35  1  0  0  0  0
  9 10  1  0  0  0  0
  9 36  1  0  0  0  0
  9 37  1  0  0  0  0
 10 11  1  0  0  0  0
 11 16  1  0  0  0  0
 11 12  2  0  0  0  0
 12 13  1  0  0  0  0
 13 14  2  0  0  0  0
 13 38  1  0  0  0  0
 14 15  1  0  0  0  0
 15 19  1  0  0  0  0
 15 16  2  0  0  0  0
 16 17  1  0  0  0  0
 17 18  2  0  0  0  0
 18 19  1  0  0  0  0
 18 39  1  0  0  0  0
 19 20  1  0  0  0  0
 20 21  1  0  0  0  0
 20 40  1  0  0  0  0
 20 41  1  0  0  0  0
 21 26  1  0  0  0  0
 21 22  1  0  0  0  0
 21 24  1  0  0  0  0
 22 23  1  0  0  0  0
 22 42  1  0  0  0  0
 22 43  1  0  0  0  0
 23 44  1  0  0  0  0
 24 25  1  0  0  0  0
 24 45  1  0  0  0  0
 24 46  1  0  0  0  0
 25 26  1  0  0  0  0
 26 47  1  0  0  0  0
 26 48  1  0  0  0  0
M  END
> <s_m_source_file>
AV-unprocessed.smi

> <i_m_source_file_index>
209

> <i_lp_mmshare_version>
43012

> <i_f3d_flags>
0

> <s_epik_input>
W0NIMl0xW05IXUMoPU8pW0NAQEhdKFtDQEBIXTEyKVtDSDJdW0NIMl1bQ0gyXU4yYyhuW2NIXW4zKWMoYzM0KW5bY0hdbjRbQ0gyXUM1KFtDSDJdW09IXSlbQ0gyXU9bQ0gyXTU=

> <s_epik_cmdline>
J2VwaWtfcHl0aG9uJywgJy1waCcsICc3LjAnLCAnLXRuJywgJzgnLCAnLW1hJywgJzIwMCcsICctbWV0YWxfYmluZGluZycsICctaW1hZScsICc8aW5maWxlLm1hZT4nLCAnLW9tYWUnLCAnPG91dGZpbGUubWFlPic=

> <r_lp_tautomer_probability>
1

> <r_epik_Ionization_Penalty>
0.00113306

> <r_epik_Ionization_Penalty_Charging>
0

> <r_epik_Ionization_Penalty_Neutral>
0.00113306

> <r_epik_State_Penalty>
0.000624042

> <r_epik_Charging_Adjusted_Penalty>
0.000624042

> <i_epik_Tot_Q>
0

> <i_epik_Tot_abs_Q>
0

> <r_epik_Metal_State_Penalty>
-0

> <b_epik_Metal_Only>
0

> <s_lp_Force_Field>
OPLS_2005

> <r_lp_Energy>
50.3938

> <b_lp_Chiralities_Consistent>
1

> <s_lp_Variant>
AV-unprocessed.smi:209-1

> <Gold.Version>
5.8.1

> <Gold.Id.Protein>
6NUR|6NUR_protein|mol2

> <Gold.PLP.Fitness>
39.1637

> <Gold.PLP.PLP>
-29.6052

> <Gold.PLP.part.hbond>
-4.8273

> <Gold.PLP.part.metal>
0.0000

> <Gold.PLP.part.buried>
-6.1146

> <Gold.PLP.part.nonpolar>
-20.3830

> <Gold.PLP.part.repulsive>
0.5609

> <Gold.PLP.ligand.clash>
0.0000

> <Gold.PLP.ligand.torsion>
0.8913

> <Gold.PLP.Chemscore.Hbond>
3.5317

> <Gold.PLP.Chemscore.CHOScore>
0.0000

> <Gold.PLP.Chemscore.Metal>
0.0000

> <Gold.Chemscore.Hbonds>
donor molecule, donor type, donor heavy atom, donor atom, acceptor molecule, acceptor atom, score
      L1  H     3    29       P1 10186  1.00
      P1  H  6896  6907       L1    23  1.00
      P1  H  6934  6947       L1    25  0.46
      P1  H 10785 10796       L1     1  1.00

> <Gold.PLP.Chemscore.Internal.Correction>
0.7462

> <Gold.Rescore>
     Score         DG    S(hbond)    S(metal)    S(lipo)     H(rot)  DE(clash)    DE(int)     intcor
     14.30     -16.74       3.44        0.00      56.31       2.66       1.51       0.93       ----

> <Gold.Chemscore.Fitness>
14.2954

> <Gold.Chemscore.DG>
-16.7411

> <Gold.Chemscore.ZeroCoef>
-5.4800

> <Gold.Chemscore.Hbond>
3.4393

> <Gold.Chemscore.Metal>
0.0000

> <Gold.Chemscore.Lipo>
56.3117

> <Gold.Chemscore.Internal_Hbond>
0.0000

> <Gold.Chemscore.DEClash>
1.5125

> <Gold.Chemscore.DEInternal>
0.9332

> <Gold.Chemscore.Rot>
2.6620

> <Gold.Chemscore.Internal.Correction>
   9.000000E+99

> <Gold.Chemscore.Hbonds>
donor molecule, donor type, donor heavy atom, donor atom, acceptor molecule, acceptor atom, score
      L1  H     3    29       P1 10186  0.81
      P1  H  6896  6907       L1    23  0.81
      P1  H  6934  6947       L1    25  0.40
      P1  H 10785 10796       L1     1  0.93

> <Gold.Chemscore.Hbond.Weighted>
-11.4874

> <Gold.Chemscore.Metal.Weighted>
-0.0000

> <Gold.Chemscore.Lipo.Weighted>
-6.5885

> <Gold.Chemscore.Internal_Hbond.Weighted>
0.0000

> <Gold.Chemscore.DEClash.Weighted>
1.5125

> <Gold.Chemscore.DEInternal.Weighted>
0.9332

> <Gold.Chemscore.Rot.Weighted>
6.8148

> <Gold.Chemscore.Internal.Correction.Weighted>
   9.000000E+99

> <Gold.Protein.RotatedTorsions>
[ 6907 6896 6895 6894 ] final -123.56 input  -60.11 | X-H torsion
[ 7974 7965 7964 7962 ] final  173.97 input  175.53 | X-H torsion
[ 8008 7997 7996 7995 ] final   -0.58 input   59.86 | X-H torsion
[ 10167 10162 10161 10158 ] final  120.96 input  -65.29 | X-H torsion
[ 10718 10713 10712 10709 ] final  -52.80 input   66.30 | X-H torsion
[ 10763 10752 10751 10750 ] final   86.80 input  -60.55 | X-H torsion
[ 11005 11000 10999 10996 ] final  106.93 input  -57.11 | X-H torsion

> <Gold.Protein.ActiveResidues>
 VAL166  LYS551  ARG553  GLY616  TRP617  ASP618  TYR619  PRO620  LYS621  CYS622 
 ASP623  PHE694  ASN695  SER759  ASP760  ASP761  ALA762  ILE779  LEU786  VAL792 
 PHE793  MET794  SER795  GLU796  ALA797  LYS798  CYS799  TRP800  GLU811  SER814 

> <Gold.Protein.RotatedAtoms>
  150.8682  133.7543  159.2969 H   0  0  0  0  0  0  0  0  0  0  0  0  # atno 6907 bound_to 6896
  151.5164  135.1065  159.9876 H   0  0  0  0  0  0  0  0  0  0  0  0  # atno 6908 bound_to 6896
  152.4676  133.7913  159.6959 H   0  0  0  0  0  0  0  0  0  0  0  0  # atno 6909 bound_to 6896
  144.7232  139.9727  143.6437 H   0  0  0  0  0  0  0  0  0  0  0  0  # atno 7974 bound_to 7965
  154.6564  140.2580  155.7157 H   0  0  0  0  0  0  0  0  0  0  0  0  # atno 8008 bound_to 7997
  156.2598  140.2857  156.0940 H   0  0  0  0  0  0  0  0  0  0  0  0  # atno 8009 bound_to 7997
  155.1374  140.0379  157.2780 H   0  0  0  0  0  0  0  0  0  0  0  0  # atno 8010 bound_to 7997
  139.5949  144.7038  151.3199 H   0  0  0  0  0  0  0  0  0  0  0  0  # atno 10167 bound_to 10162
  156.1590  130.4150  149.9823 H   0  0  0  0  0  0  0  0  0  0  0  0  # atno 10718 bound_to 10713
  153.1605  135.4567  154.9766 H   0  0  0  0  0  0  0  0  0  0  0  0  # atno 10763 bound_to 10752
  154.7894  135.3215  154.7814 H   0  0  0  0  0  0  0  0  0  0  0  0  # atno 10764 bound_to 10752
  153.8305  135.6939  153.4869 H   0  0  0  0  0  0  0  0  0  0  0  0  # atno 10765 bound_to 10752
  139.8821  134.9385  156.5742 H   0  0  0  0  0  0  0  0  0  0  0  0  # atno 11005 bound_to 11000
  146.0550  139.3548  143.0616 LP  0  0  0  0  0  0  0  0  0  0  0  0  # atno 17320 bound_to 7965
  145.8166  140.9700  143.0921 LP  0  0  0  0  0  0  0  0  0  0  0  0  # atno 17321 bound_to 7965
  140.7204  143.7152  150.7739 LP  0  0  0  0  0  0  0  0  0  0  0  0  # atno 17342 bound_to 10162
  140.0716  143.5056  152.2577 LP  0  0  0  0  0  0  0  0  0  0  0  0  # atno 17343 bound_to 10162
  156.7658  130.9168  151.3643 LP  0  0  0  0  0  0  0  0  0  0  0  0  # atno 17370 bound_to 10713
  157.6717  130.9057  150.0057 LP  0  0  0  0  0  0  0  0  0  0  0  0  # atno 17371 bound_to 10713
  140.8075  133.8455  155.8781 LP  0  0  0  0  0  0  0  0  0  0  0  0  # atno 17394 bound_to 11000
  140.9536  134.1746  157.4708 LP  0  0  0  0  0  0  0  0  0  0  0  0  # atno 17395 bound_to 11000

$$$$
