AV-unprocessed.smi:2911|AV-procd|sdf|11178|dock2
  -GOLD-   2272016 73D 1   1.00000     0.00000
 Structure written by MMmdl.
 41 42  0  0  0  0  0  0  0  0  1 V2000
  149.6738  138.9277  154.0408 C   0  0  0  0  0  0  0  0  0  0  0  0
  151.0171  139.0619  154.6725 C   0  0  0  0  0  0  0  0  0  0  0  0
  151.5902  140.2491  154.8289 N   0  0  0  0  0  0  0  0  0  0  0  0
  152.8151  139.9388  155.4369 O   0  0  0  0  0  0  0  0  0  0  0  0
  152.8225  138.5927  155.5875 C   0  0  0  0  0  0  0  0  0  0  0  0
  154.0303  137.9397  156.1714 C   0  0  0  0  0  0  0  0  0  0  0  0
  153.9802  137.8802  157.7064 C   0  0  0  0  0  0  0  0  0  0  0  0
  153.3588  139.0731  158.2707 N   0  0  0  0  0  0  0  0  0  0  0  0
  153.9955  140.0228  158.9773 C   0  0  0  0  0  0  0  0  0  0  0  0
  155.2074  139.9659  159.1925 O   0  0  0  0  0  0  0  0  0  0  0  0
  153.2144  141.0633  159.3731 N   0  0  0  0  0  0  0  0  0  0  0  0
  151.7492  141.1428  159.1834 C   0  0  0  0  0  0  0  0  0  0  0  0
  151.3577  142.4597  158.4984 C   0  0  0  0  0  0  0  0  0  0  0  0
  151.8494  143.6663  159.3121 C   0  0  2  0  0  0  0  0  0  0  0  0
  151.4914  144.9934  158.6291 C   0  0  0  0  0  0  0  0  0  0  0  0
  153.3627  143.5456  159.5597 C   0  0  0  0  0  0  0  0  0  0  0  0
  153.7777  142.1833  160.1585 C   0  0  1  0  0  0  0  0  0  0  0  0
  153.4724  142.0371  161.6604 C   0  0  0  0  0  0  0  0  0  0  0  0
  151.7351  137.9917  155.1110 N   0  0  0  0  0  0  0  0  0  0  0  0
  149.0953  139.8441  154.1636 H   0  0  0  0  0  0  0  0  0  0  0  0
  149.1183  138.1084  154.4978 H   0  0  0  0  0  0  0  0  0  0  0  0
  149.7792  138.7237  152.9752 H   0  0  0  0  0  0  0  0  0  0  0  0
  154.1142  136.9338  155.7584 H   0  0  0  0  0  0  0  0  0  0  0  0
  154.9130  138.4884  155.8405 H   0  0  0  0  0  0  0  0  0  0  0  0
  153.4489  136.9865  158.0383 H   0  0  0  0  0  0  0  0  0  0  0  0
  154.9914  137.8067  158.1074 H   0  0  0  0  0  0  0  0  0  0  0  0
  152.3694  139.1917  158.1078 H   0  0  0  0  0  0  0  0  0  0  0  0
  151.3282  140.3187  158.6084 H   0  0  0  0  0  0  0  0  0  0  0  0
  151.2641  141.0764  160.1572 H   0  0  0  0  0  0  0  0  0  0  0  0
  151.7792  142.4879  157.4925 H   0  0  0  0  0  0  0  0  0  0  0  0
  150.2745  142.5057  158.3828 H   0  0  0  0  0  0  0  0  0  0  0  0
  151.3449  143.6494  160.2789 H   0  0  0  0  0  0  0  0  0  0  0  0
  151.9644  145.0764  157.6502 H   0  0  0  0  0  0  0  0  0  0  0  0
  151.8163  145.8437  159.2294 H   0  0  0  0  0  0  0  0  0  0  0  0
  150.4141  145.0828  158.4869 H   0  0  0  0  0  0  0  0  0  0  0  0
  153.8842  143.6786  158.6105 H   0  0  0  0  0  0  0  0  0  0  0  0
  153.7044  144.3556  160.2052 H   0  0  0  0  0  0  0  0  0  0  0  0
  154.8661  142.1748  160.0820 H   0  0  0  0  0  0  0  0  0  0  0  0
  153.9739  142.8161  162.2352 H   0  0  0  0  0  0  0  0  0  0  0  0
  153.8218  141.0761  162.0391 H   0  0  0  0  0  0  0  0  0  0  0  0
  152.4066  142.1116  161.8736 H   0  0  0  0  0  0  0  0  0  0  0  0
  1  2  1  0  0  0  0
  1 20  1  0  0  0  0
  1 21  1  0  0  0  0
  1 22  1  0  0  0  0
  2 19  1  0  0  0  0
  2  3  2  0  0  0  0
  3  4  1  0  0  0  0
  4  5  1  0  0  0  0
  5  6  1  0  0  0  0
  5 19  2  0  0  0  0
  6  7  1  0  0  0  0
  6 23  1  0  0  0  0
  6 24  1  0  0  0  0
  7  8  1  0  0  0  0
  7 25  1  0  0  0  0
  7 26  1  0  0  0  0
  8  9  1  0  0  0  0
  8 27  1  0  0  0  0
  9 10  2  0  0  0  0
  9 11  1  0  0  0  0
 11 17  1  0  0  0  0
 11 12  1  0  0  0  0
 12 13  1  0  0  0  0
 12 28  1  0  0  0  0
 12 29  1  0  0  0  0
 13 14  1  0  0  0  0
 13 30  1  0  0  0  0
 13 31  1  0  0  0  0
 14 15  1  0  0  0  0
 14 16  1  0  0  0  0
 14 32  1  0  0  0  0
 15 33  1  0  0  0  0
 15 34  1  0  0  0  0
 15 35  1  0  0  0  0
 16 17  1  0  0  0  0
 16 36  1  0  0  0  0
 16 37  1  0  0  0  0
 17 18  1  0  0  0  0
 17 38  1  0  0  0  0
 18 39  1  0  0  0  0
 18 40  1  0  0  0  0
 18 41  1  0  0  0  0
M  END
> <s_m_source_file>
AV-unprocessed.smi

> <i_m_source_file_index>
2911

> <i_lp_mmshare_version>
43012

> <i_f3d_flags>
0

> <s_epik_input>
W0NIM11jMW5vYyhuMSlbQ0gyXVtDSDJdW05IXUMoPU8pTjJbQ0gyXVtDSDJdW0NAQEhdKFtDSDNdKVtDSDJdW0NASF0yW0NIM10=

> <s_epik_cmdline>
J2VwaWtfcHl0aG9uJywgJy1waCcsICc3LjAnLCAnLXRuJywgJzgnLCAnLW1hJywgJzIwMCcsICctbWV0YWxfYmluZGluZycsICctaW1hZScsICc8aW5maWxlLm1hZT4nLCAnLW9tYWUnLCAnPG91dGZpbGUubWFlPic=

> <r_lp_tautomer_probability>
1

> <r_epik_Ionization_Penalty>
6.61671e-05

> <r_epik_Ionization_Penalty_Charging>
0

> <r_epik_Ionization_Penalty_Neutral>
6.61671e-05

> <r_epik_State_Penalty>
-0

> <r_epik_Charging_Adjusted_Penalty>
0

> <i_epik_Tot_Q>
0

> <i_epik_Tot_abs_Q>
0

> <r_epik_Metal_State_Penalty>
-0

> <b_epik_Metal_Only>
0

> <s_lp_Force_Field>
OPLS_2005

> <r_lp_Energy>
30.9139

> <b_lp_Chiralities_Consistent>
1

> <s_lp_Variant>
AV-unprocessed.smi:2911-2

> <Gold.Version>
5.8.1

> <Gold.Id.Protein>
6NUR|6NUR_protein|mol2

> <Gold.PLP.Fitness>
45.1808

> <Gold.PLP.PLP>
-37.8113

> <Gold.PLP.part.hbond>
-3.6193

> <Gold.PLP.part.metal>
0.0000

> <Gold.PLP.part.buried>
-0.7935

> <Gold.PLP.part.nonpolar>
-32.0781

> <Gold.PLP.part.repulsive>
0.2345

> <Gold.PLP.ligand.clash>
0.0000

> <Gold.PLP.ligand.torsion>
0.5241

> <Gold.PLP.Chemscore.Hbond>
2.7936

> <Gold.PLP.Chemscore.CHOScore>
0.0000

> <Gold.PLP.Chemscore.Metal>
0.0000

> <Gold.Chemscore.Hbonds>
donor molecule, donor type, donor heavy atom, donor atom, acceptor molecule, acceptor atom, score
      P1  H  7989  7998       L1     3  0.83
      P1  H  7997  8009       L1    10  0.35
      P1  H  7997  8010       L1     4  0.80

> <Gold.PLP.Chemscore.Internal.Correction>
0.0368

> <Gold.Rescore>
     Score         DG    S(hbond)    S(metal)    S(lipo)     H(rot)  DE(clash)    DE(int)     intcor
     18.06     -18.64       1.91        0.00      93.07       1.61       0.03       0.55       ----

> <Gold.Chemscore.Fitness>
18.0617

> <Gold.Chemscore.DG>
-18.6395

> <Gold.Chemscore.ZeroCoef>
-5.4800

> <Gold.Chemscore.Hbond>
1.9127

> <Gold.Chemscore.Metal>
0.0000

> <Gold.Chemscore.Lipo>
93.0728

> <Gold.Chemscore.Internal_Hbond>
0.0000

> <Gold.Chemscore.DEClash>
0.0260

> <Gold.Chemscore.DEInternal>
0.5518

> <Gold.Chemscore.Rot>
1.6088

> <Gold.Chemscore.Internal.Correction>
   9.000000E+99

> <Gold.Chemscore.Hbonds>
donor molecule, donor type, donor heavy atom, donor atom, acceptor molecule, acceptor atom, score
      P1  H  7989  7998       L1     3  0.43
      P1  H  7997  8009       L1    10  0.01
      P1  H  7997  8010       L1     4  0.12

> <Gold.Chemscore.Hbond.Weighted>
-6.3886

> <Gold.Chemscore.Metal.Weighted>
-0.0000

> <Gold.Chemscore.Lipo.Weighted>
-10.8895

> <Gold.Chemscore.Internal_Hbond.Weighted>
0.0000

> <Gold.Chemscore.DEClash.Weighted>
0.0260

> <Gold.Chemscore.DEInternal.Weighted>
0.5518

> <Gold.Chemscore.Rot.Weighted>
4.1186

> <Gold.Chemscore.Internal.Correction.Weighted>
   9.000000E+99

> <Gold.Protein.RotatedTorsions>
[ 6907 6896 6895 6894 ] final  110.45 input  -60.11 | X-H torsion
[ 7974 7965 7964 7962 ] final  137.79 input  175.53 | X-H torsion
[ 8008 7997 7996 7995 ] final  100.47 input   59.86 | X-H torsion
[ 10167 10162 10161 10158 ] final  174.17 input  -65.29 | X-H torsion
[ 10718 10713 10712 10709 ] final  162.75 input   66.30 | X-H torsion
[ 10763 10752 10751 10750 ] final   54.20 input  -60.55 | X-H torsion
[ 11005 11000 10999 10996 ] final  -64.34 input  -57.11 | X-H torsion

> <Gold.Protein.ActiveResidues>
 VAL166  LYS551  ARG553  GLY616  TRP617  ASP618  TYR619  PRO620  LYS621  CYS622 
 ASP623  PHE694  ASN695  SER759  ASP760  ASP761  ALA762  ILE779  LEU786  VAL792 
 PHE793  MET794  SER795  GLU796  ALA797  LYS798  CYS799  TRP800  GLU811  SER814 

> <Gold.Protein.RotatedAtoms>
  152.5019  133.8799  159.7340 H   0  0  0  0  0  0  0  0  0  0  0  0  # atno 6907 bound_to 6896
  150.9264  133.6810  159.2827 H   0  0  0  0  0  0  0  0  0  0  0  0  # atno 6908 bound_to 6896
  151.4169  135.0997  159.9655 H   0  0  0  0  0  0  0  0  0  0  0  0  # atno 6909 bound_to 6896
  144.9434  139.4904  143.5561 H   0  0  0  0  0  0  0  0  0  0  0  0  # atno 7974 bound_to 7965
  156.1206  140.3213  155.8203 H   0  0  0  0  0  0  0  0  0  0  0  0  # atno 8008 bound_to 7997
  155.4511  140.0532  157.3018 H   0  0  0  0  0  0  0  0  0  0  0  0  # atno 8009 bound_to 7997
  154.4825  140.2059  155.9745 H   0  0  0  0  0  0  0  0  0  0  0  0  # atno 8010 bound_to 7997
  139.5132  144.3178  152.0231 H   0  0  0  0  0  0  0  0  0  0  0  0  # atno 10167 bound_to 10162
  157.1181  131.0485  151.2427 H   0  0  0  0  0  0  0  0  0  0  0  0  # atno 10718 bound_to 10713
  152.9802  135.5753  154.4866 H   0  0  0  0  0  0  0  0  0  0  0  0  # atno 10763 bound_to 10752
  154.4407  135.2776  155.1851 H   0  0  0  0  0  0  0  0  0  0  0  0  # atno 10764 bound_to 10752
  154.3521  135.6207  153.5701 H   0  0  0  0  0  0  0  0  0  0  0  0  # atno 10765 bound_to 10752
  141.1421  133.6664  156.5818 H   0  0  0  0  0  0  0  0  0  0  0  0  # atno 11005 bound_to 11000
  146.3294  139.8469  142.8880 LP  0  0  0  0  0  0  0  0  0  0  0  0  # atno 17320 bound_to 7965
  145.2956  141.0179  143.3638 LP  0  0  0  0  0  0  0  0  0  0  0  0  # atno 17321 bound_to 7965
  140.2620  144.4057  150.6182 LP  0  0  0  0  0  0  0  0  0  0  0  0  # atno 17342 bound_to 10162
  140.6150  143.2172  151.6810 LP  0  0  0  0  0  0  0  0  0  0  0  0  # atno 17343 bound_to 10162
  157.4500  130.7593  149.7143 LP  0  0  0  0  0  0  0  0  0  0  0  0  # atno 17370 bound_to 10713
  155.9835  130.4000  150.3362 LP  0  0  0  0  0  0  0  0  0  0  0  0  # atno 17371 bound_to 10713
  140.3832  134.7505  157.4674 LP  0  0  0  0  0  0  0  0  0  0  0  0  # atno 17394 bound_to 11000
  140.0622  134.5980  155.8736 LP  0  0  0  0  0  0  0  0  0  0  0  0  # atno 17395 bound_to 11000

$$$$
