AV-unprocessed.smi:1774|AV-procd|sdf|7168|dock3
  -GOLD-   22720 8403D 1   1.00000     0.00000
 Structure written by MMmdl.
 46 47  0  0  0  0  0  0  0  0  2 V2000
  147.5265  132.2209  152.8402 C   0  0  0  0  0  0  0  0  0  0  0  0
  146.2422  132.4510  152.0600 C   0  0  0  0  0  0  0  0  0  0  0  0
  145.5522  131.3428  151.5242 C   0  0  0  0  0  0  0  0  0  0  0  0
  144.3657  131.5572  150.8025 C   0  0  0  0  0  0  0  0  0  0  0  0
  143.9166  132.8796  150.6454 C   0  0  0  0  0  0  0  0  0  0  0  0
  144.5691  133.9445  151.1545 N   0  0  0  0  0  0  0  0  0  0  0  0
  145.7155  133.7546  151.8549 C   0  0  0  0  0  0  0  0  0  0  0  0
  146.4569  134.8309  152.4197 N   0  0  0  0  0  0  0  0  0  0  0  0
  146.0731  135.7033  153.3682 C   0  0  0  0  0  0  0  0  0  0  0  0
  144.9752  135.7170  153.9259 O   0  0  0  0  0  0  0  0  0  0  0  0
  147.0483  136.5810  153.6456 N   0  0  0  0  0  0  0  0  0  0  0  0
  146.9489  137.6459  154.6369 C   0  0  0  0  0  0  0  0  0  0  0  0
  147.6415  138.9346  154.1543 C   0  0  0  0  0  0  0  0  0  0  0  0
  148.9858  139.1085  154.7574 N   0  3  1  0  0  0  0  0  0  0  0  0
  150.0692  138.6009  153.8825 C   0  0  0  0  0  0  0  0  0  0  0  0
  151.4457  138.7377  154.5633 C   0  0  2  0  0  0  0  0  0  0  0  0
  151.6773  137.7191  155.6938 C   0  0  0  0  0  0  0  0  0  0  0  0
  151.6488  140.0821  154.9983 O   0  0  0  0  0  0  0  0  0  0  0  0
  150.6398  140.5898  155.8678 C   0  0  1  0  0  0  0  0  0  0  0  0
  151.0119  142.0322  156.2289 C   0  0  0  0  0  0  0  0  0  0  0  0
  149.2708  140.5041  155.1695 C   0  0  0  0  0  0  0  0  0  0  0  0
  147.7493  131.1575  152.9336 H   0  0  0  0  0  0  0  0  0  0  0  0
  147.4432  132.6337  153.8459 H   0  0  0  0  0  0  0  0  0  0  0  0
  148.3684  132.6980  152.3374 H   0  0  0  0  0  0  0  0  0  0  0  0
  145.9249  130.3384  151.6625 H   0  0  0  0  0  0  0  0  0  0  0  0
  143.8142  130.7299  150.3804 H   0  0  0  0  0  0  0  0  0  0  0  0
  143.0097  133.0886  150.0974 H   0  0  0  0  0  0  0  0  0  0  0  0
  147.3935  134.9425  152.0612 H   0  0  0  0  0  0  0  0  0  0  0  0
  147.9210  136.5006  153.1443 H   0  0  0  0  0  0  0  0  0  0  0  0
  145.8982  137.8193  154.8703 H   0  0  0  0  0  0  0  0  0  0  0  0
  147.4169  137.2962  155.5574 H   0  0  0  0  0  0  0  0  0  0  0  0
  147.7388  138.8771  153.0690 H   0  0  0  0  0  0  0  0  0  0  0  0
  147.0311  139.8150  154.3618 H   0  0  0  0  0  0  0  0  0  0  0  0
  149.8870  137.5574  153.6218 H   0  0  0  0  0  0  0  0  0  0  0  0
  150.0631  139.1650  152.9483 H   0  0  0  0  0  0  0  0  0  0  0  0
  152.2090  138.5475  153.8082 H   0  0  0  0  0  0  0  0  0  0  0  0
  151.6599  136.7003  155.3055 H   0  0  0  0  0  0  0  0  0  0  0  0
  150.9158  137.7814  156.4708 H   0  0  0  0  0  0  0  0  0  0  0  0
  152.6485  137.8746  156.1640 H   0  0  0  0  0  0  0  0  0  0  0  0
  150.6188  140.0071  156.7890 H   0  0  0  0  0  0  0  0  0  0  0  0
  150.2776  142.4702  156.9057 H   0  0  0  0  0  0  0  0  0  0  0  0
  151.0649  142.6616  155.3401 H   0  0  0  0  0  0  0  0  0  0  0  0
  151.9833  142.0718  156.7226 H   0  0  0  0  0  0  0  0  0  0  0  0
  149.2528  141.1538  154.2926 H   0  0  0  0  0  0  0  0  0  0  0  0
  148.4985  140.8657  155.8477 H   0  0  0  0  0  0  0  0  0  0  0  0
  149.0046  138.5399  155.5919 H   0  0  0  0  0  0  0  0  0  0  0  0
  1  2  1  0  0  0  0
  1 22  1  0  0  0  0
  1 23  1  0  0  0  0
  1 24  1  0  0  0  0
  2  7  1  0  0  0  0
  2  3  2  0  0  0  0
  3  4  1  0  0  0  0
  3 25  1  0  0  0  0
  4  5  2  0  0  0  0
  4 26  1  0  0  0  0
  5  6  1  0  0  0  0
  5 27  1  0  0  0  0
  6  7  2  0  0  0  0
  7  8  1  0  0  0  0
  8  9  1  0  0  0  0
  8 28  1  0  0  0  0
  9 10  2  0  0  0  0
  9 11  1  0  0  0  0
 11 12  1  0  0  0  0
 11 29  1  0  0  0  0
 12 13  1  0  0  0  0
 12 30  1  0  0  0  0
 12 31  1  0  0  0  0
 13 14  1  0  0  0  0
 13 32  1  0  0  0  0
 13 33  1  0  0  0  0
 14 21  1  0  0  0  0
 14 15  1  0  0  0  0
 14 46  1  0  0  0  0
 15 16  1  0  0  0  0
 15 34  1  0  0  0  0
 15 35  1  0  0  0  0
 16 17  1  0  0  0  0
 16 18  1  0  0  0  0
 16 36  1  0  0  0  0
 17 37  1  0  0  0  0
 17 38  1  0  0  0  0
 17 39  1  0  0  0  0
 18 19  1  0  0  0  0
 19 20  1  0  0  0  0
 19 21  1  0  0  0  0
 19 40  1  0  0  0  0
 20 41  1  0  0  0  0
 20 42  1  0  0  0  0
 20 43  1  0  0  0  0
 21 44  1  0  0  0  0
 21 45  1  0  0  0  0
M  CHG  1  14   1
M  END
> <s_m_source_file>
AV-unprocessed.smi

> <i_m_source_file_index>
1774

> <i_lp_mmshare_version>
43012

> <i_f3d_flags>
0

> <s_epik_input>
W0NIM11jMVtjSF1bY0hdW2NIXW5jMVtOSF1DKD1PKVtOSF1bQ0gyXVtDSDJdTjJbQ0gyXVtDQEBIXShbQ0gzXSlPW0NAQEhdKFtDSDNdKVtDSDJdMg==

> <s_epik_cmdline>
J2VwaWtfcHl0aG9uJywgJy1waCcsICc3LjAnLCAnLXRuJywgJzgnLCAnLW1hJywgJzIwMCcsICctbWV0YWxfYmluZGluZycsICctaW1hZScsICc8aW5maWxlLm1hZT4nLCAnLW9tYWUnLCAnPG91dGZpbGUubWFlPic=

> <r_epik_Ionization_Penalty>
0.602573

> <r_epik_Ionization_Penalty_Charging>
0.602531

> <r_epik_Ionization_Penalty_Neutral>
4.21996e-05

> <r_epik_State_Penalty>
0.617039

> <r_epik_Charging_Adjusted_Penalty>
1.21957

> <i_epik_Tot_Q>
1

> <i_epik_Tot_abs_Q>
1

> <r_epik_Metal_State_Penalty>
0.617042

> <b_epik_Metal_Only>
0

> <s_lp_Force_Field>
OPLS_2005

> <r_lp_Energy>
18.8628

> <b_lp_Chiralities_Consistent>
1

> <s_lp_Variant>
AV-unprocessed.smi:1774-5

> <Gold.Version>
5.8.1

> <Gold.Id.Protein>
6NUR|6NUR_protein|mol2

> <Gold.PLP.Fitness>
42.4941

> <Gold.PLP.PLP>
-33.8396

> <Gold.PLP.part.hbond>
-3.0000

> <Gold.PLP.part.metal>
0.0000

> <Gold.PLP.part.buried>
-5.6580

> <Gold.PLP.part.nonpolar>
-25.7679

> <Gold.PLP.part.repulsive>
0.2456

> <Gold.PLP.ligand.clash>
0.0000

> <Gold.PLP.ligand.torsion>
1.5667

> <Gold.PLP.Chemscore.Hbond>
2.9120

> <Gold.PLP.Chemscore.CHOScore>
1.0000

> <Gold.PLP.Chemscore.Metal>
0.0000

> <Gold.Chemscore.Hbonds>
donor molecule, donor type, donor heavy atom, donor atom, acceptor molecule, acceptor atom, score
      L1  H     8    28       P1  7948  0.93
      L1  H    11    29       P1  7948  1.00
      P1  H  7989  7998       L1    18  1.00
      L1  C     5    27       P1 10186  1.00

> <Gold.PLP.Chemscore.Internal.Correction>
0.0518

> <Gold.Rescore>
     Score         DG    S(hbond)    S(metal)    S(lipo)     H(rot)  DE(clash)    DE(int)     intcor
     17.56     -19.09       2.17        0.00      87.04       1.49       0.03       1.50       ----

> <Gold.Chemscore.Fitness>
17.5584

> <Gold.Chemscore.DG>
-19.0934

> <Gold.Chemscore.ZeroCoef>
-5.4800

> <Gold.Chemscore.Hbond>
2.1723

> <Gold.Chemscore.Metal>
0.0000

> <Gold.Chemscore.Lipo>
87.0416

> <Gold.Chemscore.Internal_Hbond>
0.0000

> <Gold.Chemscore.DEClash>
0.0338

> <Gold.Chemscore.DEInternal>
1.5012

> <Gold.Chemscore.Rot>
1.4946

> <Gold.Chemscore.Internal.Correction>
   9.000000E+99

> <Gold.Chemscore.Hbonds>
donor molecule, donor type, donor heavy atom, donor atom, acceptor molecule, acceptor atom, score
      L1  H     8    28       P1  7948  0.80
      L1  H    11    29       P1  7948  0.99
      P1  H  7989  7998       L1    18  0.20

> <Gold.Chemscore.Hbond.Weighted>
-7.2556

> <Gold.Chemscore.Metal.Weighted>
-0.0000

> <Gold.Chemscore.Lipo.Weighted>
-10.1839

> <Gold.Chemscore.Internal_Hbond.Weighted>
0.0000

> <Gold.Chemscore.DEClash.Weighted>
0.0338

> <Gold.Chemscore.DEInternal.Weighted>
1.5012

> <Gold.Chemscore.Rot.Weighted>
3.8261

> <Gold.Chemscore.Internal.Correction.Weighted>
   9.000000E+99

> <Gold.Protein.RotatedTorsions>
[ 6907 6896 6895 6894 ] final  -33.28 input  -60.11 | X-H torsion
[ 7974 7965 7964 7962 ] final  168.13 input  175.53 | X-H torsion
[ 8008 7997 7996 7995 ] final  -31.91 input   59.86 | X-H torsion
[ 10167 10162 10161 10158 ] final   95.53 input  -65.29 | X-H torsion
[ 10718 10713 10712 10709 ] final   97.72 input   66.30 | X-H torsion
[ 10763 10752 10751 10750 ] final  -10.32 input  -60.55 | X-H torsion
[ 11005 11000 10999 10996 ] final -170.89 input  -57.11 | X-H torsion

> <Gold.Protein.ActiveResidues>
 VAL166  LYS551  ARG553  GLY616  TRP617  ASP618  TYR619  PRO620  LYS621  CYS622 
 ASP623  PHE694  ASN695  SER759  ASP760  ASP761  ALA762  ILE779  LEU786  VAL792 
 PHE793  MET794  SER795  GLU796  ALA797  LYS798  CYS799  TRP800  GLU811  SER814 

> <Gold.Protein.RotatedAtoms>
  151.0677  134.9778  159.8292 H   0  0  0  0  0  0  0  0  0  0  0  0  # atno 6907 bound_to 6896
  152.5404  134.2339  159.8845 H   0  0  0  0  0  0  0  0  0  0  0  0  # atno 6908 bound_to 6896
  151.2362  133.4381  159.2639 H   0  0  0  0  0  0  0  0  0  0  0  0  # atno 6909 bound_to 6896
  144.7399  139.8863  143.6400 H   0  0  0  0  0  0  0  0  0  0  0  0  # atno 7974 bound_to 7965
  154.4197  140.1751  156.1643 H   0  0  0  0  0  0  0  0  0  0  0  0  # atno 8008 bound_to 7997
  155.9812  140.3377  155.6641 H   0  0  0  0  0  0  0  0  0  0  0  0  # atno 8009 bound_to 7997
  155.6497  140.0689  157.2582 H   0  0  0  0  0  0  0  0  0  0  0  0  # atno 8010 bound_to 7997
  139.7980  144.6825  150.9803 H   0  0  0  0  0  0  0  0  0  0  0  0  # atno 10167 bound_to 10162
  157.6908  131.0618  150.4687 H   0  0  0  0  0  0  0  0  0  0  0  0  # atno 10718 bound_to 10713
  153.4675  135.7016  153.6013 H   0  0  0  0  0  0  0  0  0  0  0  0  # atno 10763 bound_to 10752
  153.4281  135.3809  155.2153 H   0  0  0  0  0  0  0  0  0  0  0  0  # atno 10764 bound_to 10752
  154.8726  135.3944  154.4109 H   0  0  0  0  0  0  0  0  0  0  0  0  # atno 10765 bound_to 10752
  140.5144  134.5770  157.5029 H   0  0  0  0  0  0  0  0  0  0  0  0  # atno 11005 bound_to 11000
  146.1175  139.4187  143.0249 LP  0  0  0  0  0  0  0  0  0  0  0  0  # atno 17320 bound_to 7965
  145.7354  141.0027  143.1329 LP  0  0  0  0  0  0  0  0  0  0  0  0  # atno 17321 bound_to 7965
  140.7820  143.4311  151.0693 LP  0  0  0  0  0  0  0  0  0  0  0  0  # atno 17342 bound_to 10162
  139.7985  143.8118  152.3160 LP  0  0  0  0  0  0  0  0  0  0  0  0  # atno 17343 bound_to 10162
  156.5027  130.4121  149.6344 LP  0  0  0  0  0  0  0  0  0  0  0  0  # atno 17370 bound_to 10713
  156.3313  130.7333  151.2263 LP  0  0  0  0  0  0  0  0  0  0  0  0  # atno 17371 bound_to 10713
  139.9640  134.7403  156.0176 LP  0  0  0  0  0  0  0  0  0  0  0  0  # atno 17394 bound_to 11000
  141.1368  133.6573  156.3616 LP  0  0  0  0  0  0  0  0  0  0  0  0  # atno 17395 bound_to 11000

$$$$
