AV-unprocessed.smi:431|AV-procd|sdf|2547|dock7
  -GOLD-   2262022513D 1   1.00000     0.00000
 Structure written by MMmdl.
 43 44  0  0  0  0  0  0  0  0  1 V2000
  148.6384  133.1738  154.4318 C   0  0  0  0  0  0  0  0  0  0  0  0
  148.3289  133.7787  155.8107 C   0  0  0  0  0  0  0  0  0  0  0  0
  148.1517  135.3137  155.8085 C   0  0  2  0  0  0  0  0  0  0  0  0
  146.9856  135.7315  154.8968 C   0  0  0  0  0  0  0  0  0  0  0  0
  149.4386  136.0377  155.3852 C   0  0  0  0  0  0  0  0  0  0  0  0
  150.5381  135.5270  155.6014 O   0  0  0  0  0  0  0  0  0  0  0  0
  149.2869  137.2337  154.7953 N   0  0  0  0  0  0  0  0  0  0  0  0
  150.3822  138.0977  154.3677 C   0  0  0  0  0  0  0  0  0  0  0  0
  150.7573  139.1687  155.3818 C   0  0  0  0  0  0  0  0  0  0  0  0
  149.9784  140.3306  155.5618 C   0  0  0  0  0  0  0  0  0  0  0  0
  150.3806  141.2825  156.5176 C   0  0  0  0  0  0  0  0  0  0  0  0
  151.5563  141.0514  157.2711 C   0  0  0  0  0  0  0  0  0  0  0  0
  151.9762  141.9886  158.2410 N   0  0  0  0  0  0  0  0  0  0  0  0
  151.4563  143.3446  158.0799 C   0  0  0  0  0  0  0  0  0  0  0  0
  152.2142  144.3221  158.9946 C   0  0  0  0  0  0  0  0  0  0  0  0
  152.1573  143.8657  160.3419 O   0  0  0  0  0  0  0  0  0  0  0  0
  152.7733  142.5913  160.4944 C   0  0  0  0  0  0  0  0  0  0  0  0
  152.0330  141.5523  159.6354 C   0  0  0  0  0  0  0  0  0  0  0  0
  152.3110  139.9406  157.0819 N   0  0  0  0  0  0  0  0  0  0  0  0
  151.9198  139.0303  156.1655 C   0  0  0  0  0  0  0  0  0  0  0  0
  148.8313  132.1043  154.5152 H   0  0  0  0  0  0  0  0  0  0  0  0
  149.5201  133.6359  153.9875 H   0  0  0  0  0  0  0  0  0  0  0  0
  147.8064  133.3008  153.7392 H   0  0  0  0  0  0  0  0  0  0  0  0
  147.4395  133.2996  156.2227 H   0  0  0  0  0  0  0  0  0  0  0  0
  149.1442  133.5202  156.4873 H   0  0  0  0  0  0  0  0  0  0  0  0
  147.9010  135.6249  156.8242 H   0  0  0  0  0  0  0  0  0  0  0  0
  146.8628  136.8153  154.8788 H   0  0  0  0  0  0  0  0  0  0  0  0
  146.0455  135.3042  155.2466 H   0  0  0  0  0  0  0  0  0  0  0  0
  147.1381  135.3960  153.8701 H   0  0  0  0  0  0  0  0  0  0  0  0
  148.3486  137.5778  154.6512 H   0  0  0  0  0  0  0  0  0  0  0  0
  151.2564  137.4908  154.1249 H   0  0  0  0  0  0  0  0  0  0  0  0
  150.0841  138.5924  153.4433 H   0  0  0  0  0  0  0  0  0  0  0  0
  149.0857  140.4980  154.9773 H   0  0  0  0  0  0  0  0  0  0  0  0
  149.7936  142.1789  156.6489 H   0  0  0  0  0  0  0  0  0  0  0  0
  151.5377  143.6905  157.0507 H   0  0  0  0  0  0  0  0  0  0  0  0
  150.3947  143.3457  158.3315 H   0  0  0  0  0  0  0  0  0  0  0  0
  153.2535  144.4245  158.6773 H   0  0  0  0  0  0  0  0  0  0  0  0
  151.7652  145.3138  158.9365 H   0  0  0  0  0  0  0  0  0  0  0  0
  153.8269  142.6478  160.2153 H   0  0  0  0  0  0  0  0  0  0  0  0
  152.7378  142.3033  161.5451 H   0  0  0  0  0  0  0  0  0  0  0  0
  151.0186  141.4122  160.0115 H   0  0  0  0  0  0  0  0  0  0  0  0
  152.5454  140.5923  159.7109 H   0  0  0  0  0  0  0  0  0  0  0  0
  152.5550  138.1632  156.0588 H   0  0  0  0  0  0  0  0  0  0  0  0
  1  2  1  0  0  0  0
  1 21  1  0  0  0  0
  1 22  1  0  0  0  0
  1 23  1  0  0  0  0
  2  3  1  0  0  0  0
  2 24  1  0  0  0  0
  2 25  1  0  0  0  0
  3  4  1  0  0  0  0
  3  5  1  0  0  0  0
  3 26  1  0  0  0  0
  4 27  1  0  0  0  0
  4 28  1  0  0  0  0
  4 29  1  0  0  0  0
  5  6  2  0  0  0  0
  5  7  1  0  0  0  0
  7  8  1  0  0  0  0
  7 30  1  0  0  0  0
  8  9  1  0  0  0  0
  8 31  1  0  0  0  0
  8 32  1  0  0  0  0
  9 20  1  0  0  0  0
  9 10  2  0  0  0  0
 10 11  1  0  0  0  0
 10 33  1  0  0  0  0
 11 12  2  0  0  0  0
 11 34  1  0  0  0  0
 12 13  1  0  0  0  0
 12 19  1  0  0  0  0
 13 18  1  0  0  0  0
 13 14  1  0  0  0  0
 14 15  1  0  0  0  0
 14 35  1  0  0  0  0
 14 36  1  0  0  0  0
 15 16  1  0  0  0  0
 15 37  1  0  0  0  0
 15 38  1  0  0  0  0
 16 17  1  0  0  0  0
 17 18  1  0  0  0  0
 17 39  1  0  0  0  0
 17 40  1  0  0  0  0
 18 41  1  0  0  0  0
 18 42  1  0  0  0  0
 19 20  2  0  0  0  0
 20 43  1  0  0  0  0
M  END
> <s_m_source_file>
AV-unprocessed.smi

> <i_m_source_file_index>
431

> <i_lp_mmshare_version>
43012

> <i_f3d_flags>
0

> <s_epik_input>
W0NIM11bQ0gyXVtDQEhdKFtDSDNdKUMoPU8pW05IXVtDSDJdYzFbY0hdW2NIXWMobltjSF0xKU4yW0NIMl1bQ0gyXU9bQ0gyXVtDSDJdMg==

> <s_epik_cmdline>
J2VwaWtfcHl0aG9uJywgJy1waCcsICc3LjAnLCAnLXRuJywgJzgnLCAnLW1hJywgJzIwMCcsICctbWV0YWxfYmluZGluZycsICctaW1hZScsICc8aW5maWxlLm1hZT4nLCAnLW9tYWUnLCAnPG91dGZpbGUubWFlPic=

> <r_lp_tautomer_probability>
1

> <r_epik_Ionization_Penalty>
0.00513882

> <r_epik_Ionization_Penalty_Charging>
0

> <r_epik_Ionization_Penalty_Neutral>
0.00513882

> <r_epik_State_Penalty>
0.00374265

> <r_epik_Charging_Adjusted_Penalty>
0.00374265

> <i_epik_Tot_Q>
0

> <i_epik_Tot_abs_Q>
0

> <r_epik_Metal_State_Penalty>
-0

> <b_epik_Metal_Only>
0

> <s_lp_Force_Field>
OPLS_2005

> <r_lp_Energy>
15.574

> <b_lp_Chiralities_Consistent>
1

> <s_lp_Variant>
AV-unprocessed.smi:431-1

> <Gold.Version>
5.8.1

> <Gold.Id.Protein>
6NUR|6NUR_protein|mol2

> <Gold.PLP.Fitness>
41.8389

> <Gold.PLP.PLP>
-38.4173

> <Gold.PLP.part.hbond>
-3.0000

> <Gold.PLP.part.metal>
0.0000

> <Gold.PLP.part.buried>
-3.0636

> <Gold.PLP.part.nonpolar>
-31.6824

> <Gold.PLP.part.repulsive>
0.2143

> <Gold.PLP.ligand.clash>
0.0000

> <Gold.PLP.ligand.torsion>
1.4395

> <Gold.PLP.Chemscore.Hbond>
1.9760

> <Gold.PLP.Chemscore.CHOScore>
0.0000

> <Gold.PLP.Chemscore.Metal>
0.0000

> <Gold.Chemscore.Hbonds>
donor molecule, donor type, donor heavy atom, donor atom, acceptor molecule, acceptor atom, score
      P1  H  7997  8010       L1    19  0.80

> <Gold.PLP.Chemscore.Internal.Correction>
0.3725

> <Gold.Rescore>
     Score         DG    S(hbond)    S(metal)    S(lipo)     H(rot)  DE(clash)    DE(int)     intcor
     16.93     -18.43       1.80        0.00      95.28       1.64       0.14       1.36       ----

> <Gold.Chemscore.Fitness>
16.9307

> <Gold.Chemscore.DG>
-18.4262

> <Gold.Chemscore.ZeroCoef>
-5.4800

> <Gold.Chemscore.Hbond>
1.7961

> <Gold.Chemscore.Metal>
0.0000

> <Gold.Chemscore.Lipo>
95.2771

> <Gold.Chemscore.Internal_Hbond>
0.0000

> <Gold.Chemscore.DEClash>
0.1365

> <Gold.Chemscore.DEInternal>
1.3590

> <Gold.Chemscore.Rot>
1.6407

> <Gold.Chemscore.Internal.Correction>
   9.000000E+99

> <Gold.Chemscore.Hbonds>
donor molecule, donor type, donor heavy atom, donor atom, acceptor molecule, acceptor atom, score
      P1  H  7997  8010       L1    19  0.23

> <Gold.Chemscore.Hbond.Weighted>
-5.9989

> <Gold.Chemscore.Metal.Weighted>
-0.0000

> <Gold.Chemscore.Lipo.Weighted>
-11.1474

> <Gold.Chemscore.Internal_Hbond.Weighted>
0.0000

> <Gold.Chemscore.DEClash.Weighted>
0.1365

> <Gold.Chemscore.DEInternal.Weighted>
1.3590

> <Gold.Chemscore.Rot.Weighted>
4.2001

> <Gold.Chemscore.Internal.Correction.Weighted>
   9.000000E+99

> <Gold.Protein.RotatedTorsions>
[ 6907 6896 6895 6894 ] final -147.89 input  -60.11 | X-H torsion
[ 7974 7965 7964 7962 ] final   69.43 input  175.53 | X-H torsion
[ 8008 7997 7996 7995 ] final   61.08 input   59.86 | X-H torsion
[ 10167 10162 10161 10158 ] final   57.38 input  -65.29 | X-H torsion
[ 10718 10713 10712 10709 ] final  -44.12 input   66.30 | X-H torsion
[ 10763 10752 10751 10750 ] final   45.63 input  -60.55 | X-H torsion
[ 11005 11000 10999 10996 ] final  -56.08 input  -57.11 | X-H torsion

> <Gold.Protein.ActiveResidues>
 VAL166  LYS551  ARG553  GLY616  TRP617  ASP618  TYR619  PRO620  LYS621  CYS622 
 ASP623  PHE694  ASN695  SER759  ASP760  ASP761  ALA762  ILE779  LEU786  VAL792 
 PHE793  MET794  SER795  GLU796  ALA797  LYS798  CYS799  TRP800  GLU811  SER814 

> <Gold.Protein.RotatedAtoms>
  151.1621  133.4838  159.2593 H   0  0  0  0  0  0  0  0  0  0  0  0  # atno 6907 bound_to 6896
  151.1444  135.0195  159.8650 H   0  0  0  0  0  0  0  0  0  0  0  0  # atno 6908 bound_to 6896
  152.5463  134.1511  159.8572 H   0  0  0  0  0  0  0  0  0  0  0  0  # atno 6909 bound_to 6896
  145.7906  139.2932  143.1213 H   0  0  0  0  0  0  0  0  0  0  0  0  # atno 7974 bound_to 7965
  155.5925  140.3493  155.4570 H   0  0  0  0  0  0  0  0  0  0  0  0  # atno 8008 bound_to 7997
  156.0290  140.1270  157.0303 H   0  0  0  0  0  0  0  0  0  0  0  0  # atno 8009 bound_to 7997
  154.4344  140.1047  156.6058 H   0  0  0  0  0  0  0  0  0  0  0  0  # atno 8010 bound_to 7997
  140.1986  144.4011  150.6539 H   0  0  0  0  0  0  0  0  0  0  0  0  # atno 10167 bound_to 10162
  156.2419  130.4180  149.8750 H   0  0  0  0  0  0  0  0  0  0  0  0  # atno 10718 bound_to 10713
  152.9822  135.6033  154.3468 H   0  0  0  0  0  0  0  0  0  0  0  0  # atno 10763 bound_to 10752
  154.3160  135.2770  155.2544 H   0  0  0  0  0  0  0  0  0  0  0  0  # atno 10764 bound_to 10752
  154.4732  135.5936  153.6392 H   0  0  0  0  0  0  0  0  0  0  0  0  # atno 10765 bound_to 10752
  141.1103  133.6611  156.4565 H   0  0  0  0  0  0  0  0  0  0  0  0  # atno 11005 bound_to 11000
  145.9981  140.8544  143.0032 LP  0  0  0  0  0  0  0  0  0  0  0  0  # atno 17320 bound_to 7965
  144.6782  140.2312  143.7355 LP  0  0  0  0  0  0  0  0  0  0  0  0  # atno 17321 bound_to 7965
  140.6406  143.2203  151.6299 LP  0  0  0  0  0  0  0  0  0  0  0  0  # atno 17342 bound_to 10162
  139.5226  144.3157  152.0954 LP  0  0  0  0  0  0  0  0  0  0  0  0  # atno 17343 bound_to 10162
  156.6329  130.8673  151.3499 LP  0  0  0  0  0  0  0  0  0  0  0  0  # atno 17370 bound_to 10713
  157.7179  130.9520  150.1324 LP  0  0  0  0  0  0  0  0  0  0  0  0  # atno 17371 bound_to 10713
  140.4792  134.6681  157.5163 LP  0  0  0  0  0  0  0  0  0  0  0  0  # atno 17394 bound_to 11000
  139.9994  134.6860  155.9555 LP  0  0  0  0  0  0  0  0  0  0  0  0  # atno 17395 bound_to 11000

$$$$
