AV-unprocessed.smi:2953|AV-procd|sdf|11293|dock8
  -GOLD-   2272016183D 1   1.00000     0.00000
 Structure written by MMmdl.
 45 47  0  0  0  0  0  0  0  0  1 V2000
  154.9544  134.0076  161.0181 C   0  0  0  0  0  0  0  0  0  0  0  0
  154.6506  135.1098  162.0148 C   0  0  0  0  0  0  0  0  0  0  0  0
  155.0352  134.9515  163.3627 C   0  0  0  0  0  0  0  0  0  0  0  0
  154.7678  135.9652  164.3006 C   0  0  0  0  0  0  0  0  0  0  0  0
  154.1151  137.1415  163.8917 C   0  0  0  0  0  0  0  0  0  0  0  0
  153.7299  137.3047  162.5475 C   0  0  0  0  0  0  0  0  0  0  0  0
  153.9928  136.2890  161.5922 C   0  0  0  0  0  0  0  0  0  0  0  0
  153.6418  136.3813  160.2605 O   0  0  0  0  0  0  0  0  0  0  0  0
  152.8596  137.4923  159.8427 C   0  0  0  0  0  0  0  0  0  0  0  0
  153.3602  138.0011  158.4839 C   0  0  0  0  0  0  0  0  0  0  0  0
  152.7537  139.2719  158.1111 N   0  0  0  0  0  0  0  0  0  0  0  0
  152.0383  139.5829  156.9974 C   0  0  0  0  0  0  0  0  0  0  0  0
  151.7359  138.5674  155.9215 C   0  0  2  0  0  0  0  0  0  0  0  0
  152.6247  138.6963  154.6690 C   0  0  0  0  0  0  0  0  0  0  0  0
  150.3082  138.6034  155.6028 N   0  0  0  0  0  0  0  0  0  0  0  0
  149.6856  139.5417  154.8755 C   0  0  0  0  0  0  0  0  0  0  0  0
  150.2687  140.5039  154.3822 O   0  0  0  0  0  0  0  0  0  0  0  0
  151.5555  140.8277  156.9576 N   0  0  0  0  0  0  0  0  0  0  0  0
  152.0357  141.3844  158.1255 C   0  0  0  0  0  0  0  0  0  0  0  0
  151.8833  142.6867  158.6531 C   0  0  0  0  0  0  0  0  0  0  0  0
  152.4725  143.0296  159.8878 C   0  0  0  0  0  0  0  0  0  0  0  0
  153.2188  142.0771  160.6114 C   0  0  0  0  0  0  0  0  0  0  0  0
  153.3797  140.7733  160.1042 C   0  0  0  0  0  0  0  0  0  0  0  0
  152.7914  140.4370  158.8702 C   0  0  0  0  0  0  0  0  0  0  0  0
  155.3035  133.1030  161.5170 H   0  0  0  0  0  0  0  0  0  0  0  0
  155.7300  134.3354  160.3257 H   0  0  0  0  0  0  0  0  0  0  0  0
  154.0632  133.7515  160.4442 H   0  0  0  0  0  0  0  0  0  0  0  0
  155.5387  134.0511  163.6831 H   0  0  0  0  0  0  0  0  0  0  0  0
  155.0639  135.8408  165.3318 H   0  0  0  0  0  0  0  0  0  0  0  0
  153.9094  137.9215  164.6102 H   0  0  0  0  0  0  0  0  0  0  0  0
  153.2320  138.2225  162.2757 H   0  0  0  0  0  0  0  0  0  0  0  0
  151.8114  137.2042  159.7506 H   0  0  0  0  0  0  0  0  0  0  0  0
  152.9254  138.2935  160.5805 H   0  0  0  0  0  0  0  0  0  0  0  0
  154.4455  138.0926  158.4840 H   0  0  0  0  0  0  0  0  0  0  0  0
  153.1245  137.2705  157.7094 H   0  0  0  0  0  0  0  0  0  0  0  0
  151.9370  137.5758  156.3251 H   0  0  0  0  0  0  0  0  0  0  0  0
  153.6795  138.6130  154.9295 H   0  0  0  0  0  0  0  0  0  0  0  0
  152.4884  139.6539  154.1656 H   0  0  0  0  0  0  0  0  0  0  0  0
  152.4004  137.9094  153.9487 H   0  0  0  0  0  0  0  0  0  0  0  0
  149.7450  137.8511  155.9717 H   0  0  0  0  0  0  0  0  0  0  0  0
  148.6072  139.3427  154.7790 H   0  0  0  0  0  0  0  0  0  0  0  0
  151.3122  143.4228  158.1070 H   0  0  0  0  0  0  0  0  0  0  0  0
  152.3505  144.0280  160.2816 H   0  0  0  0  0  0  0  0  0  0  0  0
  153.6666  142.3474  161.5563 H   0  0  0  0  0  0  0  0  0  0  0  0
  153.9494  140.0409  160.6565 H   0  0  0  0  0  0  0  0  0  0  0  0
  1  2  1  0  0  0  0
  1 25  1  0  0  0  0
  1 26  1  0  0  0  0
  1 27  1  0  0  0  0
  2  7  1  0  0  0  0
  2  3  2  0  0  0  0
  3  4  1  0  0  0  0
  3 28  1  0  0  0  0
  4  5  2  0  0  0  0
  4 29  1  0  0  0  0
  5  6  1  0  0  0  0
  5 30  1  0  0  0  0
  6  7  2  0  0  0  0
  6 31  1  0  0  0  0
  7  8  1  0  0  0  0
  8  9  1  0  0  0  0
  9 10  1  0  0  0  0
  9 32  1  0  0  0  0
  9 33  1  0  0  0  0
 10 11  1  0  0  0  0
 10 34  1  0  0  0  0
 10 35  1  0  0  0  0
 11 24  1  0  0  0  0
 11 12  1  0  0  0  0
 12 13  1  0  0  0  0
 12 18  2  0  0  0  0
 13 14  1  0  0  0  0
 13 15  1  0  0  0  0
 13 36  1  0  0  0  0
 14 37  1  0  0  0  0
 14 38  1  0  0  0  0
 14 39  1  0  0  0  0
 15 16  1  0  0  0  0
 15 40  1  0  0  0  0
 16 17  2  0  0  0  0
 16 41  1  0  0  0  0
 18 19  1  0  0  0  0
 19 24  2  0  0  0  0
 19 20  1  0  0  0  0
 20 21  2  0  0  0  0
 20 42  1  0  0  0  0
 21 22  1  0  0  0  0
 21 43  1  0  0  0  0
 22 23  2  0  0  0  0
 22 44  1  0  0  0  0
 23 24  1  0  0  0  0
 23 45  1  0  0  0  0
M  END
> <s_m_source_file>
AV-unprocessed.smi

> <i_m_source_file_index>
2953

> <i_lp_mmshare_version>
43012

> <i_f3d_flags>
0

> <s_epik_input>
W0NIM11jMVtjSF1bY0hdW2NIXVtjSF1jMU9bQ0gyXVtDSDJdbihjKG4yKVtDQEhdKFtDSDNdKVtOSF1bQ0hdPU8pYyhjMjMpW2NIXVtjSF1bY0hdW2NIXTM=

> <s_epik_cmdline>
J2VwaWtfcHl0aG9uJywgJy1waCcsICc3LjAnLCAnLXRuJywgJzgnLCAnLW1hJywgJzIwMCcsICctbWV0YWxfYmluZGluZycsICctaW1hZScsICc8aW5maWxlLm1hZT4nLCAnLW9tYWUnLCAnPG91dGZpbGUubWFlPic=

> <r_lp_tautomer_probability>
1

> <r_epik_Ionization_Penalty>
0.0924205

> <r_epik_Ionization_Penalty_Charging>
0

> <r_epik_Ionization_Penalty_Neutral>
0.0924205

> <r_epik_State_Penalty>
0.0827154

> <r_epik_Charging_Adjusted_Penalty>
0.0827154

> <i_epik_Tot_Q>
0

> <i_epik_Tot_abs_Q>
0

> <r_epik_Metal_State_Penalty>
0.071464

> <b_epik_Metal_Only>
0

> <s_lp_Force_Field>
OPLS_2005

> <r_lp_Energy>
13.673

> <b_lp_Chiralities_Consistent>
1

> <s_lp_Variant>
AV-unprocessed.smi:2953-1

> <Gold.Version>
5.8.1

> <Gold.Id.Protein>
6NUR|6NUR_protein|mol2

> <Gold.PLP.Fitness>
50.9030

> <Gold.PLP.PLP>
-46.8245

> <Gold.PLP.part.hbond>
-1.9466

> <Gold.PLP.part.metal>
0.0000

> <Gold.PLP.part.buried>
-5.4252

> <Gold.PLP.part.nonpolar>
-40.1966

> <Gold.PLP.part.repulsive>
0.1558

> <Gold.PLP.ligand.clash>
0.0000

> <Gold.PLP.ligand.torsion>
0.9035

> <Gold.PLP.Chemscore.Hbond>
1.9033

> <Gold.PLP.Chemscore.CHOScore>
0.0000

> <Gold.PLP.Chemscore.Metal>
0.0000

> <Gold.Chemscore.Hbonds>
donor molecule, donor type, donor heavy atom, donor atom, acceptor molecule, acceptor atom, score
      P1  H  6896  6907       L1     8  0.99
      P1  H  7989  7998       L1    17  0.91

> <Gold.PLP.Chemscore.Internal.Correction>
0.1757

> <Gold.Rescore>
     Score         DG    S(hbond)    S(metal)    S(lipo)     H(rot)  DE(clash)    DE(int)     intcor
     17.95     -20.22       1.62        0.00     129.36       2.26       0.00       2.26       ----

> <Gold.Chemscore.Fitness>
17.9543

> <Gold.Chemscore.DG>
-20.2188

> <Gold.Chemscore.ZeroCoef>
-5.4800

> <Gold.Chemscore.Hbond>
1.6152

> <Gold.Chemscore.Metal>
0.0000

> <Gold.Chemscore.Lipo>
129.3561

> <Gold.Chemscore.Internal_Hbond>
0.0000

> <Gold.Chemscore.DEClash>
0.0015

> <Gold.Chemscore.DEInternal>
2.2631

> <Gold.Chemscore.Rot>
2.2619

> <Gold.Chemscore.Internal.Correction>
   9.000000E+99

> <Gold.Chemscore.Hbonds>
donor molecule, donor type, donor heavy atom, donor atom, acceptor molecule, acceptor atom, score
      P1  H  6896  6907       L1     8  0.09
      P1  H  7989  7998       L1    17  0.89

> <Gold.Chemscore.Hbond.Weighted>
-5.3947

> <Gold.Chemscore.Metal.Weighted>
-0.0000

> <Gold.Chemscore.Lipo.Weighted>
-15.1347

> <Gold.Chemscore.Internal_Hbond.Weighted>
0.0000

> <Gold.Chemscore.DEClash.Weighted>
0.0015

> <Gold.Chemscore.DEInternal.Weighted>
2.2631

> <Gold.Chemscore.Rot.Weighted>
5.7906

> <Gold.Chemscore.Internal.Correction.Weighted>
   9.000000E+99

> <Gold.Protein.RotatedTorsions>
[ 6907 6896 6895 6894 ] final   43.57 input  -60.11 | X-H torsion
[ 7974 7965 7964 7962 ] final   13.35 input  175.53 | X-H torsion
[ 8008 7997 7996 7995 ] final -160.64 input   59.86 | X-H torsion
[ 10167 10162 10161 10158 ] final  140.77 input  -65.29 | X-H torsion
[ 10718 10713 10712 10709 ] final  -23.14 input   66.30 | X-H torsion
[ 10763 10752 10751 10750 ] final  -67.02 input  -60.55 | X-H torsion
[ 11005 11000 10999 10996 ] final   62.83 input  -57.11 | X-H torsion

> <Gold.Protein.ActiveResidues>
 VAL166  LYS551  ARG553  GLY616  TRP617  ASP618  TYR619  PRO620  LYS621  CYS622 
 ASP623  PHE694  ASN695  SER759  ASP760  ASP761  ALA762  ILE779  LEU786  VAL792 
 PHE793  MET794  SER795  GLU796  ALA797  LYS798  CYS799  TRP800  GLU811  SER814 

> <Gold.Protein.RotatedAtoms>
  152.2219  134.8404  160.0484 H   0  0  0  0  0  0  0  0  0  0  0  0  # atno 6907 bound_to 6896
  151.9185  133.3574  159.3896 H   0  0  0  0  0  0  0  0  0  0  0  0  # atno 6908 bound_to 6896
  150.7002  134.4585  159.5413 H   0  0  0  0  0  0  0  0  0  0  0  0  # atno 6909 bound_to 6896
  146.2331  139.9202  142.8511 H   0  0  0  0  0  0  0  0  0  0  0  0  # atno 7974 bound_to 7965
  155.7805  140.0864  157.2061 H   0  0  0  0  0  0  0  0  0  0  0  0  # atno 8008 bound_to 7997
  154.3990  140.1508  156.3104 H   0  0  0  0  0  0  0  0  0  0  0  0  # atno 8009 bound_to 7997
  155.8658  140.3428  155.5790 H   0  0  0  0  0  0  0  0  0  0  0  0  # atno 8010 bound_to 7997
  139.5039  144.6213  151.6043 H   0  0  0  0  0  0  0  0  0  0  0  0  # atno 10167 bound_to 10162
  156.4951  130.4575  149.6733 H   0  0  0  0  0  0  0  0  0  0  0  0  # atno 10718 bound_to 10713
  154.3684  135.6101  153.5727 H   0  0  0  0  0  0  0  0  0  0  0  0  # atno 10763 bound_to 10752
  152.9791  135.5832  154.4551 H   0  0  0  0  0  0  0  0  0  0  0  0  # atno 10764 bound_to 10752
  154.4301  135.2847  155.1896 H   0  0  0  0  0  0  0  0  0  0  0  0  # atno 10765 bound_to 10752
  140.0066  134.6361  155.9846 H   0  0  0  0  0  0  0  0  0  0  0  0  # atno 11005 bound_to 11000
  145.2144  140.9909  143.4082 LP  0  0  0  0  0  0  0  0  0  0  0  0  # atno 17320 bound_to 7965
  144.9663  139.3926  143.6331 LP  0  0  0  0  0  0  0  0  0  0  0  0  # atno 17321 bound_to 7965
  140.5917  143.9768  150.6328 LP  0  0  0  0  0  0  0  0  0  0  0  0  # atno 17342 bound_to 10162
  140.2951  143.3298  152.1025 LP  0  0  0  0  0  0  0  0  0  0  0  0  # atno 17343 bound_to 10162
  156.3388  130.7371  151.2313 LP  0  0  0  0  0  0  0  0  0  0  0  0  # atno 17370 bound_to 10713
  157.7469  131.0409  150.4622 LP  0  0  0  0  0  0  0  0  0  0  0  0  # atno 17371 bound_to 10713
  141.1681  133.6537  156.4552 LP  0  0  0  0  0  0  0  0  0  0  0  0  # atno 17394 bound_to 11000
  140.4631  134.6823  157.5094 LP  0  0  0  0  0  0  0  0  0  0  0  0  # atno 17395 bound_to 11000

$$$$
