AV-unprocessed.smi:1669|AV-procd|sdf|6683|dock2
  -GOLD-   22720 7403D 1   1.00000     0.00000
 Structure written by MMmdl.
 48 50  0  0  0  0  0  0  0  0  2 V2000
  149.2112  133.7935  154.2897 C   0  0  0  0  0  0  0  0  0  0  0  0
  148.4629  135.0712  154.3432 N   0  3  1  0  0  0  0  0  0  0  0  0
  146.9910  134.8776  154.2733 C   0  0  0  0  0  0  0  0  0  0  0  0
  146.5556  134.3228  152.9294 C   0  0  0  0  0  0  0  0  0  0  0  0
  146.8626  132.9893  152.5863 C   0  0  0  0  0  0  0  0  0  0  0  0
  146.4574  132.4678  151.3423 C   0  0  0  0  0  0  0  0  0  0  0  0
  145.7463  133.2781  150.4363 C   0  0  0  0  0  0  0  0  0  0  0  0
  145.4413  134.6110  150.7739 C   0  0  0  0  0  0  0  0  0  0  0  0
  145.8458  135.1332  152.0177 C   0  0  0  0  0  0  0  0  0  0  0  0
  148.8770  135.9133  155.4933 C   0  0  0  0  0  0  0  0  0  0  0  0
  148.1259  135.5296  156.7875 C   0  0  2  0  0  0  0  0  0  0  0  0
  147.4548  136.6713  157.2802 O   0  0  0  0  0  0  0  0  0  0  0  0
  149.0428  134.9944  157.9053 C   0  0  0  0  0  0  0  0  0  0  0  0
  148.8104  135.6607  159.1802 N   0  0  0  0  0  0  0  0  0  0  0  0
  149.3573  136.8120  159.6489 C   0  0  0  0  0  0  0  0  0  0  0  0
  150.3405  137.6171  158.8559 C   0  0  0  0  0  0  0  0  0  0  0  0
  151.5768  136.9569  158.6900 O   0  0  0  0  0  0  0  0  0  0  0  0
  148.9698  137.1823  160.8696 N   0  0  0  0  0  0  0  0  0  0  0  0
  148.0791  136.1877  161.2222 C   0  0  0  0  0  0  0  0  0  0  0  0
  147.3248  136.0063  162.4033 C   0  0  0  0  0  0  0  0  0  0  0  0
  146.4681  134.8943  162.5389 C   0  0  0  0  0  0  0  0  0  0  0  0
  146.3518  133.9512  161.4975 C   0  0  0  0  0  0  0  0  0  0  0  0
  147.0945  134.1132  160.3124 C   0  0  0  0  0  0  0  0  0  0  0  0
  147.9516  135.2226  160.1837 C   0  0  0  0  0  0  0  0  0  0  0  0
  148.9833  133.1707  155.1557 H   0  0  0  0  0  0  0  0  0  0  0  0
  150.2861  133.9764  154.2734 H   0  0  0  0  0  0  0  0  0  0  0  0
  148.9686  133.2299  153.3889 H   0  0  0  0  0  0  0  0  0  0  0  0
  146.6614  134.2226  155.0816 H   0  0  0  0  0  0  0  0  0  0  0  0
  146.4694  135.8231  154.4219 H   0  0  0  0  0  0  0  0  0  0  0  0
  147.4075  132.3623  153.2772 H   0  0  0  0  0  0  0  0  0  0  0  0
  146.6919  131.4460  151.0830 H   0  0  0  0  0  0  0  0  0  0  0  0
  145.4356  132.8779  149.4822 H   0  0  0  0  0  0  0  0  0  0  0  0
  144.8964  135.2329  150.0788 H   0  0  0  0  0  0  0  0  0  0  0  0
  145.6068  136.1561  152.2695 H   0  0  0  0  0  0  0  0  0  0  0  0
  149.9569  135.8196  155.6136 H   0  0  0  0  0  0  0  0  0  0  0  0
  148.6901  136.9677  155.2830 H   0  0  0  0  0  0  0  0  0  0  0  0
  147.3689  134.7761  156.5741 H   0  0  0  0  0  0  0  0  0  0  0  0
  147.8561  136.9321  158.0956 H   0  0  0  0  0  0  0  0  0  0  0  0
  148.9135  133.9189  158.0203 H   0  0  0  0  0  0  0  0  0  0  0  0
  150.0888  135.1456  157.6348 H   0  0  0  0  0  0  0  0  0  0  0  0
  149.9238  137.8267  157.8700 H   0  0  0  0  0  0  0  0  0  0  0  0
  150.5024  138.5808  159.3386 H   0  0  0  0  0  0  0  0  0  0  0  0
  152.0082  137.3119  157.9277 H   0  0  0  0  0  0  0  0  0  0  0  0
  147.4042  136.7242  163.2063 H   0  0  0  0  0  0  0  0  0  0  0  0
  145.8955  134.7657  163.4459 H   0  0  0  0  0  0  0  0  0  0  0  0
  145.6906  133.1041  161.6086 H   0  0  0  0  0  0  0  0  0  0  0  0
  147.0038  133.3936  159.5122 H   0  0  0  0  0  0  0  0  0  0  0  0
  148.7290  135.5880  153.5167 H   0  0  0  0  0  0  0  0  0  0  0  0
  1  2  1  0  0  0  0
  1 25  1  0  0  0  0
  1 26  1  0  0  0  0
  1 27  1  0  0  0  0
  2  3  1  0  0  0  0
  2 10  1  0  0  0  0
  2 48  1  0  0  0  0
  3  4  1  0  0  0  0
  3 28  1  0  0  0  0
  3 29  1  0  0  0  0
  4  9  1  0  0  0  0
  4  5  2  0  0  0  0
  5  6  1  0  0  0  0
  5 30  1  0  0  0  0
  6  7  2  0  0  0  0
  6 31  1  0  0  0  0
  7  8  1  0  0  0  0
  7 32  1  0  0  0  0
  8  9  2  0  0  0  0
  8 33  1  0  0  0  0
  9 34  1  0  0  0  0
 10 11  1  0  0  0  0
 10 35  1  0  0  0  0
 10 36  1  0  0  0  0
 11 12  1  0  0  0  0
 11 13  1  0  0  0  0
 11 37  1  0  0  0  0
 12 38  1  0  0  0  0
 13 14  1  0  0  0  0
 13 39  1  0  0  0  0
 13 40  1  0  0  0  0
 14 24  1  0  0  0  0
 14 15  1  0  0  0  0
 15 16  1  0  0  0  0
 15 18  2  0  0  0  0
 16 17  1  0  0  0  0
 16 41  1  0  0  0  0
 16 42  1  0  0  0  0
 17 43  1  0  0  0  0
 18 19  1  0  0  0  0
 19 24  2  0  0  0  0
 19 20  1  0  0  0  0
 20 21  2  0  0  0  0
 20 44  1  0  0  0  0
 21 22  1  0  0  0  0
 21 45  1  0  0  0  0
 22 23  2  0  0  0  0
 22 46  1  0  0  0  0
 23 24  1  0  0  0  0
 23 47  1  0  0  0  0
M  CHG  1   2   1
M  END
> <s_m_source_file>
AV-unprocessed.smi

> <i_m_source_file_index>
1669

> <i_lp_mmshare_version>
43012

> <i_f3d_flags>
0

> <s_epik_input>
W2NIXTFbY0hdW2NIXVtjSF1bY0hdYzFbQ0gyXU4oW0NIM10pW0NIMl1bQ0BIXShbT0hdKVtDSDJdbihjKG4yKVtDSDJdW09IXSljKGMyMylbY0hdW2NIXVtjSF1bY0hdMw==

> <s_epik_cmdline>
J2VwaWtfcHl0aG9uJywgJy1waCcsICc3LjAnLCAnLXRuJywgJzgnLCAnLW1hJywgJzIwMCcsICctbWV0YWxfYmluZGluZycsICctaW1hZScsICc8aW5maWxlLm1hZT4nLCAnLW9tYWUnLCAnPG91dGZpbGUubWFlPic=

> <r_epik_Ionization_Penalty>
0.0949884

> <r_epik_Ionization_Penalty_Charging>
0.0475377

> <r_epik_Ionization_Penalty_Neutral>
0.0474507

> <r_epik_State_Penalty>
0.078247

> <r_epik_Charging_Adjusted_Penalty>
0.125785

> <i_epik_Tot_Q>
1

> <i_epik_Tot_abs_Q>
1

> <r_epik_Metal_State_Penalty>
0.0403451

> <b_epik_Metal_Only>
0

> <s_lp_Force_Field>
OPLS_2005

> <r_lp_Energy>
16.111

> <b_lp_Chiralities_Consistent>
1

> <s_lp_Variant>
AV-unprocessed.smi:1669-1

> <Gold.Version>
5.8.1

> <Gold.Id.Protein>
6NUR|6NUR_protein|mol2

> <Gold.PLP.Fitness>
45.4849

> <Gold.PLP.PLP>
-37.6653

> <Gold.PLP.part.hbond>
-3.0000

> <Gold.PLP.part.metal>
0.0000

> <Gold.PLP.part.buried>
-5.5764

> <Gold.PLP.part.nonpolar>
-30.6531

> <Gold.PLP.part.repulsive>
0.0000

> <Gold.PLP.ligand.clash>
0.0000

> <Gold.PLP.ligand.torsion>
2.2437

> <Gold.PLP.Chemscore.Hbond>
3.9600

> <Gold.PLP.Chemscore.CHOScore>
0.0000

> <Gold.PLP.Chemscore.Metal>
0.0000

> <Gold.Chemscore.Hbonds>
donor molecule, donor type, donor heavy atom, donor atom, acceptor molecule, acceptor atom, score
      L1  H     2    48       P1  7948  2.00
      P1  H  6896  6907       L1    17  0.37
      P1  H  6931  6943       L1    18  0.68

> <Gold.PLP.Chemscore.Internal.Correction>
0.4269

> <Gold.Rescore>
     Score         DG    S(hbond)    S(metal)    S(lipo)     H(rot)  DE(clash)    DE(int)     intcor
     13.32     -15.85       2.35        0.00      91.03       3.17       0.05       2.48       ----

> <Gold.Chemscore.Fitness>
13.3181

> <Gold.Chemscore.DG>
-15.8506

> <Gold.Chemscore.ZeroCoef>
-5.4800

> <Gold.Chemscore.Hbond>
2.3482

> <Gold.Chemscore.Metal>
0.0000

> <Gold.Chemscore.Lipo>
91.0304

> <Gold.Chemscore.Internal_Hbond>
0.0000

> <Gold.Chemscore.DEClash>
0.0544

> <Gold.Chemscore.DEInternal>
2.4782

> <Gold.Chemscore.Rot>
3.1731

> <Gold.Chemscore.Internal.Correction>
   9.000000E+99

> <Gold.Chemscore.Hbonds>
donor molecule, donor type, donor heavy atom, donor atom, acceptor molecule, acceptor atom, score
      L1  H     2    48       P1  7948  0.96
      P1  H  6896  6907       L1    17  0.10
      P1  H  6931  6943       L1    18  0.56

> <Gold.Chemscore.Hbond.Weighted>
-7.8431

> <Gold.Chemscore.Metal.Weighted>
-0.0000

> <Gold.Chemscore.Lipo.Weighted>
-10.6506

> <Gold.Chemscore.Internal_Hbond.Weighted>
0.0000

> <Gold.Chemscore.DEClash.Weighted>
0.0544

> <Gold.Chemscore.DEInternal.Weighted>
2.4782

> <Gold.Chemscore.Rot.Weighted>
8.1230

> <Gold.Chemscore.Internal.Correction.Weighted>
   9.000000E+99

> <Gold.Protein.RotatedTorsions>
[ 6907 6896 6895 6894 ] final  -27.00 input  -60.11 | X-H torsion
[ 7974 7965 7964 7962 ] final -131.08 input  175.53 | X-H torsion
[ 8008 7997 7996 7995 ] final  100.38 input   59.86 | X-H torsion
[ 10167 10162 10161 10158 ] final -115.95 input  -65.29 | X-H torsion
[ 10718 10713 10712 10709 ] final    9.53 input   66.30 | X-H torsion
[ 10763 10752 10751 10750 ] final  -69.76 input  -60.55 | X-H torsion
[ 11005 11000 10999 10996 ] final  -94.02 input  -57.11 | X-H torsion

> <Gold.Protein.ActiveResidues>
 VAL166  LYS551  ARG553  GLY616  TRP617  ASP618  TYR619  PRO620  LYS621  CYS622 
 ASP623  PHE694  ASN695  SER759  ASP760  ASP761  ALA762  ILE779  LEU786  VAL792 
 PHE793  MET794  SER795  GLU796  ALA797  LYS798  CYS799  TRP800  GLU811  SER814 

> <Gold.Protein.RotatedAtoms>
  151.1530  135.0236  159.8676 H   0  0  0  0  0  0  0  0  0  0  0  0  # atno 6907 bound_to 6896
  152.5452  134.1366  159.8471 H   0  0  0  0  0  0  0  0  0  0  0  0  # atno 6908 bound_to 6896
  151.1453  133.4897  159.2629 H   0  0  0  0  0  0  0  0  0  0  0  0  # atno 6909 bound_to 6896
  144.9413  140.7242  143.4845 H   0  0  0  0  0  0  0  0  0  0  0  0  # atno 7974 bound_to 7965
  156.1198  140.3214  155.8192 H   0  0  0  0  0  0  0  0  0  0  0  0  # atno 8008 bound_to 7997
  155.4525  140.0533  157.3017 H   0  0  0  0  0  0  0  0  0  0  0  0  # atno 8009 bound_to 7997
  154.4819  140.2056  155.9758 H   0  0  0  0  0  0  0  0  0  0  0  0  # atno 8010 bound_to 7997
  140.0845  143.4757  152.1906 H   0  0  0  0  0  0  0  0  0  0  0  0  # atno 10167 bound_to 10162
  156.9676  130.5957  149.5666 H   0  0  0  0  0  0  0  0  0  0  0  0  # atno 10718 bound_to 10713
  154.4080  135.6015  153.5936 H   0  0  0  0  0  0  0  0  0  0  0  0  # atno 10763 bound_to 10752
  152.9789  135.5922  154.4105 H   0  0  0  0  0  0  0  0  0  0  0  0  # atno 10764 bound_to 10752
  154.3913  135.2842  155.2131 H   0  0  0  0  0  0  0  0  0  0  0  0  # atno 10765 bound_to 10752
  141.1482  133.7927  157.0240 H   0  0  0  0  0  0  0  0  0  0  0  0  # atno 11005 bound_to 11000
  145.2987  139.1858  143.4701 LP  0  0  0  0  0  0  0  0  0  0  0  0  # atno 17320 bound_to 7965
  146.3287  140.2974  142.8619 LP  0  0  0  0  0  0  0  0  0  0  0  0  # atno 17321 bound_to 7965
  139.5760  144.7487  151.3764 LP  0  0  0  0  0  0  0  0  0  0  0  0  # atno 17342 bound_to 10162
  140.7061  143.7511  150.7484 LP  0  0  0  0  0  0  0  0  0  0  0  0  # atno 17343 bound_to 10162
  156.0296  130.5388  150.8499 LP  0  0  0  0  0  0  0  0  0  0  0  0  # atno 17370 bound_to 10713
  157.5615  131.0946  150.9553 LP  0  0  0  0  0  0  0  0  0  0  0  0  # atno 17371 bound_to 10713
  140.0797  134.9655  157.1604 LP  0  0  0  0  0  0  0  0  0  0  0  0  # atno 17394 bound_to 11000
  140.3594  134.2511  155.7189 LP  0  0  0  0  0  0  0  0  0  0  0  0  # atno 17395 bound_to 11000

$$$$
