#       Name:                AV-unprocessed.smi:1385
#       Creating user name   scv26
#       Creation time:       Fri Mar 27 05:24:43 2020


#       File generated by GOLD software.
#

@<TRIPOS>MOLECULE
AV-unprocessed.smi:1385
    45    46     1
SMALL
NO_CHARGES


@<TRIPOS>ATOM
      1 ****        -6.4689   3.8939   1.7020 C.3            1 S1                 0.0000
      2 ****        -5.0598   3.4169   1.6097 C.2            1 S1                 0.0000
      3 ****        -4.0132   4.2510   1.5848 N.2            1 S1                 0.0000
      4 ****        -2.8039   3.5754   1.4956 N.2            1 S1                 0.0000
      5 ****        -2.9755   2.2469   1.4581 C.2            1 S1                 0.0000
      6 ****        -1.9073   1.3157   1.3655 N.am           1 S1                 0.0000
      7 ****        -0.5893   1.5668   1.2777 C.2            1 S1                 0.0000
      8 ****        -0.0751   2.6852   1.2678 O.2            1 S1                 0.0000
      9 ****         0.1168   0.4296   1.1939 N.am           1 S1                 0.0000
     10 ****         1.5730   0.3470   1.0828 C.3            1 S1                 0.0000
     11 ****         2.0555   0.6420  -0.3515 C.3            1 S1                 0.0000
     12 ****         1.6859  -0.4891  -1.3268 C.3            1 S1                 0.0000
     13 ****         2.2152  -1.7969  -0.8557 N.4            1 S1                 1.0000
     14 ****         2.0030  -2.8968  -1.8320 C.3            1 S1                 0.0000
     15 ****         2.9944  -2.8604  -2.9997 C.2            1 S1                 0.0000
     16 ****         2.6483  -3.5245  -4.1048 N.am           1 S1                 0.0000
     17 ****         4.0622  -2.2579  -2.9045 O.2            1 S1                 0.0000
     18 ****         1.7090  -2.1357   0.4990 C.3            1 S1                 0.0000
     19 ****         2.0701  -1.0415   1.5208 C.3            1 S1                 0.0000
     20 ****        -4.6447   1.7088   1.5314 S.3            1 S1                 0.0000
     21 ****        -6.5513   4.9174   1.3350 H              1 S1                 0.0000
     22 ****        -6.8041   3.8647   2.7387 H              1 S1                 0.0000
     23 ****        -7.1213   3.2569   1.1045 H              1 S1                 0.0000
     24 ****        -2.1812   0.3444   1.3582 H              1 S1                 0.0000
     25 ****        -0.3895  -0.4434   1.2184 H              1 S1                 0.0000
     26 ****         2.0036   1.0882   1.7587 H              1 S1                 0.0000
     27 ****         1.6503   1.5900  -0.7071 H              1 S1                 0.0000
     28 ****         3.1394   0.7642  -0.3451 H              1 S1                 0.0000
     29 ****         0.6025  -0.5512  -1.4405 H              1 S1                 0.0000
     30 ****         2.0898  -0.2541  -2.3118 H              1 S1                 0.0000
     31 ****         2.1416  -3.8590  -1.3374 H              1 S1                 0.0000
     32 ****         0.9754  -2.8791  -2.1994 H              1 S1                 0.0000
     33 ****         3.2618  -3.5321  -4.9071 H              1 S1                 0.0000
     34 ****         1.7672  -4.0179  -4.1377 H              1 S1                 0.0000
     35 ****         0.6282  -2.2799   0.4598 H              1 S1                 0.0000
     36 ****         2.1415  -3.0820   0.8263 H              1 S1                 0.0000
     37 ****         3.1543  -1.0104   1.6386 H              1 S1                 0.0000
     38 ****         1.6677  -1.2962   2.5021 H              1 S1                 0.0000
     39 ****         3.2164  -1.6933  -0.7665 H              1 S1                 0.0000
     40 ****        -4.0933   5.2469   1.6258 LP             1 S1                 0.0000
     41 ****        -1.9117   4.0260   1.4632 LP             1 S1                 0.0000
     42 ****        -0.6507   3.5007   1.3282 LP             1 S1                 0.0000
     43 ****         0.9182   2.7782   1.1993 LP             1 S1                 0.0000
     44 ****         4.2941  -1.7824  -2.0559 LP             1 S1                 0.0000
     45 ****         4.6987  -2.2435  -3.6757 LP             1 S1                 0.0000
@<TRIPOS>BOND
    1    1    2 1     
    2    1   21 1     
    3    1   22 1     
    4    1   23 1     
    5    2   20 1     
    6    2    3 2     
    7    3    4 1     
    8    4    5 2     
    9    5    6 1     
   10    5   20 1     
   11    6    7 am    
   12    6   24 1     
   13    7    8 2     
   14    7    9 am    
   15    9   10 1     
   16    9   25 1     
   17   10   19 1     
   18   10   11 1     
   19   10   26 1     
   20   11   12 1     
   21   11   27 1     
   22   11   28 1     
   23   12   13 1     
   24   12   29 1     
   25   12   30 1     
   26   13   14 1     
   27   13   18 1     
   28   13   39 1     
   29   14   15 1     
   30   14   31 1     
   31   14   32 1     
   32   15   16 am    
   33   15   17 2     
   34   16   33 1     
   35   16   34 1     
   36   18   19 1     
   37   18   35 1     
   38   18   36 1     
   39   19   37 1     
   40   19   38 1     
   41    3   40 1     
   42    4   41 1     
   43    8   42 1     
   44    8   43 1     
   45   17   44 1     
   46   17   45 1     
@<TRIPOS>SUBSTRUCTURE
      1 S1             1
@<TRIPOS>SET
LONE_PAIRS      STATIC     ATOMS    <user>   **** ""
6 40 41 42 43 44 45
DONOR_HYDROGENS      STATIC     ATOMS    <user>   **** ""
5 24 25 39 33 34
ATOM$BLUE        STATIC     ATOMS    COLORGROUP SYSTEM
6 40 41 42 43 44 45
ATOM$RED        STATIC     ATOMS    COLORGROUP SYSTEM
5 24 25 39 33 34
