AV-unprocessed.smi:2246|AV-procd|sdf|9085|dock8
  -GOLD-   2272012283D 1   1.00000     0.00000
 Structure written by MMmdl.
 28 29  0  0  0  0  0  0  0  0  2 V2000
  150.5075  142.1882  156.5467 O   0  0  0  0  0  0  0  0  0  0  0  0
  151.1880  141.6712  157.4320 C   0  0  0  0  0  0  0  0  0  0  0  0
  151.9662  140.3734  157.2224 C   0  0  2  0  0  0  0  0  0  0  0  0
  151.0459  139.2437  156.9442 N   0  0  0  0  0  0  0  0  0  0  0  0
  150.5258  138.5029  158.0277 C   0  0  0  0  0  0  0  0  0  0  0  0
  149.6544  137.4905  157.8589 C   0  0  0  0  0  0  0  0  0  0  0  0
  149.0396  136.6106  159.2127 Cl  0  0  0  0  0  0  0  0  0  0  0  0
  149.2366  137.1665  156.4984 C   0  0  0  0  0  0  0  0  0  0  0  0
  148.4573  136.2342  156.3057 O   0  0  0  0  0  0  0  0  0  0  0  0
  149.7374  137.9301  155.4848 N   0  5  0  0  0  0  0  0  0  0  0  0
  150.6129  138.9648  155.6756 C   0  0  0  0  0  0  0  0  0  0  0  0
  151.0237  139.6463  154.7364 O   0  0  0  0  0  0  0  0  0  0  0  0
  152.7320  140.2201  158.5552 C   0  0  0  0  0  0  0  0  0  0  0  0
  152.2293  141.3301  159.4881 C   0  0  0  0  0  0  0  0  0  0  0  0
  151.3614  142.1554  158.6671 N   0  0  0  0  0  0  0  0  0  0  0  0
  150.7646  143.3737  159.2115 C   0  0  0  0  0  0  0  0  0  0  0  0
  151.8230  144.3807  159.6991 C   0  0  0  0  0  0  0  0  0  0  0  0
  152.8128  144.4321  158.8086 F   0  0  0  0  0  0  0  0  0  0  0  0
  151.3078  145.6031  159.8273 F   0  0  0  0  0  0  0  0  0  0  0  0
  152.3271  143.9931  160.8708 F   0  0  0  0  0  0  0  0  0  0  0  0
  152.6925  140.5385  156.4254 H   0  0  0  0  0  0  0  0  0  0  0  0
  150.8650  138.8107  159.0050 H   0  0  0  0  0  0  0  0  0  0  0  0
  152.6291  139.2330  159.0072 H   0  0  0  0  0  0  0  0  0  0  0  0
  153.7987  140.3576  158.3731 H   0  0  0  0  0  0  0  0  0  0  0  0
  151.6617  140.9143  160.3213 H   0  0  0  0  0  0  0  0  0  0  0  0
  153.0551  141.9147  159.8955 H   0  0  0  0  0  0  0  0  0  0  0  0
  150.1451  143.8387  158.4432 H   0  0  0  0  0  0  0  0  0  0  0  0
  150.0896  143.1156  160.0291 H   0  0  0  0  0  0  0  0  0  0  0  0
  1  2  2  0  0  0  0
  2 15  1  0  0  0  0
  2  3  1  0  0  0  0
  3  4  1  0  0  0  0
  3 13  1  0  0  0  0
  3 21  1  0  0  0  0
  4 11  1  0  0  0  0
  4  5  1  0  0  0  0
  5  6  2  0  0  0  0
  5 22  1  0  0  0  0
  6  7  1  0  0  0  0
  6  8  1  0  0  0  0
  8  9  2  0  0  0  0
  8 10  1  0  0  0  0
 10 11  1  0  0  0  0
 11 12  2  0  0  0  0
 13 14  1  0  0  0  0
 13 23  1  0  0  0  0
 13 24  1  0  0  0  0
 14 15  1  0  0  0  0
 14 25  1  0  0  0  0
 14 26  1  0  0  0  0
 15 16  1  0  0  0  0
 16 17  1  0  0  0  0
 16 27  1  0  0  0  0
 16 28  1  0  0  0  0
 17 18  1  0  0  0  0
 17 19  1  0  0  0  0
 17 20  1  0  0  0  0
M  CHG  1  10  -1
M  END
> <s_m_source_file>
AV-unprocessed.smi

> <i_m_source_file_index>
2246

> <i_lp_mmshare_version>
43012

> <i_f3d_flags>
0

> <s_epik_input>
RkMoRikoRilbQ0gyXU4xW0NIMl1bQ0gyXVtDQEBIXShDMT1PKW4yW2NIXWMoQ2wpYyg9TylbbkhdYzI9Tw==

> <s_epik_cmdline>
J2VwaWtfcHl0aG9uJywgJy1waCcsICc3LjAnLCAnLXRuJywgJzgnLCAnLW1hJywgJzIwMCcsICctbWV0YWxfYmluZGluZycsICctaW1hZScsICc8aW5maWxlLm1hZT4nLCAnLW9tYWUnLCAnPG91dGZpbGUubWFlPic=

> <r_epik_Ionization_Penalty>
1.33611

> <r_epik_Ionization_Penalty_Charging>
6.88308e-09

> <r_epik_Ionization_Penalty_Neutral>
1.33611

> <r_epik_State_Penalty>
1.41295

> <r_epik_Charging_Adjusted_Penalty>
1.41295

> <i_epik_Tot_Q>
-1

> <i_epik_Tot_abs_Q>
1

> <r_epik_Metal_State_Penalty>
0.00581136

> <b_epik_Metal_Only>
0

> <s_lp_Force_Field>
OPLS_2005

> <r_lp_Energy>
31.0989

> <b_lp_Chiralities_Consistent>
1

> <s_lp_Variant>
AV-unprocessed.smi:2246-4

> <Gold.Version>
5.8.1

> <Gold.Id.Protein>
6NUR|6NUR_protein|mol2

> <Gold.PLP.Fitness>
35.7599

> <Gold.PLP.PLP>
-34.4853

> <Gold.PLP.part.hbond>
-1.0000

> <Gold.PLP.part.metal>
0.0000

> <Gold.PLP.part.buried>
-5.8898

> <Gold.PLP.part.nonpolar>
-27.5966

> <Gold.PLP.part.repulsive>
0.2821

> <Gold.PLP.ligand.clash>
0.0000

> <Gold.PLP.ligand.torsion>
0.9168

> <Gold.PLP.Chemscore.Hbond>
1.0000

> <Gold.PLP.Chemscore.CHOScore>
0.0000

> <Gold.PLP.Chemscore.Metal>
0.0000

> <Gold.Chemscore.Hbonds>
donor molecule, donor type, donor heavy atom, donor atom, acceptor molecule, acceptor atom, score
      P1  H  7989  7998       L1    12  1.00

> <Gold.PLP.Chemscore.Internal.Correction>
0.1082

> <Gold.Rescore>
     Score         DG    S(hbond)    S(metal)    S(lipo)     H(rot)  DE(clash)    DE(int)     intcor
      9.85     -11.16       1.00        0.00      51.71       1.45       0.32       0.99       ----

> <Gold.Chemscore.Fitness>
9.8542

> <Gold.Chemscore.DG>
-11.1643

> <Gold.Chemscore.ZeroCoef>
-5.4800

> <Gold.Chemscore.Hbond>
0.9999

> <Gold.Chemscore.Metal>
0.0000

> <Gold.Chemscore.Lipo>
51.7133

> <Gold.Chemscore.Internal_Hbond>
0.0000

> <Gold.Chemscore.DEClash>
0.3245

> <Gold.Chemscore.DEInternal>
0.9857

> <Gold.Chemscore.Rot>
1.4476

> <Gold.Chemscore.Internal.Correction>
   9.000000E+99

> <Gold.Chemscore.Hbonds>
donor molecule, donor type, donor heavy atom, donor atom, acceptor molecule, acceptor atom, score
      P1  H  7989  7998       L1    12  1.00

> <Gold.Chemscore.Hbond.Weighted>
-3.3398

> <Gold.Chemscore.Metal.Weighted>
-0.0000

> <Gold.Chemscore.Lipo.Weighted>
-6.0505

> <Gold.Chemscore.Internal_Hbond.Weighted>
0.0000

> <Gold.Chemscore.DEClash.Weighted>
0.3245

> <Gold.Chemscore.DEInternal.Weighted>
0.9857

> <Gold.Chemscore.Rot.Weighted>
3.7059

> <Gold.Chemscore.Internal.Correction.Weighted>
   9.000000E+99

> <Gold.Protein.RotatedTorsions>
[ 6907 6896 6895 6894 ] final -173.59 input  -60.11 | X-H torsion
[ 7974 7965 7964 7962 ] final  -38.59 input  175.53 | X-H torsion
[ 8008 7997 7996 7995 ] final    5.60 input   59.86 | X-H torsion
[ 10167 10162 10161 10158 ] final -102.48 input  -65.29 | X-H torsion
[ 10718 10713 10712 10709 ] final -109.66 input   66.30 | X-H torsion
[ 10763 10752 10751 10750 ] final   34.22 input  -60.55 | X-H torsion
[ 11005 11000 10999 10996 ] final   -0.55 input  -57.11 | X-H torsion

> <Gold.Protein.ActiveResidues>
 VAL166  LYS551  ARG553  GLY616  TRP617  ASP618  TYR619  PRO620  LYS621  CYS622 
 ASP623  PHE694  ASN695  SER759  ASP760  ASP761  ALA762  ILE779  LEU786  VAL792 
 PHE793  MET794  SER795  GLU796  ALA797  LYS798  CYS799  TRP800  GLU811  SER814 

> <Gold.Protein.RotatedAtoms>
  151.5586  133.3406  159.2966 H   0  0  0  0  0  0  0  0  0  0  0  0  # atno 6907 bound_to 6896
  150.8436  134.7740  159.6963 H   0  0  0  0  0  0  0  0  0  0  0  0  # atno 6908 bound_to 6896
  152.4499  134.5424  159.9894 H   0  0  0  0  0  0  0  0  0  0  0  0  # atno 6909 bound_to 6896
  146.0473  140.6529  142.9058 H   0  0  0  0  0  0  0  0  0  0  0  0  # atno 7974 bound_to 7965
  154.7304  140.2729  155.6461 H   0  0  0  0  0  0  0  0  0  0  0  0  # atno 8008 bound_to 7997
  156.2848  140.2717  156.1928 H   0  0  0  0  0  0  0  0  0  0  0  0  # atno 8009 bound_to 7997
  155.0389  140.0371  157.2492 H   0  0  0  0  0  0  0  0  0  0  0  0  # atno 8010 bound_to 7997
  140.2302  143.3612  152.0893 H   0  0  0  0  0  0  0  0  0  0  0  0  # atno 10167 bound_to 10162
  156.0549  130.5775  150.8131 H   0  0  0  0  0  0  0  0  0  0  0  0  # atno 10718 bound_to 10713
  153.0174  135.6366  154.1634 H   0  0  0  0  0  0  0  0  0  0  0  0  # atno 10763 bound_to 10752
  154.1372  135.2837  155.3172 H   0  0  0  0  0  0  0  0  0  0  0  0  # atno 10764 bound_to 10752
  154.6151  135.5543  153.7576 H   0  0  0  0  0  0  0  0  0  0  0  0  # atno 10765 bound_to 10752
  140.6375  133.9520  155.8307 H   0  0  0  0  0  0  0  0  0  0  0  0  # atno 11005 bound_to 11000
  144.7104  140.4018  143.7085 LP  0  0  0  0  0  0  0  0  0  0  0  0  # atno 17320 bound_to 7965
  145.6784  139.1613  143.2715 LP  0  0  0  0  0  0  0  0  0  0  0  0  # atno 17321 bound_to 7965
  139.5113  144.6898  151.5791 LP  0  0  0  0  0  0  0  0  0  0  0  0  # atno 17342 bound_to 10162
  140.6191  143.9293  150.6512 LP  0  0  0  0  0  0  0  0  0  0  0  0  # atno 17343 bound_to 10162
  157.5510  131.0944  150.9696 LP  0  0  0  0  0  0  0  0  0  0  0  0  # atno 17370 bound_to 10713
  156.9956  130.5580  149.5307 LP  0  0  0  0  0  0  0  0  0  0  0  0  # atno 17371 bound_to 10713
  141.0631  134.0317  157.3631 LP  0  0  0  0  0  0  0  0  0  0  0  0  # atno 17394 bound_to 11000
  139.9093  135.0187  156.7622 LP  0  0  0  0  0  0  0  0  0  0  0  0  # atno 17395 bound_to 11000

$$$$
