AV-unprocessed.smi:2204|AV-procd|sdf|8937|dock7
  -GOLD-   2272012153D 1   1.00000     0.00000
 Structure written by MMmdl.
 39 40  0  0  0  0  0  0  0  0  1 V2000
  153.8756  141.2828  160.8317 C   0  0  0  0  0  0  0  0  0  0  0  0
  152.9942  142.2964  160.1639 C   0  0  0  0  0  0  0  0  0  0  0  0
  152.4584  143.4953  160.7116 C   0  0  0  0  0  0  0  0  0  0  0  0
  151.7272  144.0354  159.6914 C   0  0  0  0  0  0  0  0  0  0  0  0
  150.9201  145.2912  159.6455 C   0  0  0  0  0  0  0  0  0  0  0  0
  151.8505  143.1780  158.6118 N   0  0  0  0  0  0  0  0  0  0  0  0
  151.2706  143.2844  157.2813 C   0  0  0  0  0  0  0  0  0  0  0  0
  150.7274  141.9414  156.7829 C   0  0  0  0  0  0  0  0  0  0  0  0
  151.3896  140.9120  156.9184 O   0  0  0  0  0  0  0  0  0  0  0  0
  149.5086  141.9678  156.2202 N   0  0  0  0  0  0  0  0  0  0  0  0
  148.7858  140.8174  155.6796 C   0  0  2  0  0  0  0  0  0  0  0  0
  149.6337  140.1826  154.5673 C   0  0  0  0  0  0  0  0  0  0  0  0
  147.3929  141.2406  155.1657 C   0  0  2  0  0  0  0  0  0  0  0  0
  147.4007  142.2611  154.0248 C   0  0  0  0  0  0  0  0  0  0  0  0
  146.0338  142.8887  154.1645 C   0  0  0  0  0  0  0  0  0  0  0  0
  145.8789  142.9555  155.6803 C   0  0  0  0  0  0  0  0  0  0  0  0
  146.6472  141.8745  156.2034 O   0  0  0  0  0  0  0  0  0  0  0  0
  152.6286  142.1133  158.9057 N   0  0  0  0  0  0  0  0  0  0  0  0
  154.1526  141.6027  161.8364 H   0  0  0  0  0  0  0  0  0  0  0  0
  154.7959  141.1285  160.2676 H   0  0  0  0  0  0  0  0  0  0  0  0
  153.3704  140.3206  160.9174 H   0  0  0  0  0  0  0  0  0  0  0  0
  152.5886  143.8970  161.7055 H   0  0  0  0  0  0  0  0  0  0  0  0
  150.8841  145.7669  160.6257 H   0  0  0  0  0  0  0  0  0  0  0  0
  149.8953  145.0856  159.3365 H   0  0  0  0  0  0  0  0  0  0  0  0
  151.3513  146.0040  158.9425 H   0  0  0  0  0  0  0  0  0  0  0  0
  150.4614  144.0142  157.2996 H   0  0  0  0  0  0  0  0  0  0  0  0
  152.0278  143.6702  156.5965 H   0  0  0  0  0  0  0  0  0  0  0  0
  149.0429  142.8614  156.1560 H   0  0  0  0  0  0  0  0  0  0  0  0
  148.6538  140.0662  156.4604 H   0  0  0  0  0  0  0  0  0  0  0  0
  149.1466  139.2986  154.1551 H   0  0  0  0  0  0  0  0  0  0  0  0
  150.6081  139.8714  154.9452 H   0  0  0  0  0  0  0  0  0  0  0  0
  149.8019  140.8815  153.7470 H   0  0  0  0  0  0  0  0  0  0  0  0
  146.8297  140.3620  154.8462 H   0  0  0  0  0  0  0  0  0  0  0  0
  148.1724  143.0152  154.1865 H   0  0  0  0  0  0  0  0  0  0  0  0
  147.5638  141.8072  153.0470 H   0  0  0  0  0  0  0  0  0  0  0  0
  145.9567  143.8645  153.6839 H   0  0  0  0  0  0  0  0  0  0  0  0
  145.2749  142.2328  153.7357 H   0  0  0  0  0  0  0  0  0  0  0  0
  146.2917  143.8889  156.0646 H   0  0  0  0  0  0  0  0  0  0  0  0
  144.8364  142.8917  155.9933 H   0  0  0  0  0  0  0  0  0  0  0  0
  1  2  1  0  0  0  0
  1 19  1  0  0  0  0
  1 20  1  0  0  0  0
  1 21  1  0  0  0  0
  2 18  2  0  0  0  0
  2  3  1  0  0  0  0
  3  4  2  0  0  0  0
  3 22  1  0  0  0  0
  4  5  1  0  0  0  0
  4  6  1  0  0  0  0
  5 23  1  0  0  0  0
  5 24  1  0  0  0  0
  5 25  1  0  0  0  0
  6  7  1  0  0  0  0
  6 18  1  0  0  0  0
  7  8  1  0  0  0  0
  7 26  1  0  0  0  0
  7 27  1  0  0  0  0
  8  9  2  0  0  0  0
  8 10  1  0  0  0  0
 10 11  1  0  0  0  0
 10 28  1  0  0  0  0
 11 12  1  0  0  0  0
 11 13  1  0  0  0  0
 11 29  1  0  0  0  0
 12 30  1  0  0  0  0
 12 31  1  0  0  0  0
 12 32  1  0  0  0  0
 13 17  1  0  0  0  0
 13 14  1  0  0  0  0
 13 33  1  0  0  0  0
 14 15  1  0  0  0  0
 14 34  1  0  0  0  0
 14 35  1  0  0  0  0
 15 16  1  0  0  0  0
 15 36  1  0  0  0  0
 15 37  1  0  0  0  0
 16 17  1  0  0  0  0
 16 38  1  0  0  0  0
 16 39  1  0  0  0  0
M  END
> <s_m_source_file>
AV-unprocessed.smi

> <i_m_source_file_index>
2204

> <i_lp_mmshare_version>
43012

> <i_f3d_flags>
0

> <s_epik_input>
W0NIM11jMVtjSF1jKFtDSDNdKW4objEpW0NIMl1DKD1PKVtOSF1bQ0BIXShbQ0gzXSlbQ0BASF0yW0NIMl1bQ0gyXVtDSDJdTzI=

> <s_epik_cmdline>
J2VwaWtfcHl0aG9uJywgJy1waCcsICc3LjAnLCAnLXRuJywgJzgnLCAnLW1hJywgJzIwMCcsICctbWV0YWxfYmluZGluZycsICctaW1hZScsICc8aW5maWxlLm1hZT4nLCAnLW9tYWUnLCAnPG91dGZpbGUubWFlPic=

> <r_lp_tautomer_probability>
1

> <r_epik_Ionization_Penalty>
0.000433354

> <r_epik_Ionization_Penalty_Charging>
0

> <r_epik_Ionization_Penalty_Neutral>
0.000433354

> <r_epik_State_Penalty>
-0

> <r_epik_Charging_Adjusted_Penalty>
0

> <i_epik_Tot_Q>
0

> <i_epik_Tot_abs_Q>
0

> <r_epik_Metal_State_Penalty>
-0

> <b_epik_Metal_Only>
0

> <s_lp_Force_Field>
OPLS_2005

> <r_lp_Energy>
17.0674

> <b_lp_Chiralities_Consistent>
1

> <s_lp_Variant>
AV-unprocessed.smi:2204-1

> <Gold.Version>
5.8.1

> <Gold.Id.Protein>
6NUR|6NUR_protein|mol2

> <Gold.PLP.Fitness>
44.5620

> <Gold.PLP.PLP>
-42.3926

> <Gold.PLP.part.hbond>
-1.0000

> <Gold.PLP.part.metal>
0.0000

> <Gold.PLP.part.buried>
-5.7570

> <Gold.PLP.part.nonpolar>
-36.5036

> <Gold.PLP.part.repulsive>
0.1945

> <Gold.PLP.ligand.clash>
0.0000

> <Gold.PLP.ligand.torsion>
0.4229

> <Gold.PLP.Chemscore.Hbond>
1.0000

> <Gold.PLP.Chemscore.CHOScore>
0.0000

> <Gold.PLP.Chemscore.Metal>
0.0000

> <Gold.Chemscore.Hbonds>
donor molecule, donor type, donor heavy atom, donor atom, acceptor molecule, acceptor atom, score
      L1  H    10    28       P1  8028  1.00

> <Gold.PLP.Chemscore.Internal.Correction>
0.0153

> <Gold.Rescore>
     Score         DG    S(hbond)    S(metal)    S(lipo)     H(rot)  DE(clash)    DE(int)     intcor
     14.42     -16.32       0.99        0.00      97.29       1.50       0.10       1.79       ----

> <Gold.Chemscore.Fitness>
14.4179

> <Gold.Chemscore.DG>
-16.3154

> <Gold.Chemscore.ZeroCoef>
-5.4800

> <Gold.Chemscore.Hbond>
0.9862

> <Gold.Chemscore.Metal>
0.0000

> <Gold.Chemscore.Lipo>
97.2881

> <Gold.Chemscore.Internal_Hbond>
0.0000

> <Gold.Chemscore.DEClash>
0.1033

> <Gold.Chemscore.DEInternal>
1.7942

> <Gold.Chemscore.Rot>
1.5005

> <Gold.Chemscore.Internal.Correction>
   9.000000E+99

> <Gold.Chemscore.Hbonds>
donor molecule, donor type, donor heavy atom, donor atom, acceptor molecule, acceptor atom, score
      L1  H    10    28       P1  8028  0.98

> <Gold.Chemscore.Hbond.Weighted>
-3.2939

> <Gold.Chemscore.Metal.Weighted>
-0.0000

> <Gold.Chemscore.Lipo.Weighted>
-11.3827

> <Gold.Chemscore.Internal_Hbond.Weighted>
0.0000

> <Gold.Chemscore.DEClash.Weighted>
0.1033

> <Gold.Chemscore.DEInternal.Weighted>
1.7942

> <Gold.Chemscore.Rot.Weighted>
3.8412

> <Gold.Chemscore.Internal.Correction.Weighted>
   9.000000E+99

> <Gold.Protein.RotatedTorsions>
[ 6907 6896 6895 6894 ] final   35.05 input  -60.11 | X-H torsion
[ 7974 7965 7964 7962 ] final -156.07 input  175.53 | X-H torsion
[ 8008 7997 7996 7995 ] final  -47.94 input   59.86 | X-H torsion
[ 10167 10162 10161 10158 ] final  103.62 input  -65.29 | X-H torsion
[ 10718 10713 10712 10709 ] final  171.71 input   66.30 | X-H torsion
[ 10763 10752 10751 10750 ] final  -36.97 input  -60.55 | X-H torsion
[ 11005 11000 10999 10996 ] final  -43.69 input  -57.11 | X-H torsion

> <Gold.Protein.ActiveResidues>
 VAL166  LYS551  ARG553  GLY616  TRP617  ASP618  TYR619  PRO620  LYS621  CYS622 
 ASP623  PHE694  ASN695  SER759  ASP760  ASP761  ALA762  ILE779  LEU786  VAL792 
 PHE793  MET794  SER795  GLU796  ALA797  LYS798  CYS799  TRP800  GLU811  SER814 

> <Gold.Protein.RotatedAtoms>
  152.1108  134.9276  160.0566 H   0  0  0  0  0  0  0  0  0  0  0  0  # atno 6907 bound_to 6896
  152.0454  133.3991  159.4363 H   0  0  0  0  0  0  0  0  0  0  0  0  # atno 6908 bound_to 6896
  150.6843  134.3288  159.4862 H   0  0  0  0  0  0  0  0  0  0  0  0  # atno 6909 bound_to 6896
  144.7610  140.4160  143.5977 H   0  0  0  0  0  0  0  0  0  0  0  0  # atno 7974 bound_to 7965
  154.4022  140.1334  156.4257 H   0  0  0  0  0  0  0  0  0  0  0  0  # atno 8008 bound_to 7997
  155.7599  140.3486  155.5172 H   0  0  0  0  0  0  0  0  0  0  0  0  # atno 8009 bound_to 7997
  155.8869  140.0996  157.1436 H   0  0  0  0  0  0  0  0  0  0  0  0  # atno 8010 bound_to 7997
  139.7247  144.7050  151.0817 H   0  0  0  0  0  0  0  0  0  0  0  0  # atno 10167 bound_to 10162
  156.9896  131.0144  151.2860 H   0  0  0  0  0  0  0  0  0  0  0  0  # atno 10718 bound_to 10713
  153.8885  135.6814  153.4762 H   0  0  0  0  0  0  0  0  0  0  0  0  # atno 10763 bound_to 10752
  153.1194  135.4746  154.9168 H   0  0  0  0  0  0  0  0  0  0  0  0  # atno 10764 bound_to 10752
  154.7634  135.3217  154.8287 H   0  0  0  0  0  0  0  0  0  0  0  0  # atno 10765 bound_to 10752
  141.0401  133.6783  156.2768 H   0  0  0  0  0  0  0  0  0  0  0  0  # atno 11005 bound_to 11000
  145.6620  139.1583  143.2803 LP  0  0  0  0  0  0  0  0  0  0  0  0  # atno 17320 bound_to 7965
  146.1672  140.6700  142.9250 LP  0  0  0  0  0  0  0  0  0  0  0  0  # atno 17321 bound_to 7965
  140.7760  143.5120  150.9640 LP  0  0  0  0  0  0  0  0  0  0  0  0  # atno 17342 bound_to 10162
  139.8808  143.7074  152.3157 LP  0  0  0  0  0  0  0  0  0  0  0  0  # atno 17343 bound_to 10162
  157.5468  130.8156  149.8096 LP  0  0  0  0  0  0  0  0  0  0  0  0  # atno 17370 bound_to 10713
  156.0212  130.3795  150.1956 LP  0  0  0  0  0  0  0  0  0  0  0  0  # atno 17371 bound_to 10713
  140.6250  134.5322  157.5552 LP  0  0  0  0  0  0  0  0  0  0  0  0  # atno 17394 bound_to 11000
  139.9269  134.8038  156.1042 LP  0  0  0  0  0  0  0  0  0  0  0  0  # atno 17395 bound_to 11000

$$$$
