AV-unprocessed.smi:2963|AV-procd|sdf|11320|dock2
  -GOLD-   2272016223D 1   1.00000     0.00000
 Structure written by MMmdl.
 42 44  0  0  0  0  0  0  0  0  2 V2000
  150.3263  138.0906  154.5072 C   0  0  0  0  0  0  0  0  0  0  0  0
  151.2296  139.1845  154.4818 O   0  0  0  0  0  0  0  0  0  0  0  0
  152.1978  139.1605  155.5203 C   0  0  0  0  0  0  0  0  0  0  0  0
  151.5750  139.4862  156.8887 C   0  0  0  0  0  0  0  0  0  0  0  0
  151.1995  140.9022  156.9914 N   0  0  0  0  0  0  0  0  0  0  0  0
  150.2904  141.6321  156.2862 C   0  0  0  0  0  0  0  0  0  0  0  0
  149.2571  141.0381  154.9856 S   0  0  0  0  0  0  0  0  0  0  0  0
  147.5763  141.5983  155.3961 C   0  0  0  0  0  0  0  0  0  0  0  0
  147.2793  141.6740  156.9035 C   0  0  0  0  0  0  0  0  0  0  0  0
  147.9928  141.0324  157.6788 O   0  0  0  0  0  0  0  0  0  0  0  0
  146.2401  142.4552  157.3038 N   0  0  0  0  0  0  0  0  0  0  0  0
  145.3916  143.2068  156.3773 C   0  0  0  0  0  0  0  0  0  0  0  0
  144.3901  143.9220  157.2778 C   0  0  0  0  0  0  0  0  0  0  0  0
  144.7964  143.4819  158.5890 N   0  0  0  0  0  0  0  0  0  0  0  0
  145.8429  142.6529  158.5839 C   0  0  0  0  0  0  0  0  0  0  0  0
  146.3335  142.1728  159.6063 O   0  0  0  0  0  0  0  0  0  0  0  0
  150.3155  142.9041  156.7733 N   0  3  0  0  0  0  0  0  0  0  0  0
  151.2474  142.9883  157.8093 C   0  0  0  0  0  0  0  0  0  0  0  0
  151.6237  144.0604  158.6126 C   0  0  0  0  0  0  0  0  0  0  0  0
  152.6089  143.8045  159.5891 C   0  0  0  0  0  0  0  0  0  0  0  0
  153.1810  142.5243  159.7378 C   0  0  0  0  0  0  0  0  0  0  0  0
  152.7929  141.4447  158.9171 C   0  0  0  0  0  0  0  0  0  0  0  0
  151.8183  141.7061  157.9547 C   0  0  0  0  0  0  0  0  0  0  0  0
  149.5862  138.2143  153.7167 H   0  0  0  0  0  0  0  0  0  0  0  0
  149.7938  138.0395  155.4578 H   0  0  0  0  0  0  0  0  0  0  0  0
  150.8339  137.1412  154.3380 H   0  0  0  0  0  0  0  0  0  0  0  0
  152.6135  138.1528  155.5507 H   0  0  0  0  0  0  0  0  0  0  0  0
  153.0282  139.8299  155.2905 H   0  0  0  0  0  0  0  0  0  0  0  0
  150.6927  138.8791  157.0911 H   0  0  0  0  0  0  0  0  0  0  0  0
  152.2882  139.2709  157.6847 H   0  0  0  0  0  0  0  0  0  0  0  0
  147.4322  142.5856  154.9563 H   0  0  0  0  0  0  0  0  0  0  0  0
  146.8719  140.9168  154.9191 H   0  0  0  0  0  0  0  0  0  0  0  0
  145.9761  143.9252  155.8004 H   0  0  0  0  0  0  0  0  0  0  0  0
  144.8781  142.5381  155.6846 H   0  0  0  0  0  0  0  0  0  0  0  0
  144.4652  145.0071  157.1967 H   0  0  0  0  0  0  0  0  0  0  0  0
  143.3626  143.6193  157.0727 H   0  0  0  0  0  0  0  0  0  0  0  0
  144.3240  143.7823  159.4297 H   0  0  0  0  0  0  0  0  0  0  0  0
  151.1869  145.0423  158.5030 H   0  0  0  0  0  0  0  0  0  0  0  0
  152.9317  144.6063  160.2376 H   0  0  0  0  0  0  0  0  0  0  0  0
  153.9322  142.3663  160.4981 H   0  0  0  0  0  0  0  0  0  0  0  0
  153.2350  140.4667  159.0405 H   0  0  0  0  0  0  0  0  0  0  0  0
  149.7338  143.6548  156.4246 H   0  0  0  0  0  0  0  0  0  0  0  0
  1  2  1  0  0  0  0
  1 24  1  0  0  0  0
  1 25  1  0  0  0  0
  1 26  1  0  0  0  0
  2  3  1  0  0  0  0
  3  4  1  0  0  0  0
  3 27  1  0  0  0  0
  3 28  1  0  0  0  0
  4  5  1  0  0  0  0
  4 29  1  0  0  0  0
  4 30  1  0  0  0  0
  5 23  1  0  0  0  0
  5  6  1  0  0  0  0
  6  7  1  0  0  0  0
  6 17  2  0  0  0  0
  7  8  1  0  0  0  0
  8  9  1  0  0  0  0
  8 31  1  0  0  0  0
  8 32  1  0  0  0  0
  9 10  2  0  0  0  0
  9 11  1  0  0  0  0
 11 15  1  0  0  0  0
 11 12  1  0  0  0  0
 12 13  1  0  0  0  0
 12 33  1  0  0  0  0
 12 34  1  0  0  0  0
 13 14  1  0  0  0  0
 13 35  1  0  0  0  0
 13 36  1  0  0  0  0
 14 15  1  0  0  0  0
 14 37  1  0  0  0  0
 15 16  2  0  0  0  0
 17 18  1  0  0  0  0
 17 42  1  0  0  0  0
 18 23  2  0  0  0  0
 18 19  1  0  0  0  0
 19 20  2  0  0  0  0
 19 38  1  0  0  0  0
 20 21  1  0  0  0  0
 20 39  1  0  0  0  0
 21 22  2  0  0  0  0
 21 40  1  0  0  0  0
 22 23  1  0  0  0  0
 22 41  1  0  0  0  0
M  CHG  1  17   1
M  END
> <s_m_source_file>
AV-unprocessed.smi

> <i_m_source_file_index>
2963

> <i_lp_mmshare_version>
43012

> <i_f3d_flags>
0

> <s_epik_input>
W2NIXTFbY0hdW2NIXVtjSF1jKGMxMiluKFtDSDJdW0NIMl1PW0NIM10pYyhuMilTW0NIMl1DKD1PKU4zW0NIMl1bQ0gyXVtOSF1DMz1P

> <s_epik_cmdline>
J2VwaWtfcHl0aG9uJywgJy1waCcsICc3LjAnLCAnLXRuJywgJzgnLCAnLW1hJywgJzIwMCcsICctbWV0YWxfYmluZGluZycsICctaW1hZScsICc8aW5maWxlLm1hZT4nLCAnLW9tYWUnLCAnPG91dGZpbGUubWFlPic=

> <r_lp_tautomer_probability>
0.9999

> <r_epik_Ionization_Penalty>
1.70838

> <r_epik_Ionization_Penalty_Charging>
1.70836

> <r_epik_Ionization_Penalty_Neutral>
2.53969e-05

> <r_epik_State_Penalty>
1.81492

> <r_epik_Charging_Adjusted_Penalty>
3.52327

> <i_epik_Tot_Q>
1

> <i_epik_Tot_abs_Q>
1

> <r_epik_Metal_State_Penalty>
1.84772

> <b_epik_Metal_Only>
0

> <s_lp_Force_Field>
OPLS_2005

> <r_lp_Energy>
48.5569

> <b_lp_Chiralities_Consistent>
1

> <s_lp_Variant>
AV-unprocessed.smi:2963-2

> <Gold.Version>
5.8.1

> <Gold.Id.Protein>
6NUR|6NUR_protein|mol2

> <Gold.PLP.Fitness>
54.6153

> <Gold.PLP.PLP>
-43.7988

> <Gold.PLP.part.hbond>
-3.0000

> <Gold.PLP.part.metal>
0.0000

> <Gold.PLP.part.buried>
-5.6772

> <Gold.PLP.part.nonpolar>
-36.1721

> <Gold.PLP.part.repulsive>
0.2440

> <Gold.PLP.ligand.clash>
0.0000

> <Gold.PLP.ligand.torsion>
0.6265

> <Gold.PLP.Chemscore.Hbond>
4.0000

> <Gold.PLP.Chemscore.CHOScore>
0.0000

> <Gold.PLP.Chemscore.Metal>
0.0000

> <Gold.Chemscore.Hbonds>
donor molecule, donor type, donor heavy atom, donor atom, acceptor molecule, acceptor atom, score
      L1  H    17    42       P1  8028  2.00
      P1  H  6934  6946       L1    16  1.00
      P1  H  7989  7998       L1     2  1.00

> <Gold.PLP.Chemscore.Internal.Correction>
0.0695

> <Gold.Rescore>
     Score         DG    S(hbond)    S(metal)    S(lipo)     H(rot)  DE(clash)    DE(int)     intcor
     17.16     -20.63       2.90        0.00      99.02       2.39       0.11       3.36       ----

> <Gold.Chemscore.Fitness>
17.1572

> <Gold.Chemscore.DG>
-20.6260

> <Gold.Chemscore.ZeroCoef>
-5.4800

> <Gold.Chemscore.Hbond>
2.9005

> <Gold.Chemscore.Metal>
0.0000

> <Gold.Chemscore.Lipo>
99.0191

> <Gold.Chemscore.Internal_Hbond>
0.0000

> <Gold.Chemscore.DEClash>
0.1078

> <Gold.Chemscore.DEInternal>
3.3609

> <Gold.Chemscore.Rot>
2.3933

> <Gold.Chemscore.Internal.Correction>
   9.000000E+99

> <Gold.Chemscore.Hbonds>
donor molecule, donor type, donor heavy atom, donor atom, acceptor molecule, acceptor atom, score
      L1  H    17    42       P1  8028  0.96
      P1  H  6934  6946       L1    16  0.99
      P1  H  7989  7998       L1     2  0.44

> <Gold.Chemscore.Hbond.Weighted>
-9.6877

> <Gold.Chemscore.Metal.Weighted>
-0.0000

> <Gold.Chemscore.Lipo.Weighted>
-11.5852

> <Gold.Chemscore.Internal_Hbond.Weighted>
0.0000

> <Gold.Chemscore.DEClash.Weighted>
0.1078

> <Gold.Chemscore.DEInternal.Weighted>
3.3609

> <Gold.Chemscore.Rot.Weighted>
6.1270

> <Gold.Chemscore.Internal.Correction.Weighted>
   9.000000E+99

> <Gold.Protein.RotatedTorsions>
[ 6907 6896 6895 6894 ] final  -98.20 input  -60.11 | X-H torsion
[ 7974 7965 7964 7962 ] final  169.69 input  175.53 | X-H torsion
[ 8008 7997 7996 7995 ] final  146.10 input   59.86 | X-H torsion
[ 10167 10162 10161 10158 ] final   34.67 input  -65.29 | X-H torsion
[ 10718 10713 10712 10709 ] final  -71.85 input   66.30 | X-H torsion
[ 10763 10752 10751 10750 ] final -128.50 input  -60.55 | X-H torsion
[ 11005 11000 10999 10996 ] final  118.03 input  -57.11 | X-H torsion

> <Gold.Protein.ActiveResidues>
 VAL166  LYS551  ARG553  GLY616  TRP617  ASP618  TYR619  PRO620  LYS621  CYS622 
 ASP623  PHE694  ASN695  SER759  ASP760  ASP761  ALA762  ILE779  LEU786  VAL792 
 PHE793  MET794  SER795  GLU796  ALA797  LYS798  CYS799  TRP800  GLU811  SER814 

> <Gold.Protein.RotatedAtoms>
  150.7039  134.1231  159.4041 H   0  0  0  0  0  0  0  0  0  0  0  0  # atno 6907 bound_to 6896
  151.9217  135.0293  160.0532 H   0  0  0  0  0  0  0  0  0  0  0  0  # atno 6908 bound_to 6896
  152.2250  133.4978  159.5220 H   0  0  0  0  0  0  0  0  0  0  0  0  # atno 6909 bound_to 6896
  144.7347  139.9091  143.6414 H   0  0  0  0  0  0  0  0  0  0  0  0  # atno 7974 bound_to 7965
  156.2865  140.2191  156.5322 H   0  0  0  0  0  0  0  0  0  0  0  0  # atno 8008 bound_to 7997
  154.7439  140.0485  157.0857 H   0  0  0  0  0  0  0  0  0  0  0  0  # atno 8009 bound_to 7997
  155.0195  140.3122  155.4802 H   0  0  0  0  0  0  0  0  0  0  0  0  # atno 8010 bound_to 7997
  140.4293  144.1347  150.6157 H   0  0  0  0  0  0  0  0  0  0  0  0  # atno 10167 bound_to 10162
  156.0345  130.4360  150.2506 H   0  0  0  0  0  0  0  0  0  0  0  0  # atno 10718 bound_to 10713
  154.8756  135.3926  154.3767 H   0  0  0  0  0  0  0  0  0  0  0  0  # atno 10763 bound_to 10752
  153.4519  135.7028  153.6109 H   0  0  0  0  0  0  0  0  0  0  0  0  # atno 10764 bound_to 10752
  153.4645  135.3804  155.2325 H   0  0  0  0  0  0  0  0  0  0  0  0  # atno 10765 bound_to 10752
  139.9095  134.9616  156.7440 H   0  0  0  0  0  0  0  0  0  0  0  0  # atno 11005 bound_to 11000
  146.1014  139.4010  143.0344 LP  0  0  0  0  0  0  0  0  0  0  0  0  # atno 17320 bound_to 7965
  145.7573  140.9949  143.1219 LP  0  0  0  0  0  0  0  0  0  0  0  0  # atno 17321 bound_to 7965
  140.4445  143.2512  151.9430 LP  0  0  0  0  0  0  0  0  0  0  0  0  # atno 17342 bound_to 10162
  139.4784  144.5622  151.8221 LP  0  0  0  0  0  0  0  0  0  0  0  0  # atno 17343 bound_to 10162
  157.0606  131.0089  151.3224 LP  0  0  0  0  0  0  0  0  0  0  0  0  # atno 17370 bound_to 10713
  157.5073  130.7917  149.7667 LP  0  0  0  0  0  0  0  0  0  0  0  0  # atno 17371 bound_to 10713
  140.6826  133.9460  155.7919 LP  0  0  0  0  0  0  0  0  0  0  0  0  # atno 17394 bound_to 11000
  141.0499  134.0500  157.3797 LP  0  0  0  0  0  0  0  0  0  0  0  0  # atno 17395 bound_to 11000

$$$$
