#       Name:                AV-unprocessed.smi:2104
#       Creating user name   scv26
#       Creation time:       Fri Mar 27 11:32:24 2020


#       File generated by GOLD software.
#

@<TRIPOS>MOLECULE
AV-unprocessed.smi:2104
    50    51     1
SMALL
NO_CHARGES


@<TRIPOS>ATOM
      1 ****        -4.3588   4.7949  -1.7711 C.3            1 S1                 0.0000
      2 ****        -3.7009   3.8393  -0.8360 C.2            1 S1                 0.0000
      3 ****        -4.0917   2.6457  -0.2988 C.2            1 S1                 0.0000
      4 ****        -2.9771   2.2683   0.4989 C.2            1 S1                 0.0000
      5 ****        -2.8768   1.1563   1.2431 N.pl3          1 S1                -1.0000
      6 ****        -2.4793  -0.0059   0.6759 C.2            1 S1                 0.0000
      7 ****        -2.2467  -0.1916  -0.5209 O.2            1 S1                 0.0000
      8 ****        -2.3298  -1.0103   1.5513 N.am           1 S1                 0.0000
      9 ****        -1.8340  -2.3484   1.2443 C.3            1 S1                 0.0000
     10 ****        -0.3037  -2.4150   1.3582 C.3            1 S1                 0.0000
     11 ****         0.2812  -1.6829   0.2901 O.3            1 S1                 0.0000
     12 ****         1.6865  -1.4914   0.3918 C.3            1 S1                 0.0000
     13 ****         2.4251  -2.7679  -0.0640 C.3            1 S1                 0.0000
     14 ****         3.9459  -2.5581  -0.0986 C.3            1 S1                 0.0000
     15 ****         4.3171  -1.3658  -0.9906 C.3            1 S1                 0.0000
     16 ****         3.5928  -0.0907  -0.5340 C.3            1 S1                 0.0000
     17 ****         2.0633  -0.2821  -0.4951 C.3            1 S1                 0.0000
     18 ****         1.3707   1.0091  -0.0272 C.3            1 S1                 0.0000
     19 ****        -2.0037   3.1633   0.4633 N.2            1 S1                 0.0000
     20 ****        -2.4574   4.1709  -0.3961 O.3            1 S1                 0.0000
     21 ****        -4.1993   5.8244  -1.4503 H              1 S1                 0.0000
     22 ****        -5.4334   4.6179  -1.8155 H              1 S1                 0.0000
     23 ****        -3.9559   4.6867  -2.7779 H              1 S1                 0.0000
     24 ****        -5.0219   2.1209  -0.4560 H              1 S1                 0.0000
     25 ****        -2.5359  -0.8123   2.5193 H              1 S1                 0.0000
     26 ****        -2.2794  -3.0340   1.9651 H              1 S1                 0.0000
     27 ****        -2.1658  -2.6795   0.2591 H              1 S1                 0.0000
     28 ****         0.0118  -2.0159   2.3234 H              1 S1                 0.0000
     29 ****         0.0197  -3.4548   1.3139 H              1 S1                 0.0000
     30 ****         1.9599  -1.2578   1.4226 H              1 S1                 0.0000
     31 ****         2.1951  -3.6015   0.5990 H              1 S1                 0.0000
     32 ****         2.0758  -3.0571  -1.0560 H              1 S1                 0.0000
     33 ****         4.3145  -2.3871   0.9136 H              1 S1                 0.0000
     34 ****         4.4386  -3.4611  -0.4598 H              1 S1                 0.0000
     35 ****         5.3957  -1.2079  -0.9706 H              1 S1                 0.0000
     36 ****         4.0547  -1.5861  -2.0261 H              1 S1                 0.0000
     37 ****         3.9526   0.1952   0.4554 H              1 S1                 0.0000
     38 ****         3.8487   0.7314  -1.2032 H              1 S1                 0.0000
     39 ****         1.7258  -0.4887  -1.5120 H              1 S1                 0.0000
     40 ****         1.6405   1.2556   1.0001 H              1 S1                 0.0000
     41 ****         0.2860   0.9177  -0.0705 H              1 S1                 0.0000
     42 ****         1.6476   1.8551  -0.6566 H              1 S1                 0.0000
     43 ****        -3.0961   1.1867   2.2182 LP             1 S1                 0.0000
     44 ****        -2.3481   0.5602  -1.1725 LP             1 S1                 0.0000
     45 ****        -1.9566  -1.0939  -0.8398 LP             1 S1                 0.0000
     46 ****        -0.1529  -0.7827   0.2566 LP             1 S1                 0.0000
     47 ****         0.0959  -2.1742  -0.5610 LP             1 S1                 0.0000
     48 ****        -1.1294   3.1277   0.9474 LP             1 S1                 0.0000
     49 ****        -2.4948   5.0411   0.0952 LP             1 S1                 0.0000
     50 ****        -1.8357   4.2545  -1.1750 LP             1 S1                 0.0000
@<TRIPOS>BOND
    1    1    2 1     
    2    1   21 1     
    3    1   22 1     
    4    1   23 1     
    5    2   20 1     
    6    2    3 2     
    7    3    4 1     
    8    3   24 1     
    9    4    5 1     
   10    4   19 2     
   11    5    6 1     
   12    6    7 2     
   13    6    8 am    
   14    8    9 1     
   15    8   25 1     
   16    9   10 1     
   17    9   26 1     
   18    9   27 1     
   19   10   11 1     
   20   10   28 1     
   21   10   29 1     
   22   11   12 1     
   23   12   17 1     
   24   12   13 1     
   25   12   30 1     
   26   13   14 1     
   27   13   31 1     
   28   13   32 1     
   29   14   15 1     
   30   14   33 1     
   31   14   34 1     
   32   15   16 1     
   33   15   35 1     
   34   15   36 1     
   35   16   17 1     
   36   16   37 1     
   37   16   38 1     
   38   17   18 1     
   39   17   39 1     
   40   18   40 1     
   41   18   41 1     
   42   18   42 1     
   43   19   20 1     
   44    5   43 1     
   45    7   44 1     
   46    7   45 1     
   47   11   46 1     
   48   11   47 1     
   49   19   48 1     
   50   20   49 1     
   51   20   50 1     
@<TRIPOS>SUBSTRUCTURE
      1 S1             1
@<TRIPOS>SET
LONE_PAIRS      STATIC     ATOMS    <user>   **** ""
8 43 44 45 46 47 48 49 50
DONOR_HYDROGENS      STATIC     ATOMS    <user>   **** ""
1 25
ATOM$BLUE        STATIC     ATOMS    COLORGROUP SYSTEM
8 43 44 45 46 47 48 49 50
ATOM$RED        STATIC     ATOMS    COLORGROUP SYSTEM
1 25
