AV-unprocessed.smi:1047|AV-procd|sdf|4597|dock4
  -GOLD-   22720 3 83D 1   1.00000     0.00000
 Structure written by MMmdl.
 57 59  0  0  0  0  0  0  0  0  3 V2000
  146.4849  133.9800  151.0932 C   0  0  0  0  0  0  0  0  0  0  0  0
  146.2527  132.8842  152.1431 C   0  0  0  0  0  0  0  0  0  0  0  0
  147.4980  132.1420  152.4742 N   0  3  2  0  0  0  0  0  0  0  0  0
  147.2760  130.9802  153.3701 C   0  0  0  0  0  0  0  0  0  0  0  0
  147.0837  131.4291  154.8303 C   0  0  0  0  0  0  0  0  0  0  0  0
  148.2150  132.1813  155.2519 O   0  0  0  0  0  0  0  0  0  0  0  0
  148.4099  133.3568  154.4718 C   0  0  1  0  0  0  0  0  0  0  0  0
  149.5693  134.1714  155.0726 C   0  0  0  0  0  0  0  0  0  0  0  0
  149.4645  135.5958  154.7649 N   0  0  0  0  0  0  0  0  0  0  0  0
  150.4669  136.4124  155.4452 C   0  0  0  0  0  0  0  0  0  0  0  0
  150.2903  137.9133  155.1518 C   0  0  2  0  0  0  0  0  0  0  0  0
  150.1967  138.1146  153.7549 O   0  0  0  0  0  0  0  0  0  0  0  0
  151.3826  138.8084  155.7740 C   0  0  0  0  0  0  0  0  0  0  0  0
  150.9379  140.1938  155.9735 N   0  0  0  0  0  0  0  0  0  0  0  0
  150.0872  140.9549  155.2326 C   0  0  0  0  0  0  0  0  0  0  0  0
  150.0044  142.1762  155.8297 N   0  3  0  0  0  0  0  0  0  0  0  0
  150.8158  142.1957  156.9662 C   0  0  0  0  0  0  0  0  0  0  0  0
  151.0623  143.2017  157.8928 C   0  0  0  0  0  0  0  0  0  0  0  0
  151.9501  142.9012  158.9507 C   0  0  0  0  0  0  0  0  0  0  0  0
  152.2397  143.9786  159.9820 C   0  0  0  0  0  0  0  0  0  0  0  0
  152.5588  141.6231  159.0524 C   0  0  0  0  0  0  0  0  0  0  0  0
  153.5106  141.3104  160.1946 C   0  0  0  0  0  0  0  0  0  0  0  0
  152.2965  140.6137  158.0984 C   0  0  0  0  0  0  0  0  0  0  0  0
  151.4184  140.9267  157.0636 C   0  0  0  0  0  0  0  0  0  0  0  0
  148.6110  132.9840  152.9833 C   0  0  0  0  0  0  0  0  0  0  0  0
  145.5388  134.4372  150.8029 H   0  0  0  0  0  0  0  0  0  0  0  0
  146.9434  133.5718  150.1919 H   0  0  0  0  0  0  0  0  0  0  0  0
  147.1263  134.7778  151.4666 H   0  0  0  0  0  0  0  0  0  0  0  0
  145.7977  133.3062  153.0390 H   0  0  0  0  0  0  0  0  0  0  0  0
  145.5237  132.1849  151.7318 H   0  0  0  0  0  0  0  0  0  0  0  0
  146.4251  130.3884  153.0308 H   0  0  0  0  0  0  0  0  0  0  0  0
  148.1464  130.3257  153.3072 H   0  0  0  0  0  0  0  0  0  0  0  0
  146.1726  132.0176  154.9479 H   0  0  0  0  0  0  0  0  0  0  0  0
  146.9817  130.5584  155.4781 H   0  0  0  0  0  0  0  0  0  0  0  0
  147.5148  133.9727  154.5680 H   0  0  0  0  0  0  0  0  0  0  0  0
  149.5761  134.0302  156.1541 H   0  0  0  0  0  0  0  0  0  0  0  0
  150.5182  133.7792  154.7047 H   0  0  0  0  0  0  0  0  0  0  0  0
  148.5384  135.9327  155.0085 H   0  0  0  0  0  0  0  0  0  0  0  0
  150.4193  136.2455  156.5222 H   0  0  0  0  0  0  0  0  0  0  0  0
  151.4641  136.1025  155.1304 H   0  0  0  0  0  0  0  0  0  0  0  0
  149.3260  138.2102  155.5651 H   0  0  0  0  0  0  0  0  0  0  0  0
  149.6746  137.4184  153.3867 H   0  0  0  0  0  0  0  0  0  0  0  0
  151.7140  138.4098  156.7337 H   0  0  0  0  0  0  0  0  0  0  0  0
  152.2641  138.8434  155.1325 H   0  0  0  0  0  0  0  0  0  0  0  0
  149.5714  140.6459  154.3348 H   0  0  0  0  0  0  0  0  0  0  0  0
  150.5956  144.1723  157.8088 H   0  0  0  0  0  0  0  0  0  0  0  0
  153.3077  144.1944  160.0225 H   0  0  0  0  0  0  0  0  0  0  0  0
  151.9119  143.6593  160.9718 H   0  0  0  0  0  0  0  0  0  0  0  0
  151.7218  144.9083  159.7436 H   0  0  0  0  0  0  0  0  0  0  0  0
  153.8635  140.2795  160.1497 H   0  0  0  0  0  0  0  0  0  0  0  0
  153.0157  141.4498  161.1559 H   0  0  0  0  0  0  0  0  0  0  0  0
  154.3828  141.9637  160.1549 H   0  0  0  0  0  0  0  0  0  0  0  0
  152.7592  139.6407  158.1745 H   0  0  0  0  0  0  0  0  0  0  0  0
  149.5294  132.4074  152.8675 H   0  0  0  0  0  0  0  0  0  0  0  0
  148.7396  133.8790  152.3759 H   0  0  0  0  0  0  0  0  0  0  0  0
  147.8110  131.7542  151.5954 H   0  0  0  0  0  0  0  0  0  0  0  0
  149.4369  142.9390  155.4832 H   0  0  0  0  0  0  0  0  0  0  0  0
  1  2  1  0  0  0  0
  1 26  1  0  0  0  0
  1 27  1  0  0  0  0
  1 28  1  0  0  0  0
  2  3  1  0  0  0  0
  2 29  1  0  0  0  0
  2 30  1  0  0  0  0
  3 25  1  0  0  0  0
  3  4  1  0  0  0  0
  3 56  1  0  0  0  0
  4  5  1  0  0  0  0
  4 31  1  0  0  0  0
  4 32  1  0  0  0  0
  5  6  1  0  0  0  0
  5 33  1  0  0  0  0
  5 34  1  0  0  0  0
  6  7  1  0  0  0  0
  7  8  1  0  0  0  0
  7 25  1  0  0  0  0
  7 35  1  0  0  0  0
  8  9  1  0  0  0  0
  8 36  1  0  0  0  0
  8 37  1  0  0  0  0
  9 10  1  0  0  0  0
  9 38  1  0  0  0  0
 10 11  1  0  0  0  0
 10 39  1  0  0  0  0
 10 40  1  0  0  0  0
 11 12  1  0  0  0  0
 11 13  1  0  0  0  0
 11 41  1  0  0  0  0
 12 42  1  0  0  0  0
 13 14  1  0  0  0  0
 13 43  1  0  0  0  0
 13 44  1  0  0  0  0
 14 24  1  0  0  0  0
 14 15  1  0  0  0  0
 15 16  2  0  0  0  0
 15 45  1  0  0  0  0
 16 17  1  0  0  0  0
 16 57  1  0  0  0  0
 17 24  2  0  0  0  0
 17 18  1  0  0  0  0
 18 19  2  0  0  0  0
 18 46  1  0  0  0  0
 19 20  1  0  0  0  0
 19 21  1  0  0  0  0
 20 47  1  0  0  0  0
 20 48  1  0  0  0  0
 20 49  1  0  0  0  0
 21 22  1  0  0  0  0
 21 23  2  0  0  0  0
 22 50  1  0  0  0  0
 22 51  1  0  0  0  0
 22 52  1  0  0  0  0
 23 24  1  0  0  0  0
 23 53  1  0  0  0  0
 25 54  1  0  0  0  0
 25 55  1  0  0  0  0
M  CHG  1   3   1
M  CHG  1  16   1
M  END
> <s_m_source_file>
AV-unprocessed.smi

> <i_m_source_file_index>
1047

> <i_lp_mmshare_version>
43012

> <i_f3d_flags>
0

> <s_epik_input>
W0NIM11bQ0gyXU4xW0NIMl1bQ0gyXU9bQ0BIXShbQ0gyXTEpW0NIMl1bTkhdW0NIMl1bQ0BIXShbT0hdKVtDSDJdbihbY0hdbjIpYyhjMjMpW2NIXWMoW0NIM10pYyhbY0hdMylbQ0gzXQ==

> <s_epik_cmdline>
J2VwaWtfcHl0aG9uJywgJy1waCcsICc3LjAnLCAnLXRuJywgJzgnLCAnLW1hJywgJzIwMCcsICctbWV0YWxfYmluZGluZycsICctaW1hZScsICc8aW5maWxlLm1hZT4nLCAnLW9tYWUnLCAnPG91dGZpbGUubWFlPic=

> <r_epik_Ionization_Penalty>
2.03028

> <r_epik_Ionization_Penalty_Charging>
1.21256

> <r_epik_Ionization_Penalty_Neutral>
0.817715

> <r_epik_State_Penalty>
2.54959

> <r_epik_Charging_Adjusted_Penalty>
3.76215

> <i_epik_Tot_Q>
2

> <i_epik_Tot_abs_Q>
2

> <r_epik_Metal_State_Penalty>
6.52811

> <b_epik_Metal_Only>
0

> <s_lp_Force_Field>
OPLS_2005

> <r_lp_Energy>
43.5189

> <b_lp_Chiralities_Consistent>
1

> <s_lp_Variant>
AV-unprocessed.smi:1047-38

> <Gold.Version>
5.8.1

> <Gold.Id.Protein>
6NUR|6NUR_protein|mol2

> <Gold.PLP.Fitness>
60.5228

> <Gold.PLP.PLP>
-50.1881

> <Gold.PLP.part.hbond>
-4.7929

> <Gold.PLP.part.metal>
0.0000

> <Gold.PLP.part.buried>
-6.3496

> <Gold.PLP.part.nonpolar>
-39.4826

> <Gold.PLP.part.repulsive>
0.1363

> <Gold.PLP.ligand.clash>
0.0000

> <Gold.PLP.ligand.torsion>
0.8871

> <Gold.PLP.Chemscore.Hbond>
4.0000

> <Gold.PLP.Chemscore.CHOScore>
0.0000

> <Gold.PLP.Chemscore.Metal>
0.0000

> <Gold.Chemscore.Hbonds>
donor molecule, donor type, donor heavy atom, donor atom, acceptor molecule, acceptor atom, score
      L1  H     3    56       P1 10747  1.00
      L1  H    12    42       P1  7948  1.00
      L1  H    16    57       P1  8028  1.95

> <Gold.PLP.Chemscore.Internal.Correction>
0.1089

> <Gold.Rescore>
     Score         DG    S(hbond)    S(metal)    S(lipo)     H(rot)  DE(clash)    DE(int)     intcor
     21.50     -22.39       2.66        0.00     127.95       2.71       0.05       0.85       ----

> <Gold.Chemscore.Fitness>
21.4956

> <Gold.Chemscore.DG>
-22.3874

> <Gold.Chemscore.ZeroCoef>
-5.4800

> <Gold.Chemscore.Hbond>
2.6564

> <Gold.Chemscore.Metal>
0.0000

> <Gold.Chemscore.Lipo>
127.9475

> <Gold.Chemscore.Internal_Hbond>
0.0000

> <Gold.Chemscore.DEClash>
0.0451

> <Gold.Chemscore.DEInternal>
0.8467

> <Gold.Chemscore.Rot>
2.7088

> <Gold.Chemscore.Internal.Correction>
   9.000000E+99

> <Gold.Chemscore.Hbonds>
donor molecule, donor type, donor heavy atom, donor atom, acceptor molecule, acceptor atom, score
      L1  H     3    56       P1 10747  0.97
      L1  H    12    42       P1  7948  0.67
      L1  H    16    57       P1  8028  0.93

> <Gold.Chemscore.Hbond.Weighted>
-8.8722

> <Gold.Chemscore.Metal.Weighted>
-0.0000

> <Gold.Chemscore.Lipo.Weighted>
-14.9699

> <Gold.Chemscore.Internal_Hbond.Weighted>
0.0000

> <Gold.Chemscore.DEClash.Weighted>
0.0451

> <Gold.Chemscore.DEInternal.Weighted>
0.8467

> <Gold.Chemscore.Rot.Weighted>
6.9346

> <Gold.Chemscore.Internal.Correction.Weighted>
   9.000000E+99

> <Gold.Protein.RotatedTorsions>
[ 6907 6896 6895 6894 ] final   49.32 input  -60.11 | X-H torsion
[ 7974 7965 7964 7962 ] final   78.87 input  175.53 | X-H torsion
[ 8008 7997 7996 7995 ] final   73.32 input   59.86 | X-H torsion
[ 10167 10162 10161 10158 ] final  -54.94 input  -65.29 | X-H torsion
[ 10718 10713 10712 10709 ] final  -41.73 input   66.30 | X-H torsion
[ 10763 10752 10751 10750 ] final  -79.93 input  -60.55 | X-H torsion
[ 11005 11000 10999 10996 ] final  145.09 input  -57.11 | X-H torsion

> <Gold.Protein.ActiveResidues>
 VAL166  LYS551  ARG553  GLY616  TRP617  ASP618  TYR619  PRO620  LYS621  CYS622 
 ASP623  PHE694  ASN695  SER759  ASP760  ASP761  ALA762  ILE779  LEU786  VAL792 
 PHE793  MET794  SER795  GLU796  ALA797  LYS798  CYS799  TRP800  GLU811  SER814 

> <Gold.Protein.RotatedAtoms>
  152.2894  134.7739  160.0380 H   0  0  0  0  0  0  0  0  0  0  0  0  # atno 6907 bound_to 6896
  151.8290  133.3400  159.3615 H   0  0  0  0  0  0  0  0  0  0  0  0  # atno 6908 bound_to 6896
  150.7223  134.5430  159.5801 H   0  0  0  0  0  0  0  0  0  0  0  0  # atno 6909 bound_to 6896
  145.6716  139.2498  143.1865 H   0  0  0  0  0  0  0  0  0  0  0  0  # atno 7974 bound_to 7965
  155.7820  140.3481  155.5302 H   0  0  0  0  0  0  0  0  0  0  0  0  # atno 8008 bound_to 7997
  155.8719  140.0988  157.1565 H   0  0  0  0  0  0  0  0  0  0  0  0  # atno 8009 bound_to 7997
  154.4018  140.1339  156.4076 H   0  0  0  0  0  0  0  0  0  0  0  0  # atno 8010 bound_to 7997
  140.6403  143.2504  151.5008 H   0  0  0  0  0  0  0  0  0  0  0  0  # atno 10167 bound_to 10162
  156.2672  130.4203  149.8478 H   0  0  0  0  0  0  0  0  0  0  0  0  # atno 10718 bound_to 10713
  154.5448  135.5678  153.6871 H   0  0  0  0  0  0  0  0  0  0  0  0  # atno 10763 bound_to 10752
  152.9973  135.6236  154.2453 H   0  0  0  0  0  0  0  0  0  0  0  0  # atno 10764 bound_to 10752
  154.2386  135.2863  155.2842 H   0  0  0  0  0  0  0  0  0  0  0  0  # atno 10765 bound_to 10752
  140.0685  134.9165  157.1304 H   0  0  0  0  0  0  0  0  0  0  0  0  # atno 11005 bound_to 11000
  146.1041  140.7509  142.9535 LP  0  0  0  0  0  0  0  0  0  0  0  0  # atno 17320 bound_to 7965
  144.7055  140.3833  143.7121 LP  0  0  0  0  0  0  0  0  0  0  0  0  # atno 17321 bound_to 7965
  139.5612  144.2152  152.1694 LP  0  0  0  0  0  0  0  0  0  0  0  0  # atno 17342 bound_to 10162
  140.1420  144.5193  150.6738 LP  0  0  0  0  0  0  0  0  0  0  0  0  # atno 17343 bound_to 10162
  156.5972  130.8531  151.3423 LP  0  0  0  0  0  0  0  0  0  0  0  0  # atno 17370 bound_to 10713
  157.7271  130.9639  150.1685 LP  0  0  0  0  0  0  0  0  0  0  0  0  # atno 17371 bound_to 10713
  140.3663  134.2439  155.7182 LP  0  0  0  0  0  0  0  0  0  0  0  0  # atno 17394 bound_to 11000
  141.2002  133.7993  157.0499 LP  0  0  0  0  0  0  0  0  0  0  0  0  # atno 17395 bound_to 11000

$$$$
