AV-unprocessed.smi:265|AV-procd|sdf|2024|dock9
  -GOLD-   2262021233D 1   1.00000     0.00000
 Structure written by MMmdl.
 52 56  0  0  0  0  0  0  0  0  1 V2000
  150.4452  141.8035  155.8200 C   0  0  0  0  0  0  0  0  0  0  0  0
  149.9260  140.4929  155.2061 C   0  0  1  0  0  0  0  0  0  0  0  0
  150.9377  139.8655  154.4186 O   0  0  0  0  0  0  0  0  0  0  0  0
  151.1401  138.5278  154.8539 C   0  0  0  0  0  0  0  0  0  0  0  0
  149.8230  138.1360  155.5105 C   0  0  0  0  0  0  0  0  0  0  0  0
  149.3992  139.4276  156.1944 C   0  0  1  0  0  0  0  0  0  0  0  0
  150.0728  139.5168  157.4406 O   0  0  0  0  0  0  0  0  0  0  0  0
  147.8769  139.5388  156.4469 C   0  0  0  0  0  0  0  0  0  0  0  0
  147.0889  138.5974  155.6663 N   0  0  0  0  0  0  0  0  0  0  0  0
  146.3532  137.5412  156.1545 C   0  0  0  0  0  0  0  0  0  0  0  0
  145.7317  136.8321  155.2527 N   0  0  0  0  0  0  0  0  0  0  0  0
  146.0504  137.4552  154.0518 C   0  0  0  0  0  0  0  0  0  0  0  0
  145.7166  137.2097  152.6902 C   0  0  0  0  0  0  0  0  0  0  0  0
  144.8998  136.1945  152.3112 N   0  0  0  0  0  0  0  0  0  0  0  0
  144.2135  135.4439  153.3621 C   0  0  0  0  0  0  0  0  0  0  0  0
  143.0532  134.6254  152.7752 C   0  0  0  0  0  0  0  0  0  0  0  0
  143.5122  133.7333  151.6098 C   0  0  2  0  0  0  0  0  0  0  0  0
  144.3590  132.6962  152.0881 O   0  0  0  0  0  0  0  0  0  0  0  0
  144.6827  131.7159  151.1006 C   0  0  0  0  0  0  0  0  0  0  0  0
  145.1697  132.3495  149.7841 C   0  0  0  0  0  0  0  0  0  0  0  0
  145.7576  131.6612  148.9530 O   0  0  0  0  0  0  0  0  0  0  0  0
  144.8932  133.6453  149.5657 N   0  0  0  0  0  0  0  0  0  0  0  0
  144.3082  134.5388  150.5599 C   0  0  2  0  0  0  0  0  0  0  0  0
  145.4222  135.3777  151.2177 C   0  0  0  0  0  0  0  0  0  0  0  0
  146.2465  138.0444  151.7562 N   0  0  0  0  0  0  0  0  0  0  0  0
  147.0368  139.0565  152.1262 C   0  0  0  0  0  0  0  0  0  0  0  0
  147.4229  139.4077  153.3541 N   0  0  0  0  0  0  0  0  0  0  0  0
  146.9052  138.5673  154.2949 C   0  0  0  0  0  0  0  0  0  0  0  0
  142.6303  133.2826  151.1506 H   0  0  0  0  0  0  0  0  0  0  0  0
  143.6247  135.2138  150.0428 H   0  0  0  0  0  0  0  0  0  0  0  0
  149.6795  142.2792  156.4332 H   0  0  0  0  0  0  0  0  0  0  0  0
  150.7303  142.5089  155.0396 H   0  0  0  0  0  0  0  0  0  0  0  0
  151.3231  141.6355  156.4445 H   0  0  0  0  0  0  0  0  0  0  0  0
  149.1285  140.7413  154.5046 H   0  0  0  0  0  0  0  0  0  0  0  0
  151.4096  137.8726  154.0254 H   0  0  0  0  0  0  0  0  0  0  0  0
  151.9526  138.5091  155.5815 H   0  0  0  0  0  0  0  0  0  0  0  0
  149.1056  137.8685  154.7337 H   0  0  0  0  0  0  0  0  0  0  0  0
  149.9156  137.2859  156.1878 H   0  0  0  0  0  0  0  0  0  0  0  0
  150.7879  138.8991  157.4382 H   0  0  0  0  0  0  0  0  0  0  0  0
  147.6595  139.3718  157.5028 H   0  0  0  0  0  0  0  0  0  0  0  0
  147.5266  140.5464  156.2197 H   0  0  0  0  0  0  0  0  0  0  0  0
  146.2974  137.3079  157.2079 H   0  0  0  0  0  0  0  0  0  0  0  0
  144.9256  134.7814  153.8562 H   0  0  0  0  0  0  0  0  0  0  0  0
  143.8268  136.1261  154.1205 H   0  0  0  0  0  0  0  0  0  0  0  0
  142.5905  134.0184  153.5539 H   0  0  0  0  0  0  0  0  0  0  0  0
  142.2812  135.3085  152.4186 H   0  0  0  0  0  0  0  0  0  0  0  0
  145.4510  131.0525  151.4981 H   0  0  0  0  0  0  0  0  0  0  0  0
  143.8031  131.1051  150.8941 H   0  0  0  0  0  0  0  0  0  0  0  0
  145.1768  134.0527  148.6865 H   0  0  0  0  0  0  0  0  0  0  0  0
  145.9077  135.9904  150.4588 H   0  0  0  0  0  0  0  0  0  0  0  0
  146.1937  134.7216  151.6233 H   0  0  0  0  0  0  0  0  0  0  0  0
  147.4127  139.6735  151.3234 H   0  0  0  0  0  0  0  0  0  0  0  0
  1  2  1  0  0  0  0
  1 31  1  0  0  0  0
  1 32  1  0  0  0  0
  1 33  1  0  0  0  0
  2  6  1  0  0  0  0
  2  3  1  0  0  0  0
  2 34  1  0  0  0  0
  3  4  1  0  0  0  0
  4  5  1  0  0  0  0
  4 35  1  0  0  0  0
  4 36  1  0  0  0  0
  5  6  1  0  0  0  0
  5 37  1  0  0  0  0
  5 38  1  0  0  0  0
  6  7  1  0  0  0  0
  6  8  1  0  0  0  0
  7 39  1  0  0  0  0
  8  9  1  0  0  0  0
  8 40  1  0  0  0  0
  8 41  1  0  0  0  0
  9 28  1  0  0  0  0
  9 10  1  0  0  0  0
 10 11  2  0  0  0  0
 10 42  1  0  0  0  0
 11 12  1  0  0  0  0
 12 28  2  0  0  0  0
 12 13  1  0  0  0  0
 13 14  1  0  0  0  0
 13 25  2  0  0  0  0
 14 24  1  0  0  0  0
 14 15  1  0  0  0  0
 15 16  1  0  0  0  0
 15 43  1  0  0  0  0
 15 44  1  0  0  0  0
 16 17  1  0  0  0  0
 16 45  1  0  0  0  0
 16 46  1  0  0  0  0
 17 29  1  0  0  0  0
 17 23  1  0  0  0  0
 17 18  1  0  0  0  0
 18 19  1  0  0  0  0
 19 20  1  0  0  0  0
 19 47  1  0  0  0  0
 19 48  1  0  0  0  0
 20 21  2  0  0  0  0
 20 22  1  0  0  0  0
 22 23  1  0  0  0  0
 22 49  1  0  0  0  0
 23 30  1  0  0  0  0
 23 24  1  0  0  0  0
 24 50  1  0  0  0  0
 24 51  1  0  0  0  0
 25 26  1  0  0  0  0
 26 27  2  0  0  0  0
 26 52  1  0  0  0  0
 27 28  1  0  0  0  0
M  END
> <s_m_source_file>
AV-unprocessed.smi

> <i_m_source_file_index>
265

> <i_lp_mmshare_version>
43012

> <i_f3d_flags>
0

> <s_epik_input>
W0NIMl0xW0NIMl1PW0NAQEhdKFtDSDNdKVtDQEBdMShbT0hdKVtDSDJdbihbY0hdbjIpYyhjMjMpbltjSF1uYzNOKFtDSDJdW0NIMl00KVtDSDJdW0NAQEhdKFtDQEhdNDUpW05IXUMoPU8pW0NIMl1PNQ==

> <s_epik_cmdline>
J2VwaWtfcHl0aG9uJywgJy1waCcsICc3LjAnLCAnLXRuJywgJzgnLCAnLW1hJywgJzIwMCcsICctbWV0YWxfYmluZGluZycsICctaW1hZScsICc8aW5maWxlLm1hZT4nLCAnLW9tYWUnLCAnPG91dGZpbGUubWFlPic=

> <r_lp_tautomer_probability>
1

> <r_epik_Ionization_Penalty>
0.00221504

> <r_epik_Ionization_Penalty_Charging>
0

> <r_epik_Ionization_Penalty_Neutral>
0.00221504

> <r_epik_State_Penalty>
-0

> <r_epik_Charging_Adjusted_Penalty>
0

> <i_epik_Tot_Q>
0

> <i_epik_Tot_abs_Q>
0

> <r_epik_Metal_State_Penalty>
-0

> <b_epik_Metal_Only>
0

> <s_lp_Force_Field>
OPLS_2005

> <r_lp_Energy>
44.7189

> <b_lp_Chiralities_Consistent>
1

> <s_lp_Variant>
AV-unprocessed.smi:265-10

> <Gold.Version>
5.8.1

> <Gold.Id.Protein>
6NUR|6NUR_protein|mol2

> <Gold.PLP.Fitness>
40.9357

> <Gold.PLP.PLP>
-34.4054

> <Gold.PLP.part.hbond>
-2.9205

> <Gold.PLP.part.metal>
0.0000

> <Gold.PLP.part.buried>
-6.1107

> <Gold.PLP.part.nonpolar>
-27.4247

> <Gold.PLP.part.repulsive>
1.3776

> <Gold.PLP.ligand.clash>
0.0000

> <Gold.PLP.ligand.torsion>
1.1071

> <Gold.PLP.Chemscore.Hbond>
2.0000

> <Gold.PLP.Chemscore.CHOScore>
0.7946

> <Gold.PLP.Chemscore.Metal>
0.0000

> <Gold.Chemscore.Hbonds>
donor molecule, donor type, donor heavy atom, donor atom, acceptor molecule, acceptor atom, score
      L1  H    22    49       P1  7921  1.00
      P1  H  7989  7998       L1     3  0.99
      L1  C    26    52       P1  7957  0.81

> <Gold.PLP.Chemscore.Internal.Correction>
0.3607

> <Gold.Rescore>
     Score         DG    S(hbond)    S(metal)    S(lipo)     H(rot)  DE(clash)    DE(int)     intcor
     11.01     -13.57       1.97        0.00      62.05       2.25       0.01       2.54       ----

> <Gold.Chemscore.Fitness>
11.0112

> <Gold.Chemscore.DG>
-13.5666

> <Gold.Chemscore.ZeroCoef>
-5.4800

> <Gold.Chemscore.Hbond>
1.9685

> <Gold.Chemscore.Metal>
0.0000

> <Gold.Chemscore.Lipo>
62.0483

> <Gold.Chemscore.Internal_Hbond>
0.0000

> <Gold.Chemscore.DEClash>
0.0137

> <Gold.Chemscore.DEInternal>
2.5417

> <Gold.Chemscore.Rot>
2.2453

> <Gold.Chemscore.Internal.Correction>
   9.000000E+99

> <Gold.Chemscore.Hbonds>
donor molecule, donor type, donor heavy atom, donor atom, acceptor molecule, acceptor atom, score
      L1  H    22    49       P1  7921  0.96
      P1  H  7989  7998       L1     3  0.76

> <Gold.Chemscore.Hbond.Weighted>
-6.5749

> <Gold.Chemscore.Metal.Weighted>
-0.0000

> <Gold.Chemscore.Lipo.Weighted>
-7.2597

> <Gold.Chemscore.Internal_Hbond.Weighted>
0.0000

> <Gold.Chemscore.DEClash.Weighted>
0.0137

> <Gold.Chemscore.DEInternal.Weighted>
2.5417

> <Gold.Chemscore.Rot.Weighted>
5.7479

> <Gold.Chemscore.Internal.Correction.Weighted>
   9.000000E+99

> <Gold.Protein.RotatedTorsions>
[ 6907 6896 6895 6894 ] final -173.40 input  -60.11 | X-H torsion
[ 7974 7965 7964 7962 ] final  141.08 input  175.53 | X-H torsion
[ 8008 7997 7996 7995 ] final   71.02 input   59.86 | X-H torsion
[ 10167 10162 10161 10158 ] final  -49.46 input  -65.29 | X-H torsion
[ 10718 10713 10712 10709 ] final  -68.51 input   66.30 | X-H torsion
[ 10763 10752 10751 10750 ] final  -24.90 input  -60.55 | X-H torsion
[ 11005 11000 10999 10996 ] final   55.45 input  -57.11 | X-H torsion

> <Gold.Protein.ActiveResidues>
 VAL166  LYS551  ARG553  GLY616  TRP617  ASP618  TYR619  PRO620  LYS621  CYS622 
 ASP623  PHE694  ASN695  SER759  ASP760  ASP761  ALA762  ILE779  LEU786  VAL792 
 PHE793  MET794  SER795  GLU796  ALA797  LYS798  CYS799  TRP800  GLU811  SER814 

> <Gold.Protein.RotatedAtoms>
  151.5555  133.3411  159.2960 H   0  0  0  0  0  0  0  0  0  0  0  0  # atno 6907 bound_to 6896
  150.8453  134.7762  159.6976 H   0  0  0  0  0  0  0  0  0  0  0  0  # atno 6908 bound_to 6896
  152.4512  134.5397  159.9887 H   0  0  0  0  0  0  0  0  0  0  0  0  # atno 6909 bound_to 6896
  144.9129  139.5269  143.5700 H   0  0  0  0  0  0  0  0  0  0  0  0  # atno 7974 bound_to 7965
  155.7476  140.3489  155.5135 H   0  0  0  0  0  0  0  0  0  0  0  0  # atno 8008 bound_to 7997
  155.9035  140.1038  157.1354 H   0  0  0  0  0  0  0  0  0  0  0  0  # atno 8009 bound_to 7997
  154.4047  140.1281  156.4453 H   0  0  0  0  0  0  0  0  0  0  0  0  # atno 8010 bound_to 7997
  140.6684  143.2697  151.4219 H   0  0  0  0  0  0  0  0  0  0  0  0  # atno 10167 bound_to 10162
  156.0502  130.4296  150.2011 H   0  0  0  0  0  0  0  0  0  0  0  0  # atno 10718 bound_to 10713
  153.6911  135.6961  153.5089 H   0  0  0  0  0  0  0  0  0  0  0  0  # atno 10763 bound_to 10752
  153.2412  135.4305  155.0699 H   0  0  0  0  0  0  0  0  0  0  0  0  # atno 10764 bound_to 10752
  154.8372  135.3508  154.6453 H   0  0  0  0  0  0  0  0  0  0  0  0  # atno 10765 bound_to 10752
  140.0606  134.5608  155.9156 H   0  0  0  0  0  0  0  0  0  0  0  0  # atno 11005 bound_to 11000
  146.3167  139.7949  142.8977 LP  0  0  0  0  0  0  0  0  0  0  0  0  # atno 17320 bound_to 7965
  145.3424  141.0290  143.3385 LP  0  0  0  0  0  0  0  0  0  0  0  0  # atno 17321 bound_to 7965
  139.5941  144.1434  152.2123 LP  0  0  0  0  0  0  0  0  0  0  0  0  # atno 17342 bound_to 10162
  140.0798  144.5710  150.7130 LP  0  0  0  0  0  0  0  0  0  0  0  0  # atno 17343 bound_to 10162
  157.0096  130.9947  151.3369 LP  0  0  0  0  0  0  0  0  0  0  0  0  # atno 17370 bound_to 10713
  157.5419  130.8126  149.8039 LP  0  0  0  0  0  0  0  0  0  0  0  0  # atno 17371 bound_to 10713
  141.1971  133.6595  156.5726 LP  0  0  0  0  0  0  0  0  0  0  0  0  # atno 17394 bound_to 11000
  140.3776  134.7551  157.4640 LP  0  0  0  0  0  0  0  0  0  0  0  0  # atno 17395 bound_to 11000

$$$$
