AV-unprocessed.smi:1825|AV-procd|sdf|7414|dock9
  -GOLD-   22720 9 93D 1   1.00000     0.00000
 Structure written by MMmdl.
 33 34  0  0  0  0  0  0  0  0  2 V2000
  146.3596  128.2385  152.7196 O   0  0  0  0  0  0  0  0  0  0  0  0
  146.9279  128.6576  151.7085 C   0  0  0  0  0  0  0  0  0  0  0  0
  146.9539  129.9733  151.4482 N   0  0  0  0  0  0  0  0  0  0  0  0
  146.3625  131.0357  152.2619 C   0  0  0  0  0  0  0  0  0  0  0  0
  146.0635  132.3301  151.4624 C   0  0  0  0  0  0  0  0  0  0  0  0
  147.1295  132.4988  150.5444 O   0  0  0  0  0  0  0  0  0  0  0  0
  144.7699  132.1372  150.6337 C   0  0  0  0  0  0  0  0  0  0  0  0
  144.3488  133.4004  149.8613 C   0  0  0  0  0  0  0  0  0  0  0  0
  144.2135  134.6072  150.7992 C   0  0  0  0  0  0  0  0  0  0  0  0
  145.5174  134.8481  151.5712 C   0  0  0  0  0  0  0  0  0  0  0  0
  145.9504  133.5948  152.3526 C   0  0  0  0  0  0  0  0  0  0  0  0
  147.5723  127.9085  150.7850 N   0  5  0  0  0  0  0  0  0  0  0  0
  148.0945  126.7201  151.1294 C   0  0  0  0  0  0  0  0  0  0  0  0
  147.9843  126.2030  152.3585 N   0  0  0  0  0  0  0  0  0  0  0  0
  148.5945  124.9544  152.4922 C   0  0  0  0  0  0  0  0  0  0  0  0
  149.1754  124.5063  151.3356 C   0  0  0  0  0  0  0  0  0  0  0  0
  148.9736  125.6469  150.0365 S   0  0  0  0  0  0  0  0  0  0  0  0
  147.4397  130.2656  150.6130 H   0  0  0  0  0  0  0  0  0  0  0  0
  145.4467  130.6494  152.7111 H   0  0  0  0  0  0  0  0  0  0  0  0
  147.0207  131.2651  153.1014 H   0  0  0  0  0  0  0  0  0  0  0  0
  147.6409  131.7046  150.5337 H   0  0  0  0  0  0  0  0  0  0  0  0
  144.8864  131.3045  149.9385 H   0  0  0  0  0  0  0  0  0  0  0  0
  143.9549  131.8570  151.3025 H   0  0  0  0  0  0  0  0  0  0  0  0
  145.0795  133.6209  149.0821 H   0  0  0  0  0  0  0  0  0  0  0  0
  143.4020  133.2222  149.3508 H   0  0  0  0  0  0  0  0  0  0  0  0
  143.9500  135.4969  150.2266 H   0  0  0  0  0  0  0  0  0  0  0  0
  143.3971  134.4366  151.5023 H   0  0  0  0  0  0  0  0  0  0  0  0
  146.3060  135.1404  150.8769 H   0  0  0  0  0  0  0  0  0  0  0  0
  145.3907  135.6843  152.2593 H   0  0  0  0  0  0  0  0  0  0  0  0
  145.2250  133.4087  153.1456 H   0  0  0  0  0  0  0  0  0  0  0  0
  146.8982  133.8018  152.8509 H   0  0  0  0  0  0  0  0  0  0  0  0
  148.5648  124.4542  153.4487 H   0  0  0  0  0  0  0  0  0  0  0  0
  149.7053  123.5810  151.1680 H   0  0  0  0  0  0  0  0  0  0  0  0
  1  2  2  0  0  0  0
  2  3  1  0  0  0  0
  2 12  1  0  0  0  0
  3  4  1  0  0  0  0
  3 18  1  0  0  0  0
  4  5  1  0  0  0  0
  4 19  1  0  0  0  0
  4 20  1  0  0  0  0
  5 11  1  0  0  0  0
  5  6  1  0  0  0  0
  5  7  1  0  0  0  0
  6 21  1  0  0  0  0
  7  8  1  0  0  0  0
  7 22  1  0  0  0  0
  7 23  1  0  0  0  0
  8  9  1  0  0  0  0
  8 24  1  0  0  0  0
  8 25  1  0  0  0  0
  9 10  1  0  0  0  0
  9 26  1  0  0  0  0
  9 27  1  0  0  0  0
 10 11  1  0  0  0  0
 10 28  1  0  0  0  0
 10 29  1  0  0  0  0
 11 30  1  0  0  0  0
 11 31  1  0  0  0  0
 12 13  1  0  0  0  0
 13 17  1  0  0  0  0
 13 14  2  0  0  0  0
 14 15  1  0  0  0  0
 15 16  2  0  0  0  0
 15 32  1  0  0  0  0
 16 17  1  0  0  0  0
 16 33  1  0  0  0  0
M  CHG  1  12  -1
M  END
> <s_m_source_file>
AV-unprocessed.smi

> <i_m_source_file_index>
1825

> <i_lp_mmshare_version>
43012

> <i_f3d_flags>
0

> <s_epik_input>
czFbY0hdW2NIXW5jMVtOSF1DKD1PKVtOSF1bQ0gyXUMyKFtPSF0pW0NIMl1bQ0gyXVtDSDJdW0NIMl1bQ0gyXTI=

> <s_epik_cmdline>
J2VwaWtfcHl0aG9uJywgJy1waCcsICc3LjAnLCAnLXRuJywgJzgnLCAnLW1hJywgJzIwMCcsICctbWV0YWxfYmluZGluZycsICctaW1hZScsICc8aW5maWxlLm1hZT4nLCAnLW9tYWUnLCAnPG91dGZpbGUubWFlPic=

> <r_lp_tautomer_probability>
0.999

> <r_epik_Ionization_Penalty>
8.3436

> <r_epik_Ionization_Penalty_Charging>
6.70408

> <r_epik_Ionization_Penalty_Neutral>
1.63952

> <r_epik_State_Penalty>
6.70425

> <r_epik_Charging_Adjusted_Penalty>
13.4083

> <i_epik_Tot_Q>
-1

> <i_epik_Tot_abs_Q>
1

> <r_epik_Metal_State_Penalty>
2.62591

> <b_epik_Metal_Only>
1

> <s_lp_Force_Field>
OPLS_2005

> <r_lp_Energy>
9.48325

> <b_lp_Chiralities_Consistent>
1

> <s_lp_Variant>
AV-unprocessed.smi:1825-2

> <Gold.Version>
5.8.1

> <Gold.Id.Protein>
6NUR|6NUR_protein|mol2

> <Gold.PLP.Fitness>
37.6377

> <Gold.PLP.PLP>
-33.6708

> <Gold.PLP.part.hbond>
-1.7626

> <Gold.PLP.part.metal>
0.0000

> <Gold.PLP.part.buried>
-7.2871

> <Gold.PLP.part.nonpolar>
-25.1009

> <Gold.PLP.part.repulsive>
0.3368

> <Gold.PLP.ligand.clash>
0.0000

> <Gold.PLP.ligand.torsion>
0.6078

> <Gold.PLP.Chemscore.Hbond>
1.7200

> <Gold.PLP.Chemscore.CHOScore>
0.0000

> <Gold.PLP.Chemscore.Metal>
0.0000

> <Gold.Chemscore.Hbonds>
donor molecule, donor type, donor heavy atom, donor atom, acceptor molecule, acceptor atom, score
      L1  H     3    18       P1 10747  0.72
      L1  H     6    21       P1 10747  1.00

> <Gold.PLP.Chemscore.Internal.Correction>
0.0225

> <Gold.Rescore>
     Score         DG    S(hbond)    S(metal)    S(lipo)     H(rot)  DE(clash)    DE(int)     intcor
     12.31     -14.62       1.89        0.00      64.23       1.83       0.10       2.20       ----

> <Gold.Chemscore.Fitness>
12.3127

> <Gold.Chemscore.DG>
-14.6202

> <Gold.Chemscore.ZeroCoef>
-5.4800

> <Gold.Chemscore.Hbond>
1.8874

> <Gold.Chemscore.Metal>
0.0000

> <Gold.Chemscore.Lipo>
64.2257

> <Gold.Chemscore.Internal_Hbond>
0.0000

> <Gold.Chemscore.DEClash>
0.1047

> <Gold.Chemscore.DEInternal>
2.2027

> <Gold.Chemscore.Rot>
1.8274

> <Gold.Chemscore.Internal.Correction>
   9.000000E+99

> <Gold.Chemscore.Hbonds>
donor molecule, donor type, donor heavy atom, donor atom, acceptor molecule, acceptor atom, score
      L1  H     3    18       P1 10747  0.72
      L1  H     6    21       P1 10747  0.96

> <Gold.Chemscore.Hbond.Weighted>
-6.3039

> <Gold.Chemscore.Metal.Weighted>
-0.0000

> <Gold.Chemscore.Lipo.Weighted>
-7.5144

> <Gold.Chemscore.Internal_Hbond.Weighted>
0.0000

> <Gold.Chemscore.DEClash.Weighted>
0.1047

> <Gold.Chemscore.DEInternal.Weighted>
2.2027

> <Gold.Chemscore.Rot.Weighted>
4.6781

> <Gold.Chemscore.Internal.Correction.Weighted>
   9.000000E+99

> <Gold.Protein.RotatedTorsions>
[ 6907 6896 6895 6894 ] final   40.96 input  -60.11 | X-H torsion
[ 7974 7965 7964 7962 ] final  -30.51 input  175.53 | X-H torsion
[ 8008 7997 7996 7995 ] final   17.97 input   59.86 | X-H torsion
[ 10167 10162 10161 10158 ] final   -1.27 input  -65.29 | X-H torsion
[ 10718 10713 10712 10709 ] final  -33.19 input   66.30 | X-H torsion
[ 10763 10752 10751 10750 ] final  129.13 input  -60.55 | X-H torsion
[ 11005 11000 10999 10996 ] final  115.63 input  -57.11 | X-H torsion

> <Gold.Protein.ActiveResidues>
 VAL166  LYS551  ARG553  GLY616  TRP617  ASP618  TYR619  PRO620  LYS621  CYS622 
 ASP623  PHE694  ASN695  SER759  ASP760  ASP761  ALA762  ILE779  LEU786  VAL792 
 PHE793  MET794  SER795  GLU796  ALA797  LYS798  CYS799  TRP800  GLU811  SER814 

> <Gold.Protein.RotatedAtoms>
  152.1891  134.8687  160.0519 H   0  0  0  0  0  0  0  0  0  0  0  0  # atno 6907 bound_to 6896
  151.9583  133.3682  159.4034 H   0  0  0  0  0  0  0  0  0  0  0  0  # atno 6908 bound_to 6896
  150.6932  134.4191  159.5241 H   0  0  0  0  0  0  0  0  0  0  0  0  # atno 6909 bound_to 6896
  146.1138  140.5549  142.8766 H   0  0  0  0  0  0  0  0  0  0  0  0  # atno 7974 bound_to 7965
  154.8992  140.2998  155.5327 H   0  0  0  0  0  0  0  0  0  0  0  0  # atno 8008 bound_to 7997
  156.3019  140.2410  156.3952 H   0  0  0  0  0  0  0  0  0  0  0  0  # atno 8009 bound_to 7997
  154.8539  140.0408  157.1611 H   0  0  0  0  0  0  0  0  0  0  0  0  # atno 8010 bound_to 7997
  140.6803  143.6795  150.8117 H   0  0  0  0  0  0  0  0  0  0  0  0  # atno 10167 bound_to 10162
  156.3657  130.4331  149.7586 H   0  0  0  0  0  0  0  0  0  0  0  0  # atno 10718 bound_to 10713
  153.7368  135.3230  155.3296 H   0  0  0  0  0  0  0  0  0  0  0  0  # atno 10763 bound_to 10752
  154.8308  135.4535  154.1066 H   0  0  0  0  0  0  0  0  0  0  0  0  # atno 10764 bound_to 10752
  153.2230  135.6950  153.8060 H   0  0  0  0  0  0  0  0  0  0  0  0  # atno 10765 bound_to 10752
  139.9016  134.9586  156.7074 H   0  0  0  0  0  0  0  0  0  0  0  0  # atno 11005 bound_to 11000
  144.7534  140.5248  143.6785 LP  0  0  0  0  0  0  0  0  0  0  0  0  # atno 17320 bound_to 7965
  145.5610  139.1479  143.3341 LP  0  0  0  0  0  0  0  0  0  0  0  0  # atno 17321 bound_to 7965
  140.0495  143.5264  152.2680 LP  0  0  0  0  0  0  0  0  0  0  0  0  # atno 17342 bound_to 10162
  139.6121  144.7611  151.2929 LP  0  0  0  0  0  0  0  0  0  0  0  0  # atno 17343 bound_to 10162
  156.4733  130.8007  151.3024 LP  0  0  0  0  0  0  0  0  0  0  0  0  # atno 17370 bound_to 10713
  157.7478  131.0029  150.3017 LP  0  0  0  0  0  0  0  0  0  0  0  0  # atno 17371 bound_to 10713
  140.7102  133.9230  155.8080 LP  0  0  0  0  0  0  0  0  0  0  0  0  # atno 17394 bound_to 11000
  141.0306  134.0762  157.4019 LP  0  0  0  0  0  0  0  0  0  0  0  0  # atno 17395 bound_to 11000

$$$$
