#       Name:                AV-unprocessed.smi:1093
#       Creating user name   scv26
#       Creation time:       Fri Mar 27 03:27:52 2020


#       File generated by GOLD software.
#

@<TRIPOS>MOLECULE
AV-unprocessed.smi:1093
    50    51     1
SMALL
NO_CHARGES


@<TRIPOS>ATOM
      1 ****        -2.1326   0.7437  -3.4644 C.3            1 S1                 0.0000
      2 ****        -3.5373   0.6362  -2.8534 C.3            1 S1                 0.0000
      3 ****        -3.4985   0.3920  -1.3901 N.4            1 S1                 1.0000
      4 ****        -4.7518  -0.2254  -0.8831 C.3            1 S1                 0.0000
      5 ****        -4.6236  -0.6077   0.6022 C.3            1 S1                 0.0000
      6 ****        -4.1935   0.5960   1.4585 C.3            1 S1                 0.0000
      7 ****        -2.9231   1.2519   0.8882 C.3            1 S1                 0.0000
      8 ****        -1.7767   0.3614   1.0763 N.am           1 S1                 0.0000
      9 ****        -0.4901   0.7087   0.9295 C.2            1 S1                 0.0000
     10 ****        -0.1267   1.8428   0.6206 O.2            1 S1                 0.0000
     11 ****         0.3244  -0.3318   1.1736 N.am           1 S1                 0.0000
     12 ****         1.7387  -0.4005   1.0501 C.ar           1 S1                 0.0000
     13 ****         2.5220   0.5018   0.2940 C.ar           1 S1                 0.0000
     14 ****         3.9155   0.3105   0.2300 C.ar           1 S1                 0.0000
     15 ****         4.5002  -0.7822   0.9171 C.ar           1 S1                 0.0000
     16 ****         5.8939  -1.0164   0.8807 N.pl3          1 S1                 0.0000
     17 ****         6.4580  -2.1576   1.5947 C.3            1 S1                 0.0000
     18 ****         6.7678  -0.1272   0.1255 C.3            1 S1                 0.0000
     19 ****         3.7417  -1.6487   1.6320 N.ar           1 S1                 0.0000
     20 ****         2.4070  -1.4621   1.6906 C.ar           1 S1                 0.0000
     21 ****        -3.1425   1.6011  -0.6011 C.3            1 S1                 0.0000
     22 ****        -2.1930   0.8304  -4.5495 H              1 S1                 0.0000
     23 ****        -1.5356  -0.1401  -3.2377 H              1 S1                 0.0000
     24 ****        -1.5910   1.6166  -3.1017 H              1 S1                 0.0000
     25 ****        -4.1238   1.5300  -3.0705 H              1 S1                 0.0000
     26 ****        -4.0475  -0.1941  -3.3432 H              1 S1                 0.0000
     27 ****        -5.5823   0.4683  -1.0237 H              1 S1                 0.0000
     28 ****        -4.9848  -1.1200  -1.4619 H              1 S1                 0.0000
     29 ****        -5.5727  -1.0016   0.9669 H              1 S1                 0.0000
     30 ****        -3.8982  -1.4151   0.7088 H              1 S1                 0.0000
     31 ****        -5.0007   1.3296   1.4774 H              1 S1                 0.0000
     32 ****        -4.0362   0.2886   2.4931 H              1 S1                 0.0000
     33 ****        -2.7310   2.1710   1.4448 H              1 S1                 0.0000
     34 ****        -1.9803  -0.5889   1.3500 H              1 S1                 0.0000
     35 ****        -0.1181  -1.1739   1.5118 H              1 S1                 0.0000
     36 ****         2.0873   1.3252  -0.2502 H              1 S1                 0.0000
     37 ****         4.5058   1.0038  -0.3498 H              1 S1                 0.0000
     38 ****         6.0307  -3.0902   1.2248 H              1 S1                 0.0000
     39 ****         6.2516  -2.0811   2.6627 H              1 S1                 0.0000
     40 ****         7.5391  -2.2133   1.4671 H              1 S1                 0.0000
     41 ****         6.4969  -0.1298  -0.9308 H              1 S1                 0.0000
     42 ****         7.8104  -0.4359   0.2018 H              1 S1                 0.0000
     43 ****         6.6957   0.8932   0.5031 H              1 S1                 0.0000
     44 ****         1.8551  -2.1872   2.2707 H              1 S1                 0.0000
     45 ****        -2.2469   2.0711  -1.0048 H              1 S1                 0.0000
     46 ****        -3.9392   2.3409  -0.6958 H              1 S1                 0.0000
     47 ****        -2.7661  -0.2860  -1.2351 H              1 S1                 0.0000
     48 ****        -0.8055   2.5605   0.4655 LP             1 S1                 0.0000
     49 ****         0.8476   2.0469   0.5246 LP             1 S1                 0.0000
     50 ****         4.1666  -2.4172   2.1104 LP             1 S1                 0.0000
@<TRIPOS>BOND
    1    1    2 1     
    2    1   22 1     
    3    1   23 1     
    4    1   24 1     
    5    2    3 1     
    6    2   25 1     
    7    2   26 1     
    8    3   21 1     
    9    3    4 1     
   10    3   47 1     
   11    4    5 1     
   12    4   27 1     
   13    4   28 1     
   14    5    6 1     
   15    5   29 1     
   16    5   30 1     
   17    6    7 1     
   18    6   31 1     
   19    6   32 1     
   20    7    8 1     
   21    7   21 1     
   22    7   33 1     
   23    8    9 am    
   24    8   34 1     
   25    9   10 2     
   26    9   11 am    
   27   11   12 1     
   28   11   35 1     
   29   12   20 ar    
   30   12   13 ar    
   31   13   14 ar    
   32   13   36 1     
   33   14   15 ar    
   34   14   37 1     
   35   15   16 1     
   36   15   19 ar    
   37   16   17 1     
   38   16   18 1     
   39   17   38 1     
   40   17   39 1     
   41   17   40 1     
   42   18   41 1     
   43   18   42 1     
   44   18   43 1     
   45   19   20 ar    
   46   20   44 1     
   47   21   45 1     
   48   21   46 1     
   49   10   48 1     
   50   10   49 1     
   51   19   50 1     
@<TRIPOS>SUBSTRUCTURE
      1 S1             1
@<TRIPOS>SET
LONE_PAIRS      STATIC     ATOMS    <user>   **** ""
3 48 49 50
DONOR_HYDROGENS      STATIC     ATOMS    <user>   **** ""
3 47 34 35
ATOM$BLUE        STATIC     ATOMS    COLORGROUP SYSTEM
3 48 49 50
ATOM$RED        STATIC     ATOMS    COLORGROUP SYSTEM
3 47 34 35
