#       Name:                AV-unprocessed.smi:748
#       Creating user name   scv26
#       Creation time:       Fri Mar 27 00:57:51 2020


#       File generated by GOLD software.
#

@<TRIPOS>MOLECULE
AV-unprocessed.smi:748
    58    59     1
SMALL
NO_CHARGES


@<TRIPOS>ATOM
      1 ****        -1.6363   7.1162   0.8075 C.3            1 S1                 0.0000
      2 ****        -2.8783   6.3191   0.3792 C.3            1 S1                 0.0000
      3 ****        -3.9660   6.3389   1.4614 C.3            1 S1                 0.0000
      4 ****        -2.5162   4.9367   0.0793 N.am           1 S1                 0.0000
      5 ****        -2.0485   4.4908  -1.0973 C.2            1 S1                 0.0000
      6 ****        -1.8794   5.2181  -2.0767 O.2            1 S1                 0.0000
      7 ****        -1.7269   2.9949  -1.1679 C.3            1 S1                 0.0000
      8 ****        -0.7105   2.6425  -2.2719 C.3            1 S1                 0.0000
      9 ****        -0.3650   1.2262  -2.2449 N.am           1 S1                 0.0000
     10 ****         0.5496   0.6714  -1.4331 C.2            1 S1                 0.0000
     11 ****         1.1928   1.3086  -0.5982 O.2            1 S1                 0.0000
     12 ****         0.7009  -0.8183  -1.5493 C.ar           1 S1                 0.0000
     13 ****         0.4883  -1.4888  -2.7742 C.ar           1 S1                 0.0000
     14 ****         0.6598  -2.8845  -2.8127 C.ar           1 S1                 0.0000
     15 ****         1.0269  -3.6157  -1.7405 N.ar           1 S1                 0.0000
     16 ****         1.2532  -2.9838  -0.5627 C.ar           1 S1                 0.0000
     17 ****         1.6488  -3.7587   0.5488 N.3            1 S1                 0.0000
     18 ****         2.8727  -3.3232   1.2159 C.3            1 S1                 0.0000
     19 ****         3.0281  -4.0394   2.5680 C.3            1 S1                 0.0000
     20 ****         2.9678  -5.4494   2.3775 O.3            1 S1                 0.0000
     21 ****         1.7189  -5.8642   1.8311 C.3            1 S1                 0.0000
     22 ****         1.7107  -7.3942   1.7512 C.3            1 S1                 0.0000
     23 ****         1.5317  -5.2118   0.4482 C.3            1 S1                 0.0000
     24 ****         1.0978  -1.5836  -0.4309 C.ar           1 S1                 0.0000
     25 ****        -1.8934   8.1531   1.0253 H              1 S1                 0.0000
     26 ****        -0.8805   7.1249   0.0215 H              1 S1                 0.0000
     27 ****        -1.1806   6.6914   1.7026 H              1 S1                 0.0000
     28 ****        -3.2955   6.7818  -0.5170 H              1 S1                 0.0000
     29 ****        -4.2751   7.3599   1.6867 H              1 S1                 0.0000
     30 ****        -3.6139   5.8860   2.3888 H              1 S1                 0.0000
     31 ****        -4.8522   5.7918   1.1379 H              1 S1                 0.0000
     32 ****        -2.6244   4.2678   0.8280 H              1 S1                 0.0000
     33 ****        -1.3408   2.6787  -0.1978 H              1 S1                 0.0000
     34 ****        -2.6566   2.4478  -1.3286 H              1 S1                 0.0000
     35 ****        -1.1290   2.8648  -3.2541 H              1 S1                 0.0000
     36 ****         0.1930   3.2478  -2.1751 H              1 S1                 0.0000
     37 ****        -0.8604   0.6206  -2.8831 H              1 S1                 0.0000
     38 ****         0.2020  -0.9577  -3.6704 H              1 S1                 0.0000
     39 ****         0.5009  -3.4293  -3.7316 H              1 S1                 0.0000
     40 ****         3.7235  -3.5528   0.5731 H              1 S1                 0.0000
     41 ****         2.8829  -2.2468   1.3812 H              1 S1                 0.0000
     42 ****         3.9866  -3.7833   3.0193 H              1 S1                 0.0000
     43 ****         2.2528  -3.7223   3.2672 H              1 S1                 0.0000
     44 ****         0.9146  -5.5480   2.4981 H              1 S1                 0.0000
     45 ****         0.7649  -7.7603   1.3509 H              1 S1                 0.0000
     46 ****         1.8470  -7.8366   2.7382 H              1 S1                 0.0000
     47 ****         2.5115  -7.7605   1.1082 H              1 S1                 0.0000
     48 ****         0.5531  -5.4825   0.0492 H              1 S1                 0.0000
     49 ****         2.2835  -5.5851  -0.2487 H              1 S1                 0.0000
     50 ****         1.2633  -1.0990   0.5204 H              1 S1                 0.0000
     51 ****        -2.0936   6.1931  -2.0183 LP             1 S1                 0.0000
     52 ****        -1.5278   4.8336  -2.9302 LP             1 S1                 0.0000
     53 ****         1.0460   2.2927  -0.4985 LP             1 S1                 0.0000
     54 ****         1.8620   0.8419  -0.0199 LP             1 S1                 0.0000
     55 ****         1.1305  -4.6077  -1.8131 LP             1 S1                 0.0000
     56 ****         0.9023  -3.5286   1.1732 LP             1 S1                 0.0000
     57 ****         3.0988  -5.8999   3.2607 LP             1 S1                 0.0000
     58 ****         3.6995  -5.7218   1.7526 LP             1 S1                 0.0000
@<TRIPOS>BOND
    1    1    2 1     
    2    1   25 1     
    3    1   26 1     
    4    1   27 1     
    5    2    3 1     
    6    2    4 1     
    7    2   28 1     
    8    3   29 1     
    9    3   30 1     
   10    3   31 1     
   11    4    5 am    
   12    4   32 1     
   13    5    6 2     
   14    5    7 1     
   15    7    8 1     
   16    7   33 1     
   17    7   34 1     
   18    8    9 1     
   19    8   35 1     
   20    8   36 1     
   21    9   10 am    
   22    9   37 1     
   23   10   11 2     
   24   10   12 1     
   25   12   24 ar    
   26   12   13 ar    
   27   13   14 ar    
   28   13   38 1     
   29   14   15 ar    
   30   14   39 1     
   31   15   16 ar    
   32   16   17 1     
   33   16   24 ar    
   34   17   23 1     
   35   17   18 1     
   36   18   19 1     
   37   18   40 1     
   38   18   41 1     
   39   19   20 1     
   40   19   42 1     
   41   19   43 1     
   42   20   21 1     
   43   21   22 1     
   44   21   23 1     
   45   21   44 1     
   46   22   45 1     
   47   22   46 1     
   48   22   47 1     
   49   23   48 1     
   50   23   49 1     
   51   24   50 1     
   52    6   51 1     
   53    6   52 1     
   54   11   53 1     
   55   11   54 1     
   56   15   55 1     
   57   17   56 1     
   58   20   57 1     
   59   20   58 1     
@<TRIPOS>SUBSTRUCTURE
      1 S1             1
@<TRIPOS>SET
LONE_PAIRS      STATIC     ATOMS    <user>   **** ""
8 51 52 53 54 55 56 57 58
DONOR_HYDROGENS      STATIC     ATOMS    <user>   **** ""
2 32 37
ATOM$BLUE        STATIC     ATOMS    COLORGROUP SYSTEM
8 51 52 53 54 55 56 57 58
ATOM$RED        STATIC     ATOMS    COLORGROUP SYSTEM
2 32 37
