#       Name:                AV-unprocessed.smi:828
#       Creating user name   scv26
#       Creation time:       Fri Mar 27 01:31:03 2020


#       File generated by GOLD software.
#

@<TRIPOS>MOLECULE
AV-unprocessed.smi:828
    39    40     1
SMALL
NO_CHARGES


@<TRIPOS>ATOM
      1 ****        -6.7461   2.6967   0.9082 C.3            1 S1                 0.0000
      2 ****        -5.3396   2.2040   0.9218 C.2            1 S1                 0.0000
      3 ****        -4.2842   3.0268   0.8840 N.2            1 S1                 0.0000
      4 ****        -3.0793   2.3383   0.9016 N.2            1 S1                 0.0000
      5 ****        -3.2625   1.0117   0.9516 C.2            1 S1                 0.0000
      6 ****        -2.2002   0.0694   0.9746 N.am           1 S1                 0.0000
      7 ****        -0.8769   0.3077   0.9683 C.2            1 S1                 0.0000
      8 ****        -0.3521   1.4216   0.9653 O.2            1 S1                 0.0000
      9 ****        -0.1746  -0.8345   0.9639 N.am           1 S1                 0.0000
     10 ****         1.2828  -0.9123   0.9573 C.3            1 S1                 0.0000
     11 ****         1.8837  -0.5922  -0.4274 C.3            1 S1                 0.0000
     12 ****         1.4734  -1.5944  -1.5258 C.3            1 S1                 0.0000
     13 ****         2.7355  -2.3982  -1.8214 C.3            1 S1                 0.0000
     14 ****         3.8502  -1.4031  -1.5258 C.3            1 S1                 0.0000
     15 ****         3.3660  -0.6290  -0.3667 N.4            1 S1                 1.0000
     16 ****         4.0089   0.6938  -0.2142 C.3            1 S1                 0.0000
     17 ****        -4.9388   0.4917   0.9800 S.3            1 S1                 0.0000
     18 ****        -6.8074   3.6881   1.3581 H              1 S1                 0.0000
     19 ****        -7.3880   2.0193   1.4716 H              1 S1                 0.0000
     20 ****        -7.1102   2.7537  -0.1177 H              1 S1                 0.0000
     21 ****        -2.4831  -0.8992   0.9907 H              1 S1                 0.0000
     22 ****        -0.6810  -1.7080   0.9700 H              1 S1                 0.0000
     23 ****         1.6833  -0.2333   1.7119 H              1 S1                 0.0000
     24 ****         1.5706  -1.9179   1.2660 H              1 S1                 0.0000
     25 ****         1.5633   0.4032  -0.7400 H              1 S1                 0.0000
     26 ****         0.6372  -2.2357  -1.2456 H              1 S1                 0.0000
     27 ****         1.1746  -1.0477  -2.4211 H              1 S1                 0.0000
     28 ****         2.8038  -3.2463  -1.1388 H              1 S1                 0.0000
     29 ****         2.7673  -2.7815  -2.8418 H              1 S1                 0.0000
     30 ****         4.8037  -1.8884  -1.3161 H              1 S1                 0.0000
     31 ****         3.9869  -0.7417  -2.3830 H              1 S1                 0.0000
     32 ****         3.7989   1.3356  -1.0709 H              1 S1                 0.0000
     33 ****         5.0900   0.5838  -0.1248 H              1 S1                 0.0000
     34 ****         3.6453   1.1929   0.6845 H              1 S1                 0.0000
     35 ****         3.5983  -1.1742   0.4513 H              1 S1                 0.0000
     36 ****        -4.3558   4.0235   0.8473 LP             1 S1                 0.0000
     37 ****        -2.1820   2.7792   0.8796 LP             1 S1                 0.0000
     38 ****        -0.9224   2.2430   0.9676 LP             1 S1                 0.0000
     39 ****         0.6444   1.5048   0.9606 LP             1 S1                 0.0000
@<TRIPOS>BOND
    1    1    2 1     
    2    1   18 1     
    3    1   19 1     
    4    1   20 1     
    5    2   17 1     
    6    2    3 2     
    7    3    4 1     
    8    4    5 2     
    9    5    6 1     
   10    5   17 1     
   11    6    7 am    
   12    6   21 1     
   13    7    8 2     
   14    7    9 am    
   15    9   10 1     
   16    9   22 1     
   17   10   11 1     
   18   10   23 1     
   19   10   24 1     
   20   11   15 1     
   21   11   12 1     
   22   11   25 1     
   23   12   13 1     
   24   12   26 1     
   25   12   27 1     
   26   13   14 1     
   27   13   28 1     
   28   13   29 1     
   29   14   15 1     
   30   14   30 1     
   31   14   31 1     
   32   15   16 1     
   33   15   35 1     
   34   16   32 1     
   35   16   33 1     
   36   16   34 1     
   37    3   36 1     
   38    4   37 1     
   39    8   38 1     
   40    8   39 1     
@<TRIPOS>SUBSTRUCTURE
      1 S1             1
@<TRIPOS>SET
LONE_PAIRS      STATIC     ATOMS    <user>   **** ""
4 36 37 38 39
DONOR_HYDROGENS      STATIC     ATOMS    <user>   **** ""
3 21 22 35
ATOM$BLUE        STATIC     ATOMS    COLORGROUP SYSTEM
4 36 37 38 39
ATOM$RED        STATIC     ATOMS    COLORGROUP SYSTEM
3 21 22 35
