AV-unprocessed.smi:157|AV-procd|sdf|1322|dock10
  -GOLD-   2262019 13D 1   1.00000     0.00000
 Structure written by MMmdl.
 36 38  0  0  0  0  0  0  0  0  2 V2000
  149.0587  136.9599  156.6476 O   0  0  0  0  0  0  0  0  0  0  0  0
  150.2778  136.2489  156.6760 C   0  0  0  0  0  0  0  0  0  0  0  0
  151.3977  137.0873  156.0409 C   0  0  2  0  0  0  0  0  0  0  0  0
  151.5029  138.3153  156.7592 O   0  0  0  0  0  0  0  0  0  0  0  0
  151.8332  139.3138  155.8542 C   0  0  2  0  0  0  0  0  0  0  0  0
  151.4415  140.6398  156.4186 N   0  0  0  0  0  0  0  0  0  0  0  0
  150.5580  141.5139  155.8915 C   0  0  0  0  0  0  0  0  0  0  0  0
  150.4010  142.6211  156.5973 N   0  3  0  0  0  0  0  0  0  0  0  0
  151.2397  142.5132  157.6865 C   0  0  0  0  0  0  0  0  0  0  0  0
  151.8709  141.2731  157.5615 C   0  0  0  0  0  0  0  0  0  0  0  0
  152.8213  140.6585  158.3912 N   0  0  0  0  0  0  0  0  0  0  0  0
  153.0714  141.0594  159.5951 C   0  0  0  0  0  0  0  0  0  0  0  0
  152.5705  142.1581  160.2736 N   0  0  0  0  0  0  0  0  0  0  0  0
  152.4732  143.4826  159.6861 C   0  0  0  0  0  0  0  0  0  0  0  0
  151.3228  143.6282  158.6815 C   0  0  2  0  0  0  0  0  0  0  0  0
  150.1177  143.8100  159.3961 O   0  0  0  0  0  0  0  0  0  0  0  0
  151.0274  138.9965  154.6053 C   0  0  0  0  0  0  0  0  0  0  0  0
  151.1301  137.4808  154.5699 C   0  0  1  0  0  0  0  0  0  0  0  0
  152.2158  137.0890  153.7532 O   0  0  0  0  0  0  0  0  0  0  0  0
  152.3518  136.5652  156.1378 H   0  0  0  0  0  0  0  0  0  0  0  0
  152.9111  139.3586  155.6892 H   0  0  0  0  0  0  0  0  0  0  0  0
  151.4853  144.5533  158.1272 H   0  0  0  0  0  0  0  0  0  0  0  0
  150.2168  137.0355  154.1734 H   0  0  0  0  0  0  0  0  0  0  0  0
  149.2140  137.8370  156.9639 H   0  0  0  0  0  0  0  0  0  0  0  0
  150.5245  135.9814  157.7040 H   0  0  0  0  0  0  0  0  0  0  0  0
  150.1441  135.3192  156.1226 H   0  0  0  0  0  0  0  0  0  0  0  0
  150.0292  141.3237  154.9746 H   0  0  0  0  0  0  0  0  0  0  0  0
  153.7752  140.4903  160.2041 H   0  0  0  0  0  0  0  0  0  0  0  0
  152.6991  142.2067  161.2744 H   0  0  0  0  0  0  0  0  0  0  0  0
  152.3923  144.2286  160.4773 H   0  0  0  0  0  0  0  0  0  0  0  0
  153.4165  143.6836  159.1758 H   0  0  0  0  0  0  0  0  0  0  0  0
  149.4440  144.0853  158.7937 H   0  0  0  0  0  0  0  0  0  0  0  0
  149.9911  139.3023  154.7583 H   0  0  0  0  0  0  0  0  0  0  0  0
  151.4269  139.5054  153.7270 H   0  0  0  0  0  0  0  0  0  0  0  0
  151.8903  136.9203  152.8819 H   0  0  0  0  0  0  0  0  0  0  0  0
  149.7903  143.3962  156.3719 H   0  0  0  0  0  0  0  0  0  0  0  0
  1  2  1  0  0  0  0
  1 24  1  0  0  0  0
  2  3  1  0  0  0  0
  2 25  1  0  0  0  0
  2 26  1  0  0  0  0
  3 20  1  0  0  0  0
  3 18  1  0  0  0  0
  3  4  1  0  0  0  0
  4  5  1  0  0  0  0
  5 21  1  0  0  0  0
  5  6  1  0  0  0  0
  5 17  1  0  0  0  0
  6 10  1  0  0  0  0
  6  7  1  0  0  0  0
  7  8  2  0  0  0  0
  7 27  1  0  0  0  0
  8  9  1  0  0  0  0
  8 36  1  0  0  0  0
  9 15  1  0  0  0  0
  9 10  2  0  0  0  0
 10 11  1  0  0  0  0
 11 12  2  0  0  0  0
 12 13  1  0  0  0  0
 12 28  1  0  0  0  0
 13 14  1  0  0  0  0
 13 29  1  0  0  0  0
 14 15  1  0  0  0  0
 14 30  1  0  0  0  0
 14 31  1  0  0  0  0
 15 22  1  0  0  0  0
 15 16  1  0  0  0  0
 16 32  1  0  0  0  0
 17 18  1  0  0  0  0
 17 33  1  0  0  0  0
 17 34  1  0  0  0  0
 18 23  1  0  0  0  0
 18 19  1  0  0  0  0
 19 35  1  0  0  0  0
M  CHG  1   8   1
M  END
> <s_m_source_file>
AV-unprocessed.smi

> <i_m_source_file_index>
157

> <i_lp_mmshare_version>
43012

> <i_f3d_flags>
0

> <s_epik_input>
W09IXVtDSDJdW0NASF0xT1tDQEhdKFtDSDJdW0NAQEhdMVtPSF0pbihbY0hdbjIpYyhjMjMpTj1bQ0hdW05IXVtDSDJdW0NASF0zW09IXQ==

> <s_epik_cmdline>
J2VwaWtfcHl0aG9uJywgJy1waCcsICc3LjAnLCAnLXRuJywgJzgnLCAnLW1hJywgJzIwMCcsICctbWV0YWxfYmluZGluZycsICctaW1hZScsICc8aW5maWxlLm1hZT4nLCAnLW9tYWUnLCAnPG91dGZpbGUubWFlPic=

> <r_epik_Ionization_Penalty>
1.68594

> <r_epik_Ionization_Penalty_Charging>
0

> <r_epik_Ionization_Penalty_Neutral>
1.68594

> <r_epik_State_Penalty>
1.79006

> <r_epik_Charging_Adjusted_Penalty>
1.79006

> <i_epik_Tot_Q>
1

> <i_epik_Tot_abs_Q>
1

> <r_epik_Metal_State_Penalty>
5.85324

> <b_epik_Metal_Only>
0

> <s_epik_Chemistry_Notes>
This compound has an imine and may undergo hydrolysis. This compound contains an acetal/aminal-like group ( X-CH(R)-Y where X, Y are N, S, or O) that may be acid/base labile, releasing an aldehyde.

> <s_lp_Force_Field>
OPLS_2005

> <r_lp_Energy>
53.7485

> <b_lp_Chiralities_Consistent>
1

> <s_lp_Variant>
AV-unprocessed.smi:157-32

> <Gold.Version>
5.8.1

> <Gold.Id.Protein>
6NUR|6NUR_protein|mol2

> <Gold.PLP.Fitness>
47.3750

> <Gold.PLP.PLP>
-34.1613

> <Gold.PLP.part.hbond>
-4.0000

> <Gold.PLP.part.metal>
0.0000

> <Gold.PLP.part.buried>
-5.2525

> <Gold.PLP.part.nonpolar>
-24.9051

> <Gold.PLP.part.repulsive>
0.1325

> <Gold.PLP.ligand.clash>
0.0000

> <Gold.PLP.ligand.torsion>
0.0151

> <Gold.PLP.Chemscore.Hbond>
4.4066

> <Gold.PLP.Chemscore.CHOScore>
0.0000

> <Gold.PLP.Chemscore.Metal>
0.0000

> <Gold.Chemscore.Hbonds>
donor molecule, donor type, donor heavy atom, donor atom, acceptor molecule, acceptor atom, score
      L1  H     8    36       P1  8028  2.00
      L1  H    19    35       P1  7949  1.00
      P1  H  7997  8008       L1    11  0.24
      P1  H 10752 10765       L1    19  0.99

> <Gold.PLP.Chemscore.Internal.Correction>
0.0240

> <Gold.Rescore>
     Score         DG    S(hbond)    S(metal)    S(lipo)     H(rot)  DE(clash)    DE(int)     intcor
     12.05     -12.58       2.95        0.00      56.75       3.67       0.51       0.01       ----

> <Gold.Chemscore.Fitness>
12.0495

> <Gold.Chemscore.DG>
-12.5776

> <Gold.Chemscore.ZeroCoef>
-5.4800

> <Gold.Chemscore.Hbond>
2.9469

> <Gold.Chemscore.Metal>
0.0000

> <Gold.Chemscore.Lipo>
56.7514

> <Gold.Chemscore.Internal_Hbond>
0.0000

> <Gold.Chemscore.DEClash>
0.5143

> <Gold.Chemscore.DEInternal>
0.0138

> <Gold.Chemscore.Rot>
3.6659

> <Gold.Chemscore.Internal.Correction>
   9.000000E+99

> <Gold.Chemscore.Hbonds>
donor molecule, donor type, donor heavy atom, donor atom, acceptor molecule, acceptor atom, score
      L1  H     8    36       P1  8028  1.00
      L1  H    19    35       P1  7949  0.99
      P1  H  7997  8008       L1    11  0.10
      P1  H 10752 10765       L1    19  0.35

> <Gold.Chemscore.Hbond.Weighted>
-9.8425

> <Gold.Chemscore.Metal.Weighted>
-0.0000

> <Gold.Chemscore.Lipo.Weighted>
-6.6399

> <Gold.Chemscore.Internal_Hbond.Weighted>
0.0000

> <Gold.Chemscore.DEClash.Weighted>
0.5143

> <Gold.Chemscore.DEInternal.Weighted>
0.0138

> <Gold.Chemscore.Rot.Weighted>
9.3848

> <Gold.Chemscore.Internal.Correction.Weighted>
   9.000000E+99

> <Gold.Protein.RotatedTorsions>
[ 6907 6896 6895 6894 ] final  162.16 input  -60.11 | X-H torsion
[ 7974 7965 7964 7962 ] final    9.91 input  175.53 | X-H torsion
[ 8008 7997 7996 7995 ] final  -80.43 input   59.86 | X-H torsion
[ 10167 10162 10161 10158 ] final    9.44 input  -65.29 | X-H torsion
[ 10718 10713 10712 10709 ] final   41.28 input   66.30 | X-H torsion
[ 10763 10752 10751 10750 ] final  153.26 input  -60.55 | X-H torsion
[ 11005 11000 10999 10996 ] final  -12.46 input  -57.11 | X-H torsion

> <Gold.Protein.ActiveResidues>
 VAL166  LYS551  ARG553  GLY616  TRP617  ASP618  TYR619  PRO620  LYS621  CYS622 
 ASP623  PHE694  ASN695  SER759  ASP760  ASP761  ALA762  ILE779  LEU786  VAL792 
 PHE793  MET794  SER795  GLU796  ALA797  LYS798  CYS799  TRP800  GLU811  SER814 

> <Gold.Protein.RotatedAtoms>
  151.9446  133.3648  159.3977 H   0  0  0  0  0  0  0  0  0  0  0  0  # atno 6907 bound_to 6896
  150.6992  134.4404  159.5299 H   0  0  0  0  0  0  0  0  0  0  0  0  # atno 6908 bound_to 6896
  152.2066  134.8539  160.0553 H   0  0  0  0  0  0  0  0  0  0  0  0  # atno 6909 bound_to 6896
  146.2396  139.9712  142.8447 H   0  0  0  0  0  0  0  0  0  0  0  0  # atno 7974 bound_to 7965
  154.5882  140.0663  156.9201 H   0  0  0  0  0  0  0  0  0  0  0  0  # atno 8008 bound_to 7997
  155.2342  140.3340  155.4281 H   0  0  0  0  0  0  0  0  0  0  0  0  # atno 8009 bound_to 7997
  156.2237  140.1810  156.7398 H   0  0  0  0  0  0  0  0  0  0  0  0  # atno 8010 bound_to 7997
  140.6254  143.8112  150.7227 H   0  0  0  0  0  0  0  0  0  0  0  0  # atno 10167 bound_to 10162
  157.3918  130.7811  149.7276 H   0  0  0  0  0  0  0  0  0  0  0  0  # atno 10718 bound_to 10713
  154.1333  135.2825  155.3179 H   0  0  0  0  0  0  0  0  0  0  0  0  # atno 10763 bound_to 10752
  154.6340  135.5425  153.7716 H   0  0  0  0  0  0  0  0  0  0  0  0  # atno 10764 bound_to 10752
  153.0274  135.6469  154.1483 H   0  0  0  0  0  0  0  0  0  0  0  0  # atno 10765 bound_to 10752
  140.7659  133.8477  155.9165 H   0  0  0  0  0  0  0  0  0  0  0  0  # atno 11005 bound_to 11000
  145.1679  140.9706  143.4339 LP  0  0  0  0  0  0  0  0  0  0  0  0  # atno 17320 bound_to 7965
  145.0056  139.3558  143.6146 LP  0  0  0  0  0  0  0  0  0  0  0  0  # atno 17321 bound_to 7965
  140.1711  143.4193  152.2000 LP  0  0  0  0  0  0  0  0  0  0  0  0  # atno 17342 bound_to 10162
  139.5476  144.7311  151.4536 LP  0  0  0  0  0  0  0  0  0  0  0  0  # atno 17343 bound_to 10162
  155.9800  130.4034  150.3552 LP  0  0  0  0  0  0  0  0  0  0  0  0  # atno 17370 bound_to 10713
  157.1670  131.0359  151.2814 LP  0  0  0  0  0  0  0  0  0  0  0  0  # atno 17371 bound_to 10713
  140.9619  134.1644  157.4647 LP  0  0  0  0  0  0  0  0  0  0  0  0  # atno 17394 bound_to 11000
  139.8763  134.9948  156.5711 LP  0  0  0  0  0  0  0  0  0  0  0  0  # atno 17395 bound_to 11000

$$$$
