#       Name:                AV-unprocessed.smi:1795
#       Creating user name   scv26
#       Creation time:       Fri Mar 27 08:49:05 2020


#       File generated by GOLD software.
#

@<TRIPOS>MOLECULE
AV-unprocessed.smi:1795
    54    55     1
SMALL
NO_CHARGES


@<TRIPOS>ATOM
      1 ****        -4.2470  -3.2061  -1.0914 C.3            1 S1                 0.0000
      2 ****        -3.4012  -2.1242  -1.7711 C.3            1 S1                 0.0000
      3 ****        -2.5178  -1.3655  -0.7646 C.3            1 S1                 0.0000
      4 ****        -1.6393  -0.3803  -1.4027 N.3            1 S1                 0.0000
      5 ****        -0.8047   0.3535  -0.4219 C.3            1 S1                 0.0000
      6 ****        -1.6453   1.0664   0.6687 C.3            1 S1                 0.0000
      7 ****         0.1505   1.3934  -1.0797 C.3            1 S1                 0.0000
      8 ****         0.9932   2.0988  -0.1180 N.am           1 S1                 0.0000
      9 ****         2.0446   1.5655   0.5220 C.2            1 S1                 0.0000
     10 ****         2.4408   0.4157   0.3271 O.2            1 S1                 0.0000
     11 ****         2.7613   2.4804   1.5243 C.3            1 S1                 0.0000
     12 ****         3.3254   1.7450   2.6682 N.am           1 S1                 0.0000
     13 ****         4.7061   1.4645   2.6358 C.2            1 S1                 0.0000
     14 ****         5.3186   0.7976   3.6268 C.2            1 S1                 0.0000
     15 ****         4.5231   0.3628   4.7504 C.2            1 S1                 0.0000
     16 ****         3.2013   0.6233   4.7905 C.2            1 S1                 0.0000
     17 ****         2.5274   1.3511   3.7089 C.2            1 S1                 0.0000
     18 ****         1.3199   1.5919   3.7360 O.2            1 S1                 0.0000
     19 ****        -0.8391  -1.0803  -2.4146 C.3            1 S1                 0.0000
     20 ****        -1.6819  -1.8831  -3.4260 C.3            1 S1                 0.0000
     21 ****        -2.4119  -0.9978  -4.4506 C.3            1 S1                 0.0000
     22 ****        -2.5782  -2.7571  -2.7448 O.3            1 S1                 0.0000
     23 ****        -4.9098  -2.7730  -0.3419 H              1 S1                 0.0000
     24 ****        -3.6176  -3.9455  -0.5953 H              1 S1                 0.0000
     25 ****        -4.8665  -3.7303  -1.8193 H              1 S1                 0.0000
     26 ****        -4.0757  -1.4235  -2.2637 H              1 S1                 0.0000
     27 ****        -3.1903  -0.8797  -0.0603 H              1 S1                 0.0000
     28 ****        -1.9193  -2.0764  -0.1925 H              1 S1                 0.0000
     29 ****        -0.1784  -0.3776   0.0916 H              1 S1                 0.0000
     30 ****        -1.0311   1.6454   1.3575 H              1 S1                 0.0000
     31 ****        -2.1854   0.3636   1.3011 H              1 S1                 0.0000
     32 ****        -2.3707   1.7484   0.2242 H              1 S1                 0.0000
     33 ****         0.8237   0.9337  -1.8018 H              1 S1                 0.0000
     34 ****        -0.4307   2.1350  -1.6284 H              1 S1                 0.0000
     35 ****         0.7408   3.0531   0.0948 H              1 S1                 0.0000
     36 ****         3.5420   3.0225   0.9894 H              1 S1                 0.0000
     37 ****         2.0724   3.2486   1.8815 H              1 S1                 0.0000
     38 ****         5.2278   1.8171   1.7581 H              1 S1                 0.0000
     39 ****         6.3774   0.5884   3.5831 H              1 S1                 0.0000
     40 ****         4.9900  -0.1758   5.5620 H              1 S1                 0.0000
     41 ****         2.6223   0.2885   5.6386 H              1 S1                 0.0000
     42 ****        -0.2359  -0.3804  -2.9886 H              1 S1                 0.0000
     43 ****        -0.1430  -1.7581  -1.9179 H              1 S1                 0.0000
     44 ****        -1.0035  -2.5238  -3.9898 H              1 S1                 0.0000
     45 ****        -1.6995  -0.4261  -5.0454 H              1 S1                 0.0000
     46 ****        -3.0822  -0.2838  -3.9728 H              1 S1                 0.0000
     47 ****        -3.0029  -1.6046  -5.1368 H              1 S1                 0.0000
     48 ****        -2.1906   0.3277  -1.8440 LP             1 S1                 0.0000
     49 ****         1.9727  -0.1689  -0.3356 LP             1 S1                 0.0000
     50 ****         3.2306   0.0667   0.8316 LP             1 S1                 0.0000
     51 ****         0.8924   2.0902   2.9817 LP             1 S1                 0.0000
     52 ****         0.7670   1.2891   4.5123 LP             1 S1                 0.0000
     53 ****        -3.1733  -3.1849  -3.4251 LP             1 S1                 0.0000
     54 ****        -2.0373  -3.4615  -2.2851 LP             1 S1                 0.0000
@<TRIPOS>BOND
    1    1    2 1     
    2    1   23 1     
    3    1   24 1     
    4    1   25 1     
    5    2   22 1     
    6    2    3 1     
    7    2   26 1     
    8    3    4 1     
    9    3   27 1     
   10    3   28 1     
   11    4    5 1     
   12    4   19 1     
   13    5    6 1     
   14    5    7 1     
   15    5   29 1     
   16    6   30 1     
   17    6   31 1     
   18    6   32 1     
   19    7    8 1     
   20    7   33 1     
   21    7   34 1     
   22    8    9 am    
   23    8   35 1     
   24    9   10 2     
   25    9   11 1     
   26   11   12 1     
   27   11   36 1     
   28   11   37 1     
   29   12   17 am    
   30   12   13 1     
   31   13   14 2     
   32   13   38 1     
   33   14   15 1     
   34   14   39 1     
   35   15   16 2     
   36   15   40 1     
   37   16   17 1     
   38   16   41 1     
   39   17   18 2     
   40   19   20 1     
   41   19   42 1     
   42   19   43 1     
   43   20   21 1     
   44   20   22 1     
   45   20   44 1     
   46   21   45 1     
   47   21   46 1     
   48   21   47 1     
   49    4   48 1     
   50   10   49 1     
   51   10   50 1     
   52   18   51 1     
   53   18   52 1     
   54   22   53 1     
   55   22   54 1     
@<TRIPOS>SUBSTRUCTURE
      1 S1             1
@<TRIPOS>SET
LONE_PAIRS      STATIC     ATOMS    <user>   **** ""
7 48 49 50 51 52 53 54
DONOR_HYDROGENS      STATIC     ATOMS    <user>   **** ""
1 35
ATOM$BLUE        STATIC     ATOMS    COLORGROUP SYSTEM
7 48 49 50 51 52 53 54
ATOM$RED        STATIC     ATOMS    COLORGROUP SYSTEM
1 35
