AV-unprocessed.smi:2480|AV-procd|sdf|9770|dock5
  -GOLD-   2272013413D 1   1.00000     0.00000
 Structure written by MMmdl.
 33 34  0  0  0  0  0  0  0  0  3 V2000
  150.8173  142.1645  158.0439 O   0  0  0  0  0  0  0  0  0  0  0  0
  151.7576  141.4296  157.7501 C   0  0  0  0  0  0  0  0  0  0  0  0
  151.7398  140.5128  156.7622 N   0  0  0  0  0  0  0  0  0  0  0  0
  150.6959  140.1835  155.8495 C   0  0  0  0  0  0  0  0  0  0  0  0
  149.4268  140.8126  155.8867 C   0  0  0  0  0  0  0  0  0  0  0  0
  148.4311  140.3975  154.9827 C   0  0  0  0  0  0  0  0  0  0  0  0
  148.6135  139.4143  154.0799 N   0  0  0  0  0  0  0  0  0  0  0  0
  149.8150  138.8024  154.0535 C   0  0  0  0  0  0  0  0  0  0  0  0
  150.8919  139.1380  154.9052 C   0  0  0  0  0  0  0  0  0  0  0  0
  152.1597  138.3941  154.7863 N   0  3  0  0  0  0  0  0  0  0  0  0
  152.1881  137.4445  154.0111 O   0  0  0  0  0  0  0  0  0  0  0  0
  153.1257  138.7691  155.4420 O   0  5  0  0  0  0  0  0  0  0  0  0
  152.9259  141.4995  158.4155 N   0  0  0  0  0  0  0  0  0  0  0  0
  153.2908  142.3734  159.5331 C   0  0  1  0  0  0  0  0  0  0  0  0
  152.7580  143.7815  159.3031 C   0  0  0  0  0  0  0  0  0  0  0  0
  152.1581  144.5179  160.2537 C   0  0  0  0  0  0  0  0  0  0  0  0
  151.9486  144.0370  161.6774 C   0  0  0  0  0  0  0  0  0  0  0  0
  152.7949  142.7927  162.0004 C   0  0  0  0  0  0  0  0  0  0  0  0
  152.7649  141.7708  160.8533 C   0  0  0  0  0  0  0  0  0  0  0  0
  152.6172  140.0418  156.5955 H   0  0  0  0  0  0  0  0  0  0  0  0
  149.1876  141.5872  156.5983 H   0  0  0  0  0  0  0  0  0  0  0  0
  147.4559  140.8615  154.9940 H   0  0  0  0  0  0  0  0  0  0  0  0
  149.9204  138.0176  153.3187 H   0  0  0  0  0  0  0  0  0  0  0  0
  153.6413  140.8485  158.1248 H   0  0  0  0  0  0  0  0  0  0  0  0
  154.3763  142.4505  159.6127 H   0  0  0  0  0  0  0  0  0  0  0  0
  152.8754  144.1941  158.3117 H   0  0  0  0  0  0  0  0  0  0  0  0
  151.7850  145.5025  160.0127 H   0  0  0  0  0  0  0  0  0  0  0  0
  152.1934  144.8426  162.3698 H   0  0  0  0  0  0  0  0  0  0  0  0
  150.8886  143.8170  161.8071 H   0  0  0  0  0  0  0  0  0  0  0  0
  153.8278  143.0941  162.1792 H   0  0  0  0  0  0  0  0  0  0  0  0
  152.4440  142.3346  162.9256 H   0  0  0  0  0  0  0  0  0  0  0  0
  151.7376  141.4269  160.7218 H   0  0  0  0  0  0  0  0  0  0  0  0
  153.3512  140.8904  161.1195 H   0  0  0  0  0  0  0  0  0  0  0  0
  1  2  2  0  0  0  0
  2  3  1  0  0  0  0
  2 13  1  0  0  0  0
  3  4  1  0  0  0  0
  3 20  1  0  0  0  0
  4  9  1  0  0  0  0
  4  5  2  0  0  0  0
  5  6  1  0  0  0  0
  5 21  1  0  0  0  0
  6  7  2  0  0  0  0
  6 22  1  0  0  0  0
  7  8  1  0  0  0  0
  8  9  2  0  0  0  0
  8 23  1  0  0  0  0
  9 10  1  0  0  0  0
 10 11  2  0  0  0  0
 10 12  1  0  0  0  0
 13 14  1  0  0  0  0
 13 24  1  0  0  0  0
 14 19  1  0  0  0  0
 14 15  1  0  0  0  0
 14 25  1  0  0  0  0
 15 16  2  0  0  0  0
 15 26  1  0  0  0  0
 16 17  1  0  0  0  0
 16 27  1  0  0  0  0
 17 18  1  0  0  0  0
 17 28  1  0  0  0  0
 17 29  1  0  0  0  0
 18 19  1  0  0  0  0
 18 30  1  0  0  0  0
 18 31  1  0  0  0  0
 19 32  1  0  0  0  0
 19 33  1  0  0  0  0
M  CHG  1  10   1
M  CHG  1  12  -1
M  END
> <s_m_source_file>
AV-unprocessed.smi

> <i_m_source_file_index>
2480

> <i_lp_mmshare_version>
43012

> <i_f3d_flags>
0

> <s_epik_input>
W0NIMl0xW0NIMl1bQ0gyXVtDSF09W0NIXVtDQEhdMVtOSF1DKD1PKVtOSF1jMltjSF1bY0hdbltjSF1jMltOK10oPU8pW08tXQ==

> <s_epik_cmdline>
J2VwaWtfcHl0aG9uJywgJy1waCcsICc3LjAnLCAnLXRuJywgJzgnLCAnLW1hJywgJzIwMCcsICctbWV0YWxfYmluZGluZycsICctaW1hZScsICc8aW5maWxlLm1hZT4nLCAnLW9tYWUnLCAnPG91dGZpbGUubWFlPic=

> <r_lp_tautomer_probability>
1

> <r_epik_Ionization_Penalty>
0.000149203

> <r_epik_Ionization_Penalty_Charging>
0

> <r_epik_Ionization_Penalty_Neutral>
0.000149203

> <r_epik_State_Penalty>
-0

> <r_epik_Charging_Adjusted_Penalty>
0

> <i_epik_Tot_Q>
0

> <i_epik_Tot_abs_Q>
2

> <r_epik_Metal_State_Penalty>
-0

> <b_epik_Metal_Only>
0

> <s_lp_Force_Field>
OPLS_2005

> <r_lp_Energy>
27.1636

> <b_lp_Chiralities_Consistent>
1

> <s_lp_Variant>
AV-unprocessed.smi:2480-2

> <Gold.Version>
5.8.1

> <Gold.Id.Protein>
6NUR|6NUR_protein|mol2

> <Gold.PLP.Fitness>
47.3970

> <Gold.PLP.PLP>
-39.3956

> <Gold.PLP.part.hbond>
-2.0000

> <Gold.PLP.part.metal>
0.0000

> <Gold.PLP.part.buried>
-2.3286

> <Gold.PLP.part.nonpolar>
-35.5531

> <Gold.PLP.part.repulsive>
0.6031

> <Gold.PLP.ligand.clash>
0.0000

> <Gold.PLP.ligand.torsion>
0.3004

> <Gold.PLP.Chemscore.Hbond>
1.8640

> <Gold.PLP.Chemscore.CHOScore>
1.0000

> <Gold.PLP.Chemscore.Metal>
0.0000

> <Gold.Chemscore.Hbonds>
donor molecule, donor type, donor heavy atom, donor atom, acceptor molecule, acceptor atom, score
      P1  H  7997  8009       L1    12  1.00
      P1  H 10752 10764       L1    11  0.86
      L1  C     8    23       P1  7948  1.00

> <Gold.PLP.Chemscore.Internal.Correction>
0.0102

> <Gold.Rescore>
     Score         DG    S(hbond)    S(metal)    S(lipo)     H(rot)  DE(clash)    DE(int)     intcor
     15.83     -20.75       1.76        0.00     102.29       1.00       0.19       4.74       ----

> <Gold.Chemscore.Fitness>
15.8275

> <Gold.Chemscore.DG>
-20.7530

> <Gold.Chemscore.ZeroCoef>
-5.4800

> <Gold.Chemscore.Hbond>
1.7561

> <Gold.Chemscore.Metal>
0.0000

> <Gold.Chemscore.Lipo>
102.2873

> <Gold.Chemscore.Internal_Hbond>
0.0000

> <Gold.Chemscore.DEClash>
0.1889

> <Gold.Chemscore.DEInternal>
4.7366

> <Gold.Chemscore.Rot>
1.0000

> <Gold.Chemscore.Internal.Correction>
   9.000000E+99

> <Gold.Chemscore.Hbonds>
donor molecule, donor type, donor heavy atom, donor atom, acceptor molecule, acceptor atom, score
      P1  H  7997  8009       L1    12  0.91
      P1  H 10752 10764       L1    11  0.85

> <Gold.Chemscore.Hbond.Weighted>
-5.8654

> <Gold.Chemscore.Metal.Weighted>
-0.0000

> <Gold.Chemscore.Lipo.Weighted>
-11.9676

> <Gold.Chemscore.Internal_Hbond.Weighted>
0.0000

> <Gold.Chemscore.DEClash.Weighted>
0.1889

> <Gold.Chemscore.DEInternal.Weighted>
4.7366

> <Gold.Chemscore.Rot.Weighted>
2.5600

> <Gold.Chemscore.Internal.Correction.Weighted>
   9.000000E+99

> <Gold.Protein.RotatedTorsions>
[ 6907 6896 6895 6894 ] final  -18.40 input  -60.11 | X-H torsion
[ 7974 7965 7964 7962 ] final    8.06 input  175.53 | X-H torsion
[ 8008 7997 7996 7995 ] final -159.30 input   59.86 | X-H torsion
[ 10167 10162 10161 10158 ] final  106.08 input  -65.29 | X-H torsion
[ 10718 10713 10712 10709 ] final -115.36 input   66.30 | X-H torsion
[ 10763 10752 10751 10750 ] final  -88.02 input  -60.55 | X-H torsion
[ 11005 11000 10999 10996 ] final -176.81 input  -57.11 | X-H torsion

> <Gold.Protein.ActiveResidues>
 VAL166  LYS551  ARG553  GLY616  TRP617  ASP618  TYR619  PRO620  LYS621  CYS622 
 ASP623  PHE694  ASN695  SER759  ASP760  ASP761  ALA762  ILE779  LEU786  VAL792 
 PHE793  MET794  SER795  GLU796  ALA797  LYS798  CYS799  TRP800  GLU811  SER814 

> <Gold.Protein.RotatedAtoms>
  151.2787  135.0707  159.9161 H   0  0  0  0  0  0  0  0  0  0  0  0  # atno 6907 bound_to 6896
  152.5338  134.0053  159.7924 H   0  0  0  0  0  0  0  0  0  0  0  0  # atno 6908 bound_to 6896
  151.0304  133.5745  159.2692 H   0  0  0  0  0  0  0  0  0  0  0  0  # atno 6909 bound_to 6896
  146.2420  139.9990  142.8418 H   0  0  0  0  0  0  0  0  0  0  0  0  # atno 7974 bound_to 7965
  155.7604  140.0838  157.2158 H   0  0  0  0  0  0  0  0  0  0  0  0  # atno 8008 bound_to 7997
  154.4004  140.1544  156.2883 H   0  0  0  0  0  0  0  0  0  0  0  0  # atno 8009 bound_to 7997
  155.8844  140.3419  155.5914 H   0  0  0  0  0  0  0  0  0  0  0  0  # atno 8010 bound_to 7997
  139.7039  144.7089  151.1139 H   0  0  0  0  0  0  0  0  0  0  0  0  # atno 10167 bound_to 10162
  156.0890  130.6076  150.8895 H   0  0  0  0  0  0  0  0  0  0  0  0  # atno 10718 bound_to 10713
  154.6400  135.5392  153.7779 H   0  0  0  0  0  0  0  0  0  0  0  0  # atno 10763 bound_to 10752
  153.0329  135.6457  154.1173 H   0  0  0  0  0  0  0  0  0  0  0  0  # atno 10764 bound_to 10752
  154.1098  135.2927  155.3213 H   0  0  0  0  0  0  0  0  0  0  0  0  # atno 10765 bound_to 10752
  140.4479  134.6371  157.4788 H   0  0  0  0  0  0  0  0  0  0  0  0  # atno 11005 bound_to 11000
  145.1433  140.9583  143.4476 LP  0  0  0  0  0  0  0  0  0  0  0  0  # atno 17320 bound_to 7965
  145.0275  139.3370  143.6041 LP  0  0  0  0  0  0  0  0  0  0  0  0  # atno 17321 bound_to 7965
  140.7717  143.5385  150.9340 LP  0  0  0  0  0  0  0  0  0  0  0  0  # atno 17342 bound_to 10162
  139.9068  143.6769  152.3122 LP  0  0  0  0  0  0  0  0  0  0  0  0  # atno 17343 bound_to 10162
  157.6034  131.0940  150.8921 LP  0  0  0  0  0  0  0  0  0  0  0  0  # atno 17370 bound_to 10713
  156.9074  130.5268  149.5281 LP  0  0  0  0  0  0  0  0  0  0  0  0  # atno 17371 bound_to 10713
  140.0026  134.6813  155.9506 LP  0  0  0  0  0  0  0  0  0  0  0  0  # atno 17394 bound_to 11000
  141.1677  133.6537  156.4538 LP  0  0  0  0  0  0  0  0  0  0  0  0  # atno 17395 bound_to 11000

$$$$
