AV-unprocessed.smi:1632|AV-procd|sdf|6530|dock3
  -GOLD-   22720 7213D 1   1.00000     0.00000
 Structure written by MMmdl.
 43 45  0  0  0  0  0  0  0  0  2 V2000
  151.2984  135.4510  155.6036 O   0  0  0  0  0  0  0  0  0  0  0  0
  151.0674  136.5619  156.4411 C   0  0  0  0  0  0  0  0  0  0  0  0
  152.0392  137.6952  156.0765 C   0  0  0  0  0  0  0  0  0  0  0  0
  151.8988  138.1889  154.6271 C   0  0  0  0  0  0  0  0  0  0  0  0
  150.6524  138.9892  154.4162 C   0  0  0  0  0  0  0  0  0  0  0  0
  149.5951  138.6212  153.6391 N   0  3  0  0  0  0  0  0  0  0  0  0
  148.6182  139.6168  153.6664 C   0  0  0  0  0  0  0  0  0  0  0  0
  147.3779  139.6923  153.0402 C   0  0  0  0  0  0  0  0  0  0  0  0
  146.6178  140.8556  153.2803 C   0  0  0  0  0  0  0  0  0  0  0  0
  147.0964  141.8858  154.1157 C   0  0  0  0  0  0  0  0  0  0  0  0
  148.3556  141.7976  154.7447 C   0  0  0  0  0  0  0  0  0  0  0  0
  149.1028  140.6452  154.5002 C   0  0  0  0  0  0  0  0  0  0  0  0
  150.3621  140.2163  154.9381 N   0  0  0  0  0  0  0  0  0  0  0  0
  151.1494  141.0771  155.8360 C   0  0  0  0  0  0  0  0  0  0  0  0
  150.7585  140.9141  157.3191 C   0  0  2  0  0  0  0  0  0  0  0  0
  149.3542  140.9838  157.4726 O   0  0  0  0  0  0  0  0  0  0  0  0
  151.4863  141.9177  158.2024 C   0  0  0  0  0  0  0  0  0  0  0  0
  151.2919  143.3003  157.9915 C   0  0  0  0  0  0  0  0  0  0  0  0
  151.9510  144.2446  158.8019 C   0  0  0  0  0  0  0  0  0  0  0  0
  152.8086  143.8129  159.8309 C   0  0  0  0  0  0  0  0  0  0  0  0
  153.0053  142.4363  160.0498 C   0  0  0  0  0  0  0  0  0  0  0  0
  152.3469  141.4894  159.2409 C   0  0  0  0  0  0  0  0  0  0  0  0
  152.5442  140.1689  159.4714 F   0  0  0  0  0  0  0  0  0  0  0  0
  150.9672  134.6761  156.0317 H   0  0  0  0  0  0  0  0  0  0  0  0
  150.0339  136.8872  156.3219 H   0  0  0  0  0  0  0  0  0  0  0  0
  151.1964  136.2496  157.4777 H   0  0  0  0  0  0  0  0  0  0  0  0
  151.8991  138.5327  156.7612 H   0  0  0  0  0  0  0  0  0  0  0  0
  153.0619  137.3474  156.2279 H   0  0  0  0  0  0  0  0  0  0  0  0
  152.7557  138.8112  154.3683 H   0  0  0  0  0  0  0  0  0  0  0  0
  151.9164  137.3443  153.9381 H   0  0  0  0  0  0  0  0  0  0  0  0
  147.0083  138.9032  152.4018 H   0  0  0  0  0  0  0  0  0  0  0  0
  145.6476  140.9593  152.8161 H   0  0  0  0  0  0  0  0  0  0  0  0
  146.4850  142.7614  154.2792 H   0  0  0  0  0  0  0  0  0  0  0  0
  148.7081  142.5903  155.3883 H   0  0  0  0  0  0  0  0  0  0  0  0
  152.1983  140.8128  155.7006 H   0  0  0  0  0  0  0  0  0  0  0  0
  151.0612  142.1125  155.5082 H   0  0  0  0  0  0  0  0  0  0  0  0
  151.0455  139.9114  157.6382 H   0  0  0  0  0  0  0  0  0  0  0  0
  149.1618  141.5099  158.2340 H   0  0  0  0  0  0  0  0  0  0  0  0
  150.6347  143.6444  157.2064 H   0  0  0  0  0  0  0  0  0  0  0  0
  151.7979  145.3006  158.6339 H   0  0  0  0  0  0  0  0  0  0  0  0
  153.3141  144.5371  160.4528 H   0  0  0  0  0  0  0  0  0  0  0  0
  153.6618  142.1055  160.8411 H   0  0  0  0  0  0  0  0  0  0  0  0
  149.5484  137.7501  153.1264 H   0  0  0  0  0  0  0  0  0  0  0  0
  1  2  1  0  0  0  0
  1 24  1  0  0  0  0
  2  3  1  0  0  0  0
  2 25  1  0  0  0  0
  2 26  1  0  0  0  0
  3  4  1  0  0  0  0
  3 27  1  0  0  0  0
  3 28  1  0  0  0  0
  4  5  1  0  0  0  0
  4 29  1  0  0  0  0
  4 30  1  0  0  0  0
  5 13  1  0  0  0  0
  5  6  2  0  0  0  0
  6  7  1  0  0  0  0
  6 43  1  0  0  0  0
  7 12  2  0  0  0  0
  7  8  1  0  0  0  0
  8  9  2  0  0  0  0
  8 31  1  0  0  0  0
  9 10  1  0  0  0  0
  9 32  1  0  0  0  0
 10 11  2  0  0  0  0
 10 33  1  0  0  0  0
 11 12  1  0  0  0  0
 11 34  1  0  0  0  0
 12 13  1  0  0  0  0
 13 14  1  0  0  0  0
 14 15  1  0  0  0  0
 14 35  1  0  0  0  0
 14 36  1  0  0  0  0
 15 16  1  0  0  0  0
 15 17  1  0  0  0  0
 15 37  1  0  0  0  0
 16 38  1  0  0  0  0
 17 22  1  0  0  0  0
 17 18  2  0  0  0  0
 18 19  1  0  0  0  0
 18 39  1  0  0  0  0
 19 20  2  0  0  0  0
 19 40  1  0  0  0  0
 20 21  1  0  0  0  0
 20 41  1  0  0  0  0
 21 22  2  0  0  0  0
 21 42  1  0  0  0  0
 22 23  1  0  0  0  0
M  CHG  1   6   1
M  END
> <s_m_source_file>
AV-unprocessed.smi

> <i_m_source_file_index>
1632

> <i_lp_mmshare_version>
43012

> <i_f3d_flags>
0

> <s_epik_input>
W09IXVtDSDJdW0NIMl1bQ0gyXWMobjEpbihjKGMxMilbY0hdW2NIXVtjSF1bY0hdMilbQ0gyXVtDQEhdKFtPSF0pYzNbY0hdW2NIXVtjSF1bY0hdYzNG

> <s_epik_cmdline>
J2VwaWtfcHl0aG9uJywgJy1waCcsICc3LjAnLCAnLXRuJywgJzgnLCAnLW1hJywgJzIwMCcsICctbWV0YWxfYmluZGluZycsICctaW1hZScsICc8aW5maWxlLm1hZT4nLCAnLW9tYWUnLCAnPG91dGZpbGUubWFlPic=

> <r_epik_Ionization_Penalty>
0.786441

> <r_epik_Ionization_Penalty_Charging>
0.786439

> <r_epik_Ionization_Penalty_Neutral>
1.50852e-06

> <r_epik_State_Penalty>
0.816472

> <r_epik_Charging_Adjusted_Penalty>
1.60291

> <i_epik_Tot_Q>
1

> <i_epik_Tot_abs_Q>
1

> <r_epik_Metal_State_Penalty>
4.73733

> <b_epik_Metal_Only>
0

> <s_lp_Force_Field>
OPLS_2005

> <r_lp_Energy>
17.2969

> <b_lp_Chiralities_Consistent>
1

> <s_lp_Variant>
AV-unprocessed.smi:1632-3

> <Gold.Version>
5.8.1

> <Gold.Id.Protein>
6NUR|6NUR_protein|mol2

> <Gold.PLP.Fitness>
57.7501

> <Gold.PLP.PLP>
-49.5848

> <Gold.PLP.part.hbond>
-3.0000

> <Gold.PLP.part.metal>
0.0000

> <Gold.PLP.part.buried>
3.5466

> <Gold.PLP.part.nonpolar>
-49.1959

> <Gold.PLP.part.repulsive>
0.0743

> <Gold.PLP.ligand.clash>
0.0000

> <Gold.PLP.ligand.torsion>
0.4852

> <Gold.PLP.Chemscore.Hbond>
3.0000

> <Gold.PLP.Chemscore.CHOScore>
0.0000

> <Gold.PLP.Chemscore.Metal>
0.0000

> <Gold.Chemscore.Hbonds>
donor molecule, donor type, donor heavy atom, donor atom, acceptor molecule, acceptor atom, score
      L1  H     6    43       P1  7948  2.00
      P1  H 10752 10763       L1     1  1.00

> <Gold.PLP.Chemscore.Internal.Correction>
0.1356

> <Gold.Rescore>
     Score         DG    S(hbond)    S(metal)    S(lipo)     H(rot)  DE(clash)    DE(int)     intcor
     18.11     -19.24       1.83        0.00     134.65       3.16       0.62       0.52       ----

> <Gold.Chemscore.Fitness>
18.1059

> <Gold.Chemscore.DG>
-19.2421

> <Gold.Chemscore.ZeroCoef>
-5.4800

> <Gold.Chemscore.Hbond>
1.8260

> <Gold.Chemscore.Metal>
0.0000

> <Gold.Chemscore.Lipo>
134.6492

> <Gold.Chemscore.Internal_Hbond>
0.0000

> <Gold.Chemscore.DEClash>
0.6192

> <Gold.Chemscore.DEInternal>
0.5170

> <Gold.Chemscore.Rot>
3.1604

> <Gold.Chemscore.Internal.Correction>
   9.000000E+99

> <Gold.Chemscore.Hbonds>
donor molecule, donor type, donor heavy atom, donor atom, acceptor molecule, acceptor atom, score
      L1  H     6    43       P1  7948  0.80
      P1  H 10752 10763       L1     1  0.76

> <Gold.Chemscore.Hbond.Weighted>
-6.0988

> <Gold.Chemscore.Metal.Weighted>
-0.0000

> <Gold.Chemscore.Lipo.Weighted>
-15.7540

> <Gold.Chemscore.Internal_Hbond.Weighted>
0.0000

> <Gold.Chemscore.DEClash.Weighted>
0.6192

> <Gold.Chemscore.DEInternal.Weighted>
0.5170

> <Gold.Chemscore.Rot.Weighted>
8.0907

> <Gold.Chemscore.Internal.Correction.Weighted>
   9.000000E+99

> <Gold.Protein.RotatedTorsions>
[ 6907 6896 6895 6894 ] final  -29.39 input  -60.11 | X-H torsion
[ 7974 7965 7964 7962 ] final   68.93 input  175.53 | X-H torsion
[ 8008 7997 7996 7995 ] final  -83.37 input   59.86 | X-H torsion
[ 10167 10162 10161 10158 ] final   78.28 input  -65.29 | X-H torsion
[ 10718 10713 10712 10709 ] final -157.23 input   66.30 | X-H torsion
[ 10763 10752 10751 10750 ] final   80.09 input  -60.55 | X-H torsion
[ 11005 11000 10999 10996 ] final   -9.33 input  -57.11 | X-H torsion

> <Gold.Protein.ActiveResidues>
 VAL166  LYS551  ARG553  GLY616  TRP617  ASP618  TYR619  PRO620  LYS621  CYS622 
 ASP623  PHE694  ASN695  SER759  ASP760  ASP761  ALA762  ILE779  LEU786  VAL792 
 PHE793  MET794  SER795  GLU796  ALA797  LYS798  CYS799  TRP800  GLU811  SER814 

> <Gold.Protein.RotatedAtoms>
  151.1198  135.0073  159.8532 H   0  0  0  0  0  0  0  0  0  0  0  0  # atno 6907 bound_to 6896
  152.5447  134.1736  159.8617 H   0  0  0  0  0  0  0  0  0  0  0  0  # atno 6908 bound_to 6896
  151.1793  133.4690  159.2627 H   0  0  0  0  0  0  0  0  0  0  0  0  # atno 6909 bound_to 6896
  145.7966  139.2961  143.1179 H   0  0  0  0  0  0  0  0  0  0  0  0  # atno 7974 bound_to 7965
  154.6184  140.0620  156.9584 H   0  0  0  0  0  0  0  0  0  0  0  0  # atno 8008 bound_to 7997
  155.1857  140.3303  155.4349 H   0  0  0  0  0  0  0  0  0  0  0  0  # atno 8009 bound_to 7997
  156.2417  140.1890  156.6951 H   0  0  0  0  0  0  0  0  0  0  0  0  # atno 8010 bound_to 7997
  139.9726  144.5884  150.7972 H   0  0  0  0  0  0  0  0  0  0  0  0  # atno 10167 bound_to 10162
  156.5374  130.8548  151.2737 H   0  0  0  0  0  0  0  0  0  0  0  0  # atno 10718 bound_to 10713
  153.1005  135.4815  154.8857 H   0  0  0  0  0  0  0  0  0  0  0  0  # atno 10763 bound_to 10752
  154.7373  135.3074  154.8792 H   0  0  0  0  0  0  0  0  0  0  0  0  # atno 10764 bound_to 10752
  153.9410  135.6834  153.4798 H   0  0  0  0  0  0  0  0  0  0  0  0  # atno 10765 bound_to 10752
  140.7330  133.8733  155.8908 H   0  0  0  0  0  0  0  0  0  0  0  0  # atno 11005 bound_to 11000
  145.9921  140.8593  143.0061 LP  0  0  0  0  0  0  0  0  0  0  0  0  # atno 17320 bound_to 7965
  144.6774  140.2231  143.7364 LP  0  0  0  0  0  0  0  0  0  0  0  0  # atno 17321 bound_to 7965
  140.7517  143.2977  151.3162 LP  0  0  0  0  0  0  0  0  0  0  0  0  # atno 17342 bound_to 10162
  139.6470  144.0433  152.2598 LP  0  0  0  0  0  0  0  0  0  0  0  0  # atno 17343 bound_to 10162
  157.7411  130.9864  150.2424 LP  0  0  0  0  0  0  0  0  0  0  0  0  # atno 17370 bound_to 10713
  156.3003  130.3757  149.7756 LP  0  0  0  0  0  0  0  0  0  0  0  0  # atno 17371 bound_to 10713
  140.9904  134.1286  157.4413 LP  0  0  0  0  0  0  0  0  0  0  0  0  # atno 17394 bound_to 11000
  139.8822  135.0038  156.6212 LP  0  0  0  0  0  0  0  0  0  0  0  0  # atno 17395 bound_to 11000

$$$$
