AV-unprocessed.smi:247|AV-procd|sdf|1894|dock7
  -GOLD-   2262020563D 1   1.00000     0.00000
 Structure written by MMmdl.
 61 65  0  0  0  0  0  0  0  0  1 V2000
  151.5821  137.4608  154.4740 O   0  0  0  0  0  0  0  0  0  0  0  0
  151.9507  138.7698  154.8623 C   0  0  0  0  0  0  0  0  0  0  0  0
  151.3674  139.1943  156.2389 C   0  0  0  0  0  0  0  0  0  0  0  0
  149.8104  139.0941  156.1708 C   0  0  0  0  0  0  0  0  0  0  0  0
  149.1794  138.4750  157.3281 N   0  0  0  0  0  0  0  0  0  0  0  0
  148.4011  139.1003  158.2765 C   0  0  0  0  0  0  0  0  0  0  0  0
  147.9404  138.3252  159.2194 N   0  0  0  0  0  0  0  0  0  0  0  0
  148.4226  137.0643  158.8893 C   0  0  0  0  0  0  0  0  0  0  0  0
  148.2976  135.7716  159.4729 C   0  0  0  0  0  0  0  0  0  0  0  0
  147.6044  135.5513  160.6202 N   0  0  0  0  0  0  0  0  0  0  0  0
  147.3756  136.7143  161.4713 C   0  0  0  0  0  0  0  0  0  0  0  0
  147.4924  136.2208  162.9164 C   0  0  0  0  0  0  0  0  0  0  0  0
  147.2189  134.7244  162.8095 C   0  0  0  0  0  0  0  0  0  0  0  0
  147.8430  134.3716  161.4529 C   0  0  1  0  0  0  0  0  0  0  0  0
  147.3848  133.0238  160.8192 C   0  0  1  0  0  0  0  0  0  0  0  0
  148.1818  131.8487  161.4271 C   0  0  0  0  0  0  0  0  0  0  0  0
  147.8413  130.6210  160.7925 O   0  0  0  0  0  0  0  0  0  0  0  0
  146.4766  130.2641  160.9732 C   0  0  0  0  0  0  0  0  0  0  0  0
  145.5800  131.3257  160.3221 C   0  0  0  0  0  0  0  0  0  0  0  0
  145.8690  132.7131  160.9131 C   0  0  2  0  0  0  0  0  0  0  0  0
  145.0974  133.6549  160.1948 O   0  0  0  0  0  0  0  0  0  0  0  0
  148.9122  134.7391  158.8371 N   0  0  0  0  0  0  0  0  0  0  0  0
  149.6015  134.9506  157.7126 C   0  0  0  0  0  0  0  0  0  0  0  0
  149.8050  136.0976  157.0622 N   0  0  0  0  0  0  0  0  0  0  0  0
  149.1916  137.1393  157.6936 C   0  0  0  0  0  0  0  0  0  0  0  0
  151.9590  138.2994  157.3590 C   0  0  0  0  0  0  0  0  0  0  0  0
  151.6051  138.8123  158.7664 C   0  0  0  0  0  0  0  0  0  0  0  0
  152.0588  140.1517  158.9199 O   0  0  0  0  0  0  0  0  0  0  0  0
  151.4418  141.0577  158.0132 C   0  0  0  0  0  0  0  0  0  0  0  0
  151.7639  140.6588  156.5601 C   0  0  0  0  0  0  0  0  0  0  0  0
  151.3036  137.4827  153.5712 H   0  0  0  0  0  0  0  0  0  0  0  0
  153.0399  138.8213  154.8803 H   0  0  0  0  0  0  0  0  0  0  0  0
  151.6151  139.4441  154.0745 H   0  0  0  0  0  0  0  0  0  0  0  0
  149.3530  140.0738  156.0428 H   0  0  0  0  0  0  0  0  0  0  0  0
  149.5177  138.5244  155.2877 H   0  0  0  0  0  0  0  0  0  0  0  0
  148.1881  140.1591  158.2501 H   0  0  0  0  0  0  0  0  0  0  0  0
  148.0817  137.5228  161.2753 H   0  0  0  0  0  0  0  0  0  0  0  0
  146.3704  137.0909  161.2795 H   0  0  0  0  0  0  0  0  0  0  0  0
  148.5091  136.3810  163.2776 H   0  0  0  0  0  0  0  0  0  0  0  0
  146.8101  136.7325  163.5956 H   0  0  0  0  0  0  0  0  0  0  0  0
  147.6494  134.1589  163.6362 H   0  0  0  0  0  0  0  0  0  0  0  0
  146.1421  134.5614  162.8117 H   0  0  0  0  0  0  0  0  0  0  0  0
  148.9211  134.3133  161.6120 H   0  0  0  0  0  0  0  0  0  0  0  0
  147.6425  133.0462  159.7600 H   0  0  0  0  0  0  0  0  0  0  0  0
  149.2514  132.0138  161.2947 H   0  0  0  0  0  0  0  0  0  0  0  0
  148.0066  131.7656  162.5007 H   0  0  0  0  0  0  0  0  0  0  0  0
  146.3021  129.2920  160.5117 H   0  0  0  0  0  0  0  0  0  0  0  0
  146.2510  130.1588  162.0355 H   0  0  0  0  0  0  0  0  0  0  0  0
  145.7597  131.3332  159.2459 H   0  0  0  0  0  0  0  0  0  0  0  0
  144.5303  131.0646  160.4623 H   0  0  0  0  0  0  0  0  0  0  0  0
  145.5402  132.7197  161.9515 H   0  0  0  0  0  0  0  0  0  0  0  0
  145.1856  134.4968  160.6157 H   0  0  0  0  0  0  0  0  0  0  0  0
  150.0574  134.0759  157.2722 H   0  0  0  0  0  0  0  0  0  0  0  0
  151.6469  137.2623  157.2431 H   0  0  0  0  0  0  0  0  0  0  0  0
  153.0466  138.2835  157.2831 H   0  0  0  0  0  0  0  0  0  0  0  0
  150.5342  138.7513  158.9611 H   0  0  0  0  0  0  0  0  0  0  0  0
  152.0932  138.1930  159.5188 H   0  0  0  0  0  0  0  0  0  0  0  0
  150.3676  141.0988  158.1940 H   0  0  0  0  0  0  0  0  0  0  0  0
  151.8246  142.0587  158.2125 H   0  0  0  0  0  0  0  0  0  0  0  0
  152.8354  140.7994  156.4167 H   0  0  0  0  0  0  0  0  0  0  0  0
  151.2774  141.3465  155.8675 H   0  0  0  0  0  0  0  0  0  0  0  0
  1  2  1  0  0  0  0
  1 31  1  0  0  0  0
  2  3  1  0  0  0  0
  2 32  1  0  0  0  0
  2 33  1  0  0  0  0
  3 30  1  0  0  0  0
  3  4  1  0  0  0  0
  3 26  1  0  0  0  0
  4  5  1  0  0  0  0
  4 34  1  0  0  0  0
  4 35  1  0  0  0  0
  5 25  1  0  0  0  0
  5  6  1  0  0  0  0
  6  7  2  0  0  0  0
  6 36  1  0  0  0  0
  7  8  1  0  0  0  0
  8 25  2  0  0  0  0
  8  9  1  0  0  0  0
  9 10  1  0  0  0  0
  9 22  2  0  0  0  0
 10 14  1  0  0  0  0
 10 11  1  0  0  0  0
 11 12  1  0  0  0  0
 11 37  1  0  0  0  0
 11 38  1  0  0  0  0
 12 13  1  0  0  0  0
 12 39  1  0  0  0  0
 12 40  1  0  0  0  0
 13 14  1  0  0  0  0
 13 41  1  0  0  0  0
 13 42  1  0  0  0  0
 14 15  1  0  0  0  0
 14 43  1  0  0  0  0
 15 20  1  0  0  0  0
 15 16  1  0  0  0  0
 15 44  1  0  0  0  0
 16 17  1  0  0  0  0
 16 45  1  0  0  0  0
 16 46  1  0  0  0  0
 17 18  1  0  0  0  0
 18 19  1  0  0  0  0
 18 47  1  0  0  0  0
 18 48  1  0  0  0  0
 19 20  1  0  0  0  0
 19 49  1  0  0  0  0
 19 50  1  0  0  0  0
 20 21  1  0  0  0  0
 20 51  1  0  0  0  0
 21 52  1  0  0  0  0
 22 23  1  0  0  0  0
 23 24  2  0  0  0  0
 23 53  1  0  0  0  0
 24 25  1  0  0  0  0
 26 27  1  0  0  0  0
 26 54  1  0  0  0  0
 26 55  1  0  0  0  0
 27 28  1  0  0  0  0
 27 56  1  0  0  0  0
 27 57  1  0  0  0  0
 28 29  1  0  0  0  0
 29 30  1  0  0  0  0
 29 58  1  0  0  0  0
 29 59  1  0  0  0  0
 30 60  1  0  0  0  0
 30 61  1  0  0  0  0
M  END
> <s_m_source_file>
AV-unprocessed.smi

> <i_m_source_file_index>
247

> <i_lp_mmshare_version>
43012

> <i_f3d_flags>
0

> <s_epik_input>
W0NIMl0xW0NIMl1PW0NIMl1bQ0gyXUMxKFtDSDJdW09IXSlbQ0gyXW4oW2NIXW4yKWMoYzIzKW5bY0hdbmMzTjRbQ0gyXVtDSDJdW0NIMl1bQ0BIXTRbQ0BASF01W0NIMl1PW0NIMl1bQ0gyXVtDQEhdNVtPSF0=

> <s_epik_cmdline>
J2VwaWtfcHl0aG9uJywgJy1waCcsICc3LjAnLCAnLXRuJywgJzgnLCAnLW1hJywgJzIwMCcsICctbWV0YWxfYmluZGluZycsICctaW1hZScsICc8aW5maWxlLm1hZT4nLCAnLW9tYWUnLCAnPG91dGZpbGUubWFlPic=

> <r_lp_tautomer_probability>
1

> <r_epik_Ionization_Penalty>
0.00362597

> <r_epik_Ionization_Penalty_Charging>
0

> <r_epik_Ionization_Penalty_Neutral>
0.00362597

> <r_epik_State_Penalty>
0.00241433

> <r_epik_Charging_Adjusted_Penalty>
0.00241433

> <i_epik_Tot_Q>
0

> <i_epik_Tot_abs_Q>
0

> <r_epik_Metal_State_Penalty>
-0

> <b_epik_Metal_Only>
0

> <s_lp_Force_Field>
OPLS_2005

> <r_lp_Energy>
58.3113

> <b_lp_Chiralities_Consistent>
1

> <s_lp_Variant>
AV-unprocessed.smi:247-7

> <Gold.Version>
5.8.1

> <Gold.Id.Protein>
6NUR|6NUR_protein|mol2

> <Gold.PLP.Fitness>
43.4692

> <Gold.PLP.PLP>
-40.4494

> <Gold.PLP.part.hbond>
-4.2978

> <Gold.PLP.part.metal>
0.0000

> <Gold.PLP.part.buried>
-6.0835

> <Gold.PLP.part.nonpolar>
-31.0023

> <Gold.PLP.part.repulsive>
0.0000

> <Gold.PLP.ligand.clash>
0.0000

> <Gold.PLP.ligand.torsion>
2.0683

> <Gold.PLP.Chemscore.Hbond>
2.2637

> <Gold.PLP.Chemscore.CHOScore>
0.0000

> <Gold.PLP.Chemscore.Metal>
0.0000

> <Gold.Chemscore.Hbonds>
donor molecule, donor type, donor heavy atom, donor atom, acceptor molecule, acceptor atom, score
      P1  H  6896  6909       L1    22  0.10
      P1  H  6934  6947       L1     7  0.21
      P1  H 10752 10763       L1     1  0.19

> <Gold.PLP.Chemscore.Internal.Correction>
0.3653

> <Gold.Rescore>
     Score         DG    S(hbond)    S(metal)    S(lipo)     H(rot)  DE(clash)    DE(int)     intcor
      7.27     -13.03       1.30        0.00      97.89       3.23       0.08       5.68       ----

> <Gold.Chemscore.Fitness>
7.2671

> <Gold.Chemscore.DG>
-13.0266

> <Gold.Chemscore.ZeroCoef>
-5.4800

> <Gold.Chemscore.Hbond>
1.3043

> <Gold.Chemscore.Metal>
0.0000

> <Gold.Chemscore.Lipo>
97.8929

> <Gold.Chemscore.Internal_Hbond>
0.0000

> <Gold.Chemscore.DEClash>
0.0767

> <Gold.Chemscore.DEInternal>
5.6827

> <Gold.Chemscore.Rot>
3.2278

> <Gold.Chemscore.Internal.Correction>
   9.000000E+99

> <Gold.Chemscore.Hbonds>
donor molecule, donor type, donor heavy atom, donor atom, acceptor molecule, acceptor atom, score
      P1  H  6934  6947       L1     7  0.20
      P1  H 10752 10763       L1     1  0.01

> <Gold.Chemscore.Hbond.Weighted>
-4.3564

> <Gold.Chemscore.Metal.Weighted>
-0.0000

> <Gold.Chemscore.Lipo.Weighted>
-11.4535

> <Gold.Chemscore.Internal_Hbond.Weighted>
0.0000

> <Gold.Chemscore.DEClash.Weighted>
0.0767

> <Gold.Chemscore.DEInternal.Weighted>
5.6827

> <Gold.Chemscore.Rot.Weighted>
8.2633

> <Gold.Chemscore.Internal.Correction.Weighted>
   9.000000E+99

> <Gold.Protein.RotatedTorsions>
[ 6907 6896 6895 6894 ] final   49.78 input  -60.11 | X-H torsion
[ 7974 7965 7964 7962 ] final -179.69 input  175.53 | X-H torsion
[ 8008 7997 7996 7995 ] final -132.35 input   59.86 | X-H torsion
[ 10167 10162 10161 10158 ] final   89.14 input  -65.29 | X-H torsion
[ 10718 10713 10712 10709 ] final  -99.52 input   66.30 | X-H torsion
[ 10763 10752 10751 10750 ] final   28.04 input  -60.55 | X-H torsion
[ 11005 11000 10999 10996 ] final  127.02 input  -57.11 | X-H torsion

> <Gold.Protein.ActiveResidues>
 VAL166  LYS551  ARG553  GLY616  TRP617  ASP618  TYR619  PRO620  LYS621  CYS622 
 ASP623  PHE694  ASN695  SER759  ASP760  ASP761  ALA762  ILE779  LEU786  VAL792 
 PHE793  MET794  SER795  GLU796  ALA797  LYS798  CYS799  TRP800  GLU811  SER814 

> <Gold.Protein.RotatedAtoms>
  152.2946  134.7682  160.0370 H   0  0  0  0  0  0  0  0  0  0  0  0  # atno 6907 bound_to 6896
  151.8216  133.3390  159.3594 H   0  0  0  0  0  0  0  0  0  0  0  0  # atno 6908 bound_to 6896
  150.7245  134.5497  159.5833 H   0  0  0  0  0  0  0  0  0  0  0  0  # atno 6909 bound_to 6896
  144.7138  140.0679  143.6430 H   0  0  0  0  0  0  0  0  0  0  0  0  # atno 7974 bound_to 7965
  155.3274  140.0465  157.3041 H   0  0  0  0  0  0  0  0  0  0  0  0  # atno 8008 bound_to 7997
  154.5347  140.2268  155.8709 H   0  0  0  0  0  0  0  0  0  0  0  0  # atno 8009 bound_to 7997
  156.1823  140.3071  155.9178 H   0  0  0  0  0  0  0  0  0  0  0  0  # atno 8010 bound_to 7997
  139.8602  144.6548  150.9067 H   0  0  0  0  0  0  0  0  0  0  0  0  # atno 10167 bound_to 10162
  156.0136  130.5286  150.6682 H   0  0  0  0  0  0  0  0  0  0  0  0  # atno 10718 bound_to 10713
  153.0517  135.6522  154.0678 H   0  0  0  0  0  0  0  0  0  0  0  0  # atno 10763 bound_to 10752
  154.0365  135.2907  155.3362 H   0  0  0  0  0  0  0  0  0  0  0  0  # atno 10764 bound_to 10752
  154.6809  135.5320  153.8328 H   0  0  0  0  0  0  0  0  0  0  0  0  # atno 10765 bound_to 10752
  139.9486  134.9626  156.8794 H   0  0  0  0  0  0  0  0  0  0  0  0  # atno 11005 bound_to 11000
  145.9808  139.2940  143.1043 LP  0  0  0  0  0  0  0  0  0  0  0  0  # atno 17320 bound_to 7965
  145.9013  140.9241  143.0502 LP  0  0  0  0  0  0  0  0  0  0  0  0  # atno 17321 bound_to 7965
  140.7776  143.3751  151.1579 LP  0  0  0  0  0  0  0  0  0  0  0  0  # atno 17342 bound_to 10162
  139.7381  143.8967  152.3041 LP  0  0  0  0  0  0  0  0  0  0  0  0  # atno 17343 bound_to 10162
  157.4410  131.0861  151.0944 LP  0  0  0  0  0  0  0  0  0  0  0  0  # atno 17370 bound_to 10713
  157.1488  130.6175  149.5576 LP  0  0  0  0  0  0  0  0  0  0  0  0  # atno 17371 bound_to 10713
  140.5774  134.0385  155.7451 LP  0  0  0  0  0  0  0  0  0  0  0  0  # atno 17394 bound_to 11000
  141.1143  133.9565  157.2851 LP  0  0  0  0  0  0  0  0  0  0  0  0  # atno 17395 bound_to 11000

$$$$
