AV-unprocessed.smi:934|AV-procd|sdf|4205|dock1
  -GOLD-   22720 2113D 1   1.00000     0.00000
 Structure written by MMmdl.
 43 44  0  0  0  0  0  0  0  0  2 V2000
  144.8421  134.6795  154.7904 C   0  0  0  0  0  0  0  0  0  0  0  0
  143.9457  134.2641  153.6799 N   0  3  0  0  0  0  0  0  0  0  0  0
  142.7235  135.1096  153.6612 C   0  0  0  0  0  0  0  0  0  0  0  0
  144.6327  134.0358  152.3530 C   0  0  0  0  0  0  0  0  0  0  0  0
  144.7234  135.4028  151.5977 C   0  0  0  0  0  0  0  0  0  0  0  0
  145.9032  136.1936  151.9508 N   0  0  0  0  0  0  0  0  0  0  0  0
  145.8874  137.3804  152.5739 C   0  0  0  0  0  0  0  0  0  0  0  0
  144.8529  137.9540  152.9114 O   0  0  0  0  0  0  0  0  0  0  0  0
  147.1347  137.8347  152.7830 N   0  0  0  0  0  0  0  0  0  0  0  0
  147.5459  139.0527  153.3894 C   0  0  0  0  0  0  0  0  0  0  0  0
  148.7496  139.0483  154.1241 C   0  0  0  0  0  0  0  0  0  0  0  0
  149.1936  140.2421  154.7235 C   0  0  0  0  0  0  0  0  0  0  0  0
  148.4160  141.4040  154.5569 C   0  0  0  0  0  0  0  0  0  0  0  0
  147.2694  141.4306  153.8458 N   0  0  0  0  0  0  0  0  0  0  0  0
  146.8480  140.2813  153.2750 C   0  0  0  0  0  0  0  0  0  0  0  0
  146.0622  133.4437  152.5506 C   0  0  0  0  0  0  0  0  0  0  0  0
  146.7330  133.0245  151.2297 C   0  0  0  0  0  0  0  0  0  0  0  0
  145.9097  132.0762  150.5636 O   0  0  0  0  0  0  0  0  0  0  0  0
  144.6326  132.5948  150.2158 C   0  0  0  0  0  0  0  0  0  0  0  0
  143.8578  133.0080  151.4829 C   0  0  0  0  0  0  0  0  0  0  0  0
  145.2065  135.6977  154.6506 H   0  0  0  0  0  0  0  0  0  0  0  0
  145.6995  134.0193  154.9061 H   0  0  0  0  0  0  0  0  0  0  0  0
  144.3037  134.6530  155.7384 H   0  0  0  0  0  0  0  0  0  0  0  0
  142.9155  136.0893  153.2239 H   0  0  0  0  0  0  0  0  0  0  0  0
  142.3486  135.2688  154.6728 H   0  0  0  0  0  0  0  0  0  0  0  0
  141.9112  134.6301  153.1160 H   0  0  0  0  0  0  0  0  0  0  0  0
  144.6715  135.2809  150.5169 H   0  0  0  0  0  0  0  0  0  0  0  0
  143.8543  136.0180  151.8275 H   0  0  0  0  0  0  0  0  0  0  0  0
  146.8024  135.7909  151.7305 H   0  0  0  0  0  0  0  0  0  0  0  0
  147.8845  137.2116  152.5215 H   0  0  0  0  0  0  0  0  0  0  0  0
  149.3270  138.1417  154.2315 H   0  0  0  0  0  0  0  0  0  0  0  0
  150.1089  140.2666  155.2964 H   0  0  0  0  0  0  0  0  0  0  0  0
  148.7260  142.3380  155.0020 H   0  0  0  0  0  0  0  0  0  0  0  0
  145.9400  140.3742  152.7003 H   0  0  0  0  0  0  0  0  0  0  0  0
  146.7027  134.1336  153.0990 H   0  0  0  0  0  0  0  0  0  0  0  0
  146.0248  132.5316  153.1446 H   0  0  0  0  0  0  0  0  0  0  0  0
  146.9444  133.8732  150.5800 H   0  0  0  0  0  0  0  0  0  0  0  0
  147.6943  132.5557  151.4402 H   0  0  0  0  0  0  0  0  0  0  0  0
  144.7416  133.4288  149.5220 H   0  0  0  0  0  0  0  0  0  0  0  0
  144.0804  131.8211  149.6823 H   0  0  0  0  0  0  0  0  0  0  0  0
  143.6533  132.1067  152.0609 H   0  0  0  0  0  0  0  0  0  0  0  0
  142.8868  133.4030  151.1836 H   0  0  0  0  0  0  0  0  0  0  0  0
  143.6090  133.3497  153.9458 H   0  0  0  0  0  0  0  0  0  0  0  0
  1  2  1  0  0  0  0
  1 21  1  0  0  0  0
  1 22  1  0  0  0  0
  1 23  1  0  0  0  0
  2  3  1  0  0  0  0
  2  4  1  0  0  0  0
  2 43  1  0  0  0  0
  3 24  1  0  0  0  0
  3 25  1  0  0  0  0
  3 26  1  0  0  0  0
  4 20  1  0  0  0  0
  4  5  1  0  0  0  0
  4 16  1  0  0  0  0
  5  6  1  0  0  0  0
  5 27  1  0  0  0  0
  5 28  1  0  0  0  0
  6  7  1  0  0  0  0
  6 29  1  0  0  0  0
  7  8  2  0  0  0  0
  7  9  1  0  0  0  0
  9 10  1  0  0  0  0
  9 30  1  0  0  0  0
 10 15  1  0  0  0  0
 10 11  2  0  0  0  0
 11 12  1  0  0  0  0
 11 31  1  0  0  0  0
 12 13  2  0  0  0  0
 12 32  1  0  0  0  0
 13 14  1  0  0  0  0
 13 33  1  0  0  0  0
 14 15  2  0  0  0  0
 15 34  1  0  0  0  0
 16 17  1  0  0  0  0
 16 35  1  0  0  0  0
 16 36  1  0  0  0  0
 17 18  1  0  0  0  0
 17 37  1  0  0  0  0
 17 38  1  0  0  0  0
 18 19  1  0  0  0  0
 19 20  1  0  0  0  0
 19 39  1  0  0  0  0
 19 40  1  0  0  0  0
 20 41  1  0  0  0  0
 20 42  1  0  0  0  0
M  CHG  1   2   1
M  END
> <s_m_source_file>
AV-unprocessed.smi

> <i_m_source_file_index>
934

> <i_lp_mmshare_version>
43012

> <i_f3d_flags>
0

> <s_epik_input>
W0NIMl0xW0NIMl1PW0NIMl1bQ0gyXUMxKE4oW0NIM10pW0NIM10pW0NIMl1bTkhdQyg9TylbTkhdYzJbY0hdW2NIXVtjSF1uW2NIXTI=

> <s_epik_cmdline>
J2VwaWtfcHl0aG9uJywgJy1waCcsICc3LjAnLCAnLXRuJywgJzgnLCAnLW1hJywgJzIwMCcsICctbWV0YWxfYmluZGluZycsICctaW1hZScsICc8aW5maWxlLm1hZT4nLCAnLW9tYWUnLCAnPG91dGZpbGUubWFlPic=

> <r_epik_Ionization_Penalty>
0.0170741

> <r_epik_Ionization_Penalty_Charging>
0.0128317

> <r_epik_Ionization_Penalty_Neutral>
0.00424236

> <r_epik_State_Penalty>
0.00995429

> <r_epik_Charging_Adjusted_Penalty>
0.022786

> <i_epik_Tot_Q>
1

> <i_epik_Tot_abs_Q>
1

> <r_epik_Metal_State_Penalty>
0.00996615

> <b_epik_Metal_Only>
0

> <s_lp_Force_Field>
OPLS_2005

> <r_lp_Energy>
34.8396

> <b_lp_Chiralities_Consistent>
1

> <s_lp_Variant>
AV-unprocessed.smi:934-1

> <Gold.Version>
5.8.1

> <Gold.Id.Protein>
6NUR|6NUR_protein|mol2

> <Gold.PLP.Fitness>
44.9910

> <Gold.PLP.PLP>
-30.9077

> <Gold.PLP.part.hbond>
-3.0000

> <Gold.PLP.part.metal>
0.0000

> <Gold.PLP.part.buried>
-6.1301

> <Gold.PLP.part.nonpolar>
-25.8033

> <Gold.PLP.part.repulsive>
2.4973

> <Gold.PLP.ligand.clash>
0.0000

> <Gold.PLP.ligand.torsion>
1.3169

> <Gold.PLP.Chemscore.Hbond>
3.5304

> <Gold.PLP.Chemscore.CHOScore>
2.0000

> <Gold.PLP.Chemscore.Metal>
0.0000

> <Gold.Chemscore.Hbonds>
donor molecule, donor type, donor heavy atom, donor atom, acceptor molecule, acceptor atom, score
      L1  H     2    43       P1 10957  2.00
      L1  H     6    29       P1  7948  0.56
      L1  H     9    30       P1  7948  1.00
      L1  C    13    33       P1  8028  1.00
      L1  C    15    34       P1 10175  1.00

> <Gold.PLP.Chemscore.Internal.Correction>
0.1259

> <Gold.Rescore>
     Score         DG    S(hbond)    S(metal)    S(lipo)     H(rot)  DE(clash)    DE(int)     intcor
     16.83     -19.01       2.62        0.00      73.65       1.49       0.67       1.51       ----

> <Gold.Chemscore.Fitness>
16.8341

> <Gold.Chemscore.DG>
-19.0115

> <Gold.Chemscore.ZeroCoef>
-5.4800

> <Gold.Chemscore.Hbond>
2.6172

> <Gold.Chemscore.Metal>
0.0000

> <Gold.Chemscore.Lipo>
73.6469

> <Gold.Chemscore.Internal_Hbond>
0.0000

> <Gold.Chemscore.DEClash>
0.6679

> <Gold.Chemscore.DEInternal>
1.5095

> <Gold.Chemscore.Rot>
1.4948

> <Gold.Chemscore.Internal.Correction>
   9.000000E+99

> <Gold.Chemscore.Hbonds>
donor molecule, donor type, donor heavy atom, donor atom, acceptor molecule, acceptor atom, score
      L1  H     2    43       P1 10957  0.93
      L1  H     6    29       P1  7948  0.55
      L1  H     9    30       P1  7948  0.98

> <Gold.Chemscore.Hbond.Weighted>
-8.7415

> <Gold.Chemscore.Metal.Weighted>
-0.0000

> <Gold.Chemscore.Lipo.Weighted>
-8.6167

> <Gold.Chemscore.Internal_Hbond.Weighted>
0.0000

> <Gold.Chemscore.DEClash.Weighted>
0.6679

> <Gold.Chemscore.DEInternal.Weighted>
1.5095

> <Gold.Chemscore.Rot.Weighted>
3.8267

> <Gold.Chemscore.Internal.Correction.Weighted>
   9.000000E+99

> <Gold.Protein.RotatedTorsions>
[ 6907 6896 6895 6894 ] final  -82.63 input  -60.11 | X-H torsion
[ 7974 7965 7964 7962 ] final   72.93 input  175.53 | X-H torsion
[ 8008 7997 7996 7995 ] final  -80.02 input   59.86 | X-H torsion
[ 10167 10162 10161 10158 ] final   16.82 input  -65.29 | X-H torsion
[ 10718 10713 10712 10709 ] final  -59.11 input   66.30 | X-H torsion
[ 10763 10752 10751 10750 ] final  -25.05 input  -60.55 | X-H torsion
[ 11005 11000 10999 10996 ] final -167.65 input  -57.11 | X-H torsion

> <Gold.Protein.ActiveResidues>
 VAL166  LYS551  ARG553  GLY616  TRP617  ASP618  TYR619  PRO620  LYS621  CYS622 
 ASP623  PHE694  ASN695  SER759  ASP760  ASP761  ALA762  ILE779  LEU786  VAL792 
 PHE793  MET794  SER795  GLU796  ALA797  LYS798  CYS799  TRP800  GLU811  SER814 

> <Gold.Protein.RotatedAtoms>
  150.6895  134.3636  159.4960 H   0  0  0  0  0  0  0  0  0  0  0  0  # atno 6907 bound_to 6896
  152.1461  134.9022  160.0560 H   0  0  0  0  0  0  0  0  0  0  0  0  # atno 6908 bound_to 6896
  152.0137  133.3836  159.4267 H   0  0  0  0  0  0  0  0  0  0  0  0  # atno 6909 bound_to 6896
  145.7472  139.2745  143.1452 H   0  0  0  0  0  0  0  0  0  0  0  0  # atno 7974 bound_to 7965
  154.5841  140.0669  156.9147 H   0  0  0  0  0  0  0  0  0  0  0  0  # atno 8008 bound_to 7997
  155.2410  140.3344  155.4274 H   0  0  0  0  0  0  0  0  0  0  0  0  # atno 8009 bound_to 7997
  156.2210  140.1799  156.7460 H   0  0  0  0  0  0  0  0  0  0  0  0  # atno 8010 bound_to 7997
  140.5770  143.9054  150.6758 H   0  0  0  0  0  0  0  0  0  0  0  0  # atno 10167 bound_to 10162
  156.1086  130.4177  150.0670 H   0  0  0  0  0  0  0  0  0  0  0  0  # atno 10718 bound_to 10713
  153.6936  135.6960  153.5083 H   0  0  0  0  0  0  0  0  0  0  0  0  # atno 10763 bound_to 10752
  153.2394  135.4311  155.0681 H   0  0  0  0  0  0  0  0  0  0  0  0  # atno 10764 bound_to 10752
  154.8365  135.3504  154.6477 H   0  0  0  0  0  0  0  0  0  0  0  0  # atno 10765 bound_to 10752
  140.5508  134.5430  157.5122 H   0  0  0  0  0  0  0  0  0  0  0  0  # atno 11005 bound_to 11000
  146.0391  140.8183  142.9837 LP  0  0  0  0  0  0  0  0  0  0  0  0  # atno 17320 bound_to 7965
  144.6857  140.2883  143.7282 LP  0  0  0  0  0  0  0  0  0  0  0  0  # atno 17321 bound_to 7965
  140.2543  143.3570  152.1378 LP  0  0  0  0  0  0  0  0  0  0  0  0  # atno 17342 bound_to 10162
  139.5148  144.6953  151.5646 LP  0  0  0  0  0  0  0  0  0  0  0  0  # atno 17343 bound_to 10162
  156.8639  130.9501  151.3615 LP  0  0  0  0  0  0  0  0  0  0  0  0  # atno 17370 bound_to 10713
  157.6265  130.8695  149.9198 LP  0  0  0  0  0  0  0  0  0  0  0  0  # atno 17371 bound_to 10713
  139.9456  134.7708  156.0570 LP  0  0  0  0  0  0  0  0  0  0  0  0  # atno 17394 bound_to 11000
  141.1172  133.6624  156.3125 LP  0  0  0  0  0  0  0  0  0  0  0  0  # atno 17395 bound_to 11000

$$$$
