AV-unprocessed.smi:3263|AV-procd|sdf|12488|dock9
  -GOLD-   2272018383D 1   1.00000     0.00000
 Structure written by MMmdl.
 41 43  0  0  0  0  0  0  0  0  1 V2000
  149.7360  140.8956  157.5263 O   0  0  0  0  0  0  0  0  0  0  0  0
  150.3022  141.6556  156.7405 C   0  0  0  0  0  0  0  0  0  0  0  0
  151.5806  142.3903  157.1578 C   0  0  0  0  0  0  0  0  0  0  0  0
  151.6496  142.6903  158.6722 C   0  0  2  0  0  0  0  0  0  0  0  0
  150.8501  143.9423  159.1091 C   0  0  0  0  0  0  0  0  0  0  0  0
  151.9047  144.7937  159.8386 C   0  0  1  0  0  0  0  0  0  0  0  0
  152.2926  144.1117  161.1637 C   0  0  0  0  0  0  0  0  0  0  0  0
  153.1303  142.9080  160.6925 C   0  0  0  0  0  0  0  0  0  0  0  0
  153.0762  143.0371  159.1578 C   0  0  2  0  0  0  0  0  0  0  0  0
  153.1403  144.5516  158.9820 C   0  0  0  0  0  0  0  0  0  0  0  0
  149.8606  141.8895  155.4953 N   0  0  0  0  0  0  0  0  0  0  0  0
  148.6654  141.2985  154.9055 C   0  0  0  0  0  0  0  0  0  0  0  0
  149.0093  140.0861  154.0245 C   0  0  0  0  0  0  0  0  0  0  0  0
  150.0436  139.1842  154.6708 C   0  0  0  0  0  0  0  0  0  0  0  0
  149.7606  137.8237  154.9172 C   0  0  0  0  0  0  0  0  0  0  0  0
  150.7589  137.0280  155.5120 C   0  0  0  0  0  0  0  0  0  0  0  0
  151.9956  137.6195  155.8342 C   0  0  0  0  0  0  0  0  0  0  0  0
  152.1793  138.9868  155.5470 C   0  0  0  0  0  0  0  0  0  0  0  0
  151.2288  139.7589  154.9776 N   0  0  0  0  0  0  0  0  0  0  0  0
  152.4289  141.7678  156.8716 H   0  0  0  0  0  0  0  0  0  0  0  0
  151.6738  143.3147  156.5863 H   0  0  0  0  0  0  0  0  0  0  0  0
  151.2908  141.8130  159.2134 H   0  0  0  0  0  0  0  0  0  0  0  0
  150.4612  144.4883  158.2485 H   0  0  0  0  0  0  0  0  0  0  0  0
  150.0039  143.6904  159.7492 H   0  0  0  0  0  0  0  0  0  0  0  0
  151.6195  145.8400  159.9514 H   0  0  0  0  0  0  0  0  0  0  0  0
  152.8938  144.7775  161.7843 H   0  0  0  0  0  0  0  0  0  0  0  0
  151.4193  143.8096  161.7431 H   0  0  0  0  0  0  0  0  0  0  0  0
  154.1569  142.9936  161.0510 H   0  0  0  0  0  0  0  0  0  0  0  0
  152.7328  141.9568  161.0485 H   0  0  0  0  0  0  0  0  0  0  0  0
  153.8653  142.4806  158.6513 H   0  0  0  0  0  0  0  0  0  0  0  0
  153.0219  144.8796  157.9482 H   0  0  0  0  0  0  0  0  0  0  0  0
  154.0470  144.9977  159.3947 H   0  0  0  0  0  0  0  0  0  0  0  0
  150.3879  142.5261  154.9155 H   0  0  0  0  0  0  0  0  0  0  0  0
  147.9609  141.0144  155.6893 H   0  0  0  0  0  0  0  0  0  0  0  0
  148.1716  142.0653  154.3080 H   0  0  0  0  0  0  0  0  0  0  0  0
  148.1096  139.5031  153.8219 H   0  0  0  0  0  0  0  0  0  0  0  0
  149.3834  140.4181  153.0550 H   0  0  0  0  0  0  0  0  0  0  0  0
  148.8029  137.3978  154.6557 H   0  0  0  0  0  0  0  0  0  0  0  0
  150.5791  135.9827  155.7165 H   0  0  0  0  0  0  0  0  0  0  0  0
  152.7842  137.0394  156.2900 H   0  0  0  0  0  0  0  0  0  0  0  0
  153.1150  139.4732  155.7801 H   0  0  0  0  0  0  0  0  0  0  0  0
  1  2  2  0  0  0  0
  2  3  1  0  0  0  0
  2 11  1  0  0  0  0
  3  4  1  0  0  0  0
  3 20  1  0  0  0  0
  3 21  1  0  0  0  0
  4  9  1  0  0  0  0
  4  5  1  0  0  0  0
  4 22  1  0  0  0  0
  5  6  1  0  0  0  0
  5 23  1  0  0  0  0
  5 24  1  0  0  0  0
  6 10  1  0  0  0  0
  6  7  1  0  0  0  0
  6 25  1  0  0  0  0
  7  8  1  0  0  0  0
  7 26  1  0  0  0  0
  7 27  1  0  0  0  0
  8  9  1  0  0  0  0
  8 28  1  0  0  0  0
  8 29  1  0  0  0  0
  9 10  1  0  0  0  0
  9 30  1  0  0  0  0
 10 31  1  0  0  0  0
 10 32  1  0  0  0  0
 11 12  1  0  0  0  0
 11 33  1  0  0  0  0
 12 13  1  0  0  0  0
 12 34  1  0  0  0  0
 12 35  1  0  0  0  0
 13 14  1  0  0  0  0
 13 36  1  0  0  0  0
 13 37  1  0  0  0  0
 14 19  1  0  0  0  0
 14 15  2  0  0  0  0
 15 16  1  0  0  0  0
 15 38  1  0  0  0  0
 16 17  2  0  0  0  0
 16 39  1  0  0  0  0
 17 18  1  0  0  0  0
 17 40  1  0  0  0  0
 18 19  2  0  0  0  0
 18 41  1  0  0  0  0
M  END
> <s_m_source_file>
AV-unprocessed.smi

> <i_m_source_file_index>
3263

> <i_lp_mmshare_version>
43012

> <i_f3d_flags>
0

> <s_epik_input>
W0NIMl0xW0NIMl1bQ0BASF0oW0NIMl0yKVtDQEBIXShbQ0gyXVtDQEhdMTIpW0NIMl1DKD1PKVtOSF1bQ0gyXVtDSDJdYzNbY0hdW2NIXVtjSF1bY0hdbjM=

> <s_epik_cmdline>
J2VwaWtfcHl0aG9uJywgJy1waCcsICc3LjAnLCAnLXRuJywgJzgnLCAnLW1hJywgJzIwMCcsICctbWV0YWxfYmluZGluZycsICctaW1hZScsICc8aW5maWxlLm1hZT4nLCAnLW9tYWUnLCAnPG91dGZpbGUubWFlPic=

> <r_epik_Ionization_Penalty>
0.0273541

> <r_epik_Ionization_Penalty_Charging>
0

> <r_epik_Ionization_Penalty_Neutral>
0.0273541

> <r_epik_State_Penalty>
0.0223838

> <r_epik_Charging_Adjusted_Penalty>
0.0223838

> <i_epik_Tot_Q>
0

> <i_epik_Tot_abs_Q>
0

> <r_epik_Metal_State_Penalty>
0.0213927

> <b_epik_Metal_Only>
0

> <s_lp_Force_Field>
OPLS_2005

> <r_lp_Energy>
45.3245

> <b_lp_Chiralities_Consistent>
1

> <s_lp_Variant>
AV-unprocessed.smi:3263-3

> <Gold.Version>
5.8.1

> <Gold.Id.Protein>
6NUR|6NUR_protein|mol2

> <Gold.PLP.Fitness>
47.6064

> <Gold.PLP.PLP>
-46.1238

> <Gold.PLP.part.hbond>
-2.0000

> <Gold.PLP.part.metal>
0.0000

> <Gold.PLP.part.buried>
-4.5923

> <Gold.PLP.part.nonpolar>
-41.1252

> <Gold.PLP.part.repulsive>
0.2867

> <Gold.PLP.ligand.clash>
0.0000

> <Gold.PLP.ligand.torsion>
0.7764

> <Gold.PLP.Chemscore.Hbond>
1.0000

> <Gold.PLP.Chemscore.CHOScore>
0.0000

> <Gold.PLP.Chemscore.Metal>
0.0000

> <Gold.Chemscore.Hbonds>
donor molecule, donor type, donor heavy atom, donor atom, acceptor molecule, acceptor atom, score
      P1  H  7989  7998       L1    19  1.00

> <Gold.PLP.Chemscore.Internal.Correction>
0.0354

> <Gold.Rescore>
     Score         DG    S(hbond)    S(metal)    S(lipo)     H(rot)  DE(clash)    DE(int)     intcor
     16.52     -20.13       0.92        0.00     130.69       1.46       0.14       3.47       ----

> <Gold.Chemscore.Fitness>
16.5156

> <Gold.Chemscore.DG>
-20.1254

> <Gold.Chemscore.ZeroCoef>
-5.4800

> <Gold.Chemscore.Hbond>
0.9224

> <Gold.Chemscore.Metal>
0.0000

> <Gold.Chemscore.Lipo>
130.6899

> <Gold.Chemscore.Internal_Hbond>
0.0000

> <Gold.Chemscore.DEClash>
0.1426

> <Gold.Chemscore.DEInternal>
3.4671

> <Gold.Chemscore.Rot>
1.4555

> <Gold.Chemscore.Internal.Correction>
   9.000000E+99

> <Gold.Chemscore.Hbonds>
donor molecule, donor type, donor heavy atom, donor atom, acceptor molecule, acceptor atom, score
      P1  H  7989  7998       L1    19  0.49

> <Gold.Chemscore.Hbond.Weighted>
-3.0807

> <Gold.Chemscore.Metal.Weighted>
-0.0000

> <Gold.Chemscore.Lipo.Weighted>
-15.2907

> <Gold.Chemscore.Internal_Hbond.Weighted>
0.0000

> <Gold.Chemscore.DEClash.Weighted>
0.1426

> <Gold.Chemscore.DEInternal.Weighted>
3.4671

> <Gold.Chemscore.Rot.Weighted>
3.7260

> <Gold.Chemscore.Internal.Correction.Weighted>
   9.000000E+99

> <Gold.Protein.RotatedTorsions>
[ 6907 6896 6895 6894 ] final -159.50 input  -60.11 | X-H torsion
[ 7974 7965 7964 7962 ] final  -41.93 input  175.53 | X-H torsion
[ 8008 7997 7996 7995 ] final  108.42 input   59.86 | X-H torsion
[ 10167 10162 10161 10158 ] final  146.54 input  -65.29 | X-H torsion
[ 10718 10713 10712 10709 ] final  -27.56 input   66.30 | X-H torsion
[ 10763 10752 10751 10750 ] final  -12.67 input  -60.55 | X-H torsion
[ 11005 11000 10999 10996 ] final  -14.74 input  -57.11 | X-H torsion

> <Gold.Protein.ActiveResidues>
 VAL166  LYS551  ARG553  GLY616  TRP617  ASP618  TYR619  PRO620  LYS621  CYS622 
 ASP623  PHE694  ASN695  SER759  ASP760  ASP761  ALA762  ILE779  LEU786  VAL792 
 PHE793  MET794  SER795  GLU796  ALA797  LYS798  CYS799  TRP800  GLU811  SER814 

> <Gold.Protein.RotatedAtoms>
  151.3345  133.3987  159.2665 H   0  0  0  0  0  0  0  0  0  0  0  0  # atno 6907 bound_to 6896
  150.9928  134.9260  159.7920 H   0  0  0  0  0  0  0  0  0  0  0  0  # atno 6908 bound_to 6896
  152.5252  134.3310  159.9235 H   0  0  0  0  0  0  0  0  0  0  0  0  # atno 6909 bound_to 6896
  146.0164  140.6902  142.9199 H   0  0  0  0  0  0  0  0  0  0  0  0  # atno 7974 bound_to 7965
  156.1901  140.3077  155.9316 H   0  0  0  0  0  0  0  0  0  0  0  0  # atno 8008 bound_to 7997
  155.3192  140.0455  157.3055 H   0  0  0  0  0  0  0  0  0  0  0  0  # atno 8009 bound_to 7997
  154.5442  140.2271  155.8600 H   0  0  0  0  0  0  0  0  0  0  0  0  # atno 8010 bound_to 7997
  139.4905  144.5821  151.6850 H   0  0  0  0  0  0  0  0  0  0  0  0  # atno 10167 bound_to 10162
  156.4366  130.4456  149.7081 H   0  0  0  0  0  0  0  0  0  0  0  0  # atno 10718 bound_to 10713
  153.5019  135.7017  153.5827 H   0  0  0  0  0  0  0  0  0  0  0  0  # atno 10763 bound_to 10752
  153.3954  135.3885  155.1952 H   0  0  0  0  0  0  0  0  0  0  0  0  # atno 10764 bound_to 10752
  154.8710  135.3868  154.4491 H   0  0  0  0  0  0  0  0  0  0  0  0  # atno 10765 bound_to 10752
  140.7895  133.8299  155.9366 H   0  0  0  0  0  0  0  0  0  0  0  0  # atno 11005 bound_to 11000
  144.6973  140.3489  143.7185 LP  0  0  0  0  0  0  0  0  0  0  0  0  # atno 17320 bound_to 7965
  145.7261  139.1723  143.2457 LP  0  0  0  0  0  0  0  0  0  0  0  0  # atno 17321 bound_to 7965
  140.5430  144.0549  150.6096 LP  0  0  0  0  0  0  0  0  0  0  0  0  # atno 17342 bound_to 10162
  140.3577  143.2926  152.0418 LP  0  0  0  0  0  0  0  0  0  0  0  0  # atno 17343 bound_to 10162
  156.3963  130.7652  151.2657 LP  0  0  0  0  0  0  0  0  0  0  0  0  # atno 17370 bound_to 10713
  157.7507  131.0253  150.3913 LP  0  0  0  0  0  0  0  0  0  0  0  0  # atno 17371 bound_to 10713
  140.9403  134.1909  157.4802 LP  0  0  0  0  0  0  0  0  0  0  0  0  # atno 17394 bound_to 11000
  139.8733  134.9869  156.5345 LP  0  0  0  0  0  0  0  0  0  0  0  0  # atno 17395 bound_to 11000

$$$$
