AV-unprocessed.smi:1558|AV-procd|sdf|6272|dock2
  -GOLD-   22720 6463D 1   1.00000     0.00000
 Structure written by MMmdl.
 36 37  0  0  0  0  0  0  0  0  1 V2000
  142.1121  132.1573  148.4376 N   0  0  0  0  0  0  0  0  0  0  0  0
  143.3402  132.6037  148.7142 C   0  0  0  0  0  0  0  0  0  0  0  0
  144.0560  133.1281  147.8637 O   0  0  0  0  0  0  0  0  0  0  0  0
  143.8371  132.4377  150.1514 C   0  0  0  0  0  0  0  0  0  0  0  0
  144.5177  133.6348  150.6123 N   0  0  0  0  0  0  0  0  0  0  0  0
  144.0494  134.9345  150.6165 C   0  0  0  0  0  0  0  0  0  0  0  0
  145.0568  135.6898  151.1463 C   0  0  0  0  0  0  0  0  0  0  0  0
  145.1059  137.0875  151.3784 N   0  0  0  0  0  0  0  0  0  0  0  0
  146.1966  137.8380  151.6039 C   0  0  0  0  0  0  0  0  0  0  0  0
  147.3521  137.4145  151.6350 O   0  0  0  0  0  0  0  0  0  0  0  0
  145.8714  139.1251  151.7887 N   0  0  0  0  0  0  0  0  0  0  0  0
  146.8159  140.2079  152.0448 C   0  0  0  0  0  0  0  0  0  0  0  0
  147.1789  140.3087  153.5360 C   0  0  2  0  0  0  0  0  0  0  0  0
  147.6745  141.6802  153.9944 C   0  0  0  0  0  0  0  0  0  0  0  0
  148.4558  141.3176  155.2362 C   0  0  0  0  0  0  0  0  0  0  0  0
  149.1037  139.9968  154.8282 C   0  0  0  0  0  0  0  0  0  0  0  0
  148.2484  139.4199  153.8435 O   0  0  0  0  0  0  0  0  0  0  0  0
  146.1078  134.7828  151.4391 C   0  0  0  0  0  0  0  0  0  0  0  0
  145.7750  133.5430  151.1135 N   0  0  0  0  0  0  0  0  0  0  0  0
  141.7467  132.2476  147.5005 H   0  0  0  0  0  0  0  0  0  0  0  0
  141.5531  131.7316  149.1626 H   0  0  0  0  0  0  0  0  0  0  0  0
  142.9950  132.2201  150.8106 H   0  0  0  0  0  0  0  0  0  0  0  0
  144.5243  131.5934  150.2219 H   0  0  0  0  0  0  0  0  0  0  0  0
  143.0657  135.1894  150.2514 H   0  0  0  0  0  0  0  0  0  0  0  0
  144.2170  137.5659  151.3726 H   0  0  0  0  0  0  0  0  0  0  0  0
  144.8951  139.3782  151.7454 H   0  0  0  0  0  0  0  0  0  0  0  0
  147.7173  140.0024  151.4670 H   0  0  0  0  0  0  0  0  0  0  0  0
  146.4313  141.1612  151.6785 H   0  0  0  0  0  0  0  0  0  0  0  0
  146.3247  140.0132  154.1478 H   0  0  0  0  0  0  0  0  0  0  0  0
  148.3401  142.1186  153.2494 H   0  0  0  0  0  0  0  0  0  0  0  0
  146.8649  142.3843  154.1884 H   0  0  0  0  0  0  0  0  0  0  0  0
  149.1814  142.0783  155.5257 H   0  0  0  0  0  0  0  0  0  0  0  0
  147.7733  141.1591  156.0723 H   0  0  0  0  0  0  0  0  0  0  0  0
  150.0804  140.1727  154.3763 H   0  0  0  0  0  0  0  0  0  0  0  0
  149.2397  139.3260  155.6768 H   0  0  0  0  0  0  0  0  0  0  0  0
  147.0798  134.9774  151.8673 H   0  0  0  0  0  0  0  0  0  0  0  0
  1  2  1  0  0  0  0
  1 20  1  0  0  0  0
  1 21  1  0  0  0  0
  2  3  2  0  0  0  0
  2  4  1  0  0  0  0
  4  5  1  0  0  0  0
  4 22  1  0  0  0  0
  4 23  1  0  0  0  0
  5 19  1  0  0  0  0
  5  6  1  0  0  0  0
  6  7  2  0  0  0  0
  6 24  1  0  0  0  0
  7  8  1  0  0  0  0
  7 18  1  0  0  0  0
  8  9  1  0  0  0  0
  8 25  1  0  0  0  0
  9 10  2  0  0  0  0
  9 11  1  0  0  0  0
 11 12  1  0  0  0  0
 11 26  1  0  0  0  0
 12 13  1  0  0  0  0
 12 27  1  0  0  0  0
 12 28  1  0  0  0  0
 13 17  1  0  0  0  0
 13 14  1  0  0  0  0
 13 29  1  0  0  0  0
 14 15  1  0  0  0  0
 14 30  1  0  0  0  0
 14 31  1  0  0  0  0
 15 16  1  0  0  0  0
 15 32  1  0  0  0  0
 15 33  1  0  0  0  0
 16 17  1  0  0  0  0
 16 34  1  0  0  0  0
 16 35  1  0  0  0  0
 18 19  2  0  0  0  0
 18 36  1  0  0  0  0
M  END
> <s_m_source_file>
AV-unprocessed.smi

> <i_m_source_file_index>
1558

> <i_lp_mmshare_version>
43012

> <i_f3d_flags>
0

> <s_epik_input>
W05IMl1DKD1PKVtDSDJdbjFbY0hdYyhbY0hdbjEpW05IXUMoPU8pW05IXVtDSDJdW0NAQEhdMltDSDJdW0NIMl1bQ0gyXU8y

> <s_epik_cmdline>
J2VwaWtfcHl0aG9uJywgJy1waCcsICc3LjAnLCAnLXRuJywgJzgnLCAnLW1hJywgJzIwMCcsICctbWV0YWxfYmluZGluZycsICctaW1hZScsICc8aW5maWxlLm1hZT4nLCAnLW9tYWUnLCAnPG91dGZpbGUubWFlPic=

> <r_lp_tautomer_probability>
1

> <r_epik_Ionization_Penalty>
4.01684e-05

> <r_epik_Ionization_Penalty_Charging>
0

> <r_epik_Ionization_Penalty_Neutral>
4.01684e-05

> <r_epik_State_Penalty>
-0

> <r_epik_Charging_Adjusted_Penalty>
0

> <i_epik_Tot_Q>
0

> <i_epik_Tot_abs_Q>
0

> <r_epik_Metal_State_Penalty>
-0

> <b_epik_Metal_Only>
0

> <s_lp_Force_Field>
OPLS_2005

> <r_lp_Energy>
20.4808

> <b_lp_Chiralities_Consistent>
1

> <s_lp_Variant>
AV-unprocessed.smi:1558-1

> <Gold.Version>
5.8.1

> <Gold.Id.Protein>
6NUR|6NUR_protein|mol2

> <Gold.PLP.Fitness>
46.3678

> <Gold.PLP.PLP>
-27.6242

> <Gold.PLP.part.hbond>
-7.6698

> <Gold.PLP.part.metal>
0.0000

> <Gold.PLP.part.buried>
-0.1219

> <Gold.PLP.part.nonpolar>
-33.4196

> <Gold.PLP.part.repulsive>
13.1762

> <Gold.PLP.ligand.clash>
0.0000

> <Gold.PLP.ligand.torsion>
0.7671

> <Gold.PLP.Chemscore.Hbond>
4.8560

> <Gold.PLP.Chemscore.CHOScore>
1.8904

> <Gold.PLP.Chemscore.Metal>
0.0000

> <Gold.Chemscore.Hbonds>
donor molecule, donor type, donor heavy atom, donor atom, acceptor molecule, acceptor atom, score
      L1  H     1    20       P1 10195  0.68
      L1  H     1    21       P1 10952  0.85
      L1  H     8    25       P1 10171  0.30
      L1  H    11    26       P1 10175  0.88
      P1  H  7918  7932       L1     3  0.44
      P1  H  7954  7966       L1    10  1.00
      L1  C     6    24       P1 10186  0.82
      L1  C    18    36       P1  7948  1.00

> <Gold.PLP.Chemscore.Internal.Correction>
0.0384

> <Gold.Rescore>
     Score         DG    S(hbond)    S(metal)    S(lipo)     H(rot)  DE(clash)    DE(int)     intcor
     11.52     -20.42       4.15        0.00      60.11       2.33       7.01       1.89       ----

> <Gold.Chemscore.Fitness>
11.5152

> <Gold.Chemscore.DG>
-20.4178

> <Gold.Chemscore.ZeroCoef>
-5.4800

> <Gold.Chemscore.Hbond>
4.1528

> <Gold.Chemscore.Metal>
0.0000

> <Gold.Chemscore.Lipo>
60.1100

> <Gold.Chemscore.Internal_Hbond>
0.0000

> <Gold.Chemscore.DEClash>
7.0089

> <Gold.Chemscore.DEInternal>
1.8937

> <Gold.Chemscore.Rot>
2.3303

> <Gold.Chemscore.Internal.Correction>
   9.000000E+99

> <Gold.Chemscore.Hbonds>
donor molecule, donor type, donor heavy atom, donor atom, acceptor molecule, acceptor atom, score
      L1  H     1    20       P1 10195  0.62
      L1  H     1    21       P1 10952  0.84
      L1  H     8    25       P1 10171  0.30
      L1  H    11    26       P1 10175  0.78
      P1  H  7918  7932       L1     3  0.43
      P1  H  7954  7966       L1    10  0.59

> <Gold.Chemscore.Hbond.Weighted>
-13.8705

> <Gold.Chemscore.Metal.Weighted>
-0.0000

> <Gold.Chemscore.Lipo.Weighted>
-7.0329

> <Gold.Chemscore.Internal_Hbond.Weighted>
0.0000

> <Gold.Chemscore.DEClash.Weighted>
7.0089

> <Gold.Chemscore.DEInternal.Weighted>
1.8937

> <Gold.Chemscore.Rot.Weighted>
5.9656

> <Gold.Chemscore.Internal.Correction.Weighted>
   9.000000E+99

> <Gold.Protein.RotatedTorsions>
[ 6907 6896 6895 6894 ] final  177.20 input  -60.11 | X-H torsion
[ 7974 7965 7964 7962 ] final -163.21 input  175.53 | X-H torsion
[ 8008 7997 7996 7995 ] final   88.25 input   59.86 | X-H torsion
[ 10167 10162 10161 10158 ] final  140.34 input  -65.29 | X-H torsion
[ 10718 10713 10712 10709 ] final  156.14 input   66.30 | X-H torsion
[ 10763 10752 10751 10750 ] final  167.54 input  -60.55 | X-H torsion
[ 11005 11000 10999 10996 ] final   82.09 input  -57.11 | X-H torsion

> <Gold.Protein.ActiveResidues>
 VAL166  LYS551  ARG553  GLY616  TRP617  ASP618  TYR619  PRO620  LYS621  CYS622 
 ASP623  PHE694  ASN695  SER759  ASP760  ASP761  ALA762  ILE779  LEU786  VAL792 
 PHE793  MET794  SER795  GLU796  ALA797  LYS798  CYS799  TRP800  GLU811  SER814 

> <Gold.Protein.RotatedAtoms>
  151.7079  133.3312  159.3282 H   0  0  0  0  0  0  0  0  0  0  0  0  # atno 6907 bound_to 6896
  150.7707  134.6558  159.6322 H   0  0  0  0  0  0  0  0  0  0  0  0  # atno 6908 bound_to 6896
  152.3730  134.6709  160.0221 H   0  0  0  0  0  0  0  0  0  0  0  0  # atno 6909 bound_to 6896
  144.7333  140.3140  143.6183 H   0  0  0  0  0  0  0  0  0  0  0  0  # atno 7974 bound_to 7965
  155.9854  140.3373  155.6702 H   0  0  0  0  0  0  0  0  0  0  0  0  # atno 8008 bound_to 7997
  155.6492  140.0703  157.2610 H   0  0  0  0  0  0  0  0  0  0  0  0  # atno 8009 bound_to 7997
  154.4204  140.1728  156.1644 H   0  0  0  0  0  0  0  0  0  0  0  0  # atno 8010 bound_to 7997
  139.5051  144.6240  151.5983 H   0  0  0  0  0  0  0  0  0  0  0  0  # atno 10167 bound_to 10162
  157.2089  131.0693  151.1981 H   0  0  0  0  0  0  0  0  0  0  0  0  # atno 10718 bound_to 10713
  154.3553  135.2753  155.2350 H   0  0  0  0  0  0  0  0  0  0  0  0  # atno 10763 bound_to 10752
  154.4561  135.5918  153.6228 H   0  0  0  0  0  0  0  0  0  0  0  0  # atno 10764 bound_to 10752
  152.9847  135.6054  154.3767 H   0  0  0  0  0  0  0  0  0  0  0  0  # atno 10765 bound_to 10752
  139.9075  134.8045  156.2128 H   0  0  0  0  0  0  0  0  0  0  0  0  # atno 11005 bound_to 11000
  145.7635  139.1833  143.2253 LP  0  0  0  0  0  0  0  0  0  0  0  0  # atno 17320 bound_to 7965
  146.0967  140.7592  142.9569 LP  0  0  0  0  0  0  0  0  0  0  0  0  # atno 17321 bound_to 7965
  140.5951  143.9711  150.6349 LP  0  0  0  0  0  0  0  0  0  0  0  0  # atno 17342 bound_to 10162
  140.2904  143.3328  152.1068 LP  0  0  0  0  0  0  0  0  0  0  0  0  # atno 17343 bound_to 10162
  157.3692  130.7172  149.6553 LP  0  0  0  0  0  0  0  0  0  0  0  0  # atno 17370 bound_to 10713
  155.9692  130.4203  150.4419 LP  0  0  0  0  0  0  0  0  0  0  0  0  # atno 17371 bound_to 10713
  141.0454  133.6916  156.1674 LP  0  0  0  0  0  0  0  0  0  0  0  0  # atno 17394 bound_to 11000
  140.6891  134.4685  157.5589 LP  0  0  0  0  0  0  0  0  0  0  0  0  # atno 17395 bound_to 11000

$$$$
