#       Name:                AV-unprocessed.smi:1691
#       Creating user name   scv26
#       Creation time:       Fri Mar 27 07:53:26 2020


#       File generated by GOLD software.
#

@<TRIPOS>MOLECULE
AV-unprocessed.smi:1691
    49    50     1
SMALL
NO_CHARGES


@<TRIPOS>ATOM
      1 ****        -3.5233  -0.4275  -2.1823 C.3            1 S1                 0.0000
      2 ****        -3.0512   0.4135  -0.9790 C.3            1 S1                 0.0000
      3 ****        -3.7039   1.8070  -1.0612 C.3            1 S1                 0.0000
      4 ****        -1.4978   0.4726  -0.8843 C.3            1 S1                 0.0000
      5 ****        -1.0038   1.3538   0.2985 C.3            1 S1                 0.0000
      6 ****         0.4494   1.4868   0.3519 N.am           1 S1                 0.0000
      7 ****         1.2126   1.2842   1.4352 C.2            1 S1                 0.0000
      8 ****         0.7644   0.9574   2.5338 O.2            1 S1                 0.0000
      9 ****         2.5126   1.4713   1.1569 N.am           1 S1                 0.0000
     10 ****         3.6076   1.3240   2.0444 C.2            1 S1                 0.0000
     11 ****         3.6079   0.9761   3.4272 C.2            1 S1                 0.0000
     12 ****         4.8408   0.9388   3.9117 N.2            1 S1                 0.0000
     13 ****         5.6242   1.2596   2.8577 N.pl3          1 S1                 0.0000
     14 ****         4.9148   1.5022   1.7022 C.2            1 S1                 0.0000
     15 ****        -0.9371  -0.9161  -0.8862 N.4            1 S1                 1.0000
     16 ****         0.3643  -1.0811  -1.5793 C.3            1 S1                 0.0000
     17 ****         0.6904  -2.5766  -1.7271 C.3            1 S1                 0.0000
     18 ****         0.6911  -3.1950  -0.4455 O.3            1 S1                 0.0000
     19 ****        -0.5792  -3.1139   0.1911 C.3            1 S1                 0.0000
     20 ****        -0.9536  -1.6389   0.4103 C.3            1 S1                 0.0000
     21 ****         6.6297   1.3087   2.9425 H              1 S1                 0.0000
     22 ****        -3.1370  -0.0277  -3.1204 H              1 S1                 0.0000
     23 ****        -4.6115  -0.4373  -2.2521 H              1 S1                 0.0000
     24 ****        -3.2057  -1.4673  -2.1056 H              1 S1                 0.0000
     25 ****        -3.4370  -0.0637  -0.0776 H              1 S1                 0.0000
     26 ****        -3.2899   2.3924  -1.8829 H              1 S1                 0.0000
     27 ****        -3.5735   2.3750  -0.1406 H              1 S1                 0.0000
     28 ****        -4.7794   1.7281  -1.2232 H              1 S1                 0.0000
     29 ****        -1.1595   0.9546  -1.8031 H              1 S1                 0.0000
     30 ****        -1.3810   2.3701   0.1945 H              1 S1                 0.0000
     31 ****        -1.4112   0.9804   1.2393 H              1 S1                 0.0000
     32 ****         0.9098   1.7611  -0.5039 H              1 S1                 0.0000
     33 ****         2.7452   1.7392   0.2119 H              1 S1                 0.0000
     34 ****         2.7827   0.7534   4.0873 H              1 S1                 0.0000
     35 ****         5.3889   1.7706   0.7697 H              1 S1                 0.0000
     36 ****         0.3259  -0.6172  -2.5654 H              1 S1                 0.0000
     37 ****         1.1640  -0.5935  -1.0239 H              1 S1                 0.0000
     38 ****        -0.0300  -3.0699  -2.3816 H              1 S1                 0.0000
     39 ****         1.6730  -2.7037  -2.1822 H              1 S1                 0.0000
     40 ****        -1.3346  -3.6226  -0.4102 H              1 S1                 0.0000
     41 ****        -0.5291  -3.6347   1.1474 H              1 S1                 0.0000
     42 ****        -0.2461  -1.1919   1.1067 H              1 S1                 0.0000
     43 ****        -1.9402  -1.5752   0.8686 H              1 S1                 0.0000
     44 ****        -1.5825  -1.4271  -1.4715 H              1 S1                 0.0000
     45 ****        -0.2200   0.8288   2.6541 LP             1 S1                 0.0000
     46 ****         1.3846   0.8205   3.3062 LP             1 S1                 0.0000
     47 ****         5.1267   0.7224   4.8452 LP             1 S1                 0.0000
     48 ****         1.3699  -2.7403   0.1311 LP             1 S1                 0.0000
     49 ****         0.9366  -4.1584  -0.5529 LP             1 S1                 0.0000
@<TRIPOS>BOND
    1    1    2 1     
    2    1   22 1     
    3    1   23 1     
    4    1   24 1     
    5    2    3 1     
    6    2    4 1     
    7    2   25 1     
    8    3   26 1     
    9    3   27 1     
   10    3   28 1     
   11    4    5 1     
   12    4   15 1     
   13    4   29 1     
   14    5    6 1     
   15    5   30 1     
   16    5   31 1     
   17    6    7 am    
   18    6   32 1     
   19    7    8 2     
   20    7    9 am    
   21    9   10 1     
   22    9   33 1     
   23   10   14 2     
   24   10   11 1     
   25   11   12 2     
   26   11   34 1     
   27   12   13 1     
   28   13   21 1     
   29   13   14 1     
   30   14   35 1     
   31   15   20 1     
   32   15   16 1     
   33   15   44 1     
   34   16   17 1     
   35   16   36 1     
   36   16   37 1     
   37   17   18 1     
   38   17   38 1     
   39   17   39 1     
   40   18   19 1     
   41   19   20 1     
   42   19   40 1     
   43   19   41 1     
   44   20   42 1     
   45   20   43 1     
   46    8   45 1     
   47    8   46 1     
   48   12   47 1     
   49   18   48 1     
   50   18   49 1     
@<TRIPOS>SUBSTRUCTURE
      1 S1             1
@<TRIPOS>SET
LONE_PAIRS      STATIC     ATOMS    <user>   **** ""
5 45 46 47 48 49
DONOR_HYDROGENS      STATIC     ATOMS    <user>   **** ""
4 32 33 21 44
ATOM$BLUE        STATIC     ATOMS    COLORGROUP SYSTEM
5 45 46 47 48 49
ATOM$RED        STATIC     ATOMS    COLORGROUP SYSTEM
4 32 33 21 44
