AV-unprocessed.smi:3028|AV-procd|sdf|11522|dock1
  -GOLD-   2272016463D 1   1.00000     0.00000
 Structure written by MMmdl.
 47 48  0  0  0  0  0  0  0  0  1 V2000
  145.1490  131.7579  150.2176 C   0  0  0  0  0  0  0  0  0  0  0  0
  145.0861  132.8967  151.1936 C   0  0  0  0  0  0  0  0  0  0  0  0
  145.8752  133.0920  152.3622 C   0  0  0  0  0  0  0  0  0  0  0  0
  145.5666  134.2017  153.0119 N   0  0  0  0  0  0  0  0  0  0  0  0
  144.5752  134.7591  152.2833 N   0  0  0  0  0  0  0  0  0  0  0  0
  143.9777  136.0183  152.7129 C   0  0  1  0  0  0  0  0  0  0  0  0
  142.9652  135.7366  153.8393 C   0  0  0  0  0  0  0  0  0  0  0  0
  145.0590  137.0665  153.1036 C   0  0  2  0  0  0  0  0  0  0  0  0
  144.7763  137.7484  154.4537 C   0  0  0  0  0  0  0  0  0  0  0  0
  145.1009  138.1434  152.1164 N   0  0  0  0  0  0  0  0  0  0  0  0
  146.4696  138.5698  151.7938 C   0  0  0  0  0  0  0  0  0  0  0  0
  147.2036  139.1727  153.0016 C   0  0  0  0  0  0  0  0  0  0  0  0
  146.6345  139.9877  153.7266 O   0  0  0  0  0  0  0  0  0  0  0  0
  148.4649  138.7892  153.2635 N   0  0  0  0  0  0  0  0  0  0  0  0
  149.3275  139.2399  154.3534 C   0  0  0  0  0  0  0  0  0  0  0  0
  149.3730  140.7749  154.3818 C   0  0  0  0  0  0  0  0  0  0  0  0
  150.3926  141.2677  155.4216 C   0  0  0  0  0  0  0  0  0  0  0  0
  151.6767  140.7179  155.1458 O   0  0  0  0  0  0  0  0  0  0  0  0
  151.7005  139.2969  155.2246 C   0  0  0  0  0  0  0  0  0  0  0  0
  150.7549  138.6968  154.1725 C   0  0  0  0  0  0  0  0  0  0  0  0
  144.2662  133.9890  151.1796 C   0  0  0  0  0  0  0  0  0  0  0  0
  145.6132  130.8747  150.6564 H   0  0  0  0  0  0  0  0  0  0  0  0
  145.7281  132.0198  149.3322 H   0  0  0  0  0  0  0  0  0  0  0  0
  144.1562  131.4616  149.8785 H   0  0  0  0  0  0  0  0  0  0  0  0
  146.6569  132.4603  152.7574 H   0  0  0  0  0  0  0  0  0  0  0  0
  143.4084  136.4179  151.8711 H   0  0  0  0  0  0  0  0  0  0  0  0
  142.3590  136.6138  154.0645 H   0  0  0  0  0  0  0  0  0  0  0  0
  143.4646  135.4291  154.7585 H   0  0  0  0  0  0  0  0  0  0  0  0
  142.2756  134.9416  153.5537 H   0  0  0  0  0  0  0  0  0  0  0  0
  146.0327  136.5795  153.1829 H   0  0  0  0  0  0  0  0  0  0  0  0
  144.8407  137.0419  155.2811 H   0  0  0  0  0  0  0  0  0  0  0  0
  143.7831  138.1988  154.4744 H   0  0  0  0  0  0  0  0  0  0  0  0
  145.5029  138.5360  154.6578 H   0  0  0  0  0  0  0  0  0  0  0  0
  144.5565  138.9224  152.4585 H   0  0  0  0  0  0  0  0  0  0  0  0
  147.0436  137.7136  151.4375 H   0  0  0  0  0  0  0  0  0  0  0  0
  146.4366  139.2998  150.9881 H   0  0  0  0  0  0  0  0  0  0  0  0
  148.8670  138.1049  152.6392 H   0  0  0  0  0  0  0  0  0  0  0  0
  148.9330  138.9039  155.3134 H   0  0  0  0  0  0  0  0  0  0  0  0
  149.6515  141.1582  153.3990 H   0  0  0  0  0  0  0  0  0  0  0  0
  148.3856  141.1789  154.6069 H   0  0  0  0  0  0  0  0  0  0  0  0
  150.4619  142.3552  155.3914 H   0  0  0  0  0  0  0  0  0  0  0  0
  150.0794  140.9971  156.4312 H   0  0  0  0  0  0  0  0  0  0  0  0
  152.7197  138.9510  155.0522 H   0  0  0  0  0  0  0  0  0  0  0  0
  151.4200  138.9735  156.2280 H   0  0  0  0  0  0  0  0  0  0  0  0
  150.7642  137.6097  154.2409 H   0  0  0  0  0  0  0  0  0  0  0  0
  151.1239  138.9468  153.1766 H   0  0  0  0  0  0  0  0  0  0  0  0
  143.4928  134.2786  150.4836 H   0  0  0  0  0  0  0  0  0  0  0  0
  1  2  1  0  0  0  0
  1 22  1  0  0  0  0
  1 23  1  0  0  0  0
  1 24  1  0  0  0  0
  2 21  2  0  0  0  0
  2  3  1  0  0  0  0
  3  4  2  0  0  0  0
  3 25  1  0  0  0  0
  4  5  1  0  0  0  0
  5  6  1  0  0  0  0
  5 21  1  0  0  0  0
  6  7  1  0  0  0  0
  6  8  1  0  0  0  0
  6 26  1  0  0  0  0
  7 27  1  0  0  0  0
  7 28  1  0  0  0  0
  7 29  1  0  0  0  0
  8  9  1  0  0  0  0
  8 10  1  0  0  0  0
  8 30  1  0  0  0  0
  9 31  1  0  0  0  0
  9 32  1  0  0  0  0
  9 33  1  0  0  0  0
 10 11  1  0  0  0  0
 10 34  1  0  0  0  0
 11 12  1  0  0  0  0
 11 35  1  0  0  0  0
 11 36  1  0  0  0  0
 12 13  2  0  0  0  0
 12 14  1  0  0  0  0
 14 15  1  0  0  0  0
 14 37  1  0  0  0  0
 15 20  1  0  0  0  0
 15 16  1  0  0  0  0
 15 38  1  0  0  0  0
 16 17  1  0  0  0  0
 16 39  1  0  0  0  0
 16 40  1  0  0  0  0
 17 18  1  0  0  0  0
 17 41  1  0  0  0  0
 17 42  1  0  0  0  0
 18 19  1  0  0  0  0
 19 20  1  0  0  0  0
 19 43  1  0  0  0  0
 19 44  1  0  0  0  0
 20 45  1  0  0  0  0
 20 46  1  0  0  0  0
 21 47  1  0  0  0  0
M  END
> <s_m_source_file>
AV-unprocessed.smi

> <i_m_source_file_index>
3028

> <i_lp_mmshare_version>
43012

> <i_f3d_flags>
0

> <s_epik_input>
W0NIM11jMVtjSF1ubihbY0hdMSlbQ0BIXShbQ0gzXSlbQ0BIXShbQ0gzXSlbTkhdW0NIMl1DKD1PKVtOSF1bQ0hdMltDSDJdW0NIMl1PW0NIMl1bQ0gyXTI=

> <s_epik_cmdline>
J2VwaWtfcHl0aG9uJywgJy1waCcsICc3LjAnLCAnLXRuJywgJzgnLCAnLW1hJywgJzIwMCcsICctbWV0YWxfYmluZGluZycsICctaW1hZScsICc8aW5maWxlLm1hZT4nLCAnLW9tYWUnLCAnPG91dGZpbGUubWFlPic=

> <r_lp_tautomer_probability>
1

> <r_epik_Ionization_Penalty>
0.88617

> <r_epik_Ionization_Penalty_Charging>
0

> <r_epik_Ionization_Penalty_Neutral>
0.88617

> <r_epik_State_Penalty>
0.921066

> <r_epik_Charging_Adjusted_Penalty>
0.921066

> <i_epik_Tot_Q>
0

> <i_epik_Tot_abs_Q>
0

> <r_epik_Metal_State_Penalty>
0.917309

> <b_epik_Metal_Only>
0

> <s_lp_Force_Field>
OPLS_2005

> <r_lp_Energy>
17.6671

> <b_lp_Chiralities_Consistent>
1

> <s_lp_Variant>
AV-unprocessed.smi:3028-6

> <Gold.Version>
5.8.1

> <Gold.Id.Protein>
6NUR|6NUR_protein|mol2

> <Gold.PLP.Fitness>
48.7139

> <Gold.PLP.PLP>
-42.8621

> <Gold.PLP.part.hbond>
-4.9930

> <Gold.PLP.part.metal>
0.0000

> <Gold.PLP.part.buried>
-5.6881

> <Gold.PLP.part.nonpolar>
-33.5433

> <Gold.PLP.part.repulsive>
0.3181

> <Gold.PLP.ligand.clash>
0.0000

> <Gold.PLP.ligand.torsion>
2.6403

> <Gold.PLP.Chemscore.Hbond>
2.6320

> <Gold.PLP.Chemscore.CHOScore>
1.0000

> <Gold.PLP.Chemscore.Metal>
0.0000

> <Gold.Chemscore.Hbonds>
donor molecule, donor type, donor heavy atom, donor atom, acceptor molecule, acceptor atom, score
      L1  H    10    34       P1 10175  1.00
      L1  H    14    37       P1  7948  1.00
      P1  H  7989  7998       L1    18  0.59
      L1  C    21    47       P1 10186  0.69

> <Gold.PLP.Chemscore.Internal.Correction>
0.2364

> <Gold.Rescore>
     Score         DG    S(hbond)    S(metal)    S(lipo)     H(rot)  DE(clash)    DE(int)     intcor
     15.03     -17.82       1.99        0.00      90.68       1.92       0.15       2.64       ----

> <Gold.Chemscore.Fitness>
15.0314

> <Gold.Chemscore.DG>
-17.8206

> <Gold.Chemscore.ZeroCoef>
-5.4800

> <Gold.Chemscore.Hbond>
1.9925

> <Gold.Chemscore.Metal>
0.0000

> <Gold.Chemscore.Lipo>
90.6760

> <Gold.Chemscore.Internal_Hbond>
0.0000

> <Gold.Chemscore.DEClash>
0.1491

> <Gold.Chemscore.DEInternal>
2.6400

> <Gold.Chemscore.Rot>
1.9233

> <Gold.Chemscore.Internal.Correction>
   9.000000E+99

> <Gold.Chemscore.Hbonds>
donor molecule, donor type, donor heavy atom, donor atom, acceptor molecule, acceptor atom, score
      L1  H    10    34       P1 10175  0.99
      L1  H    14    37       P1  7948  0.93
      P1  H  7989  7998       L1    18  0.03

> <Gold.Chemscore.Hbond.Weighted>
-6.6550

> <Gold.Chemscore.Metal.Weighted>
-0.0000

> <Gold.Chemscore.Lipo.Weighted>
-10.6091

> <Gold.Chemscore.Internal_Hbond.Weighted>
0.0000

> <Gold.Chemscore.DEClash.Weighted>
0.1491

> <Gold.Chemscore.DEInternal.Weighted>
2.6400

> <Gold.Chemscore.Rot.Weighted>
4.9235

> <Gold.Chemscore.Internal.Correction.Weighted>
   9.000000E+99

> <Gold.Protein.RotatedTorsions>
[ 6907 6896 6895 6894 ] final -149.65 input  -60.11 | X-H torsion
[ 7974 7965 7964 7962 ] final  -16.31 input  175.53 | X-H torsion
[ 8008 7997 7996 7995 ] final   87.59 input   59.86 | X-H torsion
[ 10167 10162 10161 10158 ] final -141.79 input  -65.29 | X-H torsion
[ 10718 10713 10712 10709 ] final -144.84 input   66.30 | X-H torsion
[ 10763 10752 10751 10750 ] final  133.54 input  -60.55 | X-H torsion
[ 11005 11000 10999 10996 ] final -167.76 input  -57.11 | X-H torsion

> <Gold.Protein.ActiveResidues>
 VAL166  LYS551  ARG553  GLY616  TRP617  ASP618  TYR619  PRO620  LYS621  CYS622 
 ASP623  PHE694  ASN695  SER759  ASP760  ASP761  ALA762  ILE779  LEU786  VAL792 
 PHE793  MET794  SER795  GLU796  ALA797  LYS798  CYS799  TRP800  GLU811  SER814 

> <Gold.Protein.RotatedAtoms>
  151.1872  133.4689  159.2594 H   0  0  0  0  0  0  0  0  0  0  0  0  # atno 6907 bound_to 6896
  151.1199  135.0073  159.8544 H   0  0  0  0  0  0  0  0  0  0  0  0  # atno 6908 bound_to 6896
  152.5455  134.1784  159.8678 H   0  0  0  0  0  0  0  0  0  0  0  0  # atno 6909 bound_to 6896
  146.1993  140.3618  142.8429 H   0  0  0  0  0  0  0  0  0  0  0  0  # atno 7974 bound_to 7965
  155.9772  140.3380  155.6630 H   0  0  0  0  0  0  0  0  0  0  0  0  # atno 8008 bound_to 7997
  155.6596  140.0714  157.2576 H   0  0  0  0  0  0  0  0  0  0  0  0  # atno 8009 bound_to 7997
  154.4182  140.1711  156.1750 H   0  0  0  0  0  0  0  0  0  0  0  0  # atno 8010 bound_to 7997
  139.8150  143.7651  152.2665 H   0  0  0  0  0  0  0  0  0  0  0  0  # atno 10167 bound_to 10162
  156.3751  130.7808  151.1993 H   0  0  0  0  0  0  0  0  0  0  0  0  # atno 10718 bound_to 10713
  153.8087  135.3132  155.3398 H   0  0  0  0  0  0  0  0  0  0  0  0  # atno 10763 bound_to 10752
  154.8060  135.4697  154.0396 H   0  0  0  0  0  0  0  0  0  0  0  0  # atno 10764 bound_to 10752
  153.1767  135.6887  153.8621 H   0  0  0  0  0  0  0  0  0  0  0  0  # atno 10765 bound_to 10752
  140.5496  134.5442  157.5119 H   0  0  0  0  0  0  0  0  0  0  0  0  # atno 11005 bound_to 11000
  144.8648  140.7191  143.6084 LP  0  0  0  0  0  0  0  0  0  0  0  0  # atno 17320 bound_to 7965
  145.3538  139.1699  143.4420 LP  0  0  0  0  0  0  0  0  0  0  0  0  # atno 17321 bound_to 7965
  139.7811  144.7444  151.0086 LP  0  0  0  0  0  0  0  0  0  0  0  0  # atno 17342 bound_to 10162
  140.7816  143.4541  151.0371 LP  0  0  0  0  0  0  0  0  0  0  0  0  # atno 17343 bound_to 10162
  157.7487  131.0361  150.4392 LP  0  0  0  0  0  0  0  0  0  0  0  0  # atno 17370 bound_to 10713
  156.4626  130.4035  149.6567 LP  0  0  0  0  0  0  0  0  0  0  0  0  # atno 17371 bound_to 10713
  139.9462  134.7698  156.0557 LP  0  0  0  0  0  0  0  0  0  0  0  0  # atno 17394 bound_to 11000
  141.1179  133.6622  156.3141 LP  0  0  0  0  0  0  0  0  0  0  0  0  # atno 17395 bound_to 11000

$$$$
