AV-unprocessed.smi:2718|AV-procd|sdf|10493|dock3
  -GOLD-   2272014543D 1   1.00000     0.00000
 Structure written by MMmdl.
 47 48  0  0  0  0  0  0  0  0  1 V2000
  144.3617  132.4327  149.5064 C   0  0  0  0  0  0  0  0  0  0  0  0
  145.0022  133.0562  150.7306 C   0  0  0  0  0  0  0  0  0  0  0  0
  144.0826  133.9518  151.5422 C   0  0  0  0  0  0  0  0  0  0  0  0
  146.2887  132.8218  151.0521 C   0  0  0  0  0  0  0  0  0  0  0  0
  147.0272  133.3753  152.2175 C   0  0  1  0  0  0  0  0  0  0  0  0
  146.4779  133.2233  153.6246 C   0  0  2  0  0  0  0  0  0  0  0  0
  146.6112  134.3660  154.5819 C   0  0  0  0  0  0  0  0  0  0  0  0
  146.1070  134.3766  155.7053 O   0  0  0  0  0  0  0  0  0  0  0  0
  147.3388  135.3834  154.0983 N   0  0  0  0  0  0  0  0  0  0  0  0
  147.6460  136.6266  154.8014 C   0  0  0  0  0  0  0  0  0  0  0  0
  148.8518  136.5182  155.7645 C   0  0  1  0  0  0  0  0  0  0  0  0
  148.9862  135.1051  156.3493 C   0  0  0  0  0  0  0  0  0  0  0  0
  150.1437  136.9873  155.1499 C   0  0  0  0  0  0  0  0  0  0  0  0
  151.2474  136.2310  155.0779 N   0  0  0  0  0  0  0  0  0  0  0  0
  152.1989  137.0154  154.4584 N   0  0  0  0  0  0  0  0  0  0  0  0
  151.5820  138.1740  154.2324 C   0  0  0  0  0  0  0  0  0  0  0  0
  150.3069  138.2286  154.6447 N   0  0  0  0  0  0  0  0  0  0  0  0
  149.3818  139.3415  154.5622 C   0  0  0  0  0  0  0  0  0  0  0  0
  147.7311  132.4625  153.2077 C   0  0  0  0  0  0  0  0  0  0  0  0
  147.6283  130.9484  153.1017 C   0  0  0  0  0  0  0  0  0  0  0  0
  149.1300  132.8389  153.6784 C   0  0  0  0  0  0  0  0  0  0  0  0
  143.5076  131.8201  149.7968 H   0  0  0  0  0  0  0  0  0  0  0  0
  145.0641  131.7989  148.9641 H   0  0  0  0  0  0  0  0  0  0  0  0
  144.0126  133.2099  148.8265 H   0  0  0  0  0  0  0  0  0  0  0  0
  143.7399  134.7874  150.9316 H   0  0  0  0  0  0  0  0  0  0  0  0
  144.5704  134.3610  152.4263 H   0  0  0  0  0  0  0  0  0  0  0  0
  143.2087  133.3904  151.8732 H   0  0  0  0  0  0  0  0  0  0  0  0
  146.8655  132.1654  150.4167 H   0  0  0  0  0  0  0  0  0  0  0  0
  147.5166  134.3158  151.9695 H   0  0  0  0  0  0  0  0  0  0  0  0
  145.5772  132.6222  153.7430 H   0  0  0  0  0  0  0  0  0  0  0  0
  147.7102  135.2917  153.1635 H   0  0  0  0  0  0  0  0  0  0  0  0
  147.8005  137.4326  154.0824 H   0  0  0  0  0  0  0  0  0  0  0  0
  146.7533  136.8905  155.3694 H   0  0  0  0  0  0  0  0  0  0  0  0
  148.6277  137.1708  156.6073 H   0  0  0  0  0  0  0  0  0  0  0  0
  149.7806  135.0648  157.0950 H   0  0  0  0  0  0  0  0  0  0  0  0
  149.2201  134.3750  155.5739 H   0  0  0  0  0  0  0  0  0  0  0  0
  148.0618  134.7914  156.8344 H   0  0  0  0  0  0  0  0  0  0  0  0
  152.0774  139.0085  153.7582 H   0  0  0  0  0  0  0  0  0  0  0  0
  149.8376  140.1695  154.0189 H   0  0  0  0  0  0  0  0  0  0  0  0
  149.1208  139.6759  155.5665 H   0  0  0  0  0  0  0  0  0  0  0  0
  148.4759  139.0348  154.0401 H   0  0  0  0  0  0  0  0  0  0  0  0
  147.8506  130.4863  154.0639 H   0  0  0  0  0  0  0  0  0  0  0  0
  148.3340  130.5696  152.3619 H   0  0  0  0  0  0  0  0  0  0  0  0
  146.6254  130.6419  152.8035 H   0  0  0  0  0  0  0  0  0  0  0  0
  149.2766  132.5254  154.7121 H   0  0  0  0  0  0  0  0  0  0  0  0
  149.3012  133.9125  153.6103 H   0  0  0  0  0  0  0  0  0  0  0  0
  149.8822  132.3491  153.0596 H   0  0  0  0  0  0  0  0  0  0  0  0
  1  2  1  0  0  0  0
  1 22  1  0  0  0  0
  1 23  1  0  0  0  0
  1 24  1  0  0  0  0
  2  3  1  0  0  0  0
  2  4  2  0  0  0  0
  3 25  1  0  0  0  0
  3 26  1  0  0  0  0
  3 27  1  0  0  0  0
  4  5  1  0  0  0  0
  4 28  1  0  0  0  0
  5 19  1  0  0  0  0
  5  6  1  0  0  0  0
  5 29  1  0  0  0  0
  6  7  1  0  0  0  0
  6 19  1  0  0  0  0
  6 30  1  0  0  0  0
  7  8  2  0  0  0  0
  7  9  1  0  0  0  0
  9 10  1  0  0  0  0
  9 31  1  0  0  0  0
 10 11  1  0  0  0  0
 10 32  1  0  0  0  0
 10 33  1  0  0  0  0
 11 12  1  0  0  0  0
 11 13  1  0  0  0  0
 11 34  1  0  0  0  0
 12 35  1  0  0  0  0
 12 36  1  0  0  0  0
 12 37  1  0  0  0  0
 13 17  1  0  0  0  0
 13 14  2  0  0  0  0
 14 15  1  0  0  0  0
 15 16  2  0  0  0  0
 16 17  1  0  0  0  0
 16 38  1  0  0  0  0
 17 18  1  0  0  0  0
 18 39  1  0  0  0  0
 18 40  1  0  0  0  0
 18 41  1  0  0  0  0
 19 20  1  0  0  0  0
 19 21  1  0  0  0  0
 20 42  1  0  0  0  0
 20 43  1  0  0  0  0
 20 44  1  0  0  0  0
 21 45  1  0  0  0  0
 21 46  1  0  0  0  0
 21 47  1  0  0  0  0
M  END
> <s_m_source_file>
AV-unprocessed.smi

> <i_m_source_file_index>
2718

> <i_lp_mmshare_version>
43012

> <i_f3d_flags>
0

> <s_epik_input>
W0NIM11DKFtDSDNdKT1bQ0hdW0NAQEhdKEMxKFtDSDNdKVtDSDNdKVtDQEhdMUMoPU8pW05IXVtDSDJdW0NASF0oW0NIM10pYzJubltjSF1uMltDSDNd

> <s_epik_cmdline>
J2VwaWtfcHl0aG9uJywgJy1waCcsICc3LjAnLCAnLXRuJywgJzgnLCAnLW1hJywgJzIwMCcsICctbWV0YWxfYmluZGluZycsICctaW1hZScsICc8aW5maWxlLm1hZT4nLCAnLW9tYWUnLCAnPG91dGZpbGUubWFlPic=

> <r_lp_tautomer_probability>
1

> <r_epik_Ionization_Penalty>
0.000449586

> <r_epik_Ionization_Penalty_Charging>
0

> <r_epik_Ionization_Penalty_Neutral>
0.000449586

> <r_epik_State_Penalty>
0.000243372

> <r_epik_Charging_Adjusted_Penalty>
0.000243372

> <i_epik_Tot_Q>
0

> <i_epik_Tot_abs_Q>
0

> <r_epik_Metal_State_Penalty>
-0

> <b_epik_Metal_Only>
0

> <s_lp_Force_Field>
OPLS_2005

> <r_lp_Energy>
15.3902

> <b_lp_Chiralities_Consistent>
1

> <s_lp_Variant>
AV-unprocessed.smi:2718-8

> <Gold.Version>
5.8.1

> <Gold.Id.Protein>
6NUR|6NUR_protein|mol2

> <Gold.PLP.Fitness>
36.9225

> <Gold.PLP.PLP>
-33.9663

> <Gold.PLP.part.hbond>
-2.7229

> <Gold.PLP.part.metal>
0.0000

> <Gold.PLP.part.buried>
-5.5414

> <Gold.PLP.part.nonpolar>
-26.4759

> <Gold.PLP.part.repulsive>
0.3102

> <Gold.PLP.ligand.clash>
0.0000

> <Gold.PLP.ligand.torsion>
0.6977

> <Gold.PLP.Chemscore.Hbond>
1.3576

> <Gold.PLP.Chemscore.CHOScore>
0.0000

> <Gold.PLP.Chemscore.Metal>
0.0000

> <Gold.Chemscore.Hbonds>
donor molecule, donor type, donor heavy atom, donor atom, acceptor molecule, acceptor atom, score
      L1  H     9    31       P1  7948  0.85
      P1  H 10752 10763       L1    15  0.44

> <Gold.PLP.Chemscore.Internal.Correction>
0.2788

> <Gold.Rescore>
     Score         DG    S(hbond)    S(metal)    S(lipo)     H(rot)  DE(clash)    DE(int)     intcor
     12.07     -13.00       1.17        0.00      73.54       1.95       0.24       0.68       ----

> <Gold.Chemscore.Fitness>
12.0748

> <Gold.Chemscore.DG>
-13.0017

> <Gold.Chemscore.ZeroCoef>
-5.4800

> <Gold.Chemscore.Hbond>
1.1731

> <Gold.Chemscore.Metal>
0.0000

> <Gold.Chemscore.Lipo>
73.5395

> <Gold.Chemscore.Internal_Hbond>
0.0000

> <Gold.Chemscore.DEClash>
0.2447

> <Gold.Chemscore.DEInternal>
0.6821

> <Gold.Chemscore.Rot>
1.9533

> <Gold.Chemscore.Internal.Correction>
   9.000000E+99

> <Gold.Chemscore.Hbonds>
donor molecule, donor type, donor heavy atom, donor atom, acceptor molecule, acceptor atom, score
      L1  H     9    31       P1  7948  0.79
      P1  H 10752 10763       L1    15  0.06

> <Gold.Chemscore.Hbond.Weighted>
-3.9181

> <Gold.Chemscore.Metal.Weighted>
-0.0000

> <Gold.Chemscore.Lipo.Weighted>
-8.6041

> <Gold.Chemscore.Internal_Hbond.Weighted>
0.0000

> <Gold.Chemscore.DEClash.Weighted>
0.2447

> <Gold.Chemscore.DEInternal.Weighted>
0.6821

> <Gold.Chemscore.Rot.Weighted>
5.0005

> <Gold.Chemscore.Internal.Correction.Weighted>
   9.000000E+99

> <Gold.Protein.RotatedTorsions>
[ 6907 6896 6895 6894 ] final -140.09 input  -60.11 | X-H torsion
[ 7974 7965 7964 7962 ] final  -40.92 input  175.53 | X-H torsion
[ 8008 7997 7996 7995 ] final  163.99 input   59.86 | X-H torsion
[ 10167 10162 10161 10158 ] final  -66.55 input  -65.29 | X-H torsion
[ 10718 10713 10712 10709 ] final  -34.76 input   66.30 | X-H torsion
[ 10763 10752 10751 10750 ] final   15.04 input  -60.55 | X-H torsion
[ 11005 11000 10999 10996 ] final  -97.80 input  -57.11 | X-H torsion

> <Gold.Protein.ActiveResidues>
 VAL166  LYS551  ARG553  GLY616  TRP617  ASP618  TYR619  PRO620  LYS621  CYS622 
 ASP623  PHE694  ASN695  SER759  ASP760  ASP761  ALA762  ILE779  LEU786  VAL792 
 PHE793  MET794  SER795  GLU796  ALA797  LYS798  CYS799  TRP800  GLU811  SER814 

> <Gold.Protein.RotatedAtoms>
  151.0562  133.5582  159.2637 H   0  0  0  0  0  0  0  0  0  0  0  0  # atno 6907 bound_to 6896
  151.2574  135.0642  159.9095 H   0  0  0  0  0  0  0  0  0  0  0  0  # atno 6908 bound_to 6896
  152.5390  134.0313  159.8080 H   0  0  0  0  0  0  0  0  0  0  0  0  # atno 6909 bound_to 6896
  146.0260  140.6791  142.9155 H   0  0  0  0  0  0  0  0  0  0  0  0  # atno 7974 bound_to 7965
  156.1914  140.1708  156.8084 H   0  0  0  0  0  0  0  0  0  0  0  0  # atno 8008 bound_to 7997
  154.5476  140.0724  156.8647 H   0  0  0  0  0  0  0  0  0  0  0  0  # atno 8009 bound_to 7997
  155.3091  140.3366  155.4247 H   0  0  0  0  0  0  0  0  0  0  0  0  # atno 8010 bound_to 7997
  140.5649  143.2314  151.6655 H   0  0  0  0  0  0  0  0  0  0  0  0  # atno 10167 bound_to 10162
  156.3467  130.4302  149.7740 H   0  0  0  0  0  0  0  0  0  0  0  0  # atno 10718 bound_to 10713
  153.1563  135.6788  153.8807 H   0  0  0  0  0  0  0  0  0  0  0  0  # atno 10763 bound_to 10752
  153.8217  135.3129  155.3412 H   0  0  0  0  0  0  0  0  0  0  0  0  # atno 10764 bound_to 10752
  154.7900  135.4840  154.0119 H   0  0  0  0  0  0  0  0  0  0  0  0  # atno 10765 bound_to 10752
  141.1367  133.8198  157.0755 H   0  0  0  0  0  0  0  0  0  0  0  0  # atno 11005 bound_to 11000
  144.7010  140.3650  143.7156 LP  0  0  0  0  0  0  0  0  0  0  0  0  # atno 17320 bound_to 7965
  145.7117  139.1686  143.2535 LP  0  0  0  0  0  0  0  0  0  0  0  0  # atno 17321 bound_to 7965
  139.5088  144.3599  152.0572 LP  0  0  0  0  0  0  0  0  0  0  0  0  # atno 17342 bound_to 10162
  140.2730  144.3943  150.6145 LP  0  0  0  0  0  0  0  0  0  0  0  0  # atno 17343 bound_to 10162
  156.4956  130.8105  151.3112 LP  0  0  0  0  0  0  0  0  0  0  0  0  # atno 17370 bound_to 10713
  157.7455  130.9961  150.2769 LP  0  0  0  0  0  0  0  0  0  0  0  0  # atno 17371 bound_to 10713
  140.0484  134.9818  157.1092 LP  0  0  0  0  0  0  0  0  0  0  0  0  # atno 17394 bound_to 11000
  140.4027  134.2066  155.7163 LP  0  0  0  0  0  0  0  0  0  0  0  0  # atno 17395 bound_to 11000

$$$$
