#       Name:                AV-unprocessed.smi:72
#       Creating user name   scv26
#       Creation time:       Thu Mar 26 17:04:26 2020


#       File generated by GOLD software.
#

@<TRIPOS>MOLECULE
AV-unprocessed.smi:72
    41    42     1
SMALL
NO_CHARGES


@<TRIPOS>ATOM
      1 ****        -3.9633   2.6477  -2.0595 N.2            1 S1                 0.0000
      2 ****        -2.9940   2.2006  -1.3892 C.2            1 S1                 0.0000
      3 ****        -1.6992   2.0273  -2.0097 N.2            1 S1                 0.0000
      4 ****        -0.7451   1.5231  -1.2890 C.2            1 S1                 0.0000
      5 ****        -0.9569   1.1153   0.0963 N.am           1 S1                 0.0000
      6 ****         0.1511   0.5257   0.9575 C.3            1 S1                 0.0000
      7 ****         1.3569   0.4960   0.2523 O.3            1 S1                 0.0000
      8 ****         1.5288  -0.7813  -0.3491 C.3            1 S1                 0.0000
      9 ****         3.0099  -1.0040  -0.6888 C.3            1 S1                 0.0000
     10 ****         3.3197  -0.3950  -1.9244 O.3            1 S1                 0.0000
     11 ****         0.9994  -1.7188   0.7371 C.3            1 S1                 0.0000
     12 ****         0.5428  -2.9277   0.1638 O.3            1 S1                 0.0000
     13 ****        -0.1626  -0.9369   1.3454 C.3            1 S1                 0.0000
     14 ****        -0.1867  -1.1103   2.7473 O.3            1 S1                 0.0000
     15 ****        -2.2237   1.3584   0.6942 C.2            1 S1                 0.0000
     16 ****        -2.3671   1.0749   1.8838 O.2            1 S1                 0.0000
     17 ****        -3.2191   1.8939  -0.0661 N.pl3          1 S1                -1.0000
     18 ****         0.2399   1.2110   1.8026 H              1 S1                 0.0000
     19 ****         0.9045  -0.8622  -1.2411 H              1 S1                 0.0000
     20 ****         1.7746  -1.9137   1.4805 H              1 S1                 0.0000
     21 ****        -1.1170  -1.2438   0.9136 H              1 S1                 0.0000
     22 ****        -4.8068   2.7220  -1.5095 H              1 S1                 0.0000
     23 ****         0.2625   1.3802  -1.6785 H              1 S1                 0.0000
     24 ****         3.6601  -0.6215   0.0983 H              1 S1                 0.0000
     25 ****         3.2148  -2.0702  -0.7895 H              1 S1                 0.0000
     26 ****         4.2309  -0.5537  -2.1176 H              1 S1                 0.0000
     27 ****         0.1406  -3.4455   0.8444 H              1 S1                 0.0000
     28 ****        -0.8938  -0.5878   3.0955 H              1 S1                 0.0000
     29 ****        -3.9038   2.8998  -3.0254 LP             1 S1                 0.0000
     30 ****        -1.5443   2.2874  -2.9628 LP             1 S1                 0.0000
     31 ****         2.1143   0.6720   0.8810 LP             1 S1                 0.0000
     32 ****         1.3436   1.1990  -0.4587 LP             1 S1                 0.0000
     33 ****         3.1539   0.5894  -1.8659 LP             1 S1                 0.0000
     34 ****         2.7489  -0.7869  -2.6459 LP             1 S1                 0.0000
     35 ****         1.3140  -3.4276  -0.2302 LP             1 S1                 0.0000
     36 ****        -0.1273  -2.7307  -0.5518 LP             1 S1                 0.0000
     37 ****         0.6822  -0.8104   3.1411 LP             1 S1                 0.0000
     38 ****        -0.3372  -2.0742   2.9672 LP             1 S1                 0.0000
     39 ****        -1.6046   0.6855   2.4005 LP             1 S1                 0.0000
     40 ****        -3.2461   1.2339   2.3333 LP             1 S1                 0.0000
     41 ****        -4.1174   2.0649   0.3386 LP             1 S1                 0.0000
@<TRIPOS>BOND
    1    1    2 2     
    2    1   22 1     
    3    2   17 1     
    4    2    3 1     
    5    3    4 2     
    6    4    5 1     
    7    4   23 1     
    8    5    6 1     
    9    5   15 am    
   10    6   18 1     
   11    6   13 1     
   12    6    7 1     
   13    7    8 1     
   14    8   19 1     
   15    8    9 1     
   16    8   11 1     
   17    9   10 1     
   18    9   24 1     
   19    9   25 1     
   20   10   26 1     
   21   11   20 1     
   22   11   12 1     
   23   11   13 1     
   24   12   27 1     
   25   13   21 1     
   26   13   14 1     
   27   14   28 1     
   28   15   16 2     
   29   15   17 1     
   30    1   29 1     
   31    3   30 1     
   32    7   31 1     
   33    7   32 1     
   34   10   33 1     
   35   10   34 1     
   36   12   35 1     
   37   12   36 1     
   38   14   37 1     
   39   14   38 1     
   40   16   39 1     
   41   16   40 1     
   42   17   41 1     
@<TRIPOS>SUBSTRUCTURE
      1 S1             1
@<TRIPOS>SET
LONE_PAIRS      STATIC     ATOMS    <user>   **** ""
13 29 30 31 32 33 34 35 36 37 38 39 40 41
DONOR_HYDROGENS      STATIC     ATOMS    <user>   **** ""
4 22 26 27 28
ATOM$BLUE        STATIC     ATOMS    COLORGROUP SYSTEM
13 29 30 31 32 33 34 35 36 37 38 39 40 41
ATOM$RED        STATIC     ATOMS    COLORGROUP SYSTEM
4 22 26 27 28
