AV-unprocessed.smi:3112|AV-procd|sdf|11849|dock4
  -GOLD-   2272017233D 1   1.00000     0.00000
 Structure written by MMmdl.
 36 36  0  0  0  0  0  0  0  0  1 V2000
  147.8181  139.3199  153.7698 C   0  0  0  0  0  0  0  0  0  0  0  0
  147.4317  140.8045  153.7332 C   0  0  0  0  0  0  0  0  0  0  0  0
  148.5267  141.7330  154.2949 C   0  0  1  0  0  0  0  0  0  0  0  0
  148.0776  143.0728  154.3431 O   0  0  0  0  0  0  0  0  0  0  0  0
  149.0511  141.3232  155.6841 C   0  0  0  0  0  0  0  0  0  0  0  0
  150.1222  142.2046  156.1507 N   0  0  0  0  0  0  0  0  0  0  0  0
  150.5419  142.0522  157.5514 C   0  0  2  0  0  0  0  0  0  0  0  0
  149.2799  142.0727  158.4301 C   0  0  0  0  0  0  0  0  0  0  0  0
  151.5883  143.0999  158.0432 C   0  0  1  0  0  0  0  0  0  0  0  0
  151.1075  144.5640  157.9683 C   0  0  0  0  0  0  0  0  0  0  0  0
  152.2051  142.7582  159.3241 N   0  0  0  0  0  0  0  0  0  0  0  0
  152.9421  141.6331  159.6359 C   0  0  0  0  0  0  0  0  0  0  0  0
  153.2866  141.7165  160.9542 C   0  0  0  0  0  0  0  0  0  0  0  0
  152.7015  142.9414  161.3780 C   0  0  0  0  0  0  0  0  0  0  0  0
  152.0572  143.5609  160.4036 N   0  0  0  0  0  0  0  0  0  0  0  0
  147.0044  138.6986  153.3955 H   0  0  0  0  0  0  0  0  0  0  0  0
  148.0413  138.9954  154.7863 H   0  0  0  0  0  0  0  0  0  0  0  0
  148.6948  139.1217  153.1531 H   0  0  0  0  0  0  0  0  0  0  0  0
  147.1831  141.0871  152.7098 H   0  0  0  0  0  0  0  0  0  0  0  0
  146.5199  140.9374  154.3164 H   0  0  0  0  0  0  0  0  0  0  0  0
  149.3758  141.7148  153.6108 H   0  0  0  0  0  0  0  0  0  0  0  0
  147.7532  143.2495  155.2126 H   0  0  0  0  0  0  0  0  0  0  0  0
  148.2232  141.3510  156.3930 H   0  0  0  0  0  0  0  0  0  0  0  0
  149.3892  140.2907  155.6367 H   0  0  0  0  0  0  0  0  0  0  0  0
  149.8612  143.1701  155.9786 H   0  0  0  0  0  0  0  0  0  0  0  0
  150.9784  141.0608  157.6765 H   0  0  0  0  0  0  0  0  0  0  0  0
  149.5239  141.9083  159.4798 H   0  0  0  0  0  0  0  0  0  0  0  0
  148.5841  141.2872  158.1336 H   0  0  0  0  0  0  0  0  0  0  0  0
  148.7518  143.0235  158.3548 H   0  0  0  0  0  0  0  0  0  0  0  0
  152.4054  143.0697  157.3205 H   0  0  0  0  0  0  0  0  0  0  0  0
  150.7542  144.8047  156.9655 H   0  0  0  0  0  0  0  0  0  0  0  0
  151.9249  145.2491  158.1957 H   0  0  0  0  0  0  0  0  0  0  0  0
  150.2994  144.7884  158.6607 H   0  0  0  0  0  0  0  0  0  0  0  0
  153.1564  140.8721  158.9001 H   0  0  0  0  0  0  0  0  0  0  0  0
  153.8634  141.0076  161.5296 H   0  0  0  0  0  0  0  0  0  0  0  0
  152.7240  143.3948  162.3580 H   0  0  0  0  0  0  0  0  0  0  0  0
  1  2  1  0  0  0  0
  1 16  1  0  0  0  0
  1 17  1  0  0  0  0
  1 18  1  0  0  0  0
  2  3  1  0  0  0  0
  2 19  1  0  0  0  0
  2 20  1  0  0  0  0
  3  4  1  0  0  0  0
  3  5  1  0  0  0  0
  3 21  1  0  0  0  0
  4 22  1  0  0  0  0
  5  6  1  0  0  0  0
  5 23  1  0  0  0  0
  5 24  1  0  0  0  0
  6  7  1  0  0  0  0
  6 25  1  0  0  0  0
  7  8  1  0  0  0  0
  7  9  1  0  0  0  0
  7 26  1  0  0  0  0
  8 27  1  0  0  0  0
  8 28  1  0  0  0  0
  8 29  1  0  0  0  0
  9 10  1  0  0  0  0
  9 11  1  0  0  0  0
  9 30  1  0  0  0  0
 10 31  1  0  0  0  0
 10 32  1  0  0  0  0
 10 33  1  0  0  0  0
 11 15  1  0  0  0  0
 11 12  1  0  0  0  0
 12 13  2  0  0  0  0
 12 34  1  0  0  0  0
 13 14  1  0  0  0  0
 13 35  1  0  0  0  0
 14 15  2  0  0  0  0
 14 36  1  0  0  0  0
M  END
> <s_m_source_file>
AV-unprocessed.smi

> <i_m_source_file_index>
3112

> <i_lp_mmshare_version>
43012

> <i_f3d_flags>
0

> <s_epik_input>
W0NIM11bQ0gyXVtDQEhdKFtPSF0pW0NIMl1bTkhdW0NASF0oW0NIM10pW0NASF0oW0NIM10pbjFbY0hdW2NIXVtjSF1uMQ==

> <s_epik_cmdline>
J2VwaWtfcHl0aG9uJywgJy1waCcsICc3LjAnLCAnLXRuJywgJzgnLCAnLW1hJywgJzIwMCcsICctbWV0YWxfYmluZGluZycsICctaW1hZScsICc8aW5maWxlLm1hZT4nLCAnLW9tYWUnLCAnPG91dGZpbGUubWFlPic=

> <r_lp_tautomer_probability>
1

> <r_epik_Ionization_Penalty>
2.16876

> <r_epik_Ionization_Penalty_Charging>
0

> <r_epik_Ionization_Penalty_Neutral>
2.16876

> <r_epik_State_Penalty>
2.30854

> <r_epik_Charging_Adjusted_Penalty>
2.30854

> <i_epik_Tot_Q>
0

> <i_epik_Tot_abs_Q>
0

> <r_epik_Metal_State_Penalty>
2.3073

> <b_epik_Metal_Only>
0

> <s_lp_Force_Field>
OPLS_2005

> <r_lp_Energy>
23.5049

> <b_lp_Chiralities_Consistent>
1

> <s_lp_Variant>
AV-unprocessed.smi:3112-14

> <Gold.Version>
5.8.1

> <Gold.Id.Protein>
6NUR|6NUR_protein|mol2

> <Gold.PLP.Fitness>
41.2245

> <Gold.PLP.PLP>
-35.5537

> <Gold.PLP.part.hbond>
-3.5757

> <Gold.PLP.part.metal>
0.0000

> <Gold.PLP.part.buried>
-1.2238

> <Gold.PLP.part.nonpolar>
-30.3351

> <Gold.PLP.part.repulsive>
0.0399

> <Gold.PLP.ligand.clash>
0.0000

> <Gold.PLP.ligand.torsion>
0.3189

> <Gold.PLP.Chemscore.Hbond>
1.9940

> <Gold.PLP.Chemscore.CHOScore>
0.0000

> <Gold.PLP.Chemscore.Metal>
0.0000

> <Gold.Chemscore.Hbonds>
donor molecule, donor type, donor heavy atom, donor atom, acceptor molecule, acceptor atom, score
      L1  H     6    25       P1  8028  1.00
      P1  H  8022  8030       L1     4  1.00

> <Gold.PLP.Chemscore.Internal.Correction>
0.3266

> <Gold.Rescore>
     Score         DG    S(hbond)    S(metal)    S(lipo)     H(rot)  DE(clash)    DE(int)     intcor
     14.92     -16.61       1.89        0.00      91.82       2.31       1.34       0.35       ----

> <Gold.Chemscore.Fitness>
14.9210

> <Gold.Chemscore.DG>
-16.6131

> <Gold.Chemscore.ZeroCoef>
-5.4800

> <Gold.Chemscore.Hbond>
1.8881

> <Gold.Chemscore.Metal>
0.0000

> <Gold.Chemscore.Lipo>
91.8163

> <Gold.Chemscore.Internal_Hbond>
0.0000

> <Gold.Chemscore.DEClash>
1.3436

> <Gold.Chemscore.DEInternal>
0.3485

> <Gold.Chemscore.Rot>
2.3108

> <Gold.Chemscore.Internal.Correction>
   9.000000E+99

> <Gold.Chemscore.Hbonds>
donor molecule, donor type, donor heavy atom, donor atom, acceptor molecule, acceptor atom, score
      L1  H     4    22       P1  8028  0.02
      L1  H     6    25       P1  8028  1.00
      P1  H  8022  8030       L1     4  0.53

> <Gold.Chemscore.Hbond.Weighted>
-6.3063

> <Gold.Chemscore.Metal.Weighted>
-0.0000

> <Gold.Chemscore.Lipo.Weighted>
-10.7425

> <Gold.Chemscore.Internal_Hbond.Weighted>
0.0000

> <Gold.Chemscore.DEClash.Weighted>
1.3436

> <Gold.Chemscore.DEInternal.Weighted>
0.3485

> <Gold.Chemscore.Rot.Weighted>
5.9157

> <Gold.Chemscore.Internal.Correction.Weighted>
   9.000000E+99

> <Gold.Protein.RotatedTorsions>
[ 6907 6896 6895 6894 ] final    2.56 input  -60.11 | X-H torsion
[ 7974 7965 7964 7962 ] final  101.56 input  175.53 | X-H torsion
[ 8008 7997 7996 7995 ] final    2.32 input   59.86 | X-H torsion
[ 10167 10162 10161 10158 ] final   19.50 input  -65.29 | X-H torsion
[ 10718 10713 10712 10709 ] final -147.86 input   66.30 | X-H torsion
[ 10763 10752 10751 10750 ] final -103.21 input  -60.55 | X-H torsion
[ 11005 11000 10999 10996 ] final    3.01 input  -57.11 | X-H torsion

> <Gold.Protein.ActiveResidues>
 VAL166  LYS551  ARG553  GLY616  TRP617  ASP618  TYR619  PRO620  LYS621  CYS622 
 ASP623  PHE694  ASN695  SER759  ASP760  ASP761  ALA762  ILE779  LEU786  VAL792 
 PHE793  MET794  SER795  GLU796  ALA797  LYS798  CYS799  TRP800  GLU811  SER814 

> <Gold.Protein.RotatedAtoms>
  151.6108  135.1040  160.0080 H   0  0  0  0  0  0  0  0  0  0  0  0  # atno 6907 bound_to 6896
  152.4209  133.7111  159.6490 H   0  0  0  0  0  0  0  0  0  0  0  0  # atno 6908 bound_to 6896
  150.8097  133.8372  159.3210 H   0  0  0  0  0  0  0  0  0  0  0  0  # atno 6909 bound_to 6896
  145.3707  139.2399  143.3456 H   0  0  0  0  0  0  0  0  0  0  0  0  # atno 7974 bound_to 7965
  154.6902  140.2651  155.6820 H   0  0  0  0  0  0  0  0  0  0  0  0  # atno 8008 bound_to 7997
  156.2729  140.2792  156.1401 H   0  0  0  0  0  0  0  0  0  0  0  0  # atno 8009 bound_to 7997
  155.0907  140.0373  157.2658 H   0  0  0  0  0  0  0  0  0  0  0  0  # atno 8010 bound_to 7997
  140.5574  143.9399  150.6619 H   0  0  0  0  0  0  0  0  0  0  0  0  # atno 10167 bound_to 10162
  156.4128  130.7990  151.2209 H   0  0  0  0  0  0  0  0  0  0  0  0  # atno 10718 bound_to 10713
  154.7791  135.4832  153.9806 H   0  0  0  0  0  0  0  0  0  0  0  0  # atno 10763 bound_to 10752
  153.1469  135.6783  153.8949 H   0  0  0  0  0  0  0  0  0  0  0  0  # atno 10764 bound_to 10752
  153.8605  135.3156  155.3416 H   0  0  0  0  0  0  0  0  0  0  0  0  # atno 10765 bound_to 10752
  140.5979  133.9863  155.8118 H   0  0  0  0  0  0  0  0  0  0  0  0  # atno 11005 bound_to 11000
  146.2886  140.4358  142.8748 LP  0  0  0  0  0  0  0  0  0  0  0  0  # atno 17320 bound_to 7965
  144.8578  140.7096  143.6126 LP  0  0  0  0  0  0  0  0  0  0  0  0  # atno 17321 bound_to 7965
  140.2841  143.3369  152.1124 LP  0  0  0  0  0  0  0  0  0  0  0  0  # atno 17342 bound_to 10162
  139.5054  144.6794  151.6046 LP  0  0  0  0  0  0  0  0  0  0  0  0  # atno 17343 bound_to 10162
  157.7507  131.0252  150.3909 LP  0  0  0  0  0  0  0  0  0  0  0  0  # atno 17370 bound_to 10713
  156.4211  130.3953  149.6824 LP  0  0  0  0  0  0  0  0  0  0  0  0  # atno 17371 bound_to 10713
  141.0892  133.9943  157.3265 LP  0  0  0  0  0  0  0  0  0  0  0  0  # atno 17394 bound_to 11000
  139.9245  135.0201  156.8185 LP  0  0  0  0  0  0  0  0  0  0  0  0  # atno 17395 bound_to 11000

$$$$
