AV-unprocessed.smi:35|AV-procd|sdf|266|dock5
  -GOLD-   2262016 33D 1   1.00000     0.00000
 Structure written by MMmdl.
 28 29  0  0  0  0  0  0  0  0  2 V2000
  153.0700  142.8588  160.1842 O   0  0  0  0  0  0  0  0  0  0  0  0
  152.2528  142.3126  159.4455 C   0  0  0  0  0  0  0  0  0  0  0  0
  152.2685  140.9733  159.1847 N   0  5  0  0  0  0  0  0  0  0  0  0
  151.3579  140.3718  158.3639 C   0  0  0  0  0  0  0  0  0  0  0  0
  151.3737  139.1677  158.1075 O   0  0  0  0  0  0  0  0  0  0  0  0
  150.3453  141.1660  157.7596 N   0  0  0  0  0  0  0  0  0  0  0  0
  149.3339  140.4953  156.8491 C   0  0  1  0  0  0  0  0  0  0  0  0
  148.3317  141.4132  156.5111 O   0  0  0  0  0  0  0  0  0  0  0  0
  148.4297  141.7401  155.1307 C   0  0  2  0  0  0  0  0  0  0  0  0
  147.0960  142.3011  154.6057 C   0  0  0  0  0  0  0  0  0  0  0  0
  146.0734  141.3261  154.5966 O   0  0  0  0  0  0  0  0  0  0  0  0
  148.9492  140.4536  154.4893 C   0  0  1  0  0  0  0  0  0  0  0  0
  149.5097  140.6604  153.2056 O   0  0  0  0  0  0  0  0  0  0  0  0
  149.9574  139.9709  155.5291 C   0  0  1  0  0  0  0  0  0  0  0  0
  151.2632  140.4705  155.2792 O   0  0  0  0  0  0  0  0  0  0  0  0
  150.3079  142.5297  158.0011 C   0  0  0  0  0  0  0  0  0  0  0  0
  151.2129  143.1170  158.8097 C   0  0  0  0  0  0  0  0  0  0  0  0
  151.0411  145.0748  159.0641 Br  0  0  0  0  0  0  0  0  0  0  0  0
  148.8687  139.7113  157.4490 H   0  0  0  0  0  0  0  0  0  0  0  0
  149.1914  142.5166  155.0391 H   0  0  0  0  0  0  0  0  0  0  0  0
  146.7801  143.1573  155.2021 H   0  0  0  0  0  0  0  0  0  0  0  0
  147.2264  142.6556  153.5830 H   0  0  0  0  0  0  0  0  0  0  0  0
  145.7368  141.2522  153.7166 H   0  0  0  0  0  0  0  0  0  0  0  0
  148.1503  139.7155  154.4120 H   0  0  0  0  0  0  0  0  0  0  0  0
  149.3510  139.8882  152.6846 H   0  0  0  0  0  0  0  0  0  0  0  0
  150.0094  138.8821  155.5602 H   0  0  0  0  0  0  0  0  0  0  0  0
  151.6293  140.7643  156.1000 H   0  0  0  0  0  0  0  0  0  0  0  0
  149.5507  143.1456  157.5412 H   0  0  0  0  0  0  0  0  0  0  0  0
  1  2  2  0  0  0  0
  2 17  1  0  0  0  0
  2  3  1  0  0  0  0
  3  4  1  0  0  0  0
  4  5  2  0  0  0  0
  4  6  1  0  0  0  0
  6  7  1  0  0  0  0
  6 16  1  0  0  0  0
  7 14  1  0  0  0  0
  7  8  1  0  0  0  0
  7 19  1  0  0  0  0
  8  9  1  0  0  0  0
  9 10  1  0  0  0  0
  9 12  1  0  0  0  0
  9 20  1  0  0  0  0
 10 11  1  0  0  0  0
 10 21  1  0  0  0  0
 10 22  1  0  0  0  0
 11 23  1  0  0  0  0
 12 13  1  0  0  0  0
 12 14  1  0  0  0  0
 12 24  1  0  0  0  0
 13 25  1  0  0  0  0
 14 15  1  0  0  0  0
 14 26  1  0  0  0  0
 15 27  1  0  0  0  0
 16 17  2  0  0  0  0
 16 28  1  0  0  0  0
 17 18  1  0  0  0  0
M  CHG  1   3  -1
M  END
> <s_m_source_file>
AV-unprocessed.smi

> <i_m_source_file_index>
35

> <i_lp_mmshare_version>
43012

> <i_f3d_flags>
0

> <s_epik_input>
Tz1jMVtuSF1jKD1PKW4oW2NIXWMxQnIpW0NAQEhdMk9bQ0BASF0oW0NIMl1bT0hdKVtDQEBIXShbT0hdKVtDQEhdMltPSF0=

> <s_epik_cmdline>
J2VwaWtfcHl0aG9uJywgJy1waCcsICc3LjAnLCAnLXRuJywgJzgnLCAnLW1hJywgJzIwMCcsICctbWV0YWxfYmluZGluZycsICctaW1hZScsICc8aW5maWxlLm1hZT4nLCAnLW9tYWUnLCAnPG91dGZpbGUubWFlPic=

> <r_epik_Ionization_Penalty>
1.06112

> <r_epik_Ionization_Penalty_Charging>
2.1796e-09

> <r_epik_Ionization_Penalty_Neutral>
1.06112

> <r_epik_State_Penalty>
1.11484

> <r_epik_Charging_Adjusted_Penalty>
1.11484

> <i_epik_Tot_Q>
-1

> <i_epik_Tot_abs_Q>
1

> <r_epik_Metal_State_Penalty>
0.0032876

> <b_epik_Metal_Only>
0

> <s_epik_Chemistry_Notes>
This compound contains an acetal/aminal-like group ( X-CH(R)-Y where X, Y are N, S, or O) that may be acid/base labile, releasing an aldehyde.

> <s_lp_Force_Field>
OPLS_2005

> <r_lp_Energy>
48.0259

> <b_lp_Chiralities_Consistent>
1

> <s_lp_Variant>
AV-unprocessed.smi:35-20

> <Gold.Version>
5.8.1

> <Gold.Id.Protein>
6NUR|6NUR_protein|mol2

> <Gold.PLP.Fitness>
38.5065

> <Gold.PLP.PLP>
-29.0769

> <Gold.PLP.part.hbond>
-2.1297

> <Gold.PLP.part.metal>
0.0000

> <Gold.PLP.part.buried>
-4.3820

> <Gold.PLP.part.nonpolar>
-22.4256

> <Gold.PLP.part.repulsive>
0.1043

> <Gold.PLP.ligand.clash>
0.0000

> <Gold.PLP.ligand.torsion>
0.1592

> <Gold.PLP.Chemscore.Hbond>
2.2320

> <Gold.PLP.Chemscore.CHOScore>
1.0000

> <Gold.PLP.Chemscore.Metal>
0.0000

> <Gold.Chemscore.Hbonds>
donor molecule, donor type, donor heavy atom, donor atom, acceptor molecule, acceptor atom, score
      L1  H    13    25       P1  7957  0.32
      P1  H  7989  7998       L1    15  0.93
      P1  H  8011  8017       L1    13  1.00
      L1  C    16    28       P1  8028  1.00

> <Gold.PLP.Chemscore.Internal.Correction>
0.0519

> <Gold.Rescore>
     Score         DG    S(hbond)    S(metal)    S(lipo)     H(rot)  DE(clash)    DE(int)     intcor
      9.35      -9.63       2.15        0.00      53.41       3.63       0.00       0.28       ----

> <Gold.Chemscore.Fitness>
9.3478

> <Gold.Chemscore.DG>
-9.6328

> <Gold.Chemscore.ZeroCoef>
-5.4800

> <Gold.Chemscore.Hbond>
2.1515

> <Gold.Chemscore.Metal>
0.0000

> <Gold.Chemscore.Lipo>
53.4138

> <Gold.Chemscore.Internal_Hbond>
0.0000

> <Gold.Chemscore.DEClash>
0.0029

> <Gold.Chemscore.DEInternal>
0.2821

> <Gold.Chemscore.Rot>
3.6261

> <Gold.Chemscore.Internal.Correction>
   9.000000E+99

> <Gold.Chemscore.Hbonds>
donor molecule, donor type, donor heavy atom, donor atom, acceptor molecule, acceptor atom, score
      L1  H    13    25       P1  7957  0.31
      P1  H  7989  7998       L1    15  0.84
      P1  H  8011  8017       L1    13  0.96

> <Gold.Chemscore.Hbond.Weighted>
-7.1861

> <Gold.Chemscore.Metal.Weighted>
-0.0000

> <Gold.Chemscore.Lipo.Weighted>
-6.2494

> <Gold.Chemscore.Internal_Hbond.Weighted>
0.0000

> <Gold.Chemscore.DEClash.Weighted>
0.0029

> <Gold.Chemscore.DEInternal.Weighted>
0.2821

> <Gold.Chemscore.Rot.Weighted>
9.2828

> <Gold.Chemscore.Internal.Correction.Weighted>
   9.000000E+99

> <Gold.Protein.RotatedTorsions>
[ 6907 6896 6895 6894 ] final  137.68 input  -60.11 | X-H torsion
[ 7974 7965 7964 7962 ] final  -91.09 input  175.53 | X-H torsion
[ 8008 7997 7996 7995 ] final -145.51 input   59.86 | X-H torsion
[ 10167 10162 10161 10158 ] final    1.24 input  -65.29 | X-H torsion
[ 10718 10713 10712 10709 ] final  -68.15 input   66.30 | X-H torsion
[ 10763 10752 10751 10750 ] final   49.73 input  -60.55 | X-H torsion
[ 11005 11000 10999 10996 ] final  133.45 input  -57.11 | X-H torsion

> <Gold.Protein.ActiveResidues>
 VAL166  LYS551  ARG553  GLY616  TRP617  ASP618  TYR619  PRO620  LYS621  CYS622 
 ASP623  PHE694  ASN695  SER759  ASP760  ASP761  ALA762  ILE779  LEU786  VAL792 
 PHE793  MET794  SER795  GLU796  ALA797  LYS798  CYS799  TRP800  GLU811  SER814 

> <Gold.Protein.RotatedAtoms>
  152.2753  133.5420  159.5463 H   0  0  0  0  0  0  0  0  0  0  0  0  # atno 6907 bound_to 6896
  150.7175  134.0640  159.3850 H   0  0  0  0  0  0  0  0  0  0  0  0  # atno 6908 bound_to 6896
  151.8553  135.0543  160.0514 H   0  0  0  0  0  0  0  0  0  0  0  0  # atno 6909 bound_to 6896
  145.4178  140.9549  143.2198 H   0  0  0  0  0  0  0  0  0  0  0  0  # atno 7974 bound_to 7965
  155.5443  140.0611  157.2863 H   0  0  0  0  0  0  0  0  0  0  0  0  # atno 8008 bound_to 7997
  154.4441  140.1913  156.0667 H   0  0  0  0  0  0  0  0  0  0  0  0  # atno 8009 bound_to 7997
  156.0562  140.3278  155.7412 H   0  0  0  0  0  0  0  0  0  0  0  0  # atno 8010 bound_to 7997
  140.6692  143.7096  150.7888 H   0  0  0  0  0  0  0  0  0  0  0  0  # atno 10167 bound_to 10162
  156.0520  130.4290  150.1958 H   0  0  0  0  0  0  0  0  0  0  0  0  # atno 10718 bound_to 10713
  152.9786  135.5902  154.4137 H   0  0  0  0  0  0  0  0  0  0  0  0  # atno 10763 bound_to 10752
  154.3769  135.2767  155.2236 H   0  0  0  0  0  0  0  0  0  0  0  0  # atno 10764 bound_to 10752
  154.4166  135.6069  153.6039 H   0  0  0  0  0  0  0  0  0  0  0  0  # atno 10765 bound_to 10752
  139.9853  134.9534  156.9727 H   0  0  0  0  0  0  0  0  0  0  0  0  # atno 11005 bound_to 11000
  144.8266  139.5700  143.6963 LP  0  0  0  0  0  0  0  0  0  0  0  0  # atno 17320 bound_to 7965
  146.2672  139.6548  142.9321 LP  0  0  0  0  0  0  0  0  0  0  0  0  # atno 17321 bound_to 7965
  140.0778  143.4998  152.2546 LP  0  0  0  0  0  0  0  0  0  0  0  0  # atno 17342 bound_to 10162
  139.5953  144.7564  151.3302 LP  0  0  0  0  0  0  0  0  0  0  0  0  # atno 17343 bound_to 10162
  157.0040  130.9931  151.3383 LP  0  0  0  0  0  0  0  0  0  0  0  0  # atno 17370 bound_to 10713
  157.5455  130.8148  149.8081 LP  0  0  0  0  0  0  0  0  0  0  0  0  # atno 17371 bound_to 10713
  140.5015  134.1092  155.7251 LP  0  0  0  0  0  0  0  0  0  0  0  0  # atno 17394 bound_to 11000
  141.1519  133.8954  157.2077 LP  0  0  0  0  0  0  0  0  0  0  0  0  # atno 17395 bound_to 11000

$$$$
