#       Name:                AV-unprocessed.smi:522
#       Creating user name   scv26
#       Creation time:       Thu Mar 26 23:27:34 2020


#       File generated by GOLD software.
#

@<TRIPOS>MOLECULE
AV-unprocessed.smi:522
    47    48     1
SMALL
NO_CHARGES


@<TRIPOS>ATOM
      1 ****        -2.2791  -1.5595   0.3293 C.3            1 S1                 0.0000
      2 ****        -1.4798  -0.8374  -0.5910 O.3            1 S1                 0.0000
      3 ****        -2.2342   0.1165  -1.3215 C.3            1 S1                 0.0000
      4 ****        -1.3228   0.8866  -2.2865 C.3            1 S1                 0.0000
      5 ****        -0.2514   1.5818  -1.5882 N.pl3          1 S1                 0.0000
      6 ****         1.0297   1.1790  -1.3982 C.2            1 S1                 0.0000
      7 ****         1.6218  -0.3642  -2.0258 S.3            1 S1                 0.0000
      8 ****         2.7642  -0.8326  -0.6893 C.3            1 S1                 0.0000
      9 ****         2.0075  -1.2481   0.5744 C.2            1 S1                 0.0000
     10 ****         1.9101  -0.4178   1.4788 O.2            1 S1                 0.0000
     11 ****         1.4449  -2.6260   0.6214 C.2            1 S1                 0.0000
     12 ****         1.4753  -3.4730  -0.5288 C.1            1 S1                 0.0000
     13 ****         1.5053  -4.1456  -1.4708 N.1            1 S1                 0.0000
     14 ****         0.8847  -3.1426   1.7479 C.2            1 S1                 0.0000
     15 ****         0.3106  -4.5507   1.7904 C.3            1 S1                 0.0000
     16 ****         0.7628  -2.4887   2.9630 N.pl3          1 S1                 0.0000
     17 ****         1.8039   2.0300  -0.7222 N.2            1 S1                 0.0000
     18 ****         0.9416   3.0678  -0.4309 C.ar           1 S1                 0.0000
     19 ****         1.1576   4.2712   0.2778 C.ar           1 S1                 0.0000
     20 ****         0.1063   5.1950   0.4518 C.ar           1 S1                 0.0000
     21 ****        -1.1723   4.9301  -0.0804 C.ar           1 S1                 0.0000
     22 ****        -1.4079   3.7372  -0.7907 C.ar           1 S1                 0.0000
     23 ****        -0.3551   2.8182  -0.9601 C.ar           1 S1                 0.0000
     24 ****        -1.6679  -2.2896   0.8571 H              1 S1                 0.0000
     25 ****        -3.0781  -2.0992  -0.1801 H              1 S1                 0.0000
     26 ****        -2.7224  -0.8947   1.0719 H              1 S1                 0.0000
     27 ****        -3.0230  -0.3849  -1.8841 H              1 S1                 0.0000
     28 ****        -2.7182   0.8128  -0.6346 H              1 S1                 0.0000
     29 ****        -0.9027   0.2137  -3.0335 H              1 S1                 0.0000
     30 ****        -1.9075   1.6229  -2.8387 H              1 S1                 0.0000
     31 ****         3.3804  -1.6654  -1.0283 H              1 S1                 0.0000
     32 ****         3.4441  -0.0097  -0.4690 H              1 S1                 0.0000
     33 ****        -0.4940  -4.6554   1.0617 H              1 S1                 0.0000
     34 ****        -0.0967  -4.7980   2.7720 H              1 S1                 0.0000
     35 ****         1.0830  -5.2844   1.5567 H              1 S1                 0.0000
     36 ****         1.0956  -1.5449   3.0998 H              1 S1                 0.0000
     37 ****         0.3455  -2.9378   3.7669 H              1 S1                 0.0000
     38 ****         2.1334   4.4836   0.6887 H              1 S1                 0.0000
     39 ****         0.2819   6.1113   0.9960 H              1 S1                 0.0000
     40 ****        -1.9719   5.6432   0.0574 H              1 S1                 0.0000
     41 ****        -2.3860   3.5305  -1.1992 H              1 S1                 0.0000
     42 ****        -1.0666  -1.4822  -1.2340 LP             1 S1                 0.0000
     43 ****        -0.7592  -0.3609  -0.0873 LP             1 S1                 0.0000
     44 ****         2.3178   0.4890   1.3711 LP             1 S1                 0.0000
     45 ****         1.4233  -0.6504   2.3208 LP             1 S1                 0.0000
     46 ****         1.5312  -4.7265  -2.2844 LP             1 S1                 0.0000
     47 ****         2.7710   1.9385  -0.4849 LP             1 S1                 0.0000
@<TRIPOS>BOND
    1    1    2 1     
    2    1   24 1     
    3    1   25 1     
    4    1   26 1     
    5    2    3 1     
    6    3    4 1     
    7    3   27 1     
    8    3   28 1     
    9    4    5 1     
   10    4   29 1     
   11    4   30 1     
   12    5   23 1     
   13    5    6 1     
   14    6    7 1     
   15    6   17 2     
   16    7    8 1     
   17    8    9 1     
   18    8   31 1     
   19    8   32 1     
   20    9   10 2     
   21    9   11 1     
   22   11   12 1     
   23   11   14 2     
   24   12   13 3     
   25   14   15 1     
   26   14   16 1     
   27   15   33 1     
   28   15   34 1     
   29   15   35 1     
   30   16   36 1     
   31   16   37 1     
   32   17   18 1     
   33   18   23 ar    
   34   18   19 ar    
   35   19   20 ar    
   36   19   38 1     
   37   20   21 ar    
   38   20   39 1     
   39   21   22 ar    
   40   21   40 1     
   41   22   23 ar    
   42   22   41 1     
   43    2   42 1     
   44    2   43 1     
   45   10   44 1     
   46   10   45 1     
   47   13   46 1     
   48   17   47 1     
@<TRIPOS>SUBSTRUCTURE
      1 S1             1
@<TRIPOS>SET
LONE_PAIRS      STATIC     ATOMS    <user>   **** ""
6 42 43 44 45 46 47
DONOR_HYDROGENS      STATIC     ATOMS    <user>   **** ""
2 36 37
ATOM$BLUE        STATIC     ATOMS    COLORGROUP SYSTEM
6 42 43 44 45 46 47
ATOM$RED        STATIC     ATOMS    COLORGROUP SYSTEM
2 36 37
