AV-unprocessed.smi:2221|AV-procd|sdf|8982|dock7
  -GOLD-   2272012193D 1   1.00000     0.00000
 Structure written by MMmdl.
 53 54  0  0  0  0  0  0  0  0  2 V2000
  153.8745  141.1415  159.6866 C   0  0  0  0  0  0  0  0  0  0  0  0
  152.9543  142.2653  159.2584 C   0  0  0  0  0  0  0  0  0  0  0  0
  152.9044  143.4672  159.9896 C   0  0  0  0  0  0  0  0  0  0  0  0
  152.0286  144.4781  159.5485 C   0  0  0  0  0  0  0  0  0  0  0  0
  151.9304  145.7970  160.2859 C   0  0  0  0  0  0  0  0  0  0  0  0
  151.2401  144.3464  158.4606 N   0  0  0  0  0  0  0  0  0  0  0  0
  151.2778  143.1924  157.7493 C   0  0  0  0  0  0  0  0  0  0  0  0
  150.4876  142.9535  156.5936 N   0  0  0  0  0  0  0  0  0  0  0  0
  150.1741  141.7729  156.0311 C   0  0  0  0  0  0  0  0  0  0  0  0
  150.5332  140.6689  156.4424 O   0  0  0  0  0  0  0  0  0  0  0  0
  149.4094  141.9412  154.9425 N   0  0  0  0  0  0  0  0  0  0  0  0
  148.9034  140.8626  154.1028 C   0  0  0  0  0  0  0  0  0  0  0  0
  147.4616  140.4827  154.4936 C   0  0  0  0  0  0  0  0  0  0  0  0
  147.0815  139.1633  153.9894 N   0  0  0  0  0  0  0  0  0  0  0  0
  146.7770  139.2763  152.5602 C   0  0  0  0  0  0  0  0  0  0  0  0
  146.4715  137.8914  151.9635 C   0  0  0  0  0  0  0  0  0  0  0  0
  145.2769  137.2432  152.6910 C   0  0  0  0  0  0  0  0  0  0  0  0
  144.9021  135.8940  152.1759 N   0  3  0  0  0  0  0  0  0  0  0  0
  145.1052  135.6870  150.7213 C   0  0  0  0  0  0  0  0  0  0  0  0
  143.5519  135.4655  152.6076 C   0  0  0  0  0  0  0  0  0  0  0  0
  145.5589  137.2312  154.2033 C   0  0  0  0  0  0  0  0  0  0  0  0
  145.9097  138.6437  154.7036 C   0  0  0  0  0  0  0  0  0  0  0  0
  152.1283  142.1279  158.1241 C   0  0  0  0  0  0  0  0  0  0  0  0
  154.8069  141.5392  160.0886 H   0  0  0  0  0  0  0  0  0  0  0  0
  154.1184  140.4939  158.8441 H   0  0  0  0  0  0  0  0  0  0  0  0
  153.3973  140.5374  160.4581 H   0  0  0  0  0  0  0  0  0  0  0  0
  153.5219  143.6101  160.8644 H   0  0  0  0  0  0  0  0  0  0  0  0
  152.2917  145.7007  161.3102 H   0  0  0  0  0  0  0  0  0  0  0  0
  150.8967  146.1427  160.3238 H   0  0  0  0  0  0  0  0  0  0  0  0
  152.5283  146.5557  159.7807 H   0  0  0  0  0  0  0  0  0  0  0  0
  150.1203  143.7776  156.1417 H   0  0  0  0  0  0  0  0  0  0  0  0
  149.1598  142.8821  154.6750 H   0  0  0  0  0  0  0  0  0  0  0  0
  148.9528  141.1538  153.0519 H   0  0  0  0  0  0  0  0  0  0  0  0
  149.5806  140.0185  154.2251 H   0  0  0  0  0  0  0  0  0  0  0  0
  147.3258  140.5307  155.5753 H   0  0  0  0  0  0  0  0  0  0  0  0
  146.7895  141.2270  154.0633 H   0  0  0  0  0  0  0  0  0  0  0  0
  145.9348  139.9532  152.4064 H   0  0  0  0  0  0  0  0  0  0  0  0
  147.6314  139.7059  152.0357 H   0  0  0  0  0  0  0  0  0  0  0  0
  146.2621  137.9937  150.8987 H   0  0  0  0  0  0  0  0  0  0  0  0
  147.3644  137.2716  152.0494 H   0  0  0  0  0  0  0  0  0  0  0  0
  144.4098  137.8902  152.5474 H   0  0  0  0  0  0  0  0  0  0  0  0
  144.3964  136.2691  150.1313 H   0  0  0  0  0  0  0  0  0  0  0  0
  144.9582  134.6365  150.4686 H   0  0  0  0  0  0  0  0  0  0  0  0
  146.1144  135.9541  150.4100 H   0  0  0  0  0  0  0  0  0  0  0  0
  142.7765  136.0900  152.1626 H   0  0  0  0  0  0  0  0  0  0  0  0
  143.4534  135.5161  153.6926 H   0  0  0  0  0  0  0  0  0  0  0  0
  143.3656  134.4327  152.3110 H   0  0  0  0  0  0  0  0  0  0  0  0
  144.6880  136.8583  154.7429 H   0  0  0  0  0  0  0  0  0  0  0  0
  146.3833  136.5597  154.4423 H   0  0  0  0  0  0  0  0  0  0  0  0
  146.1083  138.5896  155.7728 H   0  0  0  0  0  0  0  0  0  0  0  0
  145.0603  139.3158  154.5710 H   0  0  0  0  0  0  0  0  0  0  0  0
  152.1480  141.2138  157.5480 H   0  0  0  0  0  0  0  0  0  0  0  0
  145.5368  135.2547  152.6329 H   0  0  0  0  0  0  0  0  0  0  0  0
  1  2  1  0  0  0  0
  1 24  1  0  0  0  0
  1 25  1  0  0  0  0
  1 26  1  0  0  0  0
  2 23  1  0  0  0  0
  2  3  2  0  0  0  0
  3  4  1  0  0  0  0
  3 27  1  0  0  0  0
  4  5  1  0  0  0  0
  4  6  2  0  0  0  0
  5 28  1  0  0  0  0
  5 29  1  0  0  0  0
  5 30  1  0  0  0  0
  6  7  1  0  0  0  0
  7  8  1  0  0  0  0
  7 23  2  0  0  0  0
  8  9  1  0  0  0  0
  8 31  1  0  0  0  0
  9 10  2  0  0  0  0
  9 11  1  0  0  0  0
 11 12  1  0  0  0  0
 11 32  1  0  0  0  0
 12 13  1  0  0  0  0
 12 33  1  0  0  0  0
 12 34  1  0  0  0  0
 13 14  1  0  0  0  0
 13 35  1  0  0  0  0
 13 36  1  0  0  0  0
 14 22  1  0  0  0  0
 14 15  1  0  0  0  0
 15 16  1  0  0  0  0
 15 37  1  0  0  0  0
 15 38  1  0  0  0  0
 16 17  1  0  0  0  0
 16 39  1  0  0  0  0
 16 40  1  0  0  0  0
 17 18  1  0  0  0  0
 17 21  1  0  0  0  0
 17 41  1  0  0  0  0
 18 19  1  0  0  0  0
 18 20  1  0  0  0  0
 18 53  1  0  0  0  0
 19 42  1  0  0  0  0
 19 43  1  0  0  0  0
 19 44  1  0  0  0  0
 20 45  1  0  0  0  0
 20 46  1  0  0  0  0
 20 47  1  0  0  0  0
 21 22  1  0  0  0  0
 21 48  1  0  0  0  0
 21 49  1  0  0  0  0
 22 50  1  0  0  0  0
 22 51  1  0  0  0  0
 23 52  1  0  0  0  0
M  CHG  1  18   1
M  END
> <s_m_source_file>
AV-unprocessed.smi

> <i_m_source_file_index>
2221

> <i_lp_mmshare_version>
43012

> <i_f3d_flags>
0

> <s_epik_input>
W0NIM11jMVtjSF1jKFtDSDNdKW5jKFtjSF0xKVtOSF1DKD1PKVtOSF1bQ0gyXVtDSDJdTjJbQ0gyXVtDSDJdW0NIXShOKFtDSDNdKVtDSDNdKVtDSDJdW0NIMl0y

> <s_epik_cmdline>
J2VwaWtfcHl0aG9uJywgJy1waCcsICc3LjAnLCAnLXRuJywgJzgnLCAnLW1hJywgJzIwMCcsICctbWV0YWxfYmluZGluZycsICctaW1hZScsICc8aW5maWxlLm1hZT4nLCAnLW9tYWUnLCAnPG91dGZpbGUubWFlPic=

> <r_epik_Ionization_Penalty>
0.929621

> <r_epik_Ionization_Penalty_Charging>
0.000679816

> <r_epik_Ionization_Penalty_Neutral>
0.928941

> <r_epik_State_Penalty>
1.01912

> <r_epik_Charging_Adjusted_Penalty>
1.0198

> <i_epik_Tot_Q>
1

> <i_epik_Tot_abs_Q>
1

> <r_epik_Metal_State_Penalty>
1.01908

> <b_epik_Metal_Only>
0

> <s_lp_Force_Field>
OPLS_2005

> <r_lp_Energy>
22.8604

> <b_lp_Chiralities_Consistent>
1

> <s_lp_Variant>
AV-unprocessed.smi:2221-3

> <Gold.Version>
5.8.1

> <Gold.Id.Protein>
6NUR|6NUR_protein|mol2

> <Gold.PLP.Fitness>
47.5167

> <Gold.PLP.PLP>
-44.7249

> <Gold.PLP.part.hbond>
-2.0000

> <Gold.PLP.part.metal>
0.0000

> <Gold.PLP.part.buried>
-3.6329

> <Gold.PLP.part.nonpolar>
-40.6479

> <Gold.PLP.part.repulsive>
0.6050

> <Gold.PLP.ligand.clash>
0.4081

> <Gold.PLP.ligand.torsion>
0.8410

> <Gold.PLP.Chemscore.Hbond>
1.5980

> <Gold.PLP.Chemscore.CHOScore>
0.0000

> <Gold.PLP.Chemscore.Metal>
0.0000

> <Gold.Chemscore.Hbonds>
donor molecule, donor type, donor heavy atom, donor atom, acceptor molecule, acceptor atom, score
      L1  H     8    31       P1  8028  1.00
      L1  H    11    32       P1  8028  0.65

> <Gold.PLP.Chemscore.Internal.Correction>
0.0880

> <Gold.Rescore>
     Score         DG    S(hbond)    S(metal)    S(lipo)     H(rot)  DE(clash)    DE(int)     intcor
     18.46     -21.04       1.86        0.00     115.67       1.64       0.34       2.25       ----

> <Gold.Chemscore.Fitness>
18.4562

> <Gold.Chemscore.DG>
-21.0427

> <Gold.Chemscore.ZeroCoef>
-5.4800

> <Gold.Chemscore.Hbond>
1.8633

> <Gold.Chemscore.Metal>
0.0000

> <Gold.Chemscore.Lipo>
115.6733

> <Gold.Chemscore.Internal_Hbond>
0.0000

> <Gold.Chemscore.DEClash>
0.3390

> <Gold.Chemscore.DEInternal>
2.2475

> <Gold.Chemscore.Rot>
1.6385

> <Gold.Chemscore.Internal.Correction>
   9.000000E+99

> <Gold.Chemscore.Hbonds>
donor molecule, donor type, donor heavy atom, donor atom, acceptor molecule, acceptor atom, score
      L1  H     8    31       P1  8028  0.96
      L1  H    11    32       P1  8028  0.64

> <Gold.Chemscore.Hbond.Weighted>
-6.2234

> <Gold.Chemscore.Metal.Weighted>
-0.0000

> <Gold.Chemscore.Lipo.Weighted>
-13.5338

> <Gold.Chemscore.Internal_Hbond.Weighted>
0.0000

> <Gold.Chemscore.DEClash.Weighted>
0.3390

> <Gold.Chemscore.DEInternal.Weighted>
2.2475

> <Gold.Chemscore.Rot.Weighted>
4.1945

> <Gold.Chemscore.Internal.Correction.Weighted>
   9.000000E+99

> <Gold.Protein.RotatedTorsions>
[ 6907 6896 6895 6894 ] final  -80.11 input  -60.11 | X-H torsion
[ 7974 7965 7964 7962 ] final  100.49 input  175.53 | X-H torsion
[ 8008 7997 7996 7995 ] final -111.55 input   59.86 | X-H torsion
[ 10167 10162 10161 10158 ] final   51.69 input  -65.29 | X-H torsion
[ 10718 10713 10712 10709 ] final -116.20 input   66.30 | X-H torsion
[ 10763 10752 10751 10750 ] final   99.27 input  -60.55 | X-H torsion
[ 11005 11000 10999 10996 ] final  117.11 input  -57.11 | X-H torsion

> <Gold.Protein.ActiveResidues>
 VAL166  LYS551  ARG553  GLY616  TRP617  ASP618  TYR619  PRO620  LYS621  CYS622 
 ASP623  PHE694  ASN695  SER759  ASP760  ASP761  ALA762  ILE779  LEU786  VAL792 
 PHE793  MET794  SER795  GLU796  ALA797  LYS798  CYS799  TRP800  GLU811  SER814 

> <Gold.Protein.RotatedAtoms>
  150.6936  134.4019  159.5122 H   0  0  0  0  0  0  0  0  0  0  0  0  # atno 6907 bound_to 6896
  152.1791  134.8766  160.0537 H   0  0  0  0  0  0  0  0  0  0  0  0  # atno 6908 bound_to 6896
  151.9763  133.3708  159.4127 H   0  0  0  0  0  0  0  0  0  0  0  0  # atno 6909 bound_to 6896
  145.3849  139.2373  143.3383 H   0  0  0  0  0  0  0  0  0  0  0  0  # atno 7974 bound_to 7965
  154.9915  140.0395  157.2321 H   0  0  0  0  0  0  0  0  0  0  0  0  # atno 8008 bound_to 7997
  154.7624  140.2787  155.6180 H   0  0  0  0  0  0  0  0  0  0  0  0  # atno 8009 bound_to 7997
  156.2906  140.2626  156.2406 H   0  0  0  0  0  0  0  0  0  0  0  0  # atno 8010 bound_to 7997
  140.2593  144.3391  150.6323 H   0  0  0  0  0  0  0  0  0  0  0  0  # atno 10167 bound_to 10162
  156.0948  130.6123  150.9005 H   0  0  0  0  0  0  0  0  0  0  0  0  # atno 10718 bound_to 10713
  153.2993  135.4119  155.1238 H   0  0  0  0  0  0  0  0  0  0  0  0  # atno 10763 bound_to 10752
  154.8544  135.3537  154.5873 H   0  0  0  0  0  0  0  0  0  0  0  0  # atno 10764 bound_to 10752
  153.6298  135.7061  153.5338 H   0  0  0  0  0  0  0  0  0  0  0  0  # atno 10765 bound_to 10752
  139.9063  134.9606  156.7300 H   0  0  0  0  0  0  0  0  0  0  0  0  # atno 11005 bound_to 11000
  146.2825  140.4523  142.8771 LP  0  0  0  0  0  0  0  0  0  0  0  0  # atno 17320 bound_to 7965
  144.8481  140.6960  143.6186 LP  0  0  0  0  0  0  0  0  0  0  0  0  # atno 17321 bound_to 7965
  140.5979  143.2167  151.7129 LP  0  0  0  0  0  0  0  0  0  0  0  0  # atno 17342 bound_to 10162
  139.5022  144.3839  152.0348 LP  0  0  0  0  0  0  0  0  0  0  0  0  # atno 17343 bound_to 10162
  157.6106  131.0936  150.8802 LP  0  0  0  0  0  0  0  0  0  0  0  0  # atno 17370 bound_to 10713
  156.8942  130.5224  149.5285 LP  0  0  0  0  0  0  0  0  0  0  0  0  # atno 17371 bound_to 10713
  140.6932  133.9371  155.7979 LP  0  0  0  0  0  0  0  0  0  0  0  0  # atno 17394 bound_to 11000
  141.0426  134.0600  157.3883 LP  0  0  0  0  0  0  0  0  0  0  0  0  # atno 17395 bound_to 11000

$$$$
