#       Name:                AV-unprocessed.smi:1762
#       Creating user name   scv26
#       Creation time:       Fri Mar 27 08:34:12 2020


#       File generated by GOLD software.
#

@<TRIPOS>MOLECULE
AV-unprocessed.smi:1762
    58    59     1
SMALL
NO_CHARGES


@<TRIPOS>ATOM
      1 ****        -1.6407   1.3665   3.4388 C.3            1 S1                 0.0000
      2 ****        -2.0366   0.6446   2.1463 C.3            1 S1                 0.0000
      3 ****        -1.1779  -0.6161   1.9034 C.3            1 S1                 0.0000
      4 ****        -1.6295  -1.3630   0.6935 N.4            1 S1                 1.0000
      5 ****        -1.2142  -0.7522  -0.6195 C.3            1 S1                 0.0000
      6 ****         0.3229  -0.6543  -0.7248 C.2            1 S1                 0.0000
      7 ****         1.0282  -1.6039  -0.3822 O.2            1 S1                 0.0000
      8 ****         0.8247   0.5001  -1.1924 N.am           1 S1                 0.0000
      9 ****         2.2454   0.7916  -1.3454 C.3            1 S1                 0.0000
     10 ****         2.8847   1.2017  -0.0078 C.3            1 S1                 0.0000
     11 ****         4.3604   1.5240  -0.1501 C.ar           1 S1                 0.0000
     12 ****         4.8035   2.8621  -0.2213 C.ar           1 S1                 0.0000
     13 ****         6.1841   3.1051  -0.3585 C.ar           1 S1                 0.0000
     14 ****         7.0636   2.0069  -0.4202 C.ar           1 S1                 0.0000
     15 ****         6.5211   0.7088  -0.3412 C.ar           1 S1                 0.0000
     16 ****         5.1991   0.4648  -0.2091 N.ar           1 S1                 0.0000
     17 ****        -1.8094  -1.4757  -1.8743 C.3            1 S1                 0.0000
     18 ****        -1.4710  -2.9790  -1.9541 C.3            1 S1                 0.0000
     19 ****        -1.4546  -0.7820  -3.2046 C.3            1 S1                 0.0000
     20 ****        -3.0775  -1.6699   0.8553 C.3            1 S1                 0.0000
     21 ****        -3.8992  -0.3859   1.0875 C.3            1 S1                 0.0000
     22 ****        -5.3857  -0.6860   1.3077 C.3            1 S1                 0.0000
     23 ****        -3.4055   0.2672   2.2527 O.3            1 S1                 0.0000
     24 ****        -0.6016   1.6943   3.4021 H              1 S1                 0.0000
     25 ****        -1.7561   0.7168   4.3069 H              1 S1                 0.0000
     26 ****        -2.2610   2.2488   3.5985 H              1 S1                 0.0000
     27 ****        -1.9222   1.3471   1.3199 H              1 S1                 0.0000
     28 ****        -0.1215  -0.3539   1.8589 H              1 S1                 0.0000
     29 ****        -1.2707  -1.2830   2.7619 H              1 S1                 0.0000
     30 ****        -1.6022   0.2665  -0.6389 H              1 S1                 0.0000
     31 ****         0.1792   1.2297  -1.4585 H              1 S1                 0.0000
     32 ****         2.7608  -0.0722  -1.7692 H              1 S1                 0.0000
     33 ****         2.3495   1.6007  -2.0689 H              1 S1                 0.0000
     34 ****         2.3654   2.0690   0.4024 H              1 S1                 0.0000
     35 ****         2.7716   0.4028   0.7266 H              1 S1                 0.0000
     36 ****         4.1046   3.6843  -0.1734 H              1 S1                 0.0000
     37 ****         6.5614   4.1155  -0.4161 H              1 S1                 0.0000
     38 ****         8.1281   2.1553  -0.5258 H              1 S1                 0.0000
     39 ****         7.1658  -0.1564  -0.3860 H              1 S1                 0.0000
     40 ****        -2.8936  -1.3893  -1.8209 H              1 S1                 0.0000
     41 ****        -0.4069  -3.1461  -2.1207 H              1 S1                 0.0000
     42 ****        -2.0043  -3.4521  -2.7790 H              1 S1                 0.0000
     43 ****        -1.7498  -3.5110  -1.0450 H              1 S1                 0.0000
     44 ****        -0.3972  -0.8825  -3.4516 H              1 S1                 0.0000
     45 ****        -1.6920   0.2816  -3.1702 H              1 S1                 0.0000
     46 ****        -2.0196  -1.2145  -4.0309 H              1 S1                 0.0000
     47 ****        -3.4791  -2.2540   0.0305 H              1 S1                 0.0000
     48 ****        -3.1842  -2.3188   1.7261 H              1 S1                 0.0000
     49 ****        -3.8079   0.2823   0.2300 H              1 S1                 0.0000
     50 ****        -5.8196  -1.1793   0.4375 H              1 S1                 0.0000
     51 ****        -5.9465   0.2326   1.4821 H              1 S1                 0.0000
     52 ****        -5.5348  -1.3361   2.1702 H              1 S1                 0.0000
     53 ****        -1.1530  -2.2537   0.7201 H              1 S1                 0.0000
     54 ****         0.6055  -2.4409  -0.0348 LP             1 S1                 0.0000
     55 ****         2.0236  -1.5380  -0.4514 LP             1 S1                 0.0000
     56 ****         4.8510  -0.4712  -0.1565 LP             1 S1                 0.0000
     57 ****        -3.9508   1.0904   2.4109 LP             1 S1                 0.0000
     58 ****        -3.5047  -0.3530   3.0309 LP             1 S1                 0.0000
@<TRIPOS>BOND
    1    1    2 1     
    2    1   24 1     
    3    1   25 1     
    4    1   26 1     
    5    2   23 1     
    6    2    3 1     
    7    2   27 1     
    8    3    4 1     
    9    3   28 1     
   10    3   29 1     
   11    4    5 1     
   12    4   20 1     
   13    4   53 1     
   14    5    6 1     
   15    5   17 1     
   16    5   30 1     
   17    6    7 2     
   18    6    8 am    
   19    8    9 1     
   20    8   31 1     
   21    9   10 1     
   22    9   32 1     
   23    9   33 1     
   24   10   11 1     
   25   10   34 1     
   26   10   35 1     
   27   11   16 ar    
   28   11   12 ar    
   29   12   13 ar    
   30   12   36 1     
   31   13   14 ar    
   32   13   37 1     
   33   14   15 ar    
   34   14   38 1     
   35   15   16 ar    
   36   15   39 1     
   37   17   18 1     
   38   17   19 1     
   39   17   40 1     
   40   18   41 1     
   41   18   42 1     
   42   18   43 1     
   43   19   44 1     
   44   19   45 1     
   45   19   46 1     
   46   20   21 1     
   47   20   47 1     
   48   20   48 1     
   49   21   22 1     
   50   21   23 1     
   51   21   49 1     
   52   22   50 1     
   53   22   51 1     
   54   22   52 1     
   55    7   54 1     
   56    7   55 1     
   57   16   56 1     
   58   23   57 1     
   59   23   58 1     
@<TRIPOS>SUBSTRUCTURE
      1 S1             1
@<TRIPOS>SET
LONE_PAIRS      STATIC     ATOMS    <user>   **** ""
5 54 55 56 57 58
DONOR_HYDROGENS      STATIC     ATOMS    <user>   **** ""
2 53 31
ATOM$BLUE        STATIC     ATOMS    COLORGROUP SYSTEM
5 54 55 56 57 58
ATOM$RED        STATIC     ATOMS    COLORGROUP SYSTEM
2 53 31
