AV-unprocessed.smi:2742|AV-procd|sdf|10564|dock1
  -GOLD-   2272015 13D 1   1.00000     0.00000
 Structure written by MMmdl.
 37 38  0  0  0  0  0  0  0  0  1 V2000
  153.7762  140.5038  160.2812 C   0  0  0  0  0  0  0  0  0  0  0  0
  152.9881  141.7637  161.3200 S   0  0  0  0  0  0  0  0  0  0  0  0
  152.7671  143.1060  160.1154 C   0  0  2  0  0  0  0  0  0  0  0  0
  152.3426  144.4164  160.8058 C   0  0  0  0  0  0  0  0  0  0  0  0
  152.1182  145.5421  159.7837 C   0  0  0  0  0  0  0  0  0  0  0  0
  151.0946  145.1297  158.7145 C   0  0  0  0  0  0  0  0  0  0  0  0
  151.5148  143.8254  158.0137 C   0  0  2  0  0  0  0  0  0  0  0  0
  150.4958  143.4389  157.0421 N   0  0  0  0  0  0  0  0  0  0  0  0
  150.3619  142.2179  156.5041 C   0  0  0  0  0  0  0  0  0  0  0  0
  151.1007  141.2729  156.7789 O   0  0  0  0  0  0  0  0  0  0  0  0
  149.3373  142.1827  155.6344 N   0  0  0  0  0  0  0  0  0  0  0  0
  148.8671  141.0996  154.8407 C   0  0  0  0  0  0  0  0  0  0  0  0
  149.5436  139.8647  154.6866 C   0  0  0  0  0  0  0  0  0  0  0  0
  148.9578  138.8698  153.8783 C   0  0  0  0  0  0  0  0  0  0  0  0
  147.7771  139.0257  153.2435 N   0  0  0  0  0  0  0  0  0  0  0  0
  147.1291  140.1991  153.4017 C   0  0  0  0  0  0  0  0  0  0  0  0
  147.6266  141.2583  154.1871 C   0  0  0  0  0  0  0  0  0  0  0  0
  146.9213  142.4093  154.3065 F   0  0  0  0  0  0  0  0  0  0  0  0
  151.7384  142.6997  159.0444 C   0  0  0  0  0  0  0  0  0  0  0  0
  153.9502  139.5978  160.8616 H   0  0  0  0  0  0  0  0  0  0  0  0
  154.7352  140.8563  159.9028 H   0  0  0  0  0  0  0  0  0  0  0  0
  153.1371  140.2527  159.4345 H   0  0  0  0  0  0  0  0  0  0  0  0
  153.7268  143.2603  159.6206 H   0  0  0  0  0  0  0  0  0  0  0  0
  151.4254  144.2530  161.3735 H   0  0  0  0  0  0  0  0  0  0  0  0
  153.0983  144.7300  161.5254 H   0  0  0  0  0  0  0  0  0  0  0  0
  151.7798  146.4445  160.2935 H   0  0  0  0  0  0  0  0  0  0  0  0
  153.0650  145.7943  159.3047 H   0  0  0  0  0  0  0  0  0  0  0  0
  150.1164  145.0028  159.1809 H   0  0  0  0  0  0  0  0  0  0  0  0
  150.9866  145.9307  157.9820 H   0  0  0  0  0  0  0  0  0  0  0  0
  152.4537  144.0130  157.4889 H   0  0  0  0  0  0  0  0  0  0  0  0
  149.8465  144.1574  156.7568 H   0  0  0  0  0  0  0  0  0  0  0  0
  148.8628  143.0601  155.4791 H   0  0  0  0  0  0  0  0  0  0  0  0
  150.4833  139.6532  155.1718 H   0  0  0  0  0  0  0  0  0  0  0  0
  149.4507  137.9185  153.7426 H   0  0  0  0  0  0  0  0  0  0  0  0
  146.1842  140.2962  152.8882 H   0  0  0  0  0  0  0  0  0  0  0  0
  152.0771  141.7947  158.5385 H   0  0  0  0  0  0  0  0  0  0  0  0
  150.7917  142.4481  159.5250 H   0  0  0  0  0  0  0  0  0  0  0  0
  1  2  1  0  0  0  0
  1 20  1  0  0  0  0
  1 21  1  0  0  0  0
  1 22  1  0  0  0  0
  2  3  1  0  0  0  0
  3 19  1  0  0  0  0
  3  4  1  0  0  0  0
  3 23  1  0  0  0  0
  4  5  1  0  0  0  0
  4 24  1  0  0  0  0
  4 25  1  0  0  0  0
  5  6  1  0  0  0  0
  5 26  1  0  0  0  0
  5 27  1  0  0  0  0
  6  7  1  0  0  0  0
  6 28  1  0  0  0  0
  6 29  1  0  0  0  0
  7  8  1  0  0  0  0
  7 19  1  0  0  0  0
  7 30  1  0  0  0  0
  8  9  1  0  0  0  0
  8 31  1  0  0  0  0
  9 10  2  0  0  0  0
  9 11  1  0  0  0  0
 11 12  1  0  0  0  0
 11 32  1  0  0  0  0
 12 17  1  0  0  0  0
 12 13  2  0  0  0  0
 13 14  1  0  0  0  0
 13 33  1  0  0  0  0
 14 15  2  0  0  0  0
 14 34  1  0  0  0  0
 15 16  1  0  0  0  0
 16 17  2  0  0  0  0
 16 35  1  0  0  0  0
 17 18  1  0  0  0  0
 19 36  1  0  0  0  0
 19 37  1  0  0  0  0
M  END
> <s_m_source_file>
AV-unprocessed.smi

> <i_m_source_file_index>
2742

> <i_lp_mmshare_version>
43012

> <i_f3d_flags>
0

> <s_epik_input>
W0NIM11TW0NAQEhdMVtDSDJdW0NIMl1bQ0gyXVtDQEhdKFtDSDJdMSlbTkhdQyg9TylbTkhdYzJbY0hdW2NIXW5bY0hdYzJG

> <s_epik_cmdline>
J2VwaWtfcHl0aG9uJywgJy1waCcsICc3LjAnLCAnLXRuJywgJzgnLCAnLW1hJywgJzIwMCcsICctbWV0YWxfYmluZGluZycsICctaW1hZScsICc8aW5maWxlLm1hZT4nLCAnLW9tYWUnLCAnPG91dGZpbGUubWFlPic=

> <r_epik_Ionization_Penalty>
0.00344009

> <r_epik_Ionization_Penalty_Charging>
0

> <r_epik_Ionization_Penalty_Neutral>
0.00344009

> <r_epik_State_Penalty>
0.0024078

> <r_epik_Charging_Adjusted_Penalty>
0.0024078

> <i_epik_Tot_Q>
0

> <i_epik_Tot_abs_Q>
0

> <r_epik_Metal_State_Penalty>
-0

> <b_epik_Metal_Only>
0

> <s_lp_Force_Field>
OPLS_2005

> <r_lp_Energy>
14.4944

> <b_lp_Chiralities_Consistent>
1

> <s_lp_Variant>
AV-unprocessed.smi:2742-3

> <Gold.Version>
5.8.1

> <Gold.Id.Protein>
6NUR|6NUR_protein|mol2

> <Gold.PLP.Fitness>
54.6002

> <Gold.PLP.PLP>
-43.5005

> <Gold.PLP.part.hbond>
-1.7462

> <Gold.PLP.part.metal>
0.0000

> <Gold.PLP.part.buried>
-4.2403

> <Gold.PLP.part.nonpolar>
-39.6763

> <Gold.PLP.part.repulsive>
1.8314

> <Gold.PLP.ligand.clash>
0.0000

> <Gold.PLP.ligand.torsion>
0.3245

> <Gold.PLP.Chemscore.Hbond>
1.9680

> <Gold.PLP.Chemscore.CHOScore>
1.9429

> <Gold.PLP.Chemscore.Metal>
0.0000

> <Gold.Chemscore.Hbonds>
donor molecule, donor type, donor heavy atom, donor atom, acceptor molecule, acceptor atom, score
      L1  H     8    31       P1  8028  0.99
      L1  H    11    32       P1  8028  0.96
      L1  C    14    34       P1  7948  0.88
      L1  C    16    35       P1 10175  0.99

> <Gold.PLP.Chemscore.Internal.Correction>
0.0161

> <Gold.Rescore>
     Score         DG    S(hbond)    S(metal)    S(lipo)     H(rot)  DE(clash)    DE(int)     intcor
     19.90     -23.21       1.91        0.00     122.92       1.19       0.35       2.96       ----

> <Gold.Chemscore.Fitness>
19.9016

> <Gold.Chemscore.DG>
-23.2053

> <Gold.Chemscore.ZeroCoef>
-5.4800

> <Gold.Chemscore.Hbond>
1.9114

> <Gold.Chemscore.Metal>
0.0000

> <Gold.Chemscore.Lipo>
122.9171

> <Gold.Chemscore.Internal_Hbond>
0.0000

> <Gold.Chemscore.DEClash>
0.3480

> <Gold.Chemscore.DEInternal>
2.9558

> <Gold.Chemscore.Rot>
1.1875

> <Gold.Chemscore.Internal.Correction>
   9.000000E+99

> <Gold.Chemscore.Hbonds>
donor molecule, donor type, donor heavy atom, donor atom, acceptor molecule, acceptor atom, score
      L1  H     8    31       P1  8028  0.84
      L1  H    11    32       P1  8028  0.92

> <Gold.Chemscore.Hbond.Weighted>
-6.3840

> <Gold.Chemscore.Metal.Weighted>
-0.0000

> <Gold.Chemscore.Lipo.Weighted>
-14.3813

> <Gold.Chemscore.Internal_Hbond.Weighted>
0.0000

> <Gold.Chemscore.DEClash.Weighted>
0.3480

> <Gold.Chemscore.DEInternal.Weighted>
2.9558

> <Gold.Chemscore.Rot.Weighted>
3.0400

> <Gold.Chemscore.Internal.Correction.Weighted>
   9.000000E+99

> <Gold.Protein.RotatedTorsions>
[ 6907 6896 6895 6894 ] final   92.03 input  -60.11 | X-H torsion
[ 7974 7965 7964 7962 ] final  -97.86 input  175.53 | X-H torsion
[ 8008 7997 7996 7995 ] final  159.18 input   59.86 | X-H torsion
[ 10167 10162 10161 10158 ] final -147.79 input  -65.29 | X-H torsion
[ 10718 10713 10712 10709 ] final -163.48 input   66.30 | X-H torsion
[ 10763 10752 10751 10750 ] final   41.17 input  -60.55 | X-H torsion
[ 11005 11000 10999 10996 ] final  162.61 input  -57.11 | X-H torsion

> <Gold.Protein.ActiveResidues>
 VAL166  LYS551  ARG553  GLY616  TRP617  ASP618  TYR619  PRO620  LYS621  CYS622 
 ASP623  PHE694  ASN695  SER759  ASP760  ASP761  ALA762  ILE779  LEU786  VAL792 
 PHE793  MET794  SER795  GLU796  ALA797  LYS798  CYS799  TRP800  GLU811  SER814 

> <Gold.Protein.RotatedAtoms>
  152.5452  134.1565  159.8539 H   0  0  0  0  0  0  0  0  0  0  0  0  # atno 6907 bound_to 6896
  151.1587  133.4852  159.2602 H   0  0  0  0  0  0  0  0  0  0  0  0  # atno 6908 bound_to 6896
  151.1396  135.0183  159.8674 H   0  0  0  0  0  0  0  0  0  0  0  0  # atno 6909 bound_to 6896
  145.3282  140.9436  143.2677 H   0  0  0  0  0  0  0  0  0  0  0  0  # atno 7974 bound_to 7965
  156.2256  140.1838  156.7372 H   0  0  0  0  0  0  0  0  0  0  0  0  # atno 8008 bound_to 7997
  154.5935  140.0647  156.9300 H   0  0  0  0  0  0  0  0  0  0  0  0  # atno 8009 bound_to 7997
  155.2295  140.3313  155.4307 H   0  0  0  0  0  0  0  0  0  0  0  0  # atno 8010 bound_to 7997
  139.7590  143.8405  152.2603 H   0  0  0  0  0  0  0  0  0  0  0  0  # atno 10167 bound_to 10162
  156.6253  130.8907  151.2966 H   0  0  0  0  0  0  0  0  0  0  0  0  # atno 10718 bound_to 10713
  152.9915  135.6170  154.2744 H   0  0  0  0  0  0  0  0  0  0  0  0  # atno 10763 bound_to 10752
  154.2476  135.2786  155.2831 H   0  0  0  0  0  0  0  0  0  0  0  0  # atno 10764 bound_to 10752
  154.5316  135.5786  153.6821 H   0  0  0  0  0  0  0  0  0  0  0  0  # atno 10765 bound_to 10752
  140.2275  134.8149  157.3283 H   0  0  0  0  0  0  0  0  0  0  0  0  # atno 11005 bound_to 11000
  144.8885  139.4806  143.6689 LP  0  0  0  0  0  0  0  0  0  0  0  0  # atno 17320 bound_to 7965
  146.3056  139.7569  142.9059 LP  0  0  0  0  0  0  0  0  0  0  0  0  # atno 17321 bound_to 7965
  139.8406  144.7212  150.9336 LP  0  0  0  0  0  0  0  0  0  0  0  0  # atno 17342 bound_to 10162
  140.7805  143.3987  151.1186 LP  0  0  0  0  0  0  0  0  0  0  0  0  # atno 17343 bound_to 10162
  157.7216  130.9566  150.1461 LP  0  0  0  0  0  0  0  0  0  0  0  0  # atno 17370 bound_to 10713
  156.2278  130.3679  149.8480 LP  0  0  0  0  0  0  0  0  0  0  0  0  # atno 17371 bound_to 10713
  140.1785  134.4519  155.7786 LP  0  0  0  0  0  0  0  0  0  0  0  0  # atno 17394 bound_to 11000
  141.2220  133.6973  156.7828 LP  0  0  0  0  0  0  0  0  0  0  0  0  # atno 17395 bound_to 11000

$$$$
