AV-unprocessed.smi:101|AV-procd|sdf|924|dock1
  -GOLD-   2262017433D 1   1.00000     0.00000
 Structure written by MMmdl.
 44 46  0  0  0  0  0  0  0  0  1 V2000
  148.0719  138.5026  156.4450 C   0  0  0  0  0  0  0  0  0  0  0  0
  149.3838  138.2451  155.7216 C   0  0  0  0  0  0  0  0  0  0  0  0
  150.5589  138.0791  156.3815 C   0  0  0  0  0  0  0  0  0  0  0  0
  151.7744  137.8391  155.7485 N   0  0  0  0  0  0  0  0  0  0  0  0
  153.0840  137.6831  156.5048 C   0  0  1  0  0  0  0  0  0  0  0  0
  153.2692  138.7630  157.3687 O   0  0  0  0  0  0  0  0  0  0  0  0
  152.8066  138.4114  158.6641 C   0  0  2  0  0  0  0  0  0  0  0  0
  153.3879  139.3636  159.7183 C   0  0  0  0  0  0  0  0  0  0  0  0
  152.7590  140.6326  159.6297 O   0  0  0  0  0  0  0  0  0  0  0  0
  152.8390  141.5021  160.6540 C   0  0  0  0  0  0  0  0  0  0  0  0
  153.2364  141.1961  161.7799 O   0  0  0  0  0  0  0  0  0  0  0  0
  152.3950  142.8762  160.2813 C   0  0  0  0  0  0  0  0  0  0  0  0
  151.6926  143.6587  161.2275 C   0  0  0  0  0  0  0  0  0  0  0  0
  151.2600  144.9592  160.9033 C   0  0  0  0  0  0  0  0  0  0  0  0
  151.5255  145.4938  159.6292 C   0  0  0  0  0  0  0  0  0  0  0  0
  152.2244  144.7262  158.6794 C   0  0  0  0  0  0  0  0  0  0  0  0
  152.6567  143.4248  159.0013 C   0  0  0  0  0  0  0  0  0  0  0  0
  153.2021  136.9407  158.8088 C   0  0  1  0  0  0  0  0  0  0  0  0
  152.3022  136.2775  159.6739 O   0  0  0  0  0  0  0  0  0  0  0  0
  153.0785  136.4057  157.3826 C   0  0  2  0  0  0  0  0  0  0  0  0
  154.1722  135.5623  157.0823 O   0  0  0  0  0  0  0  0  0  0  0  0
  151.8170  137.8188  154.3380 C   0  0  0  0  0  0  0  0  0  0  0  0
  152.8617  137.6641  153.7061 O   0  0  0  0  0  0  0  0  0  0  0  0
  150.6108  137.9826  153.6608 N   0  0  0  0  0  0  0  0  0  0  0  0
  149.3658  138.1890  154.2577 C   0  0  0  0  0  0  0  0  0  0  0  0
  148.3667  138.3132  153.5515 O   0  0  0  0  0  0  0  0  0  0  0  0
  150.6397  137.9556  152.6519 H   0  0  0  0  0  0  0  0  0  0  0  0
  148.2020  138.5248  157.5275 H   0  0  0  0  0  0  0  0  0  0  0  0
  147.3487  137.7202  156.2120 H   0  0  0  0  0  0  0  0  0  0  0  0
  147.6503  139.4608  156.1396 H   0  0  0  0  0  0  0  0  0  0  0  0
  150.5252  138.1479  157.4578 H   0  0  0  0  0  0  0  0  0  0  0  0
  153.8546  137.7010  155.7312 H   0  0  0  0  0  0  0  0  0  0  0  0
  151.7188  138.4983  158.6691 H   0  0  0  0  0  0  0  0  0  0  0  0
  153.2409  138.9476  160.7158 H   0  0  0  0  0  0  0  0  0  0  0  0
  154.4620  139.4756  159.5652 H   0  0  0  0  0  0  0  0  0  0  0  0
  151.4779  143.2699  162.2125 H   0  0  0  0  0  0  0  0  0  0  0  0
  150.7239  145.5470  161.6336 H   0  0  0  0  0  0  0  0  0  0  0  0
  151.1941  146.4913  159.3810 H   0  0  0  0  0  0  0  0  0  0  0  0
  152.4293  145.1356  157.7012 H   0  0  0  0  0  0  0  0  0  0  0  0
  153.1904  142.8628  158.2486 H   0  0  0  0  0  0  0  0  0  0  0  0
  154.2245  136.8421  159.1766 H   0  0  0  0  0  0  0  0  0  0  0  0
  152.2319  136.7793  160.4718 H   0  0  0  0  0  0  0  0  0  0  0  0
  152.1450  135.8574  157.2458 H   0  0  0  0  0  0  0  0  0  0  0  0
  154.7270  135.5118  157.8460 H   0  0  0  0  0  0  0  0  0  0  0  0
  1  2  1  0  0  0  0
  1 28  1  0  0  0  0
  1 29  1  0  0  0  0
  1 30  1  0  0  0  0
  2 25  1  0  0  0  0
  2  3  2  0  0  0  0
  3  4  1  0  0  0  0
  3 31  1  0  0  0  0
  4  5  1  0  0  0  0
  4 22  1  0  0  0  0
  5 20  1  0  0  0  0
  5  6  1  0  0  0  0
  5 32  1  0  0  0  0
  6  7  1  0  0  0  0
  7  8  1  0  0  0  0
  7 18  1  0  0  0  0
  7 33  1  0  0  0  0
  8  9  1  0  0  0  0
  8 34  1  0  0  0  0
  8 35  1  0  0  0  0
  9 10  1  0  0  0  0
 10 11  2  0  0  0  0
 10 12  1  0  0  0  0
 12 17  1  0  0  0  0
 12 13  2  0  0  0  0
 13 14  1  0  0  0  0
 13 36  1  0  0  0  0
 14 15  2  0  0  0  0
 14 37  1  0  0  0  0
 15 16  1  0  0  0  0
 15 38  1  0  0  0  0
 16 17  2  0  0  0  0
 16 39  1  0  0  0  0
 17 40  1  0  0  0  0
 18 19  1  0  0  0  0
 18 20  1  0  0  0  0
 18 41  1  0  0  0  0
 19 42  1  0  0  0  0
 20 21  1  0  0  0  0
 20 43  1  0  0  0  0
 21 44  1  0  0  0  0
 22 23  2  0  0  0  0
 22 24  1  0  0  0  0
 24 27  1  0  0  0  0
 24 25  1  0  0  0  0
 25 26  2  0  0  0  0
M  END
> <s_m_source_file>
AV-unprocessed.smi

> <i_m_source_file_index>
101

> <i_lp_mmshare_version>
43012

> <i_f3d_flags>
0

> <s_epik_input>
Tz1jMVtuSF1jKD1PKW4oW2NIXWMxW0NIM10pW0NAQEhdMk9bQ0BIXShbQ0BASF0oW09IXSlbQ0BIXTJbT0hdKVtDSDJdT0MoPU8pYzNbY0hdW2NIXVtjSF1bY0hdW2NIXTM=

> <s_epik_cmdline>
J2VwaWtfcHl0aG9uJywgJy1waCcsICc3LjAnLCAnLXRuJywgJzgnLCAnLW1hJywgJzIwMCcsICctbWV0YWxfYmluZGluZycsICctaW1hZScsICc8aW5maWxlLm1hZT4nLCAnLW9tYWUnLCAnPG91dGZpbGUubWFlPic=

> <r_lp_tautomer_probability>
0.999537

> <r_epik_Ionization_Penalty>
0.00263537

> <r_epik_Ionization_Penalty_Charging>
0.00263428

> <r_epik_Ionization_Penalty_Neutral>
1.09111e-06

> <r_epik_State_Penalty>
0.00183335

> <r_epik_Charging_Adjusted_Penalty>
0.00446763

> <i_epik_Tot_Q>
0

> <i_epik_Tot_abs_Q>
0

> <r_epik_Metal_State_Penalty>
1.00528

> <b_epik_Metal_Only>
0

> <s_epik_Chemistry_Notes>
This compound has an ester and may undergo hydrolysis at high or low pH. This compound contains an acetal/aminal-like group ( X-CH(R)-Y where X, Y are N, S, or O) that may be acid/base labile, releasing an aldehyde.

> <s_lp_Force_Field>
OPLS_2005

> <r_lp_Energy>
29.5421

> <b_lp_Chiralities_Consistent>
1

> <s_lp_Variant>
AV-unprocessed.smi:101-12

> <Gold.Version>
5.8.1

> <Gold.Id.Protein>
6NUR|6NUR_protein|mol2

> <Gold.PLP.Fitness>
56.5660

> <Gold.PLP.PLP>
-43.2834

> <Gold.PLP.part.hbond>
-5.7310

> <Gold.PLP.part.metal>
0.0000

> <Gold.PLP.part.buried>
-6.1469

> <Gold.PLP.part.nonpolar>
-33.7691

> <Gold.PLP.part.repulsive>
1.5242

> <Gold.PLP.ligand.clash>
0.0000

> <Gold.PLP.ligand.torsion>
0.8871

> <Gold.PLP.Chemscore.Hbond>
4.9353

> <Gold.PLP.Chemscore.CHOScore>
0.0000

> <Gold.PLP.Chemscore.Metal>
0.0000

> <Gold.Chemscore.Hbonds>
donor molecule, donor type, donor heavy atom, donor atom, acceptor molecule, acceptor atom, score
      L1  H    24    27       P1  7949  0.06
      P1  H  6896  6907       L1    19  0.51
      P1  H  7997  8009       L1     6  1.00
      P1  H 10752 10763       L1    23  0.44
      P1  H 10752 10764       L1    21  1.00

> <Gold.PLP.Chemscore.Internal.Correction>
0.2511

> <Gold.Rescore>
     Score         DG    S(hbond)    S(metal)    S(lipo)     H(rot)  DE(clash)    DE(int)     intcor
     20.92     -22.46       4.16        0.00      98.97       3.32       0.28       1.26       ----

> <Gold.Chemscore.Fitness>
20.9199

> <Gold.Chemscore.DG>
-22.4577

> <Gold.Chemscore.ZeroCoef>
-5.4800

> <Gold.Chemscore.Hbond>
4.1588

> <Gold.Chemscore.Metal>
0.0000

> <Gold.Chemscore.Lipo>
98.9695

> <Gold.Chemscore.Internal_Hbond>
0.0000

> <Gold.Chemscore.DEClash>
0.2784

> <Gold.Chemscore.DEInternal>
1.2594

> <Gold.Chemscore.Rot>
3.3172

> <Gold.Chemscore.Internal.Correction>
   9.000000E+99

> <Gold.Chemscore.Hbonds>
donor molecule, donor type, donor heavy atom, donor atom, acceptor molecule, acceptor atom, score
      P1  H  6896  6907       L1    19  0.24
      P1  H  7997  8009       L1     6  0.95
      P1  H 10752 10763       L1    23  0.06
      P1  H 10752 10764       L1    21  0.45

> <Gold.Chemscore.Hbond.Weighted>
-13.8903

> <Gold.Chemscore.Metal.Weighted>
-0.0000

> <Gold.Chemscore.Lipo.Weighted>
-11.5794

> <Gold.Chemscore.Internal_Hbond.Weighted>
0.0000

> <Gold.Chemscore.DEClash.Weighted>
0.2784

> <Gold.Chemscore.DEInternal.Weighted>
1.2594

> <Gold.Chemscore.Rot.Weighted>
8.4920

> <Gold.Chemscore.Internal.Correction.Weighted>
   9.000000E+99

> <Gold.Protein.RotatedTorsions>
[ 6907 6896 6895 6894 ] final   34.33 input  -60.11 | X-H torsion
[ 7974 7965 7964 7962 ] final   96.52 input  175.53 | X-H torsion
[ 8008 7997 7996 7995 ] final  152.83 input   59.86 | X-H torsion
[ 10167 10162 10161 10158 ] final  -45.79 input  -65.29 | X-H torsion
[ 10718 10713 10712 10709 ] final  -73.37 input   66.30 | X-H torsion
[ 10763 10752 10751 10750 ] final   27.87 input  -60.55 | X-H torsion
[ 11005 11000 10999 10996 ] final  172.52 input  -57.11 | X-H torsion

> <Gold.Protein.ActiveResidues>
 VAL166  LYS551  ARG553  GLY616  TRP617  ASP618  TYR619  PRO620  LYS621  CYS622 
 ASP623  PHE694  ASN695  SER759  ASP760  ASP761  ALA762  ILE779  LEU786  VAL792 
 PHE793  MET794  SER795  GLU796  ALA797  LYS798  CYS799  TRP800  GLU811  SER814 

> <Gold.Protein.RotatedAtoms>
  152.1009  134.9342  160.0569 H   0  0  0  0  0  0  0  0  0  0  0  0  # atno 6907 bound_to 6896
  152.0557  133.4034  159.4404 H   0  0  0  0  0  0  0  0  0  0  0  0  # atno 6908 bound_to 6896
  150.6839  134.3178  159.4817 H   0  0  0  0  0  0  0  0  0  0  0  0  # atno 6909 bound_to 6896
  145.4377  139.2304  143.3109 H   0  0  0  0  0  0  0  0  0  0  0  0  # atno 7974 bound_to 7965
  156.2611  140.2010  156.6394 H   0  0  0  0  0  0  0  0  0  0  0  0  # atno 8008 bound_to 7997
  154.6621  140.0559  157.0098 H   0  0  0  0  0  0  0  0  0  0  0  0  # atno 8009 bound_to 7997
  155.1261  140.3229  155.4488 H   0  0  0  0  0  0  0  0  0  0  0  0  # atno 8010 bound_to 7997
  140.6844  143.2862  151.3689 H   0  0  0  0  0  0  0  0  0  0  0  0  # atno 10167 bound_to 10162
  156.0283  130.4392  150.2732 H   0  0  0  0  0  0  0  0  0  0  0  0  # atno 10718 bound_to 10713
  153.0528  135.6527  154.0652 H   0  0  0  0  0  0  0  0  0  0  0  0  # atno 10763 bound_to 10752
  154.0336  135.2909  155.3366 H   0  0  0  0  0  0  0  0  0  0  0  0  # atno 10764 bound_to 10752
  154.6826  135.5314  153.8350 H   0  0  0  0  0  0  0  0  0  0  0  0  # atno 10765 bound_to 10752
  140.3306  134.7361  157.4131 H   0  0  0  0  0  0  0  0  0  0  0  0  # atno 11005 bound_to 11000
  146.2573  140.5122  142.8868 LP  0  0  0  0  0  0  0  0  0  0  0  0  # atno 17320 bound_to 7965
  144.8142  140.6438  143.6395 LP  0  0  0  0  0  0  0  0  0  0  0  0  # atno 17321 bound_to 7965
  139.6190  144.0944  152.2373 LP  0  0  0  0  0  0  0  0  0  0  0  0  # atno 17342 bound_to 10162
  140.0383  144.6028  150.7432 LP  0  0  0  0  0  0  0  0  0  0  0  0  # atno 17343 bound_to 10162
  157.0836  131.0150  151.3148 LP  0  0  0  0  0  0  0  0  0  0  0  0  # atno 17370 bound_to 10713
  157.4909  130.7821  149.7506 LP  0  0  0  0  0  0  0  0  0  0  0  0  # atno 17371 bound_to 10713
  140.0864  134.5660  155.8488 LP  0  0  0  0  0  0  0  0  0  0  0  0  # atno 17394 bound_to 11000
  141.2064  133.6655  156.6242 LP  0  0  0  0  0  0  0  0  0  0  0  0  # atno 17395 bound_to 11000

$$$$
