AV-unprocessed.smi:1545|AV-procd|sdf|6214|dock9
  -GOLD-   22720 6383D 1   1.00000     0.00000
 Structure written by MMmdl.
 42 44  0  0  0  0  0  0  0  0  2 V2000
  148.3364  140.9329  153.4796 O   0  0  0  0  0  0  0  0  0  0  0  0
  147.0565  140.4628  153.1158 C   0  0  0  0  0  0  0  0  0  0  0  0
  147.0732  138.9329  153.0050 C   0  0  0  0  0  0  0  0  0  0  0  0
  145.7279  138.3812  152.9978 N   0  0  0  0  0  0  0  0  0  0  0  0
  145.5310  137.0741  152.5406 C   0  0  0  0  0  0  0  0  0  0  0  0
  146.5064  136.1661  152.2692 N   0  3  0  0  0  0  0  0  0  0  0  0
  145.8988  134.9864  151.8295 C   0  0  0  0  0  0  0  0  0  0  0  0
  146.4523  133.7735  151.4312 C   0  0  0  0  0  0  0  0  0  0  0  0
  145.5499  132.7650  151.0336 C   0  0  0  0  0  0  0  0  0  0  0  0
  144.1564  132.9806  151.0398 C   0  0  0  0  0  0  0  0  0  0  0  0
  143.6030  134.2129  151.4461 C   0  0  0  0  0  0  0  0  0  0  0  0
  144.4998  135.2050  151.8409 C   0  0  0  0  0  0  0  0  0  0  0  0
  144.3169  136.5162  152.2966 N   0  0  0  0  0  0  0  0  0  0  0  0
  142.9575  137.0611  152.4290 C   0  0  0  0  0  0  0  0  0  0  0  0
  142.2951  136.6990  153.7729 C   0  0  2  0  0  0  0  0  0  0  0  0
  142.3085  135.2956  153.9508 O   0  0  0  0  0  0  0  0  0  0  0  0
  140.8920  137.2760  153.8670 C   0  0  0  0  0  0  0  0  0  0  0  0
  139.7770  136.4281  154.0505 C   0  0  0  0  0  0  0  0  0  0  0  0
  138.4788  136.9691  154.1258 C   0  0  0  0  0  0  0  0  0  0  0  0
  138.2876  138.3600  154.0174 C   0  0  0  0  0  0  0  0  0  0  0  0
  139.3952  139.2095  153.8318 C   0  0  0  0  0  0  0  0  0  0  0  0
  139.2127  140.5470  153.7255 F   0  0  0  0  0  0  0  0  0  0  0  0
  140.6937  138.6690  153.7555 C   0  0  0  0  0  0  0  0  0  0  0  0
  148.9416  140.7212  152.7854 H   0  0  0  0  0  0  0  0  0  0  0  0
  146.3031  140.8106  153.8238 H   0  0  0  0  0  0  0  0  0  0  0  0
  146.8104  140.8976  152.1469 H   0  0  0  0  0  0  0  0  0  0  0  0
  147.5498  138.6527  152.0647 H   0  0  0  0  0  0  0  0  0  0  0  0
  147.6668  138.4915  153.8067 H   0  0  0  0  0  0  0  0  0  0  0  0
  144.9381  139.0020  153.1044 H   0  0  0  0  0  0  0  0  0  0  0  0
  147.5192  133.6045  151.4236 H   0  0  0  0  0  0  0  0  0  0  0  0
  145.9349  131.8065  150.7167 H   0  0  0  0  0  0  0  0  0  0  0  0
  143.4974  132.1837  150.7264 H   0  0  0  0  0  0  0  0  0  0  0  0
  142.5340  134.3671  151.4463 H   0  0  0  0  0  0  0  0  0  0  0  0
  143.0050  138.1427  152.2980 H   0  0  0  0  0  0  0  0  0  0  0  0
  142.3654  136.6794  151.5961 H   0  0  0  0  0  0  0  0  0  0  0  0
  142.8920  137.1192  154.5834 H   0  0  0  0  0  0  0  0  0  0  0  0
  142.8655  134.9151  153.2887 H   0  0  0  0  0  0  0  0  0  0  0  0
  139.9134  135.3593  154.1312 H   0  0  0  0  0  0  0  0  0  0  0  0
  137.6293  136.3165  154.2653 H   0  0  0  0  0  0  0  0  0  0  0  0
  137.2919  138.7746  154.0749 H   0  0  0  0  0  0  0  0  0  0  0  0
  141.5359  139.3294  153.6096 H   0  0  0  0  0  0  0  0  0  0  0  0
  147.4976  136.3394  152.3741 H   0  0  0  0  0  0  0  0  0  0  0  0
  1  2  1  0  0  0  0
  1 24  1  0  0  0  0
  2  3  1  0  0  0  0
  2 25  1  0  0  0  0
  2 26  1  0  0  0  0
  3  4  1  0  0  0  0
  3 27  1  0  0  0  0
  3 28  1  0  0  0  0
  4  5  1  0  0  0  0
  4 29  1  0  0  0  0
  5 13  1  0  0  0  0
  5  6  2  0  0  0  0
  6  7  1  0  0  0  0
  6 42  1  0  0  0  0
  7 12  2  0  0  0  0
  7  8  1  0  0  0  0
  8  9  2  0  0  0  0
  8 30  1  0  0  0  0
  9 10  1  0  0  0  0
  9 31  1  0  0  0  0
 10 11  2  0  0  0  0
 10 32  1  0  0  0  0
 11 12  1  0  0  0  0
 11 33  1  0  0  0  0
 12 13  1  0  0  0  0
 13 14  1  0  0  0  0
 14 15  1  0  0  0  0
 14 34  1  0  0  0  0
 14 35  1  0  0  0  0
 15 16  1  0  0  0  0
 15 17  1  0  0  0  0
 15 36  1  0  0  0  0
 16 37  1  0  0  0  0
 17 23  1  0  0  0  0
 17 18  2  0  0  0  0
 18 19  1  0  0  0  0
 18 38  1  0  0  0  0
 19 20  2  0  0  0  0
 19 39  1  0  0  0  0
 20 21  1  0  0  0  0
 20 40  1  0  0  0  0
 21 22  1  0  0  0  0
 21 23  2  0  0  0  0
 23 41  1  0  0  0  0
M  CHG  1   6   1
M  END
> <s_m_source_file>
AV-unprocessed.smi

> <i_m_source_file_index>
1545

> <i_lp_mmshare_version>
43012

> <i_f3d_flags>
0

> <s_epik_input>
W09IXVtDSDJdW0NIMl1bTkhdYyhuMSluKGMoYzEyKVtjSF1bY0hdW2NIXVtjSF0yKVtDSDJdW0NASF0oW09IXSljM1tjSF1bY0hdW2NIXWMoRilbY0hdMw==

> <s_epik_cmdline>
J2VwaWtfcHl0aG9uJywgJy1waCcsICc3LjAnLCAnLXRuJywgJzgnLCAnLW1hJywgJzIwMCcsICctbWV0YWxfYmluZGluZycsICctaW1hZScsICc8aW5maWxlLm1hZT4nLCAnLW9tYWUnLCAnPG91dGZpbGUubWFlPic=

> <r_epik_Ionization_Penalty>
0.0688114

> <r_epik_Ionization_Penalty_Charging>
0.0688055

> <r_epik_Ionization_Penalty_Neutral>
5.85933e-06

> <r_epik_State_Penalty>
0.0602293

> <r_epik_Charging_Adjusted_Penalty>
0.129035

> <i_epik_Tot_Q>
1

> <i_epik_Tot_abs_Q>
1

> <r_epik_Metal_State_Penalty>
2.77411

> <b_epik_Metal_Only>
0

> <s_lp_Force_Field>
OPLS_2005

> <r_lp_Energy>
22.2772

> <b_lp_Chiralities_Consistent>
1

> <s_lp_Variant>
AV-unprocessed.smi:1545-1

> <Gold.Version>
5.8.1

> <Gold.Id.Protein>
6NUR|6NUR_protein|mol2

> <Gold.PLP.Fitness>
57.1038

> <Gold.PLP.PLP>
-43.1922

> <Gold.PLP.part.hbond>
-2.9965

> <Gold.PLP.part.metal>
0.0000

> <Gold.PLP.part.buried>
-5.3652

> <Gold.PLP.part.nonpolar>
-34.9259

> <Gold.PLP.part.repulsive>
0.0358

> <Gold.PLP.ligand.clash>
0.0000

> <Gold.PLP.ligand.torsion>
0.5348

> <Gold.PLP.Chemscore.Hbond>
4.9840

> <Gold.PLP.Chemscore.CHOScore>
0.0000

> <Gold.PLP.Chemscore.Metal>
0.0000

> <Gold.Chemscore.Hbonds>
donor molecule, donor type, donor heavy atom, donor atom, acceptor molecule, acceptor atom, score
      L1  H     1    24       P1  7957  1.00
      L1  H     4    29       P1 10175  2.00
      L1  H     6    42       P1  7948  1.98

> <Gold.PLP.Chemscore.Internal.Correction>
0.0293

> <Gold.Rescore>
     Score         DG    S(hbond)    S(metal)    S(lipo)     H(rot)  DE(clash)    DE(int)     intcor
     17.37     -18.87       2.89        0.00     100.95       3.15       0.82       0.67       ----

> <Gold.Chemscore.Fitness>
17.3736

> <Gold.Chemscore.DG>
-18.8672

> <Gold.Chemscore.ZeroCoef>
-5.4800

> <Gold.Chemscore.Hbond>
2.8866

> <Gold.Chemscore.Metal>
0.0000

> <Gold.Chemscore.Lipo>
100.9511

> <Gold.Chemscore.Internal_Hbond>
0.0000

> <Gold.Chemscore.DEClash>
0.8203

> <Gold.Chemscore.DEInternal>
0.6733

> <Gold.Chemscore.Rot>
3.1505

> <Gold.Chemscore.Internal.Correction>
   9.000000E+99

> <Gold.Chemscore.Hbonds>
donor molecule, donor type, donor heavy atom, donor atom, acceptor molecule, acceptor atom, score
      L1  H     1    24       P1  7957  0.99
      L1  H     4    29       P1 10175  0.91
      L1  H     6    42       P1  7948  0.88

> <Gold.Chemscore.Hbond.Weighted>
-9.6411

> <Gold.Chemscore.Metal.Weighted>
-0.0000

> <Gold.Chemscore.Lipo.Weighted>
-11.8113

> <Gold.Chemscore.Internal_Hbond.Weighted>
0.0000

> <Gold.Chemscore.DEClash.Weighted>
0.8203

> <Gold.Chemscore.DEInternal.Weighted>
0.6733

> <Gold.Chemscore.Rot.Weighted>
8.0652

> <Gold.Chemscore.Internal.Correction.Weighted>
   9.000000E+99

> <Gold.Protein.RotatedTorsions>
[ 6907 6896 6895 6894 ] final  -78.62 input  -60.11 | X-H torsion
[ 7974 7965 7964 7962 ] final  -79.76 input  175.53 | X-H torsion
[ 8008 7997 7996 7995 ] final -170.98 input   59.86 | X-H torsion
[ 10167 10162 10161 10158 ] final   79.88 input  -65.29 | X-H torsion
[ 10718 10713 10712 10709 ] final -121.51 input   66.30 | X-H torsion
[ 10763 10752 10751 10750 ] final   45.35 input  -60.55 | X-H torsion
[ 11005 11000 10999 10996 ] final  -54.80 input  -57.11 | X-H torsion

> <Gold.Protein.ActiveResidues>
 VAL166  LYS551  ARG553  GLY616  TRP617  ASP618  TYR619  PRO620  LYS621  CYS622 
 ASP623  PHE694  ASN695  SER759  ASP760  ASP761  ALA762  ILE779  LEU786  VAL792 
 PHE793  MET794  SER795  GLU796  ALA797  LYS798  CYS799  TRP800  GLU811  SER814 

> <Gold.Protein.RotatedAtoms>
  150.6968  134.4245  159.5219 H   0  0  0  0  0  0  0  0  0  0  0  0  # atno 6907 bound_to 6896
  152.1982  134.8609  160.0520 H   0  0  0  0  0  0  0  0  0  0  0  0  # atno 6908 bound_to 6896
  151.9538  133.3639  159.4047 H   0  0  0  0  0  0  0  0  0  0  0  0  # atno 6909 bound_to 6896
  145.5690  140.9469  143.1406 H   0  0  0  0  0  0  0  0  0  0  0  0  # atno 7974 bound_to 7965
  155.9255  140.1082  157.1174 H   0  0  0  0  0  0  0  0  0  0  0  0  # atno 8008 bound_to 7997
  154.4061  140.1248  156.4799 H   0  0  0  0  0  0  0  0  0  0  0  0  # atno 8009 bound_to 7997
  155.7144  140.3470  155.4990 H   0  0  0  0  0  0  0  0  0  0  0  0  # atno 8010 bound_to 7997
  139.9557  144.5996  150.8119 H   0  0  0  0  0  0  0  0  0  0  0  0  # atno 10167 bound_to 10162
  156.1343  130.6419  150.9672 H   0  0  0  0  0  0  0  0  0  0  0  0  # atno 10718 bound_to 10713
  152.9826  135.6042  154.3423 H   0  0  0  0  0  0  0  0  0  0  0  0  # atno 10763 bound_to 10752
  154.3119  135.2771  155.2564 H   0  0  0  0  0  0  0  0  0  0  0  0  # atno 10764 bound_to 10752
  154.4769  135.5927  153.6417 H   0  0  0  0  0  0  0  0  0  0  0  0  # atno 10765 bound_to 10752
  141.1043  133.6615  156.4374 H   0  0  0  0  0  0  0  0  0  0  0  0  # atno 11005 bound_to 11000
  144.7447  139.7353  143.7297 LP  0  0  0  0  0  0  0  0  0  0  0  0  # atno 17320 bound_to 7965
  146.1798  139.4985  142.9874 LP  0  0  0  0  0  0  0  0  0  0  0  0  # atno 17321 bound_to 7965
  140.7569  143.3075  151.2925 LP  0  0  0  0  0  0  0  0  0  0  0  0  # atno 17342 bound_to 10162
  139.6594  144.0218  152.2682 LP  0  0  0  0  0  0  0  0  0  0  0  0  # atno 17343 bound_to 10162
  157.6518  131.0896  150.8035 LP  0  0  0  0  0  0  0  0  0  0  0  0  # atno 17370 bound_to 10713
  156.8116  130.4954  149.5355 LP  0  0  0  0  0  0  0  0  0  0  0  0  # atno 17371 bound_to 10713
  140.4942  134.6547  157.5223 LP  0  0  0  0  0  0  0  0  0  0  0  0  # atno 17394 bound_to 11000
  139.9907  134.6990  155.9695 LP  0  0  0  0  0  0  0  0  0  0  0  0  # atno 17395 bound_to 11000

$$$$
