AV-unprocessed.smi:1261|AV-procd|sdf|5304|dock10
  -GOLD-   22720 4423D 1   1.00000     0.00000
 Structure written by MMmdl.
 49 50  0  0  0  0  0  0  0  0  3 V2000
  145.7502  132.0050  149.6067 C   0  0  0  0  0  0  0  0  0  0  0  0
  146.0665  133.2437  150.4567 C   0  0  1  0  0  0  0  0  0  0  0  0
  144.8006  134.0778  150.7241 C   0  0  0  0  0  0  0  0  0  0  0  0
  145.0942  135.2855  151.6334 C   0  0  2  0  0  0  0  0  0  0  0  0
  145.8421  136.4162  150.9055 C   0  0  0  0  0  0  0  0  0  0  0  0
  145.8221  134.8343  152.9155 C   0  0  0  0  0  0  0  0  0  0  0  0
  147.0496  134.0541  152.6086 N   0  3  1  0  0  0  0  0  0  0  0  0
  147.8345  133.7427  153.8304 C   0  0  0  0  0  0  0  0  0  0  0  0
  148.3834  135.0048  154.5172 C   0  0  0  0  0  0  0  0  0  0  0  0
  149.0856  134.6854  155.8467 C   0  0  0  0  0  0  0  0  0  0  0  0
  148.1414  134.2138  156.8514 N   0  0  0  0  0  0  0  0  0  0  0  0
  148.4711  133.5440  157.9663 C   0  0  0  0  0  0  0  0  0  0  0  0
  149.6318  133.2758  158.2774 O   0  0  0  0  0  0  0  0  0  0  0  0
  147.3100  133.1301  158.8765 C   0  0  0  0  0  0  0  0  0  0  0  0
  147.3469  133.8376  160.1623 N   0  0  0  0  0  0  0  0  0  0  0  0
  147.4049  135.2908  160.0266 N   0  5  0  0  0  0  0  0  0  0  0  0
  147.4106  136.0610  161.1467 C   0  0  0  0  0  0  0  0  0  0  0  0
  147.4444  137.2890  161.1105 O   0  0  0  0  0  0  0  0  0  0  0  0
  147.3765  135.3926  162.4370 C   0  0  0  0  0  0  0  0  0  0  0  0
  147.3351  134.0489  162.5323 C   0  0  0  0  0  0  0  0  0  0  0  0
  147.3181  133.1840  161.3588 C   0  0  0  0  0  0  0  0  0  0  0  0
  147.2774  131.9564  161.4400 O   0  0  0  0  0  0  0  0  0  0  0  0
  146.7408  132.8544  151.7859 C   0  0  0  0  0  0  0  0  0  0  0  0
  145.0508  131.3414  150.1163 H   0  0  0  0  0  0  0  0  0  0  0  0
  146.6540  131.4341  149.3925 H   0  0  0  0  0  0  0  0  0  0  0  0
  145.3059  132.2867  148.6516 H   0  0  0  0  0  0  0  0  0  0  0  0
  146.7683  133.8543  149.8873 H   0  0  0  0  0  0  0  0  0  0  0  0
  144.3596  134.4117  149.7840 H   0  0  0  0  0  0  0  0  0  0  0  0
  144.0504  133.4472  151.2036 H   0  0  0  0  0  0  0  0  0  0  0  0
  144.1327  135.7028  151.9352 H   0  0  0  0  0  0  0  0  0  0  0  0
  146.8388  136.1096  150.5891 H   0  0  0  0  0  0  0  0  0  0  0  0
  145.9559  137.2869  151.5520 H   0  0  0  0  0  0  0  0  0  0  0  0
  145.2967  136.7392  150.0183 H   0  0  0  0  0  0  0  0  0  0  0  0
  146.0738  135.7097  153.5156 H   0  0  0  0  0  0  0  0  0  0  0  0
  145.1554  134.2213  153.5242 H   0  0  0  0  0  0  0  0  0  0  0  0
  147.1910  133.2271  154.5446 H   0  0  0  0  0  0  0  0  0  0  0  0
  148.6424  133.0505  153.5881 H   0  0  0  0  0  0  0  0  0  0  0  0
  149.0873  135.5145  153.8598 H   0  0  0  0  0  0  0  0  0  0  0  0
  147.5672  135.7049  154.7001 H   0  0  0  0  0  0  0  0  0  0  0  0
  149.8341  133.9071  155.6971 H   0  0  0  0  0  0  0  0  0  0  0  0
  149.6197  135.5612  156.2188 H   0  0  0  0  0  0  0  0  0  0  0  0
  147.1598  134.3752  156.6753 H   0  0  0  0  0  0  0  0  0  0  0  0
  146.3667  133.3228  158.3624 H   0  0  0  0  0  0  0  0  0  0  0  0
  147.3367  132.0499  159.0325 H   0  0  0  0  0  0  0  0  0  0  0  0
  147.3858  135.9862  163.3391 H   0  0  0  0  0  0  0  0  0  0  0  0
  147.3116  133.5953  163.5119 H   0  0  0  0  0  0  0  0  0  0  0  0
  146.0973  132.1808  152.3543 H   0  0  0  0  0  0  0  0  0  0  0  0
  147.6543  132.3035  151.5659 H   0  0  0  0  0  0  0  0  0  0  0  0
  147.6312  134.6567  152.0441 H   0  0  0  0  0  0  0  0  0  0  0  0
  1  2  1  0  0  0  0
  1 24  1  0  0  0  0
  1 25  1  0  0  0  0
  1 26  1  0  0  0  0
  2 23  1  0  0  0  0
  2  3  1  0  0  0  0
  2 27  1  0  0  0  0
  3  4  1  0  0  0  0
  3 28  1  0  0  0  0
  3 29  1  0  0  0  0
  4  5  1  0  0  0  0
  4  6  1  0  0  0  0
  4 30  1  0  0  0  0
  5 31  1  0  0  0  0
  5 32  1  0  0  0  0
  5 33  1  0  0  0  0
  6  7  1  0  0  0  0
  6 34  1  0  0  0  0
  6 35  1  0  0  0  0
  7  8  1  0  0  0  0
  7 23  1  0  0  0  0
  7 49  1  0  0  0  0
  8  9  1  0  0  0  0
  8 36  1  0  0  0  0
  8 37  1  0  0  0  0
  9 10  1  0  0  0  0
  9 38  1  0  0  0  0
  9 39  1  0  0  0  0
 10 11  1  0  0  0  0
 10 40  1  0  0  0  0
 10 41  1  0  0  0  0
 11 12  1  0  0  0  0
 11 42  1  0  0  0  0
 12 13  2  0  0  0  0
 12 14  1  0  0  0  0
 14 43  1  0  0  0  0
 14 44  1  0  0  0  0
 14 15  1  0  0  0  0
 15 16  1  0  0  0  0
 15 21  1  0  0  0  0
 16 17  1  0  0  0  0
 17 18  2  0  0  0  0
 17 19  1  0  0  0  0
 19 45  1  0  0  0  0
 19 20  2  0  0  0  0
 20 46  1  0  0  0  0
 20 21  1  0  0  0  0
 21 22  2  0  0  0  0
 23 47  1  0  0  0  0
 23 48  1  0  0  0  0
M  CHG  1   7   1
M  CHG  1  16  -1
M  END
> <s_m_source_file>
AV-unprocessed.smi

> <i_m_source_file_index>
1261

> <i_lp_mmshare_version>
43012

> <i_f3d_flags>
0

> <s_epik_input>
W0NIM11bQ0BASF0xW0NIMl1bQ0BASF0oW0NIM10pW0NIMl1OKFtDSDJdMSlbQ0gyXVtDSDJdW0NIMl1bTkhdQyg9TylbQ0gyXW4yW25IXWMoPU8pW2NIXVtjSF1jMj1P

> <s_epik_cmdline>
J2VwaWtfcHl0aG9uJywgJy1waCcsICc3LjAnLCAnLXRuJywgJzgnLCAnLW1hJywgJzIwMCcsICctbWV0YWxfYmluZGluZycsICctaW1hZScsICc8aW5maWxlLm1hZT4nLCAnLW9tYWUnLCAnPG91dGZpbGUubWFlPic=

> <r_lp_tautomer_probability>
1

> <r_epik_Ionization_Penalty>
0.0955723

> <r_epik_Ionization_Penalty_Charging>
0.0955723

> <r_epik_Ionization_Penalty_Neutral>
2.68632e-08

> <r_epik_State_Penalty>
0.0334406

> <r_epik_Charging_Adjusted_Penalty>
0.129013

> <i_epik_Tot_Q>
0

> <i_epik_Tot_abs_Q>
2

> <r_epik_Metal_State_Penalty>
0.0334406

> <b_epik_Metal_Only>
0

> <s_lp_Force_Field>
OPLS_2005

> <r_lp_Energy>
33.6406

> <b_lp_Chiralities_Consistent>
1

> <s_lp_Variant>
AV-unprocessed.smi:1261-4

> <Gold.Version>
5.8.1

> <Gold.Id.Protein>
6NUR|6NUR_protein|mol2

> <Gold.PLP.Fitness>
52.8663

> <Gold.PLP.PLP>
-38.7410

> <Gold.PLP.part.hbond>
-4.0000

> <Gold.PLP.part.metal>
0.0000

> <Gold.PLP.part.buried>
-1.1692

> <Gold.PLP.part.nonpolar>
-33.3980

> <Gold.PLP.part.repulsive>
0.0284

> <Gold.PLP.ligand.clash>
0.0000

> <Gold.PLP.ligand.torsion>
0.2622

> <Gold.PLP.Chemscore.Hbond>
4.8560

> <Gold.PLP.Chemscore.CHOScore>
0.0000

> <Gold.PLP.Chemscore.Metal>
0.0000

> <Gold.Chemscore.Hbonds>
donor molecule, donor type, donor heavy atom, donor atom, acceptor molecule, acceptor atom, score
      L1  H     7    49       P1  7948  2.00
      P1  H  6896  6907       L1    13  1.00
      P1  H  6931  6943       L1    18  0.82
      P1  H  6934  6947       L1    18  0.99

> <Gold.PLP.Chemscore.Internal.Correction>
0.0817

> <Gold.Rescore>
     Score         DG    S(hbond)    S(metal)    S(lipo)     H(rot)  DE(clash)    DE(int)     intcor
     19.30     -20.03       3.59        0.00      76.34       2.49       0.40       0.32       ----

> <Gold.Chemscore.Fitness>
19.3032

> <Gold.Chemscore.DG>
-20.0286

> <Gold.Chemscore.ZeroCoef>
-5.4800

> <Gold.Chemscore.Hbond>
3.5930

> <Gold.Chemscore.Metal>
0.0000

> <Gold.Chemscore.Lipo>
76.3430

> <Gold.Chemscore.Internal_Hbond>
0.0000

> <Gold.Chemscore.DEClash>
0.4041

> <Gold.Chemscore.DEInternal>
0.3214

> <Gold.Chemscore.Rot>
2.4938

> <Gold.Chemscore.Internal.Correction>
   9.000000E+99

> <Gold.Chemscore.Hbonds>
donor molecule, donor type, donor heavy atom, donor atom, acceptor molecule, acceptor atom, score
      L1  H     7    49       P1  7948  0.55
      P1  H  6896  6907       L1    13  0.99
      P1  H  6931  6943       L1    18  0.75
      P1  H  6934  6947       L1    18  0.94

> <Gold.Chemscore.Hbond.Weighted>
-12.0005

> <Gold.Chemscore.Metal.Weighted>
-0.0000

> <Gold.Chemscore.Lipo.Weighted>
-8.9321

> <Gold.Chemscore.Internal_Hbond.Weighted>
0.0000

> <Gold.Chemscore.DEClash.Weighted>
0.4041

> <Gold.Chemscore.DEInternal.Weighted>
0.3214

> <Gold.Chemscore.Rot.Weighted>
6.3840

> <Gold.Chemscore.Internal.Correction.Weighted>
   9.000000E+99

> <Gold.Protein.RotatedTorsions>
[ 6907 6896 6895 6894 ] final -120.98 input  -60.11 | X-H torsion
[ 7974 7965 7964 7962 ] final   26.06 input  175.53 | X-H torsion
[ 8008 7997 7996 7995 ] final   90.56 input   59.86 | X-H torsion
[ 10167 10162 10161 10158 ] final  146.51 input  -65.29 | X-H torsion
[ 10718 10713 10712 10709 ] final  -69.96 input   66.30 | X-H torsion
[ 10763 10752 10751 10750 ] final  -15.19 input  -60.55 | X-H torsion
[ 11005 11000 10999 10996 ] final  105.73 input  -57.11 | X-H torsion

> <Gold.Protein.ActiveResidues>
 VAL166  LYS551  ARG553  GLY616  TRP617  ASP618  TYR619  PRO620  LYS621  CYS622 
 ASP623  PHE694  ASN695  SER759  ASP760  ASP761  ALA762  ILE779  LEU786  VAL792 
 PHE793  MET794  SER795  GLU796  ALA797  LYS798  CYS799  TRP800  GLU811  SER814 

> <Gold.Protein.RotatedAtoms>
  150.8442  133.7888  159.3049 H   0  0  0  0  0  0  0  0  0  0  0  0  # atno 6907 bound_to 6896
  151.5580  135.1064  159.9975 H   0  0  0  0  0  0  0  0  0  0  0  0  # atno 6908 bound_to 6896
  152.4499  133.7567  159.6780 H   0  0  0  0  0  0  0  0  0  0  0  0  # atno 6909 bound_to 6896
  146.1857  139.7380  142.8868 H   0  0  0  0  0  0  0  0  0  0  0  0  # atno 7974 bound_to 7965
  156.0134  140.3348  155.6964 H   0  0  0  0  0  0  0  0  0  0  0  0  # atno 8008 bound_to 7997
  155.6125  140.0667  157.2719 H   0  0  0  0  0  0  0  0  0  0  0  0  # atno 8009 bound_to 7997
  154.4289  140.1791  156.1275 H   0  0  0  0  0  0  0  0  0  0  0  0  # atno 8010 bound_to 7997
  139.4906  144.5824  151.6846 H   0  0  0  0  0  0  0  0  0  0  0  0  # atno 10167 bound_to 10162
  156.0430  130.4322  150.2225 H   0  0  0  0  0  0  0  0  0  0  0  0  # atno 10718 bound_to 10713
  153.5396  135.7013  153.5643 H   0  0  0  0  0  0  0  0  0  0  0  0  # atno 10763 bound_to 10752
  153.3614  135.3968  155.1721 H   0  0  0  0  0  0  0  0  0  0  0  0  # atno 10764 bound_to 10752
  154.8675  135.3789  154.4899 H   0  0  0  0  0  0  0  0  0  0  0  0  # atno 10765 bound_to 10752
  139.8805  134.9346  156.5559 H   0  0  0  0  0  0  0  0  0  0  0  0  # atno 11005 bound_to 11000
  145.3946  141.0377  143.3105 LP  0  0  0  0  0  0  0  0  0  0  0  0  # atno 17320 bound_to 7965
  144.8393  139.5499  143.6908 LP  0  0  0  0  0  0  0  0  0  0  0  0  # atno 17321 bound_to 7965
  140.5432  144.0545  150.6097 LP  0  0  0  0  0  0  0  0  0  0  0  0  # atno 17342 bound_to 10162
  140.3574  143.2928  152.0421 LP  0  0  0  0  0  0  0  0  0  0  0  0  # atno 17343 bound_to 10162
  157.0318  131.0009  151.3310 LP  0  0  0  0  0  0  0  0  0  0  0  0  # atno 17370 bound_to 10713
  157.5272  130.8035  149.7875 LP  0  0  0  0  0  0  0  0  0  0  0  0  # atno 17371 bound_to 10713
  140.8205  133.8357  155.8892 LP  0  0  0  0  0  0  0  0  0  0  0  0  # atno 17394 bound_to 11000
  140.9422  134.1886  157.4789 LP  0  0  0  0  0  0  0  0  0  0  0  0  # atno 17395 bound_to 11000

$$$$
