AV-unprocessed.smi:2874|AV-procd|sdf|11038|dock10
  -GOLD-   2272015503D 1   1.00000     0.00000
 Structure written by MMmdl.
 39 41  0  0  0  0  0  0  0  0  1 V2000
  147.0795  140.0802  153.3564 C   0  0  0  0  0  0  0  0  0  0  0  0
  147.9516  141.0862  153.8397 O   0  0  0  0  0  0  0  0  0  0  0  0
  148.7919  140.6219  154.8841 C   0  0  0  0  0  0  0  0  0  0  0  0
  149.8248  141.7021  155.2346 C   0  0  0  0  0  0  0  0  0  0  0  0
  150.8263  141.2174  156.1736 N   0  0  0  0  0  0  0  0  0  0  0  0
  151.5936  140.1037  156.0718 C   0  0  0  0  0  0  0  0  0  0  0  0
  151.4710  139.0230  154.6777 S   0  0  0  0  0  0  0  0  0  0  0  0
  152.0332  137.4724  155.4423 C   0  0  0  0  0  0  0  0  0  0  0  0
  150.8364  136.6177  155.8088 C   0  0  0  0  0  0  0  0  0  0  0  0
  150.6229  136.4117  157.1130 N   0  0  0  0  0  0  0  0  0  0  0  0
  149.5570  135.6514  157.4440 C   0  0  0  0  0  0  0  0  0  0  0  0
  148.7089  135.0958  156.4648 C   0  0  0  0  0  0  0  0  0  0  0  0
  149.0363  135.3791  155.1234 C   0  0  0  0  0  0  0  0  0  0  0  0
  148.2658  134.8736  154.0797 N   0  0  0  0  0  0  0  0  0  0  0  0
  150.1011  136.1424  154.7976 N   0  0  0  0  0  0  0  0  0  0  0  0
  152.4407  139.8983  157.0823 N   0  0  0  0  0  0  0  0  0  0  0  0
  152.2004  140.9751  157.9120 C   0  0  0  0  0  0  0  0  0  0  0  0
  152.7843  141.3295  159.1488 C   0  0  0  0  0  0  0  0  0  0  0  0
  152.3722  142.4973  159.8240 C   0  0  0  0  0  0  0  0  0  0  0  0
  153.0952  142.9161  161.3333 Cl  0  0  0  0  0  0  0  0  0  0  0  0
  151.3729  143.3251  159.2719 C   0  0  0  0  0  0  0  0  0  0  0  0
  150.7783  142.9894  158.0404 C   0  0  0  0  0  0  0  0  0  0  0  0
  151.1931  141.8222  157.3717 C   0  0  0  0  0  0  0  0  0  0  0  0
  146.4487  140.4910  152.5681 H   0  0  0  0  0  0  0  0  0  0  0  0
  146.4287  139.7076  154.1484 H   0  0  0  0  0  0  0  0  0  0  0  0
  147.6389  139.2425  152.9384 H   0  0  0  0  0  0  0  0  0  0  0  0
  148.1936  140.3850  155.7650 H   0  0  0  0  0  0  0  0  0  0  0  0
  149.2980  139.7051  154.5777 H   0  0  0  0  0  0  0  0  0  0  0  0
  150.3302  142.0417  154.3300 H   0  0  0  0  0  0  0  0  0  0  0  0
  149.3322  142.5799  155.6529 H   0  0  0  0  0  0  0  0  0  0  0  0
  152.6884  136.9357  154.7546 H   0  0  0  0  0  0  0  0  0  0  0  0
  152.6103  137.6933  156.3413 H   0  0  0  0  0  0  0  0  0  0  0  0
  149.3810  135.4832  158.4959 H   0  0  0  0  0  0  0  0  0  0  0  0
  147.8586  134.4865  156.7330 H   0  0  0  0  0  0  0  0  0  0  0  0
  147.4571  134.2943  154.2521 H   0  0  0  0  0  0  0  0  0  0  0  0
  148.4998  135.0616  153.1155 H   0  0  0  0  0  0  0  0  0  0  0  0
  153.5514  140.7020  159.5777 H   0  0  0  0  0  0  0  0  0  0  0  0
  151.0626  144.2191  159.7927 H   0  0  0  0  0  0  0  0  0  0  0  0
  150.0147  143.6227  157.6137 H   0  0  0  0  0  0  0  0  0  0  0  0
  1  2  1  0  0  0  0
  1 24  1  0  0  0  0
  1 25  1  0  0  0  0
  1 26  1  0  0  0  0
  2  3  1  0  0  0  0
  3  4  1  0  0  0  0
  3 27  1  0  0  0  0
  3 28  1  0  0  0  0
  4  5  1  0  0  0  0
  4 29  1  0  0  0  0
  4 30  1  0  0  0  0
  5 23  1  0  0  0  0
  5  6  1  0  0  0  0
  6  7  1  0  0  0  0
  6 16  2  0  0  0  0
  7  8  1  0  0  0  0
  8  9  1  0  0  0  0
  8 31  1  0  0  0  0
  8 32  1  0  0  0  0
  9 15  1  0  0  0  0
  9 10  2  0  0  0  0
 10 11  1  0  0  0  0
 11 12  2  0  0  0  0
 11 33  1  0  0  0  0
 12 13  1  0  0  0  0
 12 34  1  0  0  0  0
 13 14  1  0  0  0  0
 13 15  2  0  0  0  0
 14 35  1  0  0  0  0
 14 36  1  0  0  0  0
 16 17  1  0  0  0  0
 17 23  2  0  0  0  0
 17 18  1  0  0  0  0
 18 19  2  0  0  0  0
 18 37  1  0  0  0  0
 19 20  1  0  0  0  0
 19 21  1  0  0  0  0
 21 22  2  0  0  0  0
 21 38  1  0  0  0  0
 22 23  1  0  0  0  0
 22 39  1  0  0  0  0
M  END
> <s_m_source_file>
AV-unprocessed.smi

> <i_m_source_file_index>
2874

> <i_lp_mmshare_version>
43012

> <i_f3d_flags>
0

> <s_epik_input>
W2NIXTFjKENsKVtjSF1bY0hdYyhjMTIpbihbQ0gyXVtDSDJdT1tDSDNdKWMobjIpU1tDSDJdYzNuW2NIXVtjSF1jKG4zKVtOSDJd

> <s_epik_cmdline>
J2VwaWtfcHl0aG9uJywgJy1waCcsICc3LjAnLCAnLXRuJywgJzgnLCAnLW1hJywgJzIwMCcsICctbWV0YWxfYmluZGluZycsICctaW1hZScsICc8aW5maWxlLm1hZT4nLCAnLW9tYWUnLCAnPG91dGZpbGUubWFlPic=

> <r_lp_tautomer_probability>
1

> <r_epik_Ionization_Penalty>
0.0126717

> <r_epik_Ionization_Penalty_Charging>
0

> <r_epik_Ionization_Penalty_Neutral>
0.0126717

> <r_epik_State_Penalty>
0.00687269

> <r_epik_Charging_Adjusted_Penalty>
0.00687269

> <i_epik_Tot_Q>
0

> <i_epik_Tot_abs_Q>
0

> <r_epik_Metal_State_Penalty>
0.00678378

> <b_epik_Metal_Only>
0

> <s_lp_Force_Field>
OPLS_2005

> <r_lp_Energy>
1.60018

> <b_lp_Chiralities_Consistent>
1

> <s_lp_Variant>
AV-unprocessed.smi:2874-1

> <Gold.Version>
5.8.1

> <Gold.Id.Protein>
6NUR|6NUR_protein|mol2

> <Gold.PLP.Fitness>
43.7522

> <Gold.PLP.PLP>
-39.2496

> <Gold.PLP.part.hbond>
-2.0000

> <Gold.PLP.part.metal>
0.0000

> <Gold.PLP.part.buried>
-3.3611

> <Gold.PLP.part.nonpolar>
-33.4468

> <Gold.PLP.part.repulsive>
0.3372

> <Gold.PLP.ligand.clash>
0.0000

> <Gold.PLP.ligand.torsion>
0.7568

> <Gold.PLP.Chemscore.Hbond>
2.0000

> <Gold.PLP.Chemscore.CHOScore>
0.0000

> <Gold.PLP.Chemscore.Metal>
0.0000

> <Gold.Chemscore.Hbonds>
donor molecule, donor type, donor heavy atom, donor atom, acceptor molecule, acceptor atom, score
      L1  H    14    36       P1  7948  1.00
      P1  H  7997  8009       L1    16  1.00

> <Gold.PLP.Chemscore.Internal.Correction>
0.0163

> <Gold.Rescore>
     Score         DG    S(hbond)    S(metal)    S(lipo)     H(rot)  DE(clash)    DE(int)     intcor
     16.08     -17.15       1.60        0.00     107.37       2.44       0.38       0.69       ----

> <Gold.Chemscore.Fitness>
16.0810

> <Gold.Chemscore.DG>
-17.1451

> <Gold.Chemscore.ZeroCoef>
-5.4800

> <Gold.Chemscore.Hbond>
1.6037

> <Gold.Chemscore.Metal>
0.0000

> <Gold.Chemscore.Lipo>
107.3657

> <Gold.Chemscore.Internal_Hbond>
0.0000

> <Gold.Chemscore.DEClash>
0.3783

> <Gold.Chemscore.DEInternal>
0.6858

> <Gold.Chemscore.Rot>
2.4426

> <Gold.Chemscore.Internal.Correction>
   9.000000E+99

> <Gold.Chemscore.Hbonds>
donor molecule, donor type, donor heavy atom, donor atom, acceptor molecule, acceptor atom, score
      L1  H    14    36       P1  7948  0.74
      P1  H  7997  8009       L1    16  0.38

> <Gold.Chemscore.Hbond.Weighted>
-5.3564

> <Gold.Chemscore.Metal.Weighted>
-0.0000

> <Gold.Chemscore.Lipo.Weighted>
-12.5618

> <Gold.Chemscore.Internal_Hbond.Weighted>
0.0000

> <Gold.Chemscore.DEClash.Weighted>
0.3783

> <Gold.Chemscore.DEInternal.Weighted>
0.6858

> <Gold.Chemscore.Rot.Weighted>
6.2531

> <Gold.Chemscore.Internal.Correction.Weighted>
   9.000000E+99

> <Gold.Protein.RotatedTorsions>
[ 6907 6896 6895 6894 ] final  -27.08 input  -60.11 | X-H torsion
[ 7974 7965 7964 7962 ] final   88.41 input  175.53 | X-H torsion
[ 8008 7997 7996 7995 ] final -177.20 input   59.86 | X-H torsion
[ 10167 10162 10161 10158 ] final -137.27 input  -65.29 | X-H torsion
[ 10718 10713 10712 10709 ] final   90.08 input   66.30 | X-H torsion
[ 10763 10752 10751 10750 ] final   45.91 input  -60.55 | X-H torsion
[ 11005 11000 10999 10996 ] final  142.29 input  -57.11 | X-H torsion

> <Gold.Protein.ActiveResidues>
 VAL166  LYS551  ARG553  GLY616  TRP617  ASP618  TYR619  PRO620  LYS621  CYS622 
 ASP623  PHE694  ASN695  SER759  ASP760  ASP761  ALA762  ILE779  LEU786  VAL792 
 PHE793  MET794  SER795  GLU796  ALA797  LYS798  CYS799  TRP800  GLU811  SER814 

> <Gold.Protein.RotatedAtoms>
  151.1520  135.0232  159.8672 H   0  0  0  0  0  0  0  0  0  0  0  0  # atno 6907 bound_to 6896
  152.5452  134.1378  159.8476 H   0  0  0  0  0  0  0  0  0  0  0  0  # atno 6908 bound_to 6896
  151.1464  133.4891  159.2628 H   0  0  0  0  0  0  0  0  0  0  0  0  # atno 6909 bound_to 6896
  145.5460  139.2292  143.2539 H   0  0  0  0  0  0  0  0  0  0  0  0  # atno 7974 bound_to 7965
  156.0041  140.1227  157.0518 H   0  0  0  0  0  0  0  0  0  0  0  0  # atno 8008 bound_to 7997
  154.4252  140.1101  156.5807 H   0  0  0  0  0  0  0  0  0  0  0  0  # atno 8009 bound_to 7997
  155.6171  140.3472  155.4642 H   0  0  0  0  0  0  0  0  0  0  0  0  # atno 8010 bound_to 7997
  139.8594  143.7096  152.2651 H   0  0  0  0  0  0  0  0  0  0  0  0  # atno 10167 bound_to 10162
  157.6958  131.0357  150.3523 H   0  0  0  0  0  0  0  0  0  0  0  0  # atno 10718 bound_to 10713
  152.9818  135.6024  154.3514 H   0  0  0  0  0  0  0  0  0  0  0  0  # atno 10763 bound_to 10752
  154.3203  135.2770  155.2524 H   0  0  0  0  0  0  0  0  0  0  0  0  # atno 10764 bound_to 10752
  154.4694  135.5945  153.6367 H   0  0  0  0  0  0  0  0  0  0  0  0  # atno 10765 bound_to 10752
  140.0466  134.9277  157.0941 H   0  0  0  0  0  0  0  0  0  0  0  0  # atno 11005 bound_to 11000
  146.1949  140.6281  142.9129 LP  0  0  0  0  0  0  0  0  0  0  0  0  # atno 17320 bound_to 7965
  144.7553  140.5292  143.6773 LP  0  0  0  0  0  0  0  0  0  0  0  0  # atno 17321 bound_to 7965
  139.7388  144.7564  151.0685 LP  0  0  0  0  0  0  0  0  0  0  0  0  # atno 17342 bound_to 10162
  140.7777  143.4997  150.9787 LP  0  0  0  0  0  0  0  0  0  0  0  0  # atno 17343 bound_to 10162
  156.3970  130.3908  149.6988 LP  0  0  0  0  0  0  0  0  0  0  0  0  # atno 17370 bound_to 10713
  156.4318  130.7819  151.2839 LP  0  0  0  0  0  0  0  0  0  0  0  0  # atno 17371 bound_to 10713
  140.3984  134.2109  155.7164 LP  0  0  0  0  0  0  0  0  0  0  0  0  # atno 17394 bound_to 11000
  141.1910  133.8205  157.0897 LP  0  0  0  0  0  0  0  0  0  0  0  0  # atno 17395 bound_to 11000

$$$$
