#       Name:                AV-unprocessed.smi:2836
#       Creating user name   scv26
#       Creation time:       Fri Mar 27 15:36:48 2020


#       File generated by GOLD software.
#

@<TRIPOS>MOLECULE
AV-unprocessed.smi:2836
    35    36     1
SMALL
NO_CHARGES


@<TRIPOS>ATOM
      1 ****        -3.4326   2.7099   2.8394 N.am           1 S1                 0.0000
      2 ****        -3.0695   2.9198   1.5709 C.2            1 S1                 0.0000
      3 ****        -3.0730   4.0337   1.0518 O.2            1 S1                 0.0000
      4 ****        -2.7089   1.6987   0.7839 C.2            1 S1                 0.0000
      5 ****        -2.6724   1.5900  -0.6311 C.2            1 S1                 0.0000
      6 ****        -2.2841   0.3785  -1.0013 N.2            1 S1                 0.0000
      7 ****        -2.0509  -0.2885   0.1580 N.pl3          1 S1                 0.0000
      8 ****        -1.5841  -1.6619   0.1155 C.3            1 S1                 0.0000
      9 ****        -0.0522  -1.7514   0.1659 C.3            1 S1                 0.0000
     10 ****         0.4955  -1.0243  -0.9255 O.3            1 S1                 0.0000
     11 ****         1.8664  -0.9413  -1.0435 C.ar           1 S1                 0.0000
     12 ****         2.7759  -1.6029  -0.1796 C.ar           1 S1                 0.0000
     13 ****         4.1651  -1.4709  -0.3693 C.ar           1 S1                 0.0000
     14 ****         4.6627  -0.6789  -1.4199 C.ar           1 S1                 0.0000
     15 ****         5.9986  -0.5537  -1.6013 F              1 S1                 0.0000
     16 ****         3.7690  -0.0174  -2.2817 C.ar           1 S1                 0.0000
     17 ****         2.3790  -0.1481  -2.0944 C.ar           1 S1                 0.0000
     18 ****         1.3020   0.6767  -3.1641 Cl             1 S1                 0.0000
     19 ****        -2.2938   0.4937   1.2700 C.2            1 S1                 0.0000
     20 ****        -3.6922   3.4932   3.4211 H              1 S1                 0.0000
     21 ****        -3.4512   1.7715   3.2110 H              1 S1                 0.0000
     22 ****        -2.9102   2.3282  -1.3829 H              1 S1                 0.0000
     23 ****        -2.0205  -2.2018   0.9565 H              1 S1                 0.0000
     24 ****        -1.9602  -2.1361  -0.7924 H              1 S1                 0.0000
     25 ****         0.3073  -1.3408   1.1110 H              1 S1                 0.0000
     26 ****         0.2515  -2.7979   0.1143 H              1 S1                 0.0000
     27 ****         2.4330  -2.2209   0.6359 H              1 S1                 0.0000
     28 ****         4.8501  -1.9799   0.2927 H              1 S1                 0.0000
     29 ****         4.1509   0.5911  -3.0883 H              1 S1                 0.0000
     30 ****        -2.1504   0.1326   2.2778 H              1 S1                 0.0000
     31 ****        -3.3563   4.8320   1.5832 LP             1 S1                 0.0000
     32 ****        -2.7926   4.1417   0.0980 LP             1 S1                 0.0000
     33 ****        -2.1844   0.0305  -1.9335 LP             1 S1                 0.0000
     34 ****         0.1484  -0.0888  -0.8598 LP             1 S1                 0.0000
     35 ****         0.1530  -1.4488  -1.7636 LP             1 S1                 0.0000
@<TRIPOS>BOND
    1    1    2 am    
    2    1   20 1     
    3    1   21 1     
    4    2    3 2     
    5    2    4 1     
    6    4   19 2     
    7    4    5 1     
    8    5    6 2     
    9    5   22 1     
   10    6    7 1     
   11    7    8 1     
   12    7   19 1     
   13    8    9 1     
   14    8   23 1     
   15    8   24 1     
   16    9   10 1     
   17    9   25 1     
   18    9   26 1     
   19   10   11 1     
   20   11   17 ar    
   21   11   12 ar    
   22   12   13 ar    
   23   12   27 1     
   24   13   14 ar    
   25   13   28 1     
   26   14   15 1     
   27   14   16 ar    
   28   16   17 ar    
   29   16   29 1     
   30   17   18 1     
   31   19   30 1     
   32    3   31 1     
   33    3   32 1     
   34    6   33 1     
   35   10   34 1     
   36   10   35 1     
@<TRIPOS>SUBSTRUCTURE
      1 S1             1
@<TRIPOS>SET
LONE_PAIRS      STATIC     ATOMS    <user>   **** ""
5 31 32 33 34 35
DONOR_HYDROGENS      STATIC     ATOMS    <user>   **** ""
2 20 21
ATOM$BLUE        STATIC     ATOMS    COLORGROUP SYSTEM
5 31 32 33 34 35
ATOM$RED        STATIC     ATOMS    COLORGROUP SYSTEM
2 20 21
