AV-unprocessed.smi:103|AV-procd|sdf|985|dock7
  -GOLD-   2262017553D 1   1.00000     0.00000
 Structure written by MMmdl.
 53 55  0  0  0  0  0  0  0  0  1 V2000
  154.1119  141.0508  160.8312 C   0  0  0  0  0  0  0  0  0  0  0  0
  154.1722  139.8048  159.9572 C   0  0  0  0  0  0  0  0  0  0  0  0
  155.1725  139.5349  159.2921 O   0  0  0  0  0  0  0  0  0  0  0  0
  153.0376  139.0841  160.0142 O   0  0  0  0  0  0  0  0  0  0  0  0
  152.8735  137.9311  159.1989 C   0  0  0  0  0  0  0  0  0  0  0  0
  151.3975  137.4945  159.1541 C   0  0  2  0  0  0  0  0  0  0  0  0
  151.1842  136.5501  158.1135 O   0  0  0  0  0  0  0  0  0  0  0  0
  149.8464  136.5650  157.7414 C   0  0  1  0  0  0  0  0  0  0  0  0
  149.1018  135.5414  158.5766 N   0  0  0  0  0  0  0  0  0  0  0  0
  148.8715  134.2143  158.2595 C   0  0  0  0  0  0  0  0  0  0  0  0
  149.3361  133.3793  156.7445 S   0  0  0  0  0  0  0  0  0  0  0  0
  151.0998  132.9668  157.0630 C   0  0  0  0  0  0  0  0  0  0  0  0
  148.5488  132.1391  156.6684 O   0  0  0  0  0  0  0  0  0  0  0  0
  149.2603  134.3767  155.6652 O   0  0  0  0  0  0  0  0  0  0  0  0
  148.1613  133.5162  159.1009 N   0  0  0  0  0  0  0  0  0  0  0  0
  147.9545  134.4008  160.1449 C   0  0  0  0  0  0  0  0  0  0  0  0
  147.2941  134.2969  161.3953 C   0  0  0  0  0  0  0  0  0  0  0  0
  146.6840  133.1773  161.8088 N   0  0  0  0  0  0  0  0  0  0  0  0
  147.2801  135.3743  162.2123 N   0  0  0  0  0  0  0  0  0  0  0  0
  147.8848  136.4992  161.8229 C   0  0  0  0  0  0  0  0  0  0  0  0
  148.5356  136.7434  160.6836 N   0  0  0  0  0  0  0  0  0  0  0  0
  148.5525  135.6614  159.8489 C   0  0  0  0  0  0  0  0  0  0  0  0
  149.3844  138.0260  157.8779 C   0  0  1  0  0  0  0  0  0  0  0  0
  148.0342  138.1693  158.3024 O   0  0  0  0  0  0  0  0  0  0  0  0
  147.0385  137.6099  157.5958 C   0  0  0  0  0  0  0  0  0  0  0  0
  145.6688  137.9045  158.1913 C   0  0  0  0  0  0  0  0  0  0  0  0
  147.1670  136.9168  156.5866 O   0  0  0  0  0  0  0  0  0  0  0  0
  150.3797  138.6232  158.8770 C   0  0  2  0  0  0  0  0  0  0  0  0
  150.9979  139.7736  158.3078 O   0  0  0  0  0  0  0  0  0  0  0  0
  150.2546  140.8369  157.9503 C   0  0  0  0  0  0  0  0  0  0  0  0
  151.0960  141.9699  157.3781 C   0  0  0  0  0  0  0  0  0  0  0  0
  149.0309  140.9312  158.0466 O   0  0  0  0  0  0  0  0  0  0  0  0
  153.2421  141.6546  160.5724 H   0  0  0  0  0  0  0  0  0  0  0  0
  155.0068  141.6582  160.6949 H   0  0  0  0  0  0  0  0  0  0  0  0
  154.0411  140.7716  161.8826 H   0  0  0  0  0  0  0  0  0  0  0  0
  153.1944  138.2085  158.1947 H   0  0  0  0  0  0  0  0  0  0  0  0
  153.5211  137.1128  159.5175 H   0  0  0  0  0  0  0  0  0  0  0  0
  151.1500  137.0206  160.1029 H   0  0  0  0  0  0  0  0  0  0  0  0
  149.7245  136.2204  156.7181 H   0  0  0  0  0  0  0  0  0  0  0  0
  151.5174  132.4639  156.1911 H   0  0  0  0  0  0  0  0  0  0  0  0
  151.1758  132.3117  157.9297 H   0  0  0  0  0  0  0  0  0  0  0  0
  151.6569  133.8838  157.2538 H   0  0  0  0  0  0  0  0  0  0  0  0
  146.6826  132.3582  161.2180 H   0  0  0  0  0  0  0  0  0  0  0  0
  146.2316  133.1528  162.7111 H   0  0  0  0  0  0  0  0  0  0  0  0
  147.8388  137.3219  162.5211 H   0  0  0  0  0  0  0  0  0  0  0  0
  149.5296  138.5049  156.9076 H   0  0  0  0  0  0  0  0  0  0  0  0
  145.6135  138.9400  158.5284 H   0  0  0  0  0  0  0  0  0  0  0  0
  145.4811  137.2515  159.0438 H   0  0  0  0  0  0  0  0  0  0  0  0
  144.8865  137.7412  157.4497 H   0  0  0  0  0  0  0  0  0  0  0  0
  149.8924  138.8936  159.8150 H   0  0  0  0  0  0  0  0  0  0  0  0
  152.0535  142.0361  157.8952 H   0  0  0  0  0  0  0  0  0  0  0  0
  150.5782  142.9228  157.4896 H   0  0  0  0  0  0  0  0  0  0  0  0
  151.2845  141.8008  156.3180 H   0  0  0  0  0  0  0  0  0  0  0  0
  1  2  1  0  0  0  0
  1 33  1  0  0  0  0
  1 34  1  0  0  0  0
  1 35  1  0  0  0  0
  2  3  2  0  0  0  0
  2  4  1  0  0  0  0
  4  5  1  0  0  0  0
  5  6  1  0  0  0  0
  5 36  1  0  0  0  0
  5 37  1  0  0  0  0
  6 28  1  0  0  0  0
  6  7  1  0  0  0  0
  6 38  1  0  0  0  0
  7  8  1  0  0  0  0
  8  9  1  0  0  0  0
  8 23  1  0  0  0  0
  8 39  1  0  0  0  0
  9 22  1  0  0  0  0
  9 10  1  0  0  0  0
 10 11  1  0  0  0  0
 10 15  2  0  0  0  0
 11 12  1  0  0  0  0
 11 13  2  0  0  0  0
 11 14  2  0  0  0  0
 12 40  1  0  0  0  0
 12 41  1  0  0  0  0
 12 42  1  0  0  0  0
 15 16  1  0  0  0  0
 16 22  2  0  0  0  0
 16 17  1  0  0  0  0
 17 18  1  0  0  0  0
 17 19  2  0  0  0  0
 18 43  1  0  0  0  0
 18 44  1  0  0  0  0
 19 20  1  0  0  0  0
 20 21  2  0  0  0  0
 20 45  1  0  0  0  0
 21 22  1  0  0  0  0
 23 24  1  0  0  0  0
 23 28  1  0  0  0  0
 23 46  1  0  0  0  0
 24 25  1  0  0  0  0
 25 26  1  0  0  0  0
 25 27  2  0  0  0  0
 26 47  1  0  0  0  0
 26 48  1  0  0  0  0
 26 49  1  0  0  0  0
 28 29  1  0  0  0  0
 28 50  1  0  0  0  0
 29 30  1  0  0  0  0
 30 31  1  0  0  0  0
 30 32  2  0  0  0  0
 31 51  1  0  0  0  0
 31 52  1  0  0  0  0
 31 53  1  0  0  0  0
M  END
> <s_m_source_file>
AV-unprocessed.smi

> <i_m_source_file_index>
103

> <i_lp_mmshare_version>
43012

> <i_f3d_flags>
0

> <s_epik_input>
W0NIM11DKD1PKU9bQ0gyXVtDQEBIXTFPW0NASF0oW0NAQEhdKE9DKD1PKVtDSDNdKVtDQEhdMU9DKD1PKVtDSDNdKW4oYyhuMilTKD1PKSg9TylbQ0gzXSljKGMyMyluW2NIXW5jM1tOSDJd

> <s_epik_cmdline>
J2VwaWtfcHl0aG9uJywgJy1waCcsICc3LjAnLCAnLXRuJywgJzgnLCAnLW1hJywgJzIwMCcsICctbWV0YWxfYmluZGluZycsICctaW1hZScsICc8aW5maWxlLm1hZT4nLCAnLW9tYWUnLCAnPG91dGZpbGUubWFlPic=

> <r_lp_tautomer_probability>
1

> <r_epik_Ionization_Penalty>
1.51338e-05

> <r_epik_Ionization_Penalty_Charging>
0

> <r_epik_Ionization_Penalty_Neutral>
1.51338e-05

> <r_epik_State_Penalty>
-0

> <r_epik_Charging_Adjusted_Penalty>
0

> <i_epik_Tot_Q>
0

> <i_epik_Tot_abs_Q>
0

> <r_epik_Metal_State_Penalty>
-0

> <b_epik_Metal_Only>
0

> <s_epik_Chemistry_Notes>
This compound has an ester and may undergo hydrolysis at high or low pH. This compound contains an acetal/aminal-like group ( X-CH(R)-Y where X, Y are N, S, or O) that may be acid/base labile, releasing an aldehyde.

> <s_lp_Force_Field>
OPLS_2005

> <r_lp_Energy>
17.8584

> <b_lp_Chiralities_Consistent>
1

> <s_lp_Variant>
AV-unprocessed.smi:103-9

> <Gold.Version>
5.8.1

> <Gold.Id.Protein>
6NUR|6NUR_protein|mol2

> <Gold.PLP.Fitness>
33.2842

> <Gold.PLP.PLP>
-31.7965

> <Gold.PLP.part.hbond>
-3.6910

> <Gold.PLP.part.metal>
0.0000

> <Gold.PLP.part.buried>
-4.9470

> <Gold.PLP.part.nonpolar>
-23.4041

> <Gold.PLP.part.repulsive>
0.1336

> <Gold.PLP.ligand.clash>
0.0000

> <Gold.PLP.ligand.torsion>
1.9090

> <Gold.PLP.Chemscore.Hbond>
1.0000

> <Gold.PLP.Chemscore.CHOScore>
0.0000

> <Gold.PLP.Chemscore.Metal>
0.0000

> <Gold.Chemscore.Hbonds>
donor molecule, donor type, donor heavy atom, donor atom, acceptor molecule, acceptor atom, score
      P1  H  7997  8009       L1     3  1.00

> <Gold.PLP.Chemscore.Internal.Correction>
2.3058

> <Gold.Rescore>
     Score         DG    S(hbond)    S(metal)    S(lipo)     H(rot)  DE(clash)    DE(int)     intcor
      0.73      -2.44       1.00        0.00      38.39       4.25       0.00       1.71       ----

> <Gold.Chemscore.Fitness>
0.7322

> <Gold.Chemscore.DG>
-2.4421

> <Gold.Chemscore.ZeroCoef>
-5.4800

> <Gold.Chemscore.Hbond>
0.9999

> <Gold.Chemscore.Metal>
0.0000

> <Gold.Chemscore.Lipo>
38.3864

> <Gold.Chemscore.Internal_Hbond>
0.0000

> <Gold.Chemscore.DEClash>
0.0015

> <Gold.Chemscore.DEInternal>
1.7084

> <Gold.Chemscore.Rot>
4.2456

> <Gold.Chemscore.Internal.Correction>
   9.000000E+99

> <Gold.Chemscore.Hbonds>
donor molecule, donor type, donor heavy atom, donor atom, acceptor molecule, acceptor atom, score
      P1  H  7997  8009       L1     3  0.95

> <Gold.Chemscore.Hbond.Weighted>
-3.3395

> <Gold.Chemscore.Metal.Weighted>
-0.0000

> <Gold.Chemscore.Lipo.Weighted>
-4.4912

> <Gold.Chemscore.Internal_Hbond.Weighted>
0.0000

> <Gold.Chemscore.DEClash.Weighted>
0.0015

> <Gold.Chemscore.DEInternal.Weighted>
1.7084

> <Gold.Chemscore.Rot.Weighted>
10.8687

> <Gold.Chemscore.Internal.Correction.Weighted>
   9.000000E+99

> <Gold.Protein.RotatedTorsions>
[ 6907 6896 6895 6894 ] final  135.61 input  -60.11 | X-H torsion
[ 7974 7965 7964 7962 ] final  176.65 input  175.53 | X-H torsion
[ 8008 7997 7996 7995 ] final  113.36 input   59.86 | X-H torsion
[ 10167 10162 10161 10158 ] final  144.36 input  -65.29 | X-H torsion
[ 10718 10713 10712 10709 ] final  108.50 input   66.30 | X-H torsion
[ 10763 10752 10751 10750 ] final  108.75 input  -60.55 | X-H torsion
[ 11005 11000 10999 10996 ] final  130.59 input  -57.11 | X-H torsion

> <Gold.Protein.ActiveResidues>
 VAL166  LYS551  ARG553  GLY616  TRP617  ASP618  TYR619  PRO620  LYS621  CYS622 
 ASP623  PHE694  ASN695  SER759  ASP760  ASP761  ALA762  ILE779  LEU786  VAL792 
 PHE793  MET794  SER795  GLU796  ALA797  LYS798  CYS799  TRP800  GLU811  SER814 

> <Gold.Protein.RotatedAtoms>
  152.2985  133.5631  159.5602 H   0  0  0  0  0  0  0  0  0  0  0  0  # atno 6907 bound_to 6896
  150.7267  134.0326  159.3747 H   0  0  0  0  0  0  0  0  0  0  0  0  # atno 6908 bound_to 6896
  151.8228  135.0647  160.0478 H   0  0  0  0  0  0  0  0  0  0  0  0  # atno 6909 bound_to 6896
  144.7181  140.0129  143.6440 H   0  0  0  0  0  0  0  0  0  0  0  0  # atno 7974 bound_to 7965
  156.2253  140.2981  156.0052 H   0  0  0  0  0  0  0  0  0  0  0  0  # atno 8008 bound_to 7997
  155.2373  140.0421  157.2987 H   0  0  0  0  0  0  0  0  0  0  0  0  # atno 8009 bound_to 7997
  154.5905  140.2400  155.7934 H   0  0  0  0  0  0  0  0  0  0  0  0  # atno 8010 bound_to 7997
  139.4948  144.5977  151.6548 H   0  0  0  0  0  0  0  0  0  0  0  0  # atno 10167 bound_to 10162
  157.6583  131.0895  150.6315 H   0  0  0  0  0  0  0  0  0  0  0  0  # atno 10718 bound_to 10713
  153.4250  135.3802  155.2135 H   0  0  0  0  0  0  0  0  0  0  0  0  # atno 10763 bound_to 10752
  154.8747  135.3826  154.4337 H   0  0  0  0  0  0  0  0  0  0  0  0  # atno 10764 bound_to 10752
  153.4862  135.7088  153.5972 H   0  0  0  0  0  0  0  0  0  0  0  0  # atno 10765 bound_to 10752
  139.9681  134.9585  156.9316 H   0  0  0  0  0  0  0  0  0  0  0  0  # atno 11005 bound_to 11000
  146.0243  139.3279  143.0793 LP  0  0  0  0  0  0  0  0  0  0  0  0  # atno 17320 bound_to 7965
  145.8530  140.9518  143.0740 LP  0  0  0  0  0  0  0  0  0  0  0  0  # atno 17321 bound_to 7965
  140.5619  144.0255  150.6174 LP  0  0  0  0  0  0  0  0  0  0  0  0  # atno 17342 bound_to 10162
  140.3343  143.3058  152.0654 LP  0  0  0  0  0  0  0  0  0  0  0  0  # atno 17343 bound_to 10162
  156.6620  130.4515  149.5684 LP  0  0  0  0  0  0  0  0  0  0  0  0  # atno 17370 bound_to 10713
  156.2060  130.6649  151.1219 LP  0  0  0  0  0  0  0  0  0  0  0  0  # atno 17371 bound_to 10713
  140.5353  134.0773  155.7326 LP  0  0  0  0  0  0  0  0  0  0  0  0  # atno 17394 bound_to 11000
  141.1361  133.9220  157.2431 LP  0  0  0  0  0  0  0  0  0  0  0  0  # atno 17395 bound_to 11000

$$$$
