AV-unprocessed.smi:584|AV-procd|sdf|2999|dock6
  -GOLD-   2262023503D 1   1.00000     0.00000
 Structure written by MMmdl.
 41 42  0  0  0  0  0  0  0  0  1 V2000
  149.0056  140.1714  156.3578 O   0  0  0  0  0  0  0  0  0  0  0  0
  149.2458  141.3206  155.9845 C   0  0  0  0  0  0  0  0  0  0  0  0
  150.6883  141.8361  155.8804 C   0  0  0  0  0  0  0  0  0  0  0  0
  151.3749  141.9212  157.1802 N   0  0  0  0  0  0  0  0  0  0  0  0
  151.1657  143.0928  157.9336 C   0  0  0  0  0  0  0  0  0  0  0  0
  151.7507  143.3120  159.1265 C   0  0  0  0  0  0  0  0  0  0  0  0
  151.4685  144.5684  159.9354 C   0  0  0  0  0  0  0  0  0  0  0  0
  151.8439  145.6623  159.2724 F   0  0  0  0  0  0  0  0  0  0  0  0
  150.1633  144.6612  160.1855 F   0  0  0  0  0  0  0  0  0  0  0  0
  152.1136  144.5435  161.1024 F   0  0  0  0  0  0  0  0  0  0  0  0
  152.5991  142.2512  159.6330 C   0  0  0  0  0  0  0  0  0  0  0  0
  152.8074  141.1227  158.9266 C   0  0  0  0  0  0  0  0  0  0  0  0
  152.1855  140.9115  157.6173 C   0  0  0  0  0  0  0  0  0  0  0  0
  152.3814  139.8915  156.9560 O   0  0  0  0  0  0  0  0  0  0  0  0
  148.2897  142.1950  155.6352 N   0  0  0  0  0  0  0  0  0  0  0  0
  146.8541  141.9278  155.6315 C   0  0  0  0  0  0  0  0  0  0  0  0
  146.0194  143.1940  155.3428 C   0  0  0  0  0  0  0  0  0  0  0  0
  144.7016  143.1672  156.1450 C   0  0  0  0  0  0  0  0  0  0  0  0
  143.8490  144.4207  155.8905 C   0  0  0  0  0  0  0  0  0  0  0  0
  143.5614  144.6042  154.3934 C   0  0  0  0  0  0  0  0  0  0  0  0
  144.8663  144.6458  153.5855 C   0  0  0  0  0  0  0  0  0  0  0  0
  145.7210  143.3932  153.8386 C   0  0  0  0  0  0  0  0  0  0  0  0
  151.2454  141.1781  155.2113 H   0  0  0  0  0  0  0  0  0  0  0  0
  150.6776  142.8059  155.3798 H   0  0  0  0  0  0  0  0  0  0  0  0
  150.5011  143.8093  157.4725 H   0  0  0  0  0  0  0  0  0  0  0  0
  153.0816  142.3656  160.5924 H   0  0  0  0  0  0  0  0  0  0  0  0
  153.4497  140.3550  159.3325 H   0  0  0  0  0  0  0  0  0  0  0  0
  148.5786  143.1168  155.3414 H   0  0  0  0  0  0  0  0  0  0  0  0
  146.6029  141.1365  154.9233 H   0  0  0  0  0  0  0  0  0  0  0  0
  146.5972  141.5397  156.6174 H   0  0  0  0  0  0  0  0  0  0  0  0
  146.5955  144.0554  155.6845 H   0  0  0  0  0  0  0  0  0  0  0  0
  144.1270  142.2782  155.8808 H   0  0  0  0  0  0  0  0  0  0  0  0
  144.9160  143.0877  157.2112 H   0  0  0  0  0  0  0  0  0  0  0  0
  142.9117  144.3509  156.4432 H   0  0  0  0  0  0  0  0  0  0  0  0
  144.3692  145.2998  156.2730 H   0  0  0  0  0  0  0  0  0  0  0  0
  142.9353  143.7853  154.0367 H   0  0  0  0  0  0  0  0  0  0  0  0
  142.9940  145.5214  154.2324 H   0  0  0  0  0  0  0  0  0  0  0  0
  144.6424  144.7347  152.5220 H   0  0  0  0  0  0  0  0  0  0  0  0
  145.4351  145.5363  153.8563 H   0  0  0  0  0  0  0  0  0  0  0  0
  146.6485  143.4851  153.2737 H   0  0  0  0  0  0  0  0  0  0  0  0
  145.2071  142.5152  153.4451 H   0  0  0  0  0  0  0  0  0  0  0  0
  1  2  2  0  0  0  0
  2  3  1  0  0  0  0
  2 15  1  0  0  0  0
  3  4  1  0  0  0  0
  3 23  1  0  0  0  0
  3 24  1  0  0  0  0
  4 13  1  0  0  0  0
  4  5  1  0  0  0  0
  5  6  2  0  0  0  0
  5 25  1  0  0  0  0
  6  7  1  0  0  0  0
  6 11  1  0  0  0  0
  7  8  1  0  0  0  0
  7  9  1  0  0  0  0
  7 10  1  0  0  0  0
 11 12  2  0  0  0  0
 11 26  1  0  0  0  0
 12 13  1  0  0  0  0
 12 27  1  0  0  0  0
 13 14  2  0  0  0  0
 15 16  1  0  0  0  0
 15 28  1  0  0  0  0
 16 17  1  0  0  0  0
 16 29  1  0  0  0  0
 16 30  1  0  0  0  0
 17 22  1  0  0  0  0
 17 18  1  0  0  0  0
 17 31  1  0  0  0  0
 18 19  1  0  0  0  0
 18 32  1  0  0  0  0
 18 33  1  0  0  0  0
 19 20  1  0  0  0  0
 19 34  1  0  0  0  0
 19 35  1  0  0  0  0
 20 21  1  0  0  0  0
 20 36  1  0  0  0  0
 20 37  1  0  0  0  0
 21 22  1  0  0  0  0
 21 38  1  0  0  0  0
 21 39  1  0  0  0  0
 22 40  1  0  0  0  0
 22 41  1  0  0  0  0
M  END
> <s_m_source_file>
AV-unprocessed.smi

> <i_m_source_file_index>
584

> <i_lp_mmshare_version>
43012

> <i_f3d_flags>
0

> <s_epik_input>
W0NIMl0xW0NIMl1bQ0gyXVtDSDJdW0NIMl1bQ0hdMVtDSDJdW05IXUMoPU8pW0NIMl1uMltjSF1jKEMoRikoRilGKVtjSF1bY0hdYzI9Tw==

> <s_epik_cmdline>
J2VwaWtfcHl0aG9uJywgJy1waCcsICc3LjAnLCAnLXRuJywgJzgnLCAnLW1hJywgJzIwMCcsICctbWV0YWxfYmluZGluZycsICctaW1hZScsICc8aW5maWxlLm1hZT4nLCAnLW9tYWUnLCAnPG91dGZpbGUubWFlPic=

> <r_lp_tautomer_probability>
1

> <r_epik_Ionization_Penalty>
3.78989e-08

> <r_epik_Ionization_Penalty_Charging>
1.81011e-08

> <r_epik_Ionization_Penalty_Neutral>
1.97978e-08

> <r_epik_State_Penalty>
-0

> <r_epik_Charging_Adjusted_Penalty>
1.81011e-08

> <i_epik_Tot_Q>
0

> <i_epik_Tot_abs_Q>
0

> <r_epik_Metal_State_Penalty>
-0

> <b_epik_Metal_Only>
0

> <s_lp_Force_Field>
OPLS_2005

> <r_lp_Energy>
22.635

> <b_lp_Chiralities_Consistent>
1

> <s_lp_Variant>
AV-unprocessed.smi:584-1

> <Gold.Version>
5.8.1

> <Gold.Id.Protein>
6NUR|6NUR_protein|mol2

> <Gold.PLP.Fitness>
52.8448

> <Gold.PLP.PLP>
-45.9599

> <Gold.PLP.part.hbond>
-2.0000

> <Gold.PLP.part.metal>
0.0000

> <Gold.PLP.part.buried>
-5.4244

> <Gold.PLP.part.nonpolar>
-36.9553

> <Gold.PLP.part.repulsive>
0.1165

> <Gold.PLP.ligand.clash>
0.0000

> <Gold.PLP.ligand.torsion>
0.8420

> <Gold.PLP.Chemscore.Hbond>
1.9263

> <Gold.PLP.Chemscore.CHOScore>
0.9194

> <Gold.PLP.Chemscore.Metal>
0.0000

> <Gold.Chemscore.Hbonds>
donor molecule, donor type, donor heavy atom, donor atom, acceptor molecule, acceptor atom, score
      L1  H    15    28       P1  8028  1.00
      P1  H  7997  8009       L1    14  0.94
      L1  C     5    25       P1  8028  0.89

> <Gold.PLP.Chemscore.Internal.Correction>
0.0319

> <Gold.Rescore>
     Score         DG    S(hbond)    S(metal)    S(lipo)     H(rot)  DE(clash)    DE(int)     intcor
     16.53     -18.09       1.90        0.00      91.67       1.75       0.76       0.80       ----

> <Gold.Chemscore.Fitness>
16.5306

> <Gold.Chemscore.DG>
-18.0854

> <Gold.Chemscore.ZeroCoef>
-5.4800

> <Gold.Chemscore.Hbond>
1.9010

> <Gold.Chemscore.Metal>
0.0000

> <Gold.Chemscore.Lipo>
91.6717

> <Gold.Chemscore.Internal_Hbond>
0.0000

> <Gold.Chemscore.DEClash>
0.7564

> <Gold.Chemscore.DEInternal>
0.7984

> <Gold.Chemscore.Rot>
1.7459

> <Gold.Chemscore.Internal.Correction>
   9.000000E+99

> <Gold.Chemscore.Hbonds>
donor molecule, donor type, donor heavy atom, donor atom, acceptor molecule, acceptor atom, score
      L1  H    15    28       P1  8028  0.96
      P1  H  7997  8009       L1    14  0.20

> <Gold.Chemscore.Hbond.Weighted>
-6.3495

> <Gold.Chemscore.Metal.Weighted>
-0.0000

> <Gold.Chemscore.Lipo.Weighted>
-10.7256

> <Gold.Chemscore.Internal_Hbond.Weighted>
0.0000

> <Gold.Chemscore.DEClash.Weighted>
0.7564

> <Gold.Chemscore.DEInternal.Weighted>
0.7984

> <Gold.Chemscore.Rot.Weighted>
4.4696

> <Gold.Chemscore.Internal.Correction.Weighted>
   9.000000E+99

> <Gold.Protein.RotatedTorsions>
[ 6907 6896 6895 6894 ] final  -17.51 input  -60.11 | X-H torsion
[ 7974 7965 7964 7962 ] final  170.76 input  175.53 | X-H torsion
[ 8008 7997 7996 7995 ] final  176.92 input   59.86 | X-H torsion
[ 10167 10162 10161 10158 ] final  -71.95 input  -65.29 | X-H torsion
[ 10718 10713 10712 10709 ] final -153.02 input   66.30 | X-H torsion
[ 10763 10752 10751 10750 ] final   73.05 input  -60.55 | X-H torsion
[ 11005 11000 10999 10996 ] final -160.02 input  -57.11 | X-H torsion

> <Gold.Protein.ActiveResidues>
 VAL166  LYS551  ARG553  GLY616  TRP617  ASP618  TYR619  PRO620  LYS621  CYS622 
 ASP623  PHE694  ASN695  SER759  ASP760  ASP761  ALA762  ILE779  LEU786  VAL792 
 PHE793  MET794  SER795  GLU796  ALA797  LYS798  CYS799  TRP800  GLU811  SER814 

> <Gold.Protein.RotatedAtoms>
  151.2922  135.0745  159.9208 H   0  0  0  0  0  0  0  0  0  0  0  0  # atno 6907 bound_to 6896
  152.5314  133.9920  159.7865 H   0  0  0  0  0  0  0  0  0  0  0  0  # atno 6908 bound_to 6896
  151.0192  133.5842  159.2704 H   0  0  0  0  0  0  0  0  0  0  0  0  # atno 6909 bound_to 6896
  144.7314  139.9250  143.6422 H   0  0  0  0  0  0  0  0  0  0  0  0  # atno 7974 bound_to 7965
  156.0713  140.1371  156.9825 H   0  0  0  0  0  0  0  0  0  0  0  0  # atno 8008 bound_to 7997
  154.4533  140.0971  156.6735 H   0  0  0  0  0  0  0  0  0  0  0  0  # atno 8009 bound_to 7997
  155.5223  140.3456  155.4411 H   0  0  0  0  0  0  0  0  0  0  0  0  # atno 8010 bound_to 7997
  140.5232  143.2329  151.7394 H   0  0  0  0  0  0  0  0  0  0  0  0  # atno 10167 bound_to 10162
  156.4802  130.8300  151.2527 H   0  0  0  0  0  0  0  0  0  0  0  0  # atno 10718 bound_to 10713
  153.0497  135.5077  154.7836 H   0  0  0  0  0  0  0  0  0  0  0  0  # atno 10763 bound_to 10752
  154.6708  135.2952  154.9747 H   0  0  0  0  0  0  0  0  0  0  0  0  # atno 10764 bound_to 10752
  154.0566  135.6696  153.4859 H   0  0  0  0  0  0  0  0  0  0  0  0  # atno 10765 bound_to 10752
  140.6361  134.4600  157.5231 H   0  0  0  0  0  0  0  0  0  0  0  0  # atno 11005 bound_to 11000
  146.0901  139.3890  143.0411 LP  0  0  0  0  0  0  0  0  0  0  0  0  # atno 17320 bound_to 7965
  145.7723  140.9891  143.1143 LP  0  0  0  0  0  0  0  0  0  0  0  0  # atno 17321 bound_to 7965
  139.4930  144.4225  151.9962 LP  0  0  0  0  0  0  0  0  0  0  0  0  # atno 17342 bound_to 10162
  140.3322  144.3302  150.5985 LP  0  0  0  0  0  0  0  0  0  0  0  0  # atno 17343 bound_to 10162
  157.7484  131.0047  150.3087 LP  0  0  0  0  0  0  0  0  0  0  0  0  # atno 17370 bound_to 10713
  156.3529  130.3834  149.7314 LP  0  0  0  0  0  0  0  0  0  0  0  0  # atno 17371 bound_to 10713
  139.9097  134.8371  156.1572 LP  0  0  0  0  0  0  0  0  0  0  0  0  # atno 17394 bound_to 11000
  141.0640  133.6828  156.2008 LP  0  0  0  0  0  0  0  0  0  0  0  0  # atno 17395 bound_to 11000

$$$$
