AV-unprocessed.smi:1922|AV-procd|sdf|7788|dock9
  -GOLD-   22720 9533D 1   1.00000     0.00000
 Structure written by MMmdl.
 35 36  0  0  0  0  0  0  0  0  1 V2000
  151.5008  141.6032  156.8726 O   0  0  0  0  0  0  0  0  0  0  0  0
  150.4766  142.1947  157.2115 C   0  0  0  0  0  0  0  0  0  0  0  0
  149.1348  141.4407  157.2050 C   0  0  0  0  0  0  0  0  0  0  0  0
  148.5604  141.2144  155.8680 N   0  0  0  0  0  0  0  0  0  0  0  0
  147.2399  141.6195  155.7429 N   0  0  0  0  0  0  0  0  0  0  0  0
  146.6175  141.4542  154.6249 C   0  0  0  0  0  0  0  0  0  0  0  0
  145.3099  141.8663  154.5456 O   0  0  0  0  0  0  0  0  0  0  0  0
  147.2735  140.8518  153.4850 C   0  0  0  0  0  0  0  0  0  0  0  0
  148.5606  140.4630  153.6154 C   0  0  0  0  0  0  0  0  0  0  0  0
  149.2952  140.6331  154.8701 C   0  0  0  0  0  0  0  0  0  0  0  0
  150.4633  140.2762  155.0202 O   0  0  0  0  0  0  0  0  0  0  0  0
  150.4749  143.4799  157.5979 N   0  0  0  0  0  0  0  0  0  0  0  0
  151.6534  144.3273  157.7001 C   0  0  0  0  0  0  0  0  0  0  0  0
  152.3520  144.1167  159.0535 C   0  0  0  0  0  0  0  0  0  0  0  0
  152.5024  142.6469  159.4482 C   0  0  0  0  0  0  0  0  0  0  0  0
  152.7726  142.6750  160.9558 C   0  0  0  0  0  0  0  0  0  0  0  0
  152.1549  143.9815  161.4786 C   0  0  0  0  0  0  0  0  0  0  0  0
  151.6163  144.7273  160.2515 C   0  0  0  0  0  0  0  0  0  0  0  0
  144.9074  141.3064  153.8998 H   0  0  0  0  0  0  0  0  0  0  0  0
  149.2875  140.4842  157.7081 H   0  0  0  0  0  0  0  0  0  0  0  0
  148.4254  141.9839  157.8319 H   0  0  0  0  0  0  0  0  0  0  0  0
  146.7402  140.7212  152.5549 H   0  0  0  0  0  0  0  0  0  0  0  0
  149.0635  140.0125  152.7722 H   0  0  0  0  0  0  0  0  0  0  0  0
  149.5916  143.8937  157.8587 H   0  0  0  0  0  0  0  0  0  0  0  0
  152.3343  144.0946  156.8797 H   0  0  0  0  0  0  0  0  0  0  0  0
  151.3618  145.3728  157.5901 H   0  0  0  0  0  0  0  0  0  0  0  0
  153.3496  144.5573  159.0070 H   0  0  0  0  0  0  0  0  0  0  0  0
  151.5704  142.1128  159.2564 H   0  0  0  0  0  0  0  0  0  0  0  0
  153.2927  142.1419  158.8921 H   0  0  0  0  0  0  0  0  0  0  0  0
  152.3615  141.7966  161.4542 H   0  0  0  0  0  0  0  0  0  0  0  0
  153.8478  142.6799  161.1395 H   0  0  0  0  0  0  0  0  0  0  0  0
  151.3613  143.7928  162.2026 H   0  0  0  0  0  0  0  0  0  0  0  0
  152.9183  144.5772  161.9809 H   0  0  0  0  0  0  0  0  0  0  0  0
  151.7609  145.8059  160.3261 H   0  0  0  0  0  0  0  0  0  0  0  0
  150.5443  144.5460  160.1591 H   0  0  0  0  0  0  0  0  0  0  0  0
  1  2  2  0  0  0  0
  2  3  1  0  0  0  0
  2 12  1  0  0  0  0
  3 20  1  0  0  0  0
  3 21  1  0  0  0  0
  3  4  1  0  0  0  0
  4  5  1  0  0  0  0
  4 10  1  0  0  0  0
  5  6  2  0  0  0  0
  6  7  1  0  0  0  0
  6  8  1  0  0  0  0
  7 19  1  0  0  0  0
  8 22  1  0  0  0  0
  8  9  2  0  0  0  0
  9 23  1  0  0  0  0
  9 10  1  0  0  0  0
 10 11  2  0  0  0  0
 12 13  1  0  0  0  0
 12 24  1  0  0  0  0
 13 14  1  0  0  0  0
 13 25  1  0  0  0  0
 13 26  1  0  0  0  0
 14 18  1  0  0  0  0
 14 15  1  0  0  0  0
 14 27  1  0  0  0  0
 15 16  1  0  0  0  0
 15 28  1  0  0  0  0
 15 29  1  0  0  0  0
 16 17  1  0  0  0  0
 16 30  1  0  0  0  0
 16 31  1  0  0  0  0
 17 18  1  0  0  0  0
 17 32  1  0  0  0  0
 17 33  1  0  0  0  0
 18 34  1  0  0  0  0
 18 35  1  0  0  0  0
M  END
> <s_m_source_file>
AV-unprocessed.smi

> <i_m_source_file_index>
1922

> <i_lp_mmshare_version>
43012

> <i_f3d_flags>
0

> <s_epik_input>
W0NIMl0xW0NIMl1bQ0gyXVtDSDJdW0NIXTFbQ0gyXVtOSF1DKD1PKVtDSDJdbjJbbkhdYyg9TylbY0hdW2NIXWMyPU8=

> <s_epik_cmdline>
J2VwaWtfcHl0aG9uJywgJy1waCcsICc3LjAnLCAnLXRuJywgJzgnLCAnLW1hJywgJzIwMCcsICctbWV0YWxfYmluZGluZycsICctaW1hZScsICc8aW5maWxlLm1hZT4nLCAnLW9tYWUnLCAnPG91dGZpbGUubWFlPic=

> <r_lp_tautomer_probability>
0.9996

> <r_epik_Ionization_Penalty>
2.12182

> <r_epik_Ionization_Penalty_Charging>
3.68417e-08

> <r_epik_Ionization_Penalty_Neutral>
2.12182

> <r_epik_State_Penalty>
1.69868

> <r_epik_Charging_Adjusted_Penalty>
1.69868

> <i_epik_Tot_Q>
0

> <i_epik_Tot_abs_Q>
0

> <r_epik_Metal_State_Penalty>
1.69868

> <b_epik_Metal_Only>
0

> <s_lp_Force_Field>
OPLS_2005

> <r_lp_Energy>
31.2069

> <b_lp_Chiralities_Consistent>
1

> <s_lp_Variant>
AV-unprocessed.smi:1922-2

> <Gold.Version>
5.8.1

> <Gold.Id.Protein>
6NUR|6NUR_protein|mol2

> <Gold.PLP.Fitness>
45.6502

> <Gold.PLP.PLP>
-40.7007

> <Gold.PLP.part.hbond>
-3.0000

> <Gold.PLP.part.metal>
0.0000

> <Gold.PLP.part.buried>
-1.3100

> <Gold.PLP.part.nonpolar>
-38.1197

> <Gold.PLP.part.repulsive>
0.2207

> <Gold.PLP.ligand.clash>
0.0000

> <Gold.PLP.ligand.torsion>
0.5159

> <Gold.PLP.Chemscore.Hbond>
1.9913

> <Gold.PLP.Chemscore.CHOScore>
0.0000

> <Gold.PLP.Chemscore.Metal>
0.0000

> <Gold.Chemscore.Hbonds>
donor molecule, donor type, donor heavy atom, donor atom, acceptor molecule, acceptor atom, score
      L1  H     7    19       P1 10175  0.99
      P1  H  7989  7998       L1    11  1.00

> <Gold.PLP.Chemscore.Internal.Correction>
0.0076

> <Gold.Rescore>
     Score         DG    S(hbond)    S(metal)    S(lipo)     H(rot)  DE(clash)    DE(int)     intcor
     10.82     -15.86       1.79        0.00      93.51       2.56       1.57       3.47       ----

> <Gold.Chemscore.Fitness>
10.8154

> <Gold.Chemscore.DG>
-15.8561

> <Gold.Chemscore.ZeroCoef>
-5.4800

> <Gold.Chemscore.Hbond>
1.7935

> <Gold.Chemscore.Metal>
0.0000

> <Gold.Chemscore.Lipo>
93.5105

> <Gold.Chemscore.Internal_Hbond>
0.0000

> <Gold.Chemscore.DEClash>
1.5733

> <Gold.Chemscore.DEInternal>
3.4675

> <Gold.Chemscore.Rot>
2.5605

> <Gold.Chemscore.Internal.Correction>
   9.000000E+99

> <Gold.Chemscore.Hbonds>
donor molecule, donor type, donor heavy atom, donor atom, acceptor molecule, acceptor atom, score
      L1  H     7    19       P1 10175  0.41
      P1  H  7989  7998       L1    11  0.77

> <Gold.Chemscore.Hbond.Weighted>
-5.9902

> <Gold.Chemscore.Metal.Weighted>
-0.0000

> <Gold.Chemscore.Lipo.Weighted>
-10.9407

> <Gold.Chemscore.Internal_Hbond.Weighted>
0.0000

> <Gold.Chemscore.DEClash.Weighted>
1.5733

> <Gold.Chemscore.DEInternal.Weighted>
3.4675

> <Gold.Chemscore.Rot.Weighted>
6.5548

> <Gold.Chemscore.Internal.Correction.Weighted>
   9.000000E+99

> <Gold.Protein.RotatedTorsions>
[ 6907 6896 6895 6894 ] final -128.20 input  -60.11 | X-H torsion
[ 7974 7965 7964 7962 ] final   28.67 input  175.53 | X-H torsion
[ 8008 7997 7996 7995 ] final  172.52 input   59.86 | X-H torsion
[ 10167 10162 10161 10158 ] final  140.07 input  -65.29 | X-H torsion
[ 10718 10713 10712 10709 ] final -168.92 input   66.30 | X-H torsion
[ 10763 10752 10751 10750 ] final  179.34 input  -60.55 | X-H torsion
[ 11005 11000 10999 10996 ] final  100.29 input  -57.11 | X-H torsion

> <Gold.Protein.ActiveResidues>
 VAL166  LYS551  ARG553  GLY616  TRP617  ASP618  TYR619  PRO620  LYS621  CYS622 
 ASP623  PHE694  ASN695  SER759  ASP760  ASP761  ALA762  ILE779  LEU786  VAL792 
 PHE793  MET794  SER795  GLU796  ALA797  LYS798  CYS799  TRP800  GLU811  SER814 

> <Gold.Protein.RotatedAtoms>
  150.9153  133.6946  159.2844 H   0  0  0  0  0  0  0  0  0  0  0  0  # atno 6907 bound_to 6896
  151.4419  135.1020  159.9682 H   0  0  0  0  0  0  0  0  0  0  0  0  # atno 6908 bound_to 6896
  152.4951  133.8559  159.7281 H   0  0  0  0  0  0  0  0  0  0  0  0  # atno 6909 bound_to 6896
  146.1716  139.7025  142.8964 H   0  0  0  0  0  0  0  0  0  0  0  0  # atno 7974 bound_to 7965
  156.1166  140.1484  156.9263 H   0  0  0  0  0  0  0  0  0  0  0  0  # atno 8008 bound_to 7997
  154.4805  140.0881  156.7408 H   0  0  0  0  0  0  0  0  0  0  0  0  # atno 8009 bound_to 7997
  155.4502  140.3434  155.4302 H   0  0  0  0  0  0  0  0  0  0  0  0  # atno 8010 bound_to 7997
  139.5060  144.6256  151.5944 H   0  0  0  0  0  0  0  0  0  0  0  0  # atno 10167 bound_to 10162
  156.7039  130.9207  151.3082 H   0  0  0  0  0  0  0  0  0  0  0  0  # atno 10718 bound_to 10713
  154.5194  135.2793  155.1276 H   0  0  0  0  0  0  0  0  0  0  0  0  # atno 10763 bound_to 10752
  154.2839  135.6280  153.5362 H   0  0  0  0  0  0  0  0  0  0  0  0  # atno 10764 bound_to 10752
  152.9934  135.5658  154.5679 H   0  0  0  0  0  0  0  0  0  0  0  0  # atno 10765 bound_to 10752
  139.8771  134.9134  156.4734 H   0  0  0  0  0  0  0  0  0  0  0  0  # atno 11005 bound_to 11000
  145.4325  141.0416  143.2902 LP  0  0  0  0  0  0  0  0  0  0  0  0  # atno 17320 bound_to 7965
  144.8171  139.5857  143.7003 LP  0  0  0  0  0  0  0  0  0  0  0  0  # atno 17321 bound_to 7965
  140.5972  143.9674  150.6362 LP  0  0  0  0  0  0  0  0  0  0  0  0  # atno 17342 bound_to 10162
  140.2874  143.3347  152.1094 LP  0  0  0  0  0  0  0  0  0  0  0  0  # atno 17343 bound_to 10162
  157.6962  130.9284  150.0652 LP  0  0  0  0  0  0  0  0  0  0  0  0  # atno 17370 bound_to 10713
  156.1709  130.3646  149.9167 LP  0  0  0  0  0  0  0  0  0  0  0  0  # atno 17371 bound_to 10713
  140.8779  133.7939  155.9435 LP  0  0  0  0  0  0  0  0  0  0  0  0  # atno 17394 bound_to 11000
  140.8884  134.2525  157.5107 LP  0  0  0  0  0  0  0  0  0  0  0  0  # atno 17395 bound_to 11000

$$$$
