AV-unprocessed.smi:1381|AV-procd|sdf|5614|dock5
  -GOLD-   22720 5223D 1   1.00000     0.00000
 Structure written by MMmdl.
 42 43  0  0  0  0  0  0  0  0  3 V2000
  149.6867  140.9072  153.9572 C   0  0  0  0  0  0  0  0  0  0  0  0
  150.4600  139.6387  154.0758 C   0  0  0  0  0  0  0  0  0  0  0  0
  150.0967  138.3225  154.0315 C   0  0  0  0  0  0  0  0  0  0  0  0
  151.3287  137.6391  154.2204 C   0  0  0  0  0  0  0  0  0  0  0  0
  151.4974  136.3079  154.2465 N   0  5  0  0  0  0  0  0  0  0  0  0
  150.5689  135.5161  154.8293 C   0  0  0  0  0  0  0  0  0  0  0  0
  150.3506  135.4106  156.0386 O   0  0  0  0  0  0  0  0  0  0  0  0
  149.8505  134.7952  153.9564 N   0  0  0  0  0  0  0  0  0  0  0  0
  148.8036  133.8414  154.3019 C   0  0  0  0  0  0  0  0  0  0  0  0
  147.4942  134.5607  154.6780 C   0  0  0  0  0  0  0  0  0  0  0  0
  146.8299  135.1735  153.5017 N   0  3  1  0  0  0  0  0  0  0  0  0
  146.0257  134.1955  152.7337 C   0  0  0  0  0  0  0  0  0  0  0  0
  145.4497  134.8508  151.4661 C   0  0  1  0  0  0  0  0  0  0  0  0
  144.5393  133.8944  150.6875 C   0  0  0  0  0  0  0  0  0  0  0  0
  144.6771  135.9918  151.8300 O   0  0  0  0  0  0  0  0  0  0  0  0
  145.3851  136.9840  152.5733 C   0  0  2  0  0  0  0  0  0  0  0  0
  146.3979  137.7507  151.7043 C   0  0  0  0  0  0  0  0  0  0  0  0
  146.0074  136.3614  153.8388 C   0  0  0  0  0  0  0  0  0  0  0  0
  152.3518  138.4671  154.3498 N   0  0  0  0  0  0  0  0  0  0  0  0
  151.8022  139.7518  154.2645 O   0  0  0  0  0  0  0  0  0  0  0  0
  149.4319  141.1069  152.9167 H   0  0  0  0  0  0  0  0  0  0  0  0
  150.2612  141.7538  154.3339 H   0  0  0  0  0  0  0  0  0  0  0  0
  148.7597  140.8490  154.5279 H   0  0  0  0  0  0  0  0  0  0  0  0
  149.1076  137.9128  153.8917 H   0  0  0  0  0  0  0  0  0  0  0  0
  150.0581  134.9151  152.9756 H   0  0  0  0  0  0  0  0  0  0  0  0
  148.6607  133.1516  153.4698 H   0  0  0  0  0  0  0  0  0  0  0  0
  149.1545  133.2442  155.1437 H   0  0  0  0  0  0  0  0  0  0  0  0
  146.8236  133.8258  155.1262 H   0  0  0  0  0  0  0  0  0  0  0  0
  147.6651  135.3238  155.4389 H   0  0  0  0  0  0  0  0  0  0  0  0
  146.6486  133.3451  152.4530 H   0  0  0  0  0  0  0  0  0  0  0  0
  145.2219  133.8102  153.3635 H   0  0  0  0  0  0  0  0  0  0  0  0
  146.2645  135.1521  150.8073 H   0  0  0  0  0  0  0  0  0  0  0  0
  145.0797  132.9985  150.3809 H   0  0  0  0  0  0  0  0  0  0  0  0
  144.1521  134.3723  149.7872 H   0  0  0  0  0  0  0  0  0  0  0  0
  143.6865  133.5812  151.2907 H   0  0  0  0  0  0  0  0  0  0  0  0
  144.6369  137.7091  152.8951 H   0  0  0  0  0  0  0  0  0  0  0  0
  146.8201  138.5914  152.2553 H   0  0  0  0  0  0  0  0  0  0  0  0
  145.9180  138.1510  150.8109 H   0  0  0  0  0  0  0  0  0  0  0  0
  147.2301  137.1235  151.3855 H   0  0  0  0  0  0  0  0  0  0  0  0
  145.2139  136.0602  154.5249 H   0  0  0  0  0  0  0  0  0  0  0  0
  146.6010  137.1119  154.3597 H   0  0  0  0  0  0  0  0  0  0  0  0
  147.5669  135.4841  152.8849 H   0  0  0  0  0  0  0  0  0  0  0  0
  1  2  1  0  0  0  0
  1 21  1  0  0  0  0
  1 22  1  0  0  0  0
  1 23  1  0  0  0  0
  2 20  1  0  0  0  0
  2  3  2  0  0  0  0
  3  4  1  0  0  0  0
  3 24  1  0  0  0  0
  4  5  1  0  0  0  0
  4 19  2  0  0  0  0
  5  6  1  0  0  0  0
  6  7  2  0  0  0  0
  6  8  1  0  0  0  0
  8  9  1  0  0  0  0
  8 25  1  0  0  0  0
  9 10  1  0  0  0  0
  9 26  1  0  0  0  0
  9 27  1  0  0  0  0
 10 11  1  0  0  0  0
 10 28  1  0  0  0  0
 10 29  1  0  0  0  0
 11 18  1  0  0  0  0
 11 12  1  0  0  0  0
 11 42  1  0  0  0  0
 12 13  1  0  0  0  0
 12 30  1  0  0  0  0
 12 31  1  0  0  0  0
 13 14  1  0  0  0  0
 13 15  1  0  0  0  0
 13 32  1  0  0  0  0
 14 33  1  0  0  0  0
 14 34  1  0  0  0  0
 14 35  1  0  0  0  0
 15 16  1  0  0  0  0
 16 17  1  0  0  0  0
 16 18  1  0  0  0  0
 16 36  1  0  0  0  0
 17 37  1  0  0  0  0
 17 38  1  0  0  0  0
 17 39  1  0  0  0  0
 18 40  1  0  0  0  0
 18 41  1  0  0  0  0
 19 20  1  0  0  0  0
M  CHG  1   5  -1
M  CHG  1  11   1
M  END
> <s_m_source_file>
AV-unprocessed.smi

> <i_m_source_file_index>
1381

> <i_lp_mmshare_version>
43012

> <i_f3d_flags>
0

> <s_epik_input>
W0NIM11jMVtjSF1jKG5vMSlbTkhdQyg9TylbTkhdW0NIMl1bQ0gyXU4yW0NIMl1bQ0BASF0oW0NIM10pT1tDQEBIXShbQ0gzXSlbQ0gyXTI=

> <s_epik_cmdline>
J2VwaWtfcHl0aG9uJywgJy1waCcsICc3LjAnLCAnLXRuJywgJzgnLCAnLW1hJywgJzIwMCcsICctbWV0YWxfYmluZGluZycsICctaW1hZScsICc8aW5maWxlLm1hZT4nLCAnLW9tYWUnLCAnPG91dGZpbGUubWFlPic=

> <r_epik_Ionization_Penalty>
6.73511

> <r_epik_Ionization_Penalty_Charging>
6.73502

> <r_epik_Ionization_Penalty_Neutral>
9.26583e-05

> <r_epik_State_Penalty>
6.93549

> <r_epik_Charging_Adjusted_Penalty>
13.6705

> <i_epik_Tot_Q>
0

> <i_epik_Tot_abs_Q>
2

> <r_epik_Metal_State_Penalty>
2.87211

> <b_epik_Metal_Only>
1

> <s_lp_Force_Field>
OPLS_2005

> <r_lp_Energy>
5.23247

> <b_lp_Chiralities_Consistent>
1

> <s_lp_Variant>
AV-unprocessed.smi:1381-13

> <Gold.Version>
5.8.1

> <Gold.Id.Protein>
6NUR|6NUR_protein|mol2

> <Gold.PLP.Fitness>
42.8964

> <Gold.PLP.PLP>
-30.5719

> <Gold.PLP.part.hbond>
-5.1877

> <Gold.PLP.part.metal>
0.0000

> <Gold.PLP.part.buried>
-1.4475

> <Gold.PLP.part.nonpolar>
-25.0986

> <Gold.PLP.part.repulsive>
0.5431

> <Gold.PLP.ligand.clash>
0.0000

> <Gold.PLP.ligand.torsion>
1.3744

> <Gold.PLP.Chemscore.Hbond>
5.0000

> <Gold.PLP.Chemscore.CHOScore>
0.0000

> <Gold.PLP.Chemscore.Metal>
0.0000

> <Gold.Chemscore.Hbonds>
donor molecule, donor type, donor heavy atom, donor atom, acceptor molecule, acceptor atom, score
      L1  H    11    42       P1  7948  2.00
      P1  H  7989  7998       L1    20  0.11
      P1  H 10752 10765       L1     5  2.00

> <Gold.PLP.Chemscore.Internal.Correction>
0.0733

> <Gold.Rescore>
     Score         DG    S(hbond)    S(metal)    S(lipo)     H(rot)  DE(clash)    DE(int)     intcor
     12.33     -14.29       1.86        0.00      56.74       1.58       0.55       1.40       ----

> <Gold.Chemscore.Fitness>
12.3334

> <Gold.Chemscore.DG>
-14.2897

> <Gold.Chemscore.ZeroCoef>
-5.4800

> <Gold.Chemscore.Hbond>
1.8604

> <Gold.Chemscore.Metal>
0.0000

> <Gold.Chemscore.Lipo>
56.7413

> <Gold.Chemscore.Internal_Hbond>
0.0000

> <Gold.Chemscore.DEClash>
0.5538

> <Gold.Chemscore.DEInternal>
1.4025

> <Gold.Chemscore.Rot>
1.5792

> <Gold.Chemscore.Internal.Correction>
   9.000000E+99

> <Gold.Chemscore.Hbonds>
donor molecule, donor type, donor heavy atom, donor atom, acceptor molecule, acceptor atom, score
      L1  H    11    42       P1  7948  1.00
      P1  H 10752 10765       L1     5  0.76

> <Gold.Chemscore.Hbond.Weighted>
-6.2138

> <Gold.Chemscore.Metal.Weighted>
-0.0000

> <Gold.Chemscore.Lipo.Weighted>
-6.6387

> <Gold.Chemscore.Internal_Hbond.Weighted>
0.0000

> <Gold.Chemscore.DEClash.Weighted>
0.5538

> <Gold.Chemscore.DEInternal.Weighted>
1.4025

> <Gold.Chemscore.Rot.Weighted>
4.0428

> <Gold.Chemscore.Internal.Correction.Weighted>
   9.000000E+99

> <Gold.Protein.RotatedTorsions>
[ 6907 6896 6895 6894 ] final -102.01 input  -60.11 | X-H torsion
[ 7974 7965 7964 7962 ] final  -87.64 input  175.53 | X-H torsion
[ 8008 7997 7996 7995 ] final -136.88 input   59.86 | X-H torsion
[ 10167 10162 10161 10158 ] final   57.90 input  -65.29 | X-H torsion
[ 10718 10713 10712 10709 ] final  -56.24 input   66.30 | X-H torsion
[ 10763 10752 10751 10750 ] final  163.67 input  -60.55 | X-H torsion
[ 11005 11000 10999 10996 ] final   17.96 input  -57.11 | X-H torsion

> <Gold.Protein.ActiveResidues>
 VAL166  LYS551  ARG553  GLY616  TRP617  ASP618  TYR619  PRO620  LYS621  CYS622 
 ASP623  PHE694  ASN695  SER759  ASP760  ASP761  ALA762  ILE779  LEU786  VAL792 
 PHE793  MET794  SER795  GLU796  ALA797  LYS798  CYS799  TRP800  GLU811  SER814 

> <Gold.Protein.RotatedAtoms>
  150.7178  134.0646  159.3842 H   0  0  0  0  0  0  0  0  0  0  0  0  # atno 6907 bound_to 6896
  151.8627  135.0516  160.0480 H   0  0  0  0  0  0  0  0  0  0  0  0  # atno 6908 bound_to 6896
  152.2705  133.5342  159.5472 H   0  0  0  0  0  0  0  0  0  0  0  0  # atno 6909 bound_to 6896
  145.4639  140.9560  143.1954 H   0  0  0  0  0  0  0  0  0  0  0  0  # atno 7974 bound_to 7965
  155.4026  140.0507  157.3036 H   0  0  0  0  0  0  0  0  0  0  0  0  # atno 8008 bound_to 7997
  154.4984  140.2147  155.9359 H   0  0  0  0  0  0  0  0  0  0  0  0  # atno 8009 bound_to 7997
  156.1435  140.3150  155.8538 H   0  0  0  0  0  0  0  0  0  0  0  0  # atno 8010 bound_to 7997
  140.1930  144.4066  150.6562 H   0  0  0  0  0  0  0  0  0  0  0  0  # atno 10167 bound_to 10162
  156.1305  130.4160  150.0278 H   0  0  0  0  0  0  0  0  0  0  0  0  # atno 10718 bound_to 10713
  154.2972  135.2760  155.2628 H   0  0  0  0  0  0  0  0  0  0  0  0  # atno 10763 bound_to 10752
  154.5081  135.5790  153.6586 H   0  0  0  0  0  0  0  0  0  0  0  0  # atno 10764 bound_to 10752
  152.9905  135.6174  154.3140 H   0  0  0  0  0  0  0  0  0  0  0  0  # atno 10765 bound_to 10752
  140.4301  134.1429  155.7680 H   0  0  0  0  0  0  0  0  0  0  0  0  # atno 11005 bound_to 11000
  144.7986  139.6185  143.7081 LP  0  0  0  0  0  0  0  0  0  0  0  0  # atno 17320 bound_to 7965
  146.2435  139.6051  142.9475 LP  0  0  0  0  0  0  0  0  0  0  0  0  # atno 17321 bound_to 7965
  140.6443  143.2210  151.6221 LP  0  0  0  0  0  0  0  0  0  0  0  0  # atno 17342 bound_to 10162
  139.5248  144.3093  152.1006 LP  0  0  0  0  0  0  0  0  0  0  0  0  # atno 17343 bound_to 10162
  156.8192  130.9352  151.3642 LP  0  0  0  0  0  0  0  0  0  0  0  0  # atno 17370 bound_to 10713
  157.6483  130.8863  149.9582 LP  0  0  0  0  0  0  0  0  0  0  0  0  # atno 17371 bound_to 10713
  141.1749  133.8534  157.1453 LP  0  0  0  0  0  0  0  0  0  0  0  0  # atno 17394 bound_to 11000
  140.0140  134.9975  157.0455 LP  0  0  0  0  0  0  0  0  0  0  0  0  # atno 17395 bound_to 11000

$$$$
