AV-unprocessed.smi:878|AV-procd|sdf|4032|dock6
  -GOLD-   22720 1523D 1   1.00000     0.00000
 Structure written by MMmdl.
 32 33  0  0  0  0  0  0  0  0  2 V2000
  152.0941  145.9147  159.9794 C   0  0  0  0  0  0  0  0  0  0  0  0
  151.6865  144.5682  161.1237 S   0  0  0  0  0  0  0  0  0  0  0  0
  152.3850  143.0720  160.4863 C   0  0  0  0  0  0  0  0  0  0  0  0
  153.2603  142.2781  161.2572 C   0  0  0  0  0  0  0  0  0  0  0  0
  153.8018  141.0943  160.7183 C   0  0  0  0  0  0  0  0  0  0  0  0
  153.4728  140.6874  159.4010 C   0  0  0  0  0  0  0  0  0  0  0  0
  153.9527  139.5453  158.7988 O   0  0  0  0  0  0  0  0  0  0  0  0
  154.6315  138.5901  159.6026 C   0  0  0  0  0  0  0  0  0  0  0  0
  153.6495  137.4845  160.0225 C   0  0  0  0  0  0  0  0  0  0  0  0
  154.1436  136.7264  161.1809 N   0  0  0  0  0  0  0  0  0  0  0  0
  154.2536  137.4129  162.4019 C   0  0  0  0  0  0  0  0  0  0  0  0
  154.7015  136.8139  163.5223 C   0  0  0  0  0  0  0  0  0  0  0  0
  154.8285  137.6852  165.0090 Cl  0  0  0  0  0  0  0  0  0  0  0  0
  155.0799  135.4046  163.4419 C   0  0  0  0  0  0  0  0  0  0  0  0
  155.4901  134.8257  164.4469 O   0  0  0  0  0  0  0  0  0  0  0  0
  154.9588  134.7840  162.2319 N   0  5  0  0  0  0  0  0  0  0  0  0
  154.5031  135.4103  161.1032 C   0  0  0  0  0  0  0  0  0  0  0  0
  154.4069  134.8274  160.0230 O   0  0  0  0  0  0  0  0  0  0  0  0
  152.5965  141.4883  158.6416 C   0  0  0  0  0  0  0  0  0  0  0  0
  152.0577  142.6738  159.1764 C   0  0  0  0  0  0  0  0  0  0  0  0
  151.7317  146.8628  160.3767 H   0  0  0  0  0  0  0  0  0  0  0  0
  151.6265  145.7512  159.0086 H   0  0  0  0  0  0  0  0  0  0  0  0
  153.1735  145.9882  159.8452 H   0  0  0  0  0  0  0  0  0  0  0  0
  153.5312  142.5613  162.2620 H   0  0  0  0  0  0  0  0  0  0  0  0
  154.4672  140.5131  161.3383 H   0  0  0  0  0  0  0  0  0  0  0  0
  155.4734  138.1574  159.0593 H   0  0  0  0  0  0  0  0  0  0  0  0
  155.0235  139.0760  160.4970 H   0  0  0  0  0  0  0  0  0  0  0  0
  152.6901  137.9371  160.2769 H   0  0  0  0  0  0  0  0  0  0  0  0
  153.4352  136.8315  159.1752 H   0  0  0  0  0  0  0  0  0  0  0  0
  153.9569  138.4512  162.3692 H   0  0  0  0  0  0  0  0  0  0  0  0
  152.3377  141.1912  157.6358 H   0  0  0  0  0  0  0  0  0  0  0  0
  151.3904  143.2758  158.5772 H   0  0  0  0  0  0  0  0  0  0  0  0
  1  2  1  0  0  0  0
  1 21  1  0  0  0  0
  1 22  1  0  0  0  0
  1 23  1  0  0  0  0
  2  3  1  0  0  0  0
  3 20  1  0  0  0  0
  3  4  2  0  0  0  0
  4  5  1  0  0  0  0
  4 24  1  0  0  0  0
  5  6  2  0  0  0  0
  5 25  1  0  0  0  0
  6  7  1  0  0  0  0
  6 19  1  0  0  0  0
  7  8  1  0  0  0  0
  8  9  1  0  0  0  0
  8 26  1  0  0  0  0
  8 27  1  0  0  0  0
  9 10  1  0  0  0  0
  9 28  1  0  0  0  0
  9 29  1  0  0  0  0
 10 17  1  0  0  0  0
 10 11  1  0  0  0  0
 11 12  2  0  0  0  0
 11 30  1  0  0  0  0
 12 13  1  0  0  0  0
 12 14  1  0  0  0  0
 14 15  2  0  0  0  0
 14 16  1  0  0  0  0
 16 17  1  0  0  0  0
 17 18  2  0  0  0  0
 19 20  2  0  0  0  0
 19 31  1  0  0  0  0
 20 32  1  0  0  0  0
M  CHG  1  16  -1
M  END
> <s_m_source_file>
AV-unprocessed.smi

> <i_m_source_file_index>
878

> <i_lp_mmshare_version>
43012

> <i_f3d_flags>
0

> <s_epik_input>
W0NIM11TYzFbY0hdW2NIXWMoW2NIXVtjSF0xKU9bQ0gyXVtDSDJdbjJbY0hdYyhDbCljKD1PKVtuSF1jMj1P

> <s_epik_cmdline>
J2VwaWtfcHl0aG9uJywgJy1waCcsICc3LjAnLCAnLXRuJywgJzgnLCAnLW1hJywgJzIwMCcsICctbWV0YWxfYmluZGluZycsICctaW1hZScsICc8aW5maWxlLm1hZT4nLCAnLW9tYWUnLCAnPG91dGZpbGUubWFlPic=

> <r_lp_tautomer_probability>
1

> <r_epik_Ionization_Penalty>
1.65349

> <r_epik_Ionization_Penalty_Charging>
1.22116e-08

> <r_epik_Ionization_Penalty_Neutral>
1.65349

> <r_epik_State_Penalty>
1.75578

> <r_epik_Charging_Adjusted_Penalty>
1.75578

> <i_epik_Tot_Q>
-1

> <i_epik_Tot_abs_Q>
1

> <r_epik_Metal_State_Penalty>
0.0107816

> <b_epik_Metal_Only>
0

> <s_lp_Force_Field>
OPLS_2005

> <r_lp_Energy>
23.8138

> <b_lp_Chiralities_Consistent>
1

> <s_lp_Variant>
AV-unprocessed.smi:878-2

> <Gold.Version>
5.8.1

> <Gold.Id.Protein>
6NUR|6NUR_protein|mol2

> <Gold.PLP.Fitness>
46.4928

> <Gold.PLP.PLP>
-41.4952

> <Gold.PLP.part.hbond>
-2.0000

> <Gold.PLP.part.metal>
0.0000

> <Gold.PLP.part.buried>
-2.2364

> <Gold.PLP.part.nonpolar>
-36.1315

> <Gold.PLP.part.repulsive>
0.0782

> <Gold.PLP.ligand.clash>
0.0000

> <Gold.PLP.ligand.torsion>
0.5160

> <Gold.PLP.Chemscore.Hbond>
2.0000

> <Gold.PLP.Chemscore.CHOScore>
0.0000

> <Gold.PLP.Chemscore.Metal>
0.0000

> <Gold.Chemscore.Hbonds>
donor molecule, donor type, donor heavy atom, donor atom, acceptor molecule, acceptor atom, score
      P1  H  6896  6908       L1    18  0.90
      P1  H  7997  8010       L1     7  1.00

> <Gold.PLP.Chemscore.Internal.Correction>
0.0296

> <Gold.Rescore>
     Score         DG    S(hbond)    S(metal)    S(lipo)     H(rot)  DE(clash)    DE(int)     intcor
     18.66     -19.25       1.67        0.00     111.64       1.91       0.04       0.55       ----

> <Gold.Chemscore.Fitness>
18.6587

> <Gold.Chemscore.DG>
-19.2467

> <Gold.Chemscore.ZeroCoef>
-5.4800

> <Gold.Chemscore.Hbond>
1.6727

> <Gold.Chemscore.Metal>
0.0000

> <Gold.Chemscore.Lipo>
111.6445

> <Gold.Chemscore.Internal_Hbond>
0.0000

> <Gold.Chemscore.DEClash>
0.0396

> <Gold.Chemscore.DEInternal>
0.5484

> <Gold.Chemscore.Rot>
1.9073

> <Gold.Chemscore.Internal.Correction>
   9.000000E+99

> <Gold.Chemscore.Hbonds>
donor molecule, donor type, donor heavy atom, donor atom, acceptor molecule, acceptor atom, score
      P1  H  6896  6908       L1    18  0.18
      P1  H  7997  8010       L1     7  0.57

> <Gold.Chemscore.Hbond.Weighted>
-5.5869

> <Gold.Chemscore.Metal.Weighted>
-0.0000

> <Gold.Chemscore.Lipo.Weighted>
-13.0624

> <Gold.Chemscore.Internal_Hbond.Weighted>
0.0000

> <Gold.Chemscore.DEClash.Weighted>
0.0396

> <Gold.Chemscore.DEInternal.Weighted>
0.5484

> <Gold.Chemscore.Rot.Weighted>
4.8826

> <Gold.Chemscore.Internal.Correction.Weighted>
   9.000000E+99

> <Gold.Protein.RotatedTorsions>
[ 6907 6896 6895 6894 ] final  -57.36 input  -60.11 | X-H torsion
[ 7974 7965 7964 7962 ] final  -51.24 input  175.53 | X-H torsion
[ 8008 7997 7996 7995 ] final    9.15 input   59.86 | X-H torsion
[ 10167 10162 10161 10158 ] final  -58.85 input  -65.29 | X-H torsion
[ 10718 10713 10712 10709 ] final -148.27 input   66.30 | X-H torsion
[ 10763 10752 10751 10750 ] final   19.01 input  -60.55 | X-H torsion
[ 11005 11000 10999 10996 ] final  -23.83 input  -57.11 | X-H torsion

> <Gold.Protein.ActiveResidues>
 VAL166  LYS551  ARG553  GLY616  TRP617  ASP618  TYR619  PRO620  LYS621  CYS622 
 ASP623  PHE694  ASN695  SER759  ASP760  ASP761  ALA762  ILE779  LEU786  VAL792 
 PHE793  MET794  SER795  GLU796  ALA797  LYS798  CYS799  TRP800  GLU811  SER814 

> <Gold.Protein.RotatedAtoms>
  150.8092  134.7236  159.6672 H   0  0  0  0  0  0  0  0  0  0  0  0  # atno 6907 bound_to 6896
  152.4212  134.5948  159.9994 H   0  0  0  0  0  0  0  0  0  0  0  0  # atno 6908 bound_to 6896
  151.6163  133.3305  159.3114 H   0  0  0  0  0  0  0  0  0  0  0  0  # atno 6909 bound_to 6896
  145.9211  140.7832  142.9647 H   0  0  0  0  0  0  0  0  0  0  0  0  # atno 7974 bound_to 7965
  154.7762  140.2811  155.6099 H   0  0  0  0  0  0  0  0  0  0  0  0  # atno 8008 bound_to 7997
  156.2942  140.2632  156.2505 H   0  0  0  0  0  0  0  0  0  0  0  0  # atno 8009 bound_to 7997
  154.9839  140.0374  157.2279 H   0  0  0  0  0  0  0  0  0  0  0  0  # atno 8010 bound_to 7997
  140.6172  143.2406  151.5569 H   0  0  0  0  0  0  0  0  0  0  0  0  # atno 10167 bound_to 10162
  156.4181  130.8015  151.2236 H   0  0  0  0  0  0  0  0  0  0  0  0  # atno 10718 bound_to 10713
  153.1199  135.6717  153.9353 H   0  0  0  0  0  0  0  0  0  0  0  0  # atno 10763 bound_to 10752
  153.8871  135.3051  155.3448 H   0  0  0  0  0  0  0  0  0  0  0  0  # atno 10764 bound_to 10752
  154.7612  135.4987  153.9546 H   0  0  0  0  0  0  0  0  0  0  0  0  # atno 10765 bound_to 10752
  140.8788  133.7668  156.0276 H   0  0  0  0  0  0  0  0  0  0  0  0  # atno 11005 bound_to 11000
  144.6753  140.1977  143.7390 LP  0  0  0  0  0  0  0  0  0  0  0  0  # atno 17320 bound_to 7965
  145.8548  139.2193  143.1751 LP  0  0  0  0  0  0  0  0  0  0  0  0  # atno 17321 bound_to 7965
  139.5408  144.2653  152.1346 LP  0  0  0  0  0  0  0  0  0  0  0  0  # atno 17342 bound_to 10162
  140.1865  144.4794  150.6501 LP  0  0  0  0  0  0  0  0  0  0  0  0  # atno 17343 bound_to 10162
  157.7508  131.0237  150.3843 LP  0  0  0  0  0  0  0  0  0  0  0  0  # atno 17370 bound_to 10713
  156.4155  130.3942  149.6861 LP  0  0  0  0  0  0  0  0  0  0  0  0  # atno 17371 bound_to 10713
  140.8486  134.2981  157.5285 LP  0  0  0  0  0  0  0  0  0  0  0  0  # atno 17394 bound_to 11000
  139.8718  134.9455  156.3912 LP  0  0  0  0  0  0  0  0  0  0  0  0  # atno 17395 bound_to 11000

$$$$
