AV-unprocessed.smi:2118|AV-procd|sdf|8629|dock6
  -GOLD-   2272011373D 1   1.00000     0.00000
 Structure written by MMmdl.
 39 40  0  0  0  0  0  0  0  0  2 V2000
  148.5434  139.6335  154.0026 C   0  0  0  0  0  0  0  0  0  0  0  0
  149.7235  139.4801  154.9727 C   0  0  0  0  0  0  0  0  0  0  0  0
  150.7654  138.4827  154.4512 C   0  0  0  0  0  0  0  0  0  0  0  0
  151.9463  138.3365  155.4259 C   0  0  0  0  0  0  0  0  0  0  0  0
  151.4963  137.9678  156.7843 N   0  0  0  0  0  0  0  0  0  0  0  0
  152.7215  137.4098  157.8870 S   0  0  0  0  0  0  0  0  0  0  0  0
  152.0178  136.9188  159.0833 O   0  0  0  0  0  0  0  0  0  0  0  0
  153.5354  136.4466  157.1270 O   0  0  0  0  0  0  0  0  0  0  0  0
  153.4533  138.8348  158.1375 N   0  5  0  0  0  0  0  0  0  0  0  0
  152.9181  139.7292  159.1480 C   0  0  0  0  0  0  0  0  0  0  0  0
  152.6484  141.1157  158.5292 C   0  0  0  0  0  0  0  0  0  0  0  0
  152.5485  142.2369  159.5557 C   0  0  0  0  0  0  0  0  0  0  0  0
  152.1765  143.5434  159.1699 C   0  0  0  0  0  0  0  0  0  0  0  0
  152.0860  144.5450  160.1555 C   0  0  0  0  0  0  0  0  0  0  0  0
  152.3684  144.1983  161.4916 C   0  0  0  0  0  0  0  0  0  0  0  0
  152.7182  142.9525  161.8768 N   0  0  0  0  0  0  0  0  0  0  0  0
  152.8030  141.9974  160.9253 C   0  0  0  0  0  0  0  0  0  0  0  0
  150.4539  138.8702  157.3261 C   0  0  0  0  0  0  0  0  0  0  0  0
  149.2658  139.0153  156.3612 C   0  0  0  0  0  0  0  0  0  0  0  0
  148.0188  138.6876  153.8626 H   0  0  0  0  0  0  0  0  0  0  0  0
  148.8821  139.9748  153.0239 H   0  0  0  0  0  0  0  0  0  0  0  0
  147.8226  140.3623  154.3741 H   0  0  0  0  0  0  0  0  0  0  0  0
  150.2013  140.4558  155.0753 H   0  0  0  0  0  0  0  0  0  0  0  0
  150.3007  137.5076  154.2969 H   0  0  0  0  0  0  0  0  0  0  0  0
  151.1359  138.8050  153.4775 H   0  0  0  0  0  0  0  0  0  0  0  0
  152.6268  137.5766  155.0426 H   0  0  0  0  0  0  0  0  0  0  0  0
  152.5117  139.2675  155.4820 H   0  0  0  0  0  0  0  0  0  0  0  0
  151.9894  139.3465  159.5729 H   0  0  0  0  0  0  0  0  0  0  0  0
  153.6079  139.8402  159.9854 H   0  0  0  0  0  0  0  0  0  0  0  0
  153.4390  141.3651  157.8199 H   0  0  0  0  0  0  0  0  0  0  0  0
  151.7220  141.0906  157.9536 H   0  0  0  0  0  0  0  0  0  0  0  0
  151.9658  143.7746  158.1358 H   0  0  0  0  0  0  0  0  0  0  0  0
  151.8069  145.5547  159.8935 H   0  0  0  0  0  0  0  0  0  0  0  0
  152.3095  144.9418  162.2728 H   0  0  0  0  0  0  0  0  0  0  0  0
  153.0844  141.0119  161.2668 H   0  0  0  0  0  0  0  0  0  0  0  0
  150.0900  138.4985  158.2833 H   0  0  0  0  0  0  0  0  0  0  0  0
  150.9008  139.8456  157.5220 H   0  0  0  0  0  0  0  0  0  0  0  0
  148.5477  139.7242  156.7744 H   0  0  0  0  0  0  0  0  0  0  0  0
  148.7447  138.0599  156.2809 H   0  0  0  0  0  0  0  0  0  0  0  0
  1  2  1  0  0  0  0
  1 20  1  0  0  0  0
  1 21  1  0  0  0  0
  1 22  1  0  0  0  0
  2 19  1  0  0  0  0
  2  3  1  0  0  0  0
  2 23  1  0  0  0  0
  3  4  1  0  0  0  0
  3 24  1  0  0  0  0
  3 25  1  0  0  0  0
  4  5  1  0  0  0  0
  4 26  1  0  0  0  0
  4 27  1  0  0  0  0
  5  6  1  0  0  0  0
  5 18  1  0  0  0  0
  6  7  2  0  0  0  0
  6  8  2  0  0  0  0
  6  9  1  0  0  0  0
  9 10  1  0  0  0  0
 10 11  1  0  0  0  0
 10 28  1  0  0  0  0
 10 29  1  0  0  0  0
 11 12  1  0  0  0  0
 11 30  1  0  0  0  0
 11 31  1  0  0  0  0
 12 17  1  0  0  0  0
 12 13  2  0  0  0  0
 13 14  1  0  0  0  0
 13 32  1  0  0  0  0
 14 15  2  0  0  0  0
 14 33  1  0  0  0  0
 15 16  1  0  0  0  0
 15 34  1  0  0  0  0
 16 17  2  0  0  0  0
 17 35  1  0  0  0  0
 18 19  1  0  0  0  0
 18 36  1  0  0  0  0
 18 37  1  0  0  0  0
 19 38  1  0  0  0  0
 19 39  1  0  0  0  0
M  CHG  1   9  -1
M  END
> <s_m_source_file>
AV-unprocessed.smi

> <i_m_source_file_index>
2118

> <i_lp_mmshare_version>
43012

> <i_f3d_flags>
0

> <s_epik_input>
W0NIM11bQ0hdMVtDSDJdW0NIMl1OKFtDSDJdW0NIMl0xKVMoPU8pKD1PKVtOSF1bQ0gyXVtDSDJdYzJbY0hdW2NIXVtjSF1uW2NIXTI=

> <s_epik_cmdline>
J2VwaWtfcHl0aG9uJywgJy1waCcsICc3LjAnLCAnLXRuJywgJzgnLCAnLW1hJywgJzIwMCcsICctbWV0YWxfYmluZGluZycsICctaW1hZScsICc8aW5maWxlLm1hZT4nLCAnLW9tYWUnLCAnPG91dGZpbGUubWFlPic=

> <r_epik_Ionization_Penalty>
1.98317

> <r_epik_Ionization_Penalty_Charging>
1.95606

> <r_epik_Ionization_Penalty_Neutral>
0.0271171

> <r_epik_State_Penalty>
2.28376

> <r_epik_Charging_Adjusted_Penalty>
4.23982

> <i_epik_Tot_Q>
-1

> <i_epik_Tot_abs_Q>
1

> <r_epik_Metal_State_Penalty>
0.598332

> <b_epik_Metal_Only>
0

> <s_lp_Force_Field>
OPLS_2005

> <r_lp_Energy>
6.66289

> <b_lp_Chiralities_Consistent>
1

> <s_lp_Variant>
AV-unprocessed.smi:2118-2

> <Gold.Version>
5.8.1

> <Gold.Id.Protein>
6NUR|6NUR_protein|mol2

> <Gold.PLP.Fitness>
47.0915

> <Gold.PLP.PLP>
-35.5575

> <Gold.PLP.part.hbond>
-3.0000

> <Gold.PLP.part.metal>
0.0000

> <Gold.PLP.part.buried>
-4.9833

> <Gold.PLP.part.nonpolar>
-28.0543

> <Gold.PLP.part.repulsive>
0.1037

> <Gold.PLP.ligand.clash>
0.0000

> <Gold.PLP.ligand.torsion>
0.9033

> <Gold.PLP.Chemscore.Hbond>
3.9357

> <Gold.PLP.Chemscore.CHOScore>
0.0000

> <Gold.PLP.Chemscore.Metal>
0.0000

> <Gold.Chemscore.Hbonds>
donor molecule, donor type, donor heavy atom, donor atom, acceptor molecule, acceptor atom, score
      P1  H  6896  6908       L1     7  0.99
      P1  H  7997  8009       L1     9  2.00
      P1  H 10752 10764       L1     8  0.88

> <Gold.PLP.Chemscore.Internal.Correction>
1.5334

> <Gold.Rescore>
     Score         DG    S(hbond)    S(metal)    S(lipo)     H(rot)  DE(clash)    DE(int)     intcor
     20.41     -21.78       2.25        0.00     106.35       1.42       0.40       0.98       ----

> <Gold.Chemscore.Fitness>
20.4073

> <Gold.Chemscore.DG>
-21.7842

> <Gold.Chemscore.ZeroCoef>
-5.4800

> <Gold.Chemscore.Hbond>
2.2456

> <Gold.Chemscore.Metal>
0.0000

> <Gold.Chemscore.Lipo>
106.3517

> <Gold.Chemscore.Internal_Hbond>
0.0000

> <Gold.Chemscore.DEClash>
0.3991

> <Gold.Chemscore.DEInternal>
0.9778

> <Gold.Chemscore.Rot>
1.4216

> <Gold.Chemscore.Internal.Correction>
   9.000000E+99

> <Gold.Chemscore.Hbonds>
donor molecule, donor type, donor heavy atom, donor atom, acceptor molecule, acceptor atom, score
      P1  H  6896  6908       L1     7  0.90
      P1  H  7997  8009       L1     9  0.39
      P1  H 10752 10764       L1     8  0.83

> <Gold.Chemscore.Hbond.Weighted>
-7.5003

> <Gold.Chemscore.Metal.Weighted>
-0.0000

> <Gold.Chemscore.Lipo.Weighted>
-12.4431

> <Gold.Chemscore.Internal_Hbond.Weighted>
0.0000

> <Gold.Chemscore.DEClash.Weighted>
0.3991

> <Gold.Chemscore.DEInternal.Weighted>
0.9778

> <Gold.Chemscore.Rot.Weighted>
3.6392

> <Gold.Chemscore.Internal.Correction.Weighted>
   9.000000E+99

> <Gold.Protein.RotatedTorsions>
[ 6907 6896 6895 6894 ] final -115.97 input  -60.11 | X-H torsion
[ 7974 7965 7964 7962 ] final   17.85 input  175.53 | X-H torsion
[ 8008 7997 7996 7995 ] final  149.46 input   59.86 | X-H torsion
[ 10167 10162 10161 10158 ] final -162.63 input  -65.29 | X-H torsion
[ 10718 10713 10712 10709 ] final -113.45 input   66.30 | X-H torsion
[ 10763 10752 10751 10750 ] final   20.10 input  -60.55 | X-H torsion
[ 11005 11000 10999 10996 ] final -171.31 input  -57.11 | X-H torsion

> <Gold.Protein.ActiveResidues>
 VAL166  LYS551  ARG553  GLY616  TRP617  ASP618  TYR619  PRO620  LYS621  CYS622 
 ASP623  PHE694  ASN695  SER759  ASP760  ASP761  ALA762  ILE779  LEU786  VAL792 
 PHE793  MET794  SER795  GLU796  ALA797  LYS798  CYS799  TRP800  GLU811  SER814 

> <Gold.Protein.RotatedAtoms>
  150.8019  133.8583  159.3224 H   0  0  0  0  0  0  0  0  0  0  0  0  # atno 6907 bound_to 6896
  151.6393  135.1012  160.0147 H   0  0  0  0  0  0  0  0  0  0  0  0  # atno 6908 bound_to 6896
  152.4107  133.6919  159.6430 H   0  0  0  0  0  0  0  0  0  0  0  0  # atno 6909 bound_to 6896
  146.2205  139.8543  142.8616 H   0  0  0  0  0  0  0  0  0  0  0  0  # atno 7974 bound_to 7965
  156.2754  140.2101  156.5862 H   0  0  0  0  0  0  0  0  0  0  0  0  # atno 8008 bound_to 7997
  154.7019  140.0520  157.0489 H   0  0  0  0  0  0  0  0  0  0  0  0  # atno 8009 bound_to 7997
  155.0723  140.3178  155.4629 H   0  0  0  0  0  0  0  0  0  0  0  0  # atno 8010 bound_to 7997
  139.6378  144.0316  152.2068 H   0  0  0  0  0  0  0  0  0  0  0  0  # atno 10167 bound_to 10162
  156.0767  130.5973  150.8643 H   0  0  0  0  0  0  0  0  0  0  0  0  # atno 10718 bound_to 10713
  153.1106  135.6695  153.9508 H   0  0  0  0  0  0  0  0  0  0  0  0  # atno 10763 bound_to 10752
  153.9053  135.3031  155.3450 H   0  0  0  0  0  0  0  0  0  0  0  0  # atno 10764 bound_to 10752
  154.7525  135.5027  153.9392 H   0  0  0  0  0  0  0  0  0  0  0  0  # atno 10765 bound_to 10752
  140.5096  134.5814  157.5014 H   0  0  0  0  0  0  0  0  0  0  0  0  # atno 11005 bound_to 11000
  145.2769  141.0126  143.3739 LP  0  0  0  0  0  0  0  0  0  0  0  0  # atno 17320 bound_to 7965
  144.9180  139.4447  143.6555 LP  0  0  0  0  0  0  0  0  0  0  0  0  # atno 17321 bound_to 7965
  139.9998  144.6301  150.7740 LP  0  0  0  0  0  0  0  0  0  0  0  0  # atno 17342 bound_to 10162
  140.7475  143.2907  151.3339 LP  0  0  0  0  0  0  0  0  0  0  0  0  # atno 17343 bound_to 10162
  157.5866  131.0945  150.9187 LP  0  0  0  0  0  0  0  0  0  0  0  0  # atno 17370 bound_to 10713
  156.9371  130.5371  149.5279 LP  0  0  0  0  0  0  0  0  0  0  0  0  # atno 17371 bound_to 10713
  139.9666  134.7362  156.0125 LP  0  0  0  0  0  0  0  0  0  0  0  0  # atno 17394 bound_to 11000
  141.1392  133.6568  156.3682 LP  0  0  0  0  0  0  0  0  0  0  0  0  # atno 17395 bound_to 11000

$$$$
