AV-unprocessed.smi:1867|AV-procd|sdf|7569|dock1
  -GOLD-   22720 9283D 1   1.00000     0.00000
 Structure written by MMmdl.
 53 56  0  0  0  0  0  0  0  0  3 V2000
  147.2903  140.2026  154.6347 O   0  0  0  0  0  0  0  0  0  0  0  0
  148.0771  139.2909  154.3929 C   0  0  0  0  0  0  0  0  0  0  0  0
  149.3403  139.2212  154.8580 N   0  0  0  0  0  0  0  0  0  0  0  0
  150.0368  140.1301  155.7002 C   0  0  0  0  0  0  0  0  0  0  0  0
  151.1177  139.7741  156.5448 C   0  0  0  0  0  0  0  0  0  0  0  0
  151.7427  140.7651  157.3294 C   0  0  0  0  0  0  0  0  0  0  0  0
  151.2907  142.1038  157.2642 C   0  0  0  0  0  0  0  0  0  0  0  0
  151.8722  143.1414  158.0170 N   0  0  0  0  0  0  0  0  0  0  0  0
  151.2110  144.4266  158.1787 C   0  0  0  0  0  0  0  0  0  0  0  0
  152.0713  145.1768  159.1946 C   0  0  0  0  0  0  0  0  0  0  0  0
  152.5987  144.0581  160.0934 C   0  0  0  0  0  0  0  0  0  0  0  0
  152.7396  142.8562  159.1516 C   0  0  0  0  0  0  0  0  0  0  0  0
  150.2664  142.3993  156.4292 N   0  3  0  0  0  0  0  0  0  0  0  0
  149.6397  141.4824  155.6615 C   0  0  0  0  0  0  0  0  0  0  0  0
  147.7258  138.2712  153.5880 N   0  0  0  0  0  0  0  0  0  0  0  0
  146.4457  138.0303  152.9141 C   0  0  1  0  0  0  0  0  0  0  0  0
  146.4969  138.3681  151.4108 C   0  0  0  0  0  0  0  0  0  0  0  0
  145.7189  137.2386  150.7281 C   0  0  0  0  0  0  0  0  0  0  0  0
  146.0045  136.0815  151.5833 N   0  3  2  0  0  0  0  0  0  0  0  0
  145.2238  134.8444  151.3799 C   0  0  0  0  0  0  0  0  0  0  0  0
  145.8340  133.7326  152.2597 C   0  0  0  0  0  0  0  0  0  0  0  0
  145.9699  134.1651  153.7373 C   0  0  0  0  0  0  0  0  0  0  0  0
  146.6801  135.5295  153.8737 C   0  0  0  0  0  0  0  0  0  0  0  0
  145.9677  136.5586  152.9769 C   0  0  1  0  0  0  0  0  0  0  0  0
  149.8873  138.4416  154.5239 H   0  0  0  0  0  0  0  0  0  0  0  0
  151.4949  138.7654  156.6008 H   0  0  0  0  0  0  0  0  0  0  0  0
  152.5706  140.4862  157.9648 H   0  0  0  0  0  0  0  0  0  0  0  0
  151.1405  144.9661  157.2336 H   0  0  0  0  0  0  0  0  0  0  0  0
  150.2032  144.2731  158.5673 H   0  0  0  0  0  0  0  0  0  0  0  0
  152.9047  145.6639  158.6863 H   0  0  0  0  0  0  0  0  0  0  0  0
  151.5163  145.9399  159.7407 H   0  0  0  0  0  0  0  0  0  0  0  0
  153.5337  144.3167  160.5913 H   0  0  0  0  0  0  0  0  0  0  0  0
  151.8606  143.8334  160.8647 H   0  0  0  0  0  0  0  0  0  0  0  0
  152.4674  141.9299  159.6590 H   0  0  0  0  0  0  0  0  0  0  0  0
  153.7658  142.7634  158.7948 H   0  0  0  0  0  0  0  0  0  0  0  0
  148.8382  141.8604  155.0432 H   0  0  0  0  0  0  0  0  0  0  0  0
  148.4458  137.5861  153.4075 H   0  0  0  0  0  0  0  0  0  0  0  0
  145.6759  138.6632  153.3594 H   0  0  0  0  0  0  0  0  0  0  0  0
  146.0835  139.3521  151.1862 H   0  0  0  0  0  0  0  0  0  0  0  0
  147.5284  138.3573  151.0545 H   0  0  0  0  0  0  0  0  0  0  0  0
  144.6482  137.4489  150.7355 H   0  0  0  0  0  0  0  0  0  0  0  0
  146.0334  137.0726  149.6973 H   0  0  0  0  0  0  0  0  0  0  0  0
  144.1767  135.0133  151.6356 H   0  0  0  0  0  0  0  0  0  0  0  0
  145.2587  134.5546  150.3292 H   0  0  0  0  0  0  0  0  0  0  0  0
  145.2312  132.8267  152.1892 H   0  0  0  0  0  0  0  0  0  0  0  0
  146.8209  133.4735  151.8738 H   0  0  0  0  0  0  0  0  0  0  0  0
  144.9766  134.2309  154.1831 H   0  0  0  0  0  0  0  0  0  0  0  0
  146.5091  133.4040  154.3020 H   0  0  0  0  0  0  0  0  0  0  0  0
  146.6612  135.8472  154.9162 H   0  0  0  0  0  0  0  0  0  0  0  0
  147.7285  135.4353  153.5876 H   0  0  0  0  0  0  0  0  0  0  0  0
  144.9193  136.5937  153.2813 H   0  0  0  0  0  0  0  0  0  0  0  0
  146.9683  135.8436  151.3970 H   0  0  0  0  0  0  0  0  0  0  0  0
  149.9502  143.3680  156.3776 H   0  0  0  0  0  0  0  0  0  0  0  0
  1  2  2  0  0  0  0
  2  3  1  0  0  0  0
  2 15  1  0  0  0  0
  3  4  1  0  0  0  0
  3 25  1  0  0  0  0
  4 14  1  0  0  0  0
  4  5  2  0  0  0  0
  5  6  1  0  0  0  0
  5 26  1  0  0  0  0
  6  7  2  0  0  0  0
  6 27  1  0  0  0  0
  7  8  1  0  0  0  0
  7 13  1  0  0  0  0
  8 12  1  0  0  0  0
  8  9  1  0  0  0  0
  9 10  1  0  0  0  0
  9 28  1  0  0  0  0
  9 29  1  0  0  0  0
 10 11  1  0  0  0  0
 10 30  1  0  0  0  0
 10 31  1  0  0  0  0
 11 12  1  0  0  0  0
 11 32  1  0  0  0  0
 11 33  1  0  0  0  0
 12 34  1  0  0  0  0
 12 35  1  0  0  0  0
 13 14  2  0  0  0  0
 13 53  1  0  0  0  0
 14 36  1  0  0  0  0
 15 16  1  0  0  0  0
 15 37  1  0  0  0  0
 16 24  1  0  0  0  0
 16 17  1  0  0  0  0
 16 38  1  0  0  0  0
 17 18  1  0  0  0  0
 17 39  1  0  0  0  0
 17 40  1  0  0  0  0
 18 19  1  0  0  0  0
 18 41  1  0  0  0  0
 18 42  1  0  0  0  0
 19 24  1  0  0  0  0
 19 20  1  0  0  0  0
 19 52  1  0  0  0  0
 20 21  1  0  0  0  0
 20 43  1  0  0  0  0
 20 44  1  0  0  0  0
 21 22  1  0  0  0  0
 21 45  1  0  0  0  0
 21 46  1  0  0  0  0
 22 23  1  0  0  0  0
 22 47  1  0  0  0  0
 22 48  1  0  0  0  0
 23 24  1  0  0  0  0
 23 49  1  0  0  0  0
 23 50  1  0  0  0  0
 24 51  1  0  0  0  0
M  CHG  1  13   1
M  CHG  1  19   1
M  END
> <s_m_source_file>
AV-unprocessed.smi

> <i_m_source_file_index>
1867

> <i_lp_mmshare_version>
43012

> <i_f3d_flags>
0

> <s_epik_input>
W0NIMl0xW0NIMl1bQ0gyXVtDSDJdW0NASF0oTjEyKVtDQEBIXShbQ0gyXVtDSDJdMilbTkhdQyg9TylbTkhdYzNbY0hdW2NIXWMobltjSF0zKU40W0NIMl1bQ0gyXVtDSDJdW0NIMl00

> <s_epik_cmdline>
J2VwaWtfcHl0aG9uJywgJy1waCcsICc3LjAnLCAnLXRuJywgJzgnLCAnLW1hJywgJzIwMCcsICctbWV0YWxfYmluZGluZycsICctaW1hZScsICc8aW5maWxlLm1hZT4nLCAnLW9tYWUnLCAnPG91dGZpbGUubWFlPic=

> <r_lp_tautomer_probability>
0.999994

> <r_epik_Ionization_Penalty>
1.27347

> <r_epik_Ionization_Penalty_Charging>
1.27345

> <r_epik_Ionization_Penalty_Neutral>
1.96458e-05

> <r_epik_State_Penalty>
1.34393

> <r_epik_Charging_Adjusted_Penalty>
2.61738

> <i_epik_Tot_Q>
2

> <i_epik_Tot_abs_Q>
2

> <r_epik_Metal_State_Penalty>
1.41094

> <b_epik_Metal_Only>
0

> <s_lp_Force_Field>
OPLS_2005

> <r_lp_Energy>
85.4694

> <b_lp_Chiralities_Consistent>
1

> <s_lp_Variant>
AV-unprocessed.smi:1867-10

> <Gold.Version>
5.8.1

> <Gold.Id.Protein>
6NUR|6NUR_protein|mol2

> <Gold.PLP.Fitness>
56.1582

> <Gold.PLP.PLP>
-43.3420

> <Gold.PLP.part.hbond>
-3.1314

> <Gold.PLP.part.metal>
0.0000

> <Gold.PLP.part.buried>
5.6015

> <Gold.PLP.part.nonpolar>
-45.8321

> <Gold.PLP.part.repulsive>
0.3736

> <Gold.PLP.ligand.clash>
0.0000

> <Gold.PLP.ligand.torsion>
0.4776

> <Gold.PLP.Chemscore.Hbond>
4.5210

> <Gold.PLP.Chemscore.CHOScore>
0.0000

> <Gold.PLP.Chemscore.Metal>
0.0000

> <Gold.Chemscore.Hbonds>
donor molecule, donor type, donor heavy atom, donor atom, acceptor molecule, acceptor atom, score
      L1  H    13    53       P1  8028  2.00
      L1  H    15    37       P1  7948  0.61
      L1  H    19    52       P1  7948  1.87

> <Gold.PLP.Chemscore.Internal.Correction>
0.2086

> <Gold.Rescore>
     Score         DG    S(hbond)    S(metal)    S(lipo)     H(rot)  DE(clash)    DE(int)     intcor
     21.06     -24.63       2.41        0.00     116.86       1.00       1.80       1.77       ----

> <Gold.Chemscore.Fitness>
21.0557

> <Gold.Chemscore.DG>
-24.6257

> <Gold.Chemscore.ZeroCoef>
-5.4800

> <Gold.Chemscore.Hbond>
2.4051

> <Gold.Chemscore.Metal>
0.0000

> <Gold.Chemscore.Lipo>
116.8617

> <Gold.Chemscore.Internal_Hbond>
0.0000

> <Gold.Chemscore.DEClash>
1.7959

> <Gold.Chemscore.DEInternal>
1.7741

> <Gold.Chemscore.Rot>
1.0000

> <Gold.Chemscore.Internal.Correction>
   9.000000E+99

> <Gold.Chemscore.Hbonds>
donor molecule, donor type, donor heavy atom, donor atom, acceptor molecule, acceptor atom, score
      L1  H    13    53       P1  8028  0.97
      L1  H    15    37       P1  7948  0.61
      L1  H    19    52       P1  7948  0.84

> <Gold.Chemscore.Hbond.Weighted>
-8.0329

> <Gold.Chemscore.Metal.Weighted>
-0.0000

> <Gold.Chemscore.Lipo.Weighted>
-13.6728

> <Gold.Chemscore.Internal_Hbond.Weighted>
0.0000

> <Gold.Chemscore.DEClash.Weighted>
1.7959

> <Gold.Chemscore.DEInternal.Weighted>
1.7741

> <Gold.Chemscore.Rot.Weighted>
2.5600

> <Gold.Chemscore.Internal.Correction.Weighted>
   9.000000E+99

> <Gold.Protein.RotatedTorsions>
[ 6907 6896 6895 6894 ] final   84.08 input  -60.11 | X-H torsion
[ 7974 7965 7964 7962 ] final   12.24 input  175.53 | X-H torsion
[ 8008 7997 7996 7995 ] final -147.96 input   59.86 | X-H torsion
[ 10167 10162 10161 10158 ] final    1.86 input  -65.29 | X-H torsion
[ 10718 10713 10712 10709 ] final   74.78 input   66.30 | X-H torsion
[ 10763 10752 10751 10750 ] final -165.61 input  -60.55 | X-H torsion
[ 11005 11000 10999 10996 ] final -115.26 input  -57.11 | X-H torsion

> <Gold.Protein.ActiveResidues>
 VAL166  LYS551  ARG553  GLY616  TRP617  ASP618  TYR619  PRO620  LYS621  CYS622 
 ASP623  PHE694  ASN695  SER759  ASP760  ASP761  ALA762  ILE779  LEU786  VAL792 
 PHE793  MET794  SER795  GLU796  ALA797  LYS798  CYS799  TRP800  GLU811  SER814 

> <Gold.Protein.RotatedAtoms>
  152.5343  134.2796  159.9002 H   0  0  0  0  0  0  0  0  0  0  0  0  # atno 6907 bound_to 6896
  151.2751  133.4230  159.2631 H   0  0  0  0  0  0  0  0  0  0  0  0  # atno 6908 bound_to 6896
  151.0333  134.9570  159.8179 H   0  0  0  0  0  0  0  0  0  0  0  0  # atno 6909 bound_to 6896
  146.2355  139.9365  142.8489 H   0  0  0  0  0  0  0  0  0  0  0  0  # atno 7974 bound_to 7965
  155.5839  140.0646  157.2776 H   0  0  0  0  0  0  0  0  0  0  0  0  # atno 8008 bound_to 7997
  154.4324  140.1847  156.1051 H   0  0  0  0  0  0  0  0  0  0  0  0  # atno 8009 bound_to 7997
  156.0284  140.3309  155.7117 H   0  0  0  0  0  0  0  0  0  0  0  0  # atno 8010 bound_to 7997
  140.6663  143.7171  150.7833 H   0  0  0  0  0  0  0  0  0  0  0  0  # atno 10167 bound_to 10162
  157.6607  130.9694  150.1260 H   0  0  0  0  0  0  0  0  0  0  0  0  # atno 10718 bound_to 10713
  154.6914  135.2971  154.9473 H   0  0  0  0  0  0  0  0  0  0  0  0  # atno 10763 bound_to 10752
  154.0435  135.6654  153.4796 H   0  0  0  0  0  0  0  0  0  0  0  0  # atno 10764 bound_to 10752
  153.0615  135.5113  154.8009 H   0  0  0  0  0  0  0  0  0  0  0  0  # atno 10765 bound_to 10752
  141.0499  133.9703  157.2854 H   0  0  0  0  0  0  0  0  0  0  0  0  # atno 11005 bound_to 11000
  145.1993  140.9847  143.4165 LP  0  0  0  0  0  0  0  0  0  0  0  0  # atno 17320 bound_to 7965
  144.9787  139.3805  143.6272 LP  0  0  0  0  0  0  0  0  0  0  0  0  # atno 17321 bound_to 7965
  140.0849  143.4933  152.2510 LP  0  0  0  0  0  0  0  0  0  0  0  0  # atno 17342 bound_to 10162
  139.5913  144.7551  151.3394 LP  0  0  0  0  0  0  0  0  0  0  0  0  # atno 17343 bound_to 10162
  156.2119  130.3667  149.8660 LP  0  0  0  0  0  0  0  0  0  0  0  0  # atno 17370 bound_to 10713
  156.6536  130.8754  151.3535 LP  0  0  0  0  0  0  0  0  0  0  0  0  # atno 17371 bound_to 10713
  139.9342  135.0198  156.8501 LP  0  0  0  0  0  0  0  0  0  0  0  0  # atno 17394 bound_to 11000
  140.6075  134.0114  155.7562 LP  0  0  0  0  0  0  0  0  0  0  0  0  # atno 17395 bound_to 11000

$$$$
