AV-unprocessed.smi:9|AV-procd|sdf|50|dock4
  -GOLD-   2262015163D 1   1.00000     0.00000
 Structure written by MMmdl.
 34 36  0  0  0  0  0  0  0  0  2 V2000
  153.5083  136.4933  162.0792 O   0  0  0  0  0  0  0  0  0  0  0  0
  153.4292  137.2516  161.1147 C   0  0  0  0  0  0  0  0  0  0  0  0
  153.1135  136.8745  159.8358 N   0  5  0  0  0  0  0  0  0  0  0  0
  153.0445  137.8204  158.8064 C   0  0  0  0  0  0  0  0  0  0  0  0
  152.6912  137.2921  157.4195 C   0  0  0  0  0  0  0  0  0  0  0  0
  152.7122  138.2693  156.5103 F   0  0  0  0  0  0  0  0  0  0  0  0
  153.5671  136.3594  157.0460 F   0  0  0  0  0  0  0  0  0  0  0  0
  151.4712  136.7511  157.4018 F   0  0  0  0  0  0  0  0  0  0  0  0
  153.2685  139.0886  158.9367 N   0  0  0  0  0  0  0  0  0  0  0  0
  153.5925  139.5003  160.2108 C   0  0  0  0  0  0  0  0  0  0  0  0
  153.6906  138.7015  161.3148 C   0  0  0  0  0  0  0  0  0  0  0  0
  154.0251  139.4411  162.4436 N   0  0  0  0  0  0  0  0  0  0  0  0
  154.1158  140.6766  161.9509 C   0  0  0  0  0  0  0  0  0  0  0  0
  153.8839  140.7927  160.6277 N   0  0  0  0  0  0  0  0  0  0  0  0
  153.9168  142.0086  159.8281 C   0  0  0  0  0  0  0  0  0  0  0  0
  152.5305  142.6696  159.6144 C   0  0  2  0  0  0  0  0  0  0  0  0
  151.6670  141.6768  159.0926 O   0  0  0  0  0  0  0  0  0  0  0  0
  152.5954  143.8573  158.6283 C   0  0  0  0  0  0  0  0  0  0  0  0
  151.2949  144.6671  158.6260 C   0  0  0  0  0  0  0  0  0  0  0  0
  150.9120  145.0548  160.0583 C   0  0  0  0  0  0  0  0  0  0  0  0
  150.7516  143.8738  160.8316 O   0  0  0  0  0  0  0  0  0  0  0  0
  151.9482  143.1128  160.9775 C   0  0  0  0  0  0  0  0  0  0  0  0
  154.3660  141.5247  162.5711 H   0  0  0  0  0  0  0  0  0  0  0  0
  154.6050  142.7119  160.2994 H   0  0  0  0  0  0  0  0  0  0  0  0
  154.3591  141.7571  158.8634 H   0  0  0  0  0  0  0  0  0  0  0  0
  150.7824  141.8834  159.3526 H   0  0  0  0  0  0  0  0  0  0  0  0
  153.4142  144.5179  158.9172 H   0  0  0  0  0  0  0  0  0  0  0  0
  152.8176  143.5155  157.6166 H   0  0  0  0  0  0  0  0  0  0  0  0
  151.4116  145.5606  158.0122 H   0  0  0  0  0  0  0  0  0  0  0  0
  150.4917  144.0820  158.1767 H   0  0  0  0  0  0  0  0  0  0  0  0
  151.6660  145.7034  160.5071 H   0  0  0  0  0  0  0  0  0  0  0  0
  149.9722  145.6071  160.0587 H   0  0  0  0  0  0  0  0  0  0  0  0
  151.7429  142.2479  161.6095 H   0  0  0  0  0  0  0  0  0  0  0  0
  152.6762  143.7207  161.5172 H   0  0  0  0  0  0  0  0  0  0  0  0
  1  2  2  0  0  0  0
  2 11  1  0  0  0  0
  2  3  1  0  0  0  0
  3  4  1  0  0  0  0
  4  5  1  0  0  0  0
  4  9  2  0  0  0  0
  5  6  1  0  0  0  0
  5  7  1  0  0  0  0
  5  8  1  0  0  0  0
  9 10  1  0  0  0  0
 10 14  1  0  0  0  0
 10 11  2  0  0  0  0
 11 12  1  0  0  0  0
 12 13  2  0  0  0  0
 13 14  1  0  0  0  0
 13 23  1  0  0  0  0
 14 15  1  0  0  0  0
 15 16  1  0  0  0  0
 15 24  1  0  0  0  0
 15 25  1  0  0  0  0
 16 22  1  0  0  0  0
 16 17  1  0  0  0  0
 16 18  1  0  0  0  0
 17 26  1  0  0  0  0
 18 19  1  0  0  0  0
 18 27  1  0  0  0  0
 18 28  1  0  0  0  0
 19 20  1  0  0  0  0
 19 29  1  0  0  0  0
 19 30  1  0  0  0  0
 20 21  1  0  0  0  0
 20 31  1  0  0  0  0
 20 32  1  0  0  0  0
 21 22  1  0  0  0  0
 22 33  1  0  0  0  0
 22 34  1  0  0  0  0
M  CHG  1   3  -1
M  END
> <s_m_source_file>
AV-unprocessed.smi

> <i_m_source_file_index>
9

> <i_lp_mmshare_version>
43012

> <i_f3d_flags>
0

> <s_epik_input>
RkMoRikoRiljKG4xKVtuSF1jKD1PKWMoYzEyKW5bY0hdbjJbQ0gyXVtDQEBdMyhbT0hdKVtDSDJdW0NIMl1bQ0gyXU9bQ0gyXTM=

> <s_epik_cmdline>
J2VwaWtfcHl0aG9uJywgJy1waCcsICc3LjAnLCAnLXRuJywgJzgnLCAnLW1hJywgJzIwMCcsICctbWV0YWxfYmluZGluZycsICctaW1hZScsICc8aW5maWxlLm1hZT4nLCAnLW9tYWUnLCAnPG91dGZpbGUubWFlPic=

> <r_lp_tautomer_probability>
1

> <r_epik_Ionization_Penalty>
0.188582

> <r_epik_Ionization_Penalty_Charging>
1.37005e-11

> <r_epik_Ionization_Penalty_Neutral>
0.188582

> <r_epik_State_Penalty>
0.012336

> <r_epik_Charging_Adjusted_Penalty>
0.012336

> <i_epik_Tot_Q>
-1

> <i_epik_Tot_abs_Q>
1

> <r_epik_Metal_State_Penalty>
0.0089237

> <b_epik_Metal_Only>
0

> <s_lp_Force_Field>
OPLS_2005

> <r_lp_Energy>
37.4202

> <b_lp_Chiralities_Consistent>
1

> <s_lp_Variant>
AV-unprocessed.smi:9-2

> <Gold.Version>
5.8.1

> <Gold.Id.Protein>
6NUR|6NUR_protein|mol2

> <Gold.PLP.Fitness>
44.7739

> <Gold.PLP.PLP>
-39.5169

> <Gold.PLP.part.hbond>
-0.9834

> <Gold.PLP.part.metal>
0.0000

> <Gold.PLP.part.buried>
-5.7793

> <Gold.PLP.part.nonpolar>
-33.5446

> <Gold.PLP.part.repulsive>
0.1798

> <Gold.PLP.ligand.clash>
0.0000

> <Gold.PLP.ligand.torsion>
0.3748

> <Gold.PLP.Chemscore.Hbond>
2.0000

> <Gold.PLP.Chemscore.CHOScore>
0.0000

> <Gold.PLP.Chemscore.Metal>
0.0000

> <Gold.Chemscore.Hbonds>
donor molecule, donor type, donor heavy atom, donor atom, acceptor molecule, acceptor atom, score
      P1  H  6896  6908       L1     3  1.46

> <Gold.PLP.Chemscore.Internal.Correction>
0.0066

> <Gold.Rescore>
     Score         DG    S(hbond)    S(metal)    S(lipo)     H(rot)  DE(clash)    DE(int)     intcor
     11.78     -12.71       0.94        0.00      81.45       2.12       0.05       0.88       ----

> <Gold.Chemscore.Fitness>
11.7793

> <Gold.Chemscore.DG>
-12.7054

> <Gold.Chemscore.ZeroCoef>
-5.4800

> <Gold.Chemscore.Hbond>
0.9379

> <Gold.Chemscore.Metal>
0.0000

> <Gold.Chemscore.Lipo>
81.4543

> <Gold.Chemscore.Internal_Hbond>
0.0000

> <Gold.Chemscore.DEClash>
0.0456

> <Gold.Chemscore.DEInternal>
0.8805

> <Gold.Chemscore.Rot>
2.1239

> <Gold.Chemscore.Internal.Correction>
   9.000000E+99

> <Gold.Chemscore.Hbonds>
donor molecule, donor type, donor heavy atom, donor atom, acceptor molecule, acceptor atom, score
      P1  H  6896  6908       L1     3  0.36
      P1  H  7997  8008       L1     9  0.01

> <Gold.Chemscore.Hbond.Weighted>
-3.1325

> <Gold.Chemscore.Metal.Weighted>
-0.0000

> <Gold.Chemscore.Lipo.Weighted>
-9.5302

> <Gold.Chemscore.Internal_Hbond.Weighted>
0.0000

> <Gold.Chemscore.DEClash.Weighted>
0.0456

> <Gold.Chemscore.DEInternal.Weighted>
0.8805

> <Gold.Chemscore.Rot.Weighted>
5.4373

> <Gold.Chemscore.Internal.Correction.Weighted>
   9.000000E+99

> <Gold.Protein.RotatedTorsions>
[ 6907 6896 6895 6894 ] final  -97.22 input  -60.11 | X-H torsion
[ 7974 7965 7964 7962 ] final  -92.50 input  175.53 | X-H torsion
[ 8008 7997 7996 7995 ] final  -88.63 input   59.86 | X-H torsion
[ 10167 10162 10161 10158 ] final  144.38 input  -65.29 | X-H torsion
[ 10718 10713 10712 10709 ] final -122.87 input   66.30 | X-H torsion
[ 10763 10752 10751 10750 ] final  -17.36 input  -60.55 | X-H torsion
[ 11005 11000 10999 10996 ] final -168.43 input  -57.11 | X-H torsion

> <Gold.Protein.ActiveResidues>
 VAL166  LYS551  ARG553  GLY616  TRP617  ASP618  TYR619  PRO620  LYS621  CYS622 
 ASP623  PHE694  ASN695  SER759  ASP760  ASP761  ALA762  ILE779  LEU786  VAL792 
 PHE793  MET794  SER795  GLU796  ALA797  LYS798  CYS799  TRP800  GLU811  SER814 

> <Gold.Protein.RotatedAtoms>
  150.7010  134.1382  159.4094 H   0  0  0  0  0  0  0  0  0  0  0  0  # atno 6907 bound_to 6896
  151.9367  135.0229  160.0542 H   0  0  0  0  0  0  0  0  0  0  0  0  # atno 6908 bound_to 6896
  152.2129  133.4889  159.5156 H   0  0  0  0  0  0  0  0  0  0  0  0  # atno 6909 bound_to 6896
  145.3990  140.9535  143.2298 H   0  0  0  0  0  0  0  0  0  0  0  0  # atno 7974 bound_to 7965
  154.6771  140.0551  157.0227 H   0  0  0  0  0  0  0  0  0  0  0  0  # atno 8008 bound_to 7997
  155.1004  140.3228  155.4530 H   0  0  0  0  0  0  0  0  0  0  0  0  # atno 8009 bound_to 7997
  156.2680  140.2032  156.6130 H   0  0  0  0  0  0  0  0  0  0  0  0  # atno 8010 bound_to 7997
  139.4948  144.5976  151.6550 H   0  0  0  0  0  0  0  0  0  0  0  0  # atno 10167 bound_to 10162
  156.1455  130.6497  150.9835 H   0  0  0  0  0  0  0  0  0  0  0  0  # atno 10718 bound_to 10713
  153.5727  135.7007  153.5497 H   0  0  0  0  0  0  0  0  0  0  0  0  # atno 10763 bound_to 10752
  153.3330  135.4042  155.1510 H   0  0  0  0  0  0  0  0  0  0  0  0  # atno 10764 bound_to 10752
  154.8630  135.3723  154.5251 H   0  0  0  0  0  0  0  0  0  0  0  0  # atno 10765 bound_to 10752
  140.5421  134.5512  157.5102 H   0  0  0  0  0  0  0  0  0  0  0  0  # atno 11005 bound_to 11000
  144.8387  139.5507  143.6910 LP  0  0  0  0  0  0  0  0  0  0  0  0  # atno 17320 bound_to 7965
  146.2761  139.6757  142.9262 LP  0  0  0  0  0  0  0  0  0  0  0  0  # atno 17321 bound_to 7965
  140.5618  144.0256  150.6173 LP  0  0  0  0  0  0  0  0  0  0  0  0  # atno 17342 bound_to 10162
  140.3345  143.3057  152.0653 LP  0  0  0  0  0  0  0  0  0  0  0  0  # atno 17343 bound_to 10162
  157.6613  131.0880  150.7833 LP  0  0  0  0  0  0  0  0  0  0  0  0  # atno 17370 bound_to 10713
  156.7905  130.4888  149.5385 LP  0  0  0  0  0  0  0  0  0  0  0  0  # atno 17371 bound_to 10713
  139.9499  134.7636  156.0474 LP  0  0  0  0  0  0  0  0  0  0  0  0  # atno 17394 bound_to 11000
  141.1221  133.6610  156.3242 LP  0  0  0  0  0  0  0  0  0  0  0  0  # atno 17395 bound_to 11000

$$$$
