AV-unprocessed.smi:1131|AV-procd|sdf|4851|dock6
  -GOLD-   22720 3423D 1   1.00000     0.00000
 Structure written by MMmdl.
 33 34  0  0  0  0  0  0  0  0  1 V2000
  150.7319  139.8881  157.9808 O   0  0  0  0  0  0  0  0  0  0  0  0
  151.8575  140.1105  157.5321 C   0  0  0  0  0  0  0  0  0  0  0  0
  152.2063  139.7913  156.0710 C   0  0  0  0  0  0  0  0  0  0  0  0
  151.0249  139.5940  155.2181 N   0  0  0  0  0  0  0  0  0  0  0  0
  150.0262  140.5563  155.1738 C   0  0  0  0  0  0  0  0  0  0  0  0
  148.9100  140.4385  154.4162 C   0  0  0  0  0  0  0  0  0  0  0  0
  148.7019  139.2564  153.5867 C   0  0  0  0  0  0  0  0  0  0  0  0
  147.7273  139.0597  152.8644 O   0  0  0  0  0  0  0  0  0  0  0  0
  149.7266  138.3093  153.6615 N   0  0  0  0  0  0  0  0  0  0  0  0
  150.8780  138.4234  154.4422 C   0  0  0  0  0  0  0  0  0  0  0  0
  151.7188  137.5250  154.4390 O   0  0  0  0  0  0  0  0  0  0  0  0
  152.8418  140.6527  158.2627 N   0  0  0  0  0  0  0  0  0  0  0  0
  152.7186  141.0340  159.6632 C   0  0  0  0  0  0  0  0  0  0  0  0
  152.8529  142.5563  159.8317 C   0  0  1  0  0  0  0  0  0  0  0  0
  152.1318  143.3615  158.7708 C   0  0  0  0  0  0  0  0  0  0  0  0
  152.0439  144.7342  159.4297 C   0  0  0  0  0  0  0  0  0  0  0  0
  151.9213  144.4838  160.8266 O   0  0  0  0  0  0  0  0  0  0  0  0
  152.2248  143.1201  161.1083 C   0  0  0  0  0  0  0  0  0  0  0  0
  149.6245  137.4719  153.1070 H   0  0  0  0  0  0  0  0  0  0  0  0
  152.8176  140.6067  155.6815 H   0  0  0  0  0  0  0  0  0  0  0  0
  152.8489  138.9092  156.0355 H   0  0  0  0  0  0  0  0  0  0  0  0
  150.1367  141.4477  155.7748 H   0  0  0  0  0  0  0  0  0  0  0  0
  148.1671  141.2229  154.4243 H   0  0  0  0  0  0  0  0  0  0  0  0
  153.7366  140.8061  157.8204 H   0  0  0  0  0  0  0  0  0  0  0  0
  151.7507  140.7063  160.0462 H   0  0  0  0  0  0  0  0  0  0  0  0
  153.4841  140.5167  160.2439 H   0  0  0  0  0  0  0  0  0  0  0  0
  153.9091  142.8309  159.8110 H   0  0  0  0  0  0  0  0  0  0  0  0
  152.6573  143.3822  157.8157 H   0  0  0  0  0  0  0  0  0  0  0  0
  151.1301  142.9627  158.6022 H   0  0  0  0  0  0  0  0  0  0  0  0
  152.9625  145.2966  159.2578 H   0  0  0  0  0  0  0  0  0  0  0  0
  151.2087  145.3261  159.0543 H   0  0  0  0  0  0  0  0  0  0  0  0
  151.2929  142.6040  161.3423 H   0  0  0  0  0  0  0  0  0  0  0  0
  152.8847  143.0314  161.9714 H   0  0  0  0  0  0  0  0  0  0  0  0
  1  2  2  0  0  0  0
  2  3  1  0  0  0  0
  2 12  1  0  0  0  0
  3  4  1  0  0  0  0
  3 20  1  0  0  0  0
  3 21  1  0  0  0  0
  4 10  1  0  0  0  0
  4  5  1  0  0  0  0
  5  6  2  0  0  0  0
  5 22  1  0  0  0  0
  6  7  1  0  0  0  0
  6 23  1  0  0  0  0
  7  8  2  0  0  0  0
  7  9  1  0  0  0  0
  9 19  1  0  0  0  0
  9 10  1  0  0  0  0
 10 11  2  0  0  0  0
 12 13  1  0  0  0  0
 12 24  1  0  0  0  0
 13 14  1  0  0  0  0
 13 25  1  0  0  0  0
 13 26  1  0  0  0  0
 14 18  1  0  0  0  0
 14 15  1  0  0  0  0
 14 27  1  0  0  0  0
 15 16  1  0  0  0  0
 15 28  1  0  0  0  0
 15 29  1  0  0  0  0
 16 17  1  0  0  0  0
 16 30  1  0  0  0  0
 16 31  1  0  0  0  0
 17 18  1  0  0  0  0
 18 32  1  0  0  0  0
 18 33  1  0  0  0  0
M  END
> <s_m_source_file>
AV-unprocessed.smi

> <i_m_source_file_index>
1131

> <i_lp_mmshare_version>
43012

> <i_f3d_flags>
0

> <s_epik_input>
W0NIMl0xT1tDSDJdW0NIMl1bQ0BIXTFbQ0gyXVtOSF1DKD1PKVtDSDJdbjJbY0hdW2NIXWMoPU8pW25IXWMyPU8=

> <s_epik_cmdline>
J2VwaWtfcHl0aG9uJywgJy1waCcsICc3LjAnLCAnLXRuJywgJzgnLCAnLW1hJywgJzIwMCcsICctbWV0YWxfYmluZGluZycsICctaW1hZScsICc8aW5maWxlLm1hZT4nLCAnLW9tYWUnLCAnPG91dGZpbGUubWFlPic=

> <r_lp_tautomer_probability>
0.999537

> <r_epik_Ionization_Penalty>
0.00329016

> <r_epik_Ionization_Penalty_Charging>
0.00329014

> <r_epik_Ionization_Penalty_Neutral>
1.87063e-08

> <r_epik_State_Penalty>
0.00232461

> <r_epik_Charging_Adjusted_Penalty>
0.00561475

> <i_epik_Tot_Q>
0

> <i_epik_Tot_abs_Q>
0

> <r_epik_Metal_State_Penalty>
0.365289

> <b_epik_Metal_Only>
0

> <s_lp_Force_Field>
OPLS_2005

> <r_lp_Energy>
18.0195

> <b_lp_Chiralities_Consistent>
1

> <s_lp_Variant>
AV-unprocessed.smi:1131-2

> <Gold.Version>
5.8.1

> <Gold.Id.Protein>
6NUR|6NUR_protein|mol2

> <Gold.PLP.Fitness>
40.6244

> <Gold.PLP.PLP>
-36.0010

> <Gold.PLP.part.hbond>
-2.0000

> <Gold.PLP.part.metal>
0.0000

> <Gold.PLP.part.buried>
-3.4506

> <Gold.PLP.part.nonpolar>
-32.8857

> <Gold.PLP.part.repulsive>
2.0631

> <Gold.PLP.ligand.clash>
0.0000

> <Gold.PLP.ligand.torsion>
0.4869

> <Gold.PLP.Chemscore.Hbond>
1.8613

> <Gold.PLP.Chemscore.CHOScore>
0.0000

> <Gold.PLP.Chemscore.Metal>
0.0000

> <Gold.Chemscore.Hbonds>
donor molecule, donor type, donor heavy atom, donor atom, acceptor molecule, acceptor atom, score
      L1  H     9    19       P1  7948  1.00
      P1  H 10752 10764       L1    11  0.43

> <Gold.PLP.Chemscore.Internal.Correction>
0.0134

> <Gold.Rescore>
     Score         DG    S(hbond)    S(metal)    S(lipo)     H(rot)  DE(clash)    DE(int)     intcor
     12.78     -14.67       1.76        0.00      74.12       2.09       0.20       1.69       ----

> <Gold.Chemscore.Fitness>
12.7819

> <Gold.Chemscore.DG>
-14.6716

> <Gold.Chemscore.ZeroCoef>
-5.4800

> <Gold.Chemscore.Hbond>
1.7589

> <Gold.Chemscore.Metal>
0.0000

> <Gold.Chemscore.Lipo>
74.1211

> <Gold.Chemscore.Internal_Hbond>
0.0000

> <Gold.Chemscore.DEClash>
0.2011

> <Gold.Chemscore.DEInternal>
1.6886

> <Gold.Chemscore.Rot>
2.0919

> <Gold.Chemscore.Internal.Correction>
   9.000000E+99

> <Gold.Chemscore.Hbonds>
donor molecule, donor type, donor heavy atom, donor atom, acceptor molecule, acceptor atom, score
      L1  H     9    19       P1  7948  0.74
      P1  H 10752 10764       L1    11  0.41

> <Gold.Chemscore.Hbond.Weighted>
-5.8747

> <Gold.Chemscore.Metal.Weighted>
-0.0000

> <Gold.Chemscore.Lipo.Weighted>
-8.6722

> <Gold.Chemscore.Internal_Hbond.Weighted>
0.0000

> <Gold.Chemscore.DEClash.Weighted>
0.2011

> <Gold.Chemscore.DEInternal.Weighted>
1.6886

> <Gold.Chemscore.Rot.Weighted>
5.3552

> <Gold.Chemscore.Internal.Correction.Weighted>
   9.000000E+99

> <Gold.Protein.RotatedTorsions>
[ 6907 6896 6895 6894 ] final  175.59 input  -60.11 | X-H torsion
[ 7974 7965 7964 7962 ] final -117.04 input  175.53 | X-H torsion
[ 8008 7997 7996 7995 ] final  -44.23 input   59.86 | X-H torsion
[ 10167 10162 10161 10158 ] final  141.98 input  -65.29 | X-H torsion
[ 10718 10713 10712 10709 ] final  149.11 input   66.30 | X-H torsion
[ 10763 10752 10751 10750 ] final  -66.65 input  -60.55 | X-H torsion
[ 11005 11000 10999 10996 ] final  -43.51 input  -57.11 | X-H torsion

> <Gold.Protein.ActiveResidues>
 VAL166  LYS551  ARG553  GLY616  TRP617  ASP618  TYR619  PRO620  LYS621  CYS622 
 ASP623  PHE694  ASN695  SER759  ASP760  ASP761  ALA762  ILE779  LEU786  VAL792 
 PHE793  MET794  SER795  GLU796  ALA797  LYS798  CYS799  TRP800  GLU811  SER814 

> <Gold.Protein.RotatedAtoms>
  151.7337  133.3319  159.3346 H   0  0  0  0  0  0  0  0  0  0  0  0  # atno 6907 bound_to 6896
  150.7602  134.6340  159.6211 H   0  0  0  0  0  0  0  0  0  0  0  0  # atno 6908 bound_to 6896
  152.3575  134.6921  160.0269 H   0  0  0  0  0  0  0  0  0  0  0  0  # atno 6909 bound_to 6896
  145.0898  140.8482  143.3989 H   0  0  0  0  0  0  0  0  0  0  0  0  # atno 7974 bound_to 7965
  154.3997  140.1427  156.3649 H   0  0  0  0  0  0  0  0  0  0  0  0  # atno 8008 bound_to 7997
  155.8147  140.3471  155.5457 H   0  0  0  0  0  0  0  0  0  0  0  0  # atno 8009 bound_to 7997
  155.8350  140.0918  157.1760 H   0  0  0  0  0  0  0  0  0  0  0  0  # atno 8010 bound_to 7997
  139.5006  144.6137  151.6214 H   0  0  0  0  0  0  0  0  0  0  0  0  # atno 10167 bound_to 10162
  157.3002  131.0869  151.1396 H   0  0  0  0  0  0  0  0  0  0  0  0  # atno 10718 bound_to 10713
  154.3629  135.6112  153.5700 H   0  0  0  0  0  0  0  0  0  0  0  0  # atno 10763 bound_to 10752
  152.9793  135.5819  154.4612 H   0  0  0  0  0  0  0  0  0  0  0  0  # atno 10764 bound_to 10752
  154.4353  135.2849  155.1862 H   0  0  0  0  0  0  0  0  0  0  0  0  # atno 10765 bound_to 10752
  141.0389  133.6788  156.2743 H   0  0  0  0  0  0  0  0  0  0  0  0  # atno 11005 bound_to 11000
  145.1079  139.2777  143.5652 LP  0  0  0  0  0  0  0  0  0  0  0  0  # atno 17320 bound_to 7965
  146.3531  140.0666  142.8626 LP  0  0  0  0  0  0  0  0  0  0  0  0  # atno 17321 bound_to 7965
  140.5818  143.9932  150.6273 LP  0  0  0  0  0  0  0  0  0  0  0  0  # atno 17342 bound_to 10162
  140.3084  143.3214  152.0903 LP  0  0  0  0  0  0  0  0  0  0  0  0  # atno 17343 bound_to 10162
  157.2758  130.6726  149.6041 LP  0  0  0  0  0  0  0  0  0  0  0  0  # atno 17370 bound_to 10713
  155.9671  130.4465  150.5543 LP  0  0  0  0  0  0  0  0  0  0  0  0  # atno 17371 bound_to 10713
  140.6272  134.5301  157.5555 LP  0  0  0  0  0  0  0  0  0  0  0  0  # atno 17394 bound_to 11000
  139.9261  134.8054  156.1066 LP  0  0  0  0  0  0  0  0  0  0  0  0  # atno 17395 bound_to 11000

$$$$
