#       Name:                AV-unprocessed.smi:3226
#       Creating user name   scv26
#       Creation time:       Fri Mar 27 18:16:18 2020


#       File generated by GOLD software.
#

@<TRIPOS>MOLECULE
AV-unprocessed.smi:3226
    43    45     1
SMALL
NO_CHARGES


@<TRIPOS>ATOM
      1 ****        -3.9669   0.2022  -4.2440 C.3            1 S1                 0.0000
      2 ****        -2.7107   0.8469  -3.6474 C.3            1 S1                 0.0000
      3 ****        -2.9078   1.2875  -2.2295 C.2            1 S1                 0.0000
      4 ****        -3.4050   2.4840  -1.8944 N.2            1 S1                 0.0000
      5 ****        -3.4580   2.4938  -0.5151 N.2            1 S1                 0.0000
      6 ****        -2.9966   1.2980  -0.1542 C.2            1 S1                 0.0000
      7 ****        -2.6316   0.4989  -1.1690 N.pl3          1 S1                 0.0000
      8 ****        -2.0942  -0.8499  -1.1048 C.3            1 S1                 0.0000
      9 ****        -0.5572  -0.8691  -1.1355 C.3            1 S1                 0.0000
     10 ****         0.0217  -0.2364   0.0670 N.4            1 S1                 1.0000
     11 ****         1.4964  -0.2659   0.1103 C.3            1 S1                 0.0000
     12 ****         2.0310   0.4007   1.3919 C.3            1 S1                 0.0000
     13 ****         3.5876   0.4286   1.4846 C.3            1 S1                 0.0000
     14 ****         3.8653  -0.1997   2.8699 C.3            1 S1                 0.0000
     15 ****         3.4837  -1.6626   2.7968 C.2            1 S1                 0.0000
     16 ****         2.1539  -1.7218   2.7119 C.2            1 S1                 0.0000
     17 ****         1.6370  -0.2969   2.7228 C.3            1 S1                 0.0000
     18 ****         2.6694   0.3479   3.6556 C.3            1 S1                 0.0000
     19 ****        -3.7929  -0.1067  -5.2748 H              1 S1                 0.0000
     20 ****        -4.8057   0.8992  -4.2423 H              1 S1                 0.0000
     21 ****        -4.2642  -0.6807  -3.6776 H              1 S1                 0.0000
     22 ****        -1.8709   0.1552  -3.7058 H              1 S1                 0.0000
     23 ****        -2.4291   1.7153  -4.2442 H              1 S1                 0.0000
     24 ****        -2.9189   0.9980   0.8806 H              1 S1                 0.0000
     25 ****        -2.4640  -1.3322  -0.1988 H              1 S1                 0.0000
     26 ****        -2.4932  -1.4231  -1.9421 H              1 S1                 0.0000
     27 ****        -0.2112  -1.9021  -1.1900 H              1 S1                 0.0000
     28 ****        -0.1867  -0.3623  -2.0274 H              1 S1                 0.0000
     29 ****        -0.2810   0.7267   0.1024 H              1 S1                 0.0000
     30 ****         1.8440  -1.2966   0.0315 H              1 S1                 0.0000
     31 ****         1.8821   0.2632  -0.7622 H              1 S1                 0.0000
     32 ****         1.6678   1.4298   1.4187 H              1 S1                 0.0000
     33 ****         4.0704  -0.1348   0.6845 H              1 S1                 0.0000
     34 ****         3.9581   1.4535   1.4375 H              1 S1                 0.0000
     35 ****         4.8455  -0.0024   3.3045 H              1 S1                 0.0000
     36 ****         4.1852  -2.4837   2.7855 H              1 S1                 0.0000
     37 ****         1.5358  -2.6023   2.6159 H              1 S1                 0.0000
     38 ****         0.5990  -0.1875   3.0381 H              1 S1                 0.0000
     39 ****         2.6198  -0.0347   4.6773 H              1 S1                 0.0000
     40 ****         2.6226   1.4385   3.6862 H              1 S1                 0.0000
     41 ****        -0.3295  -0.7160   0.8836 H              1 S1                 0.0000
     42 ****        -3.6809   3.2184  -2.5144 LP             1 S1                 0.0000
     43 ****        -3.7725   3.2334   0.0800 LP             1 S1                 0.0000
@<TRIPOS>BOND
    1    1    2 1     
    2    1   19 1     
    3    1   20 1     
    4    1   21 1     
    5    2    3 1     
    6    2   22 1     
    7    2   23 1     
    8    3    7 1     
    9    3    4 2     
   10    4    5 1     
   11    5    6 2     
   12    6    7 1     
   13    6   24 1     
   14    7    8 1     
   15    8    9 1     
   16    8   25 1     
   17    8   26 1     
   18    9   10 1     
   19    9   27 1     
   20    9   28 1     
   21   10   11 1     
   22   10   29 1     
   23   10   41 1     
   24   11   12 1     
   25   11   30 1     
   26   11   31 1     
   27   12   17 1     
   28   12   13 1     
   29   12   32 1     
   30   13   14 1     
   31   13   33 1     
   32   13   34 1     
   33   14   18 1     
   34   14   15 1     
   35   14   35 1     
   36   15   16 2     
   37   15   36 1     
   38   16   17 1     
   39   16   37 1     
   40   17   18 1     
   41   17   38 1     
   42   18   39 1     
   43   18   40 1     
   44    4   42 1     
   45    5   43 1     
@<TRIPOS>SUBSTRUCTURE
      1 S1             1
@<TRIPOS>SET
LONE_PAIRS      STATIC     ATOMS    <user>   **** ""
2 42 43
DONOR_HYDROGENS      STATIC     ATOMS    <user>   **** ""
2 29 41
ATOM$BLUE        STATIC     ATOMS    COLORGROUP SYSTEM
2 42 43
ATOM$RED        STATIC     ATOMS    COLORGROUP SYSTEM
2 29 41
