AV-unprocessed.smi:3165|AV-procd|sdf|12086|dock1
  -GOLD-   2272017513D 1   1.00000     0.00000
 Structure written by MMmdl.
 38 39  0  0  0  0  0  0  0  0  2 V2000
  147.1548  141.9589  155.0856 C   0  0  0  0  0  0  0  0  0  0  0  0
  148.3820  141.1048  155.4609 C   0  0  1  0  0  0  0  0  0  0  0  0
  148.9078  140.2786  154.2679 C   0  0  0  0  0  0  0  0  0  0  0  0
  150.0153  139.4075  154.6187 N   0  0  0  0  0  0  0  0  0  0  0  0
  150.0635  138.0291  154.5999 C   0  0  0  0  0  0  0  0  0  0  0  0
  151.3165  137.6613  154.9988 C   0  0  0  0  0  0  0  0  0  0  0  0
  151.9735  138.9008  155.2363 C   0  0  0  0  0  0  0  0  0  0  0  0
  151.1933  139.9442  155.0034 N   0  0  0  0  0  0  0  0  0  0  0  0
  149.4794  141.9446  155.9912 N   0  3  0  0  0  0  0  0  0  0  0  0
  149.8775  141.6675  157.3879 C   0  0  0  0  0  0  0  0  0  0  0  0
  151.2013  142.3661  157.7286 C   0  0  2  0  0  0  0  0  0  0  0  0
  151.7438  141.9293  159.1032 C   0  0  0  0  0  0  0  0  0  0  0  0
  153.0137  142.7121  159.4569 C   0  0  0  0  0  0  0  0  0  0  0  0
  152.7448  144.2158  159.3368 C   0  0  0  0  0  0  0  0  0  0  0  0
  152.1457  144.5428  157.9601 C   0  0  0  0  0  0  0  0  0  0  0  0
  150.9656  143.7730  157.7490 O   0  0  0  0  0  0  0  0  0  0  0  0
  146.3378  141.3406  154.7132 H   0  0  0  0  0  0  0  0  0  0  0  0
  147.4002  142.6846  154.3094 H   0  0  0  0  0  0  0  0  0  0  0  0
  146.7637  142.5068  155.9423 H   0  0  0  0  0  0  0  0  0  0  0  0
  148.0906  140.4067  156.2472 H   0  0  0  0  0  0  0  0  0  0  0  0
  148.1068  139.6649  153.8526 H   0  0  0  0  0  0  0  0  0  0  0  0
  149.2401  140.9397  153.4660 H   0  0  0  0  0  0  0  0  0  0  0  0
  149.2124  137.4307  154.3098 H   0  0  0  0  0  0  0  0  0  0  0  0
  151.7058  136.6595  155.1027 H   0  0  0  0  0  0  0  0  0  0  0  0
  152.9875  139.0722  155.5665 H   0  0  0  0  0  0  0  0  0  0  0  0
  150.2917  141.7843  155.4127 H   0  0  0  0  0  0  0  0  0  0  0  0
  149.0992  141.9925  158.0782 H   0  0  0  0  0  0  0  0  0  0  0  0
  149.9903  140.5899  157.5129 H   0  0  0  0  0  0  0  0  0  0  0  0
  151.9376  142.1315  156.9575 H   0  0  0  0  0  0  0  0  0  0  0  0
  150.9864  142.0998  159.8697 H   0  0  0  0  0  0  0  0  0  0  0  0
  151.9547  140.8595  159.1052 H   0  0  0  0  0  0  0  0  0  0  0  0
  153.3459  142.4641  160.4654 H   0  0  0  0  0  0  0  0  0  0  0  0
  153.8213  142.4278  158.7812 H   0  0  0  0  0  0  0  0  0  0  0  0
  152.0515  144.5286  160.1185 H   0  0  0  0  0  0  0  0  0  0  0  0
  153.6661  144.7780  159.4925 H   0  0  0  0  0  0  0  0  0  0  0  0
  151.8903  145.6011  157.9055 H   0  0  0  0  0  0  0  0  0  0  0  0
  152.8672  144.3484  157.1650 H   0  0  0  0  0  0  0  0  0  0  0  0
  149.2182  142.9172  155.9105 H   0  0  0  0  0  0  0  0  0  0  0  0
  1  2  1  0  0  0  0
  1 17  1  0  0  0  0
  1 18  1  0  0  0  0
  1 19  1  0  0  0  0
  2  3  1  0  0  0  0
  2  9  1  0  0  0  0
  2 20  1  0  0  0  0
  3  4  1  0  0  0  0
  3 21  1  0  0  0  0
  3 22  1  0  0  0  0
  4  8  1  0  0  0  0
  4  5  1  0  0  0  0
  5  6  2  0  0  0  0
  5 23  1  0  0  0  0
  6  7  1  0  0  0  0
  6 24  1  0  0  0  0
  7  8  2  0  0  0  0
  7 25  1  0  0  0  0
  9 10  1  0  0  0  0
  9 26  1  0  0  0  0
  9 38  1  0  0  0  0
 10 11  1  0  0  0  0
 10 27  1  0  0  0  0
 10 28  1  0  0  0  0
 11 16  1  0  0  0  0
 11 12  1  0  0  0  0
 11 29  1  0  0  0  0
 12 13  1  0  0  0  0
 12 30  1  0  0  0  0
 12 31  1  0  0  0  0
 13 14  1  0  0  0  0
 13 32  1  0  0  0  0
 13 33  1  0  0  0  0
 14 15  1  0  0  0  0
 14 34  1  0  0  0  0
 14 35  1  0  0  0  0
 15 16  1  0  0  0  0
 15 36  1  0  0  0  0
 15 37  1  0  0  0  0
M  CHG  1   9   1
M  END
> <s_m_source_file>
AV-unprocessed.smi

> <i_m_source_file_index>
3165

> <i_lp_mmshare_version>
43012

> <i_f3d_flags>
0

> <s_epik_input>
bjFbY0hdW2NIXVtjSF1uMVtDSDJdW0NAQEhdKFtDSDNdKVtOSF1bQ0gyXVtDQEBIXTJbQ0gyXVtDSDJdW0NIMl1bQ0gyXU8y

> <s_epik_cmdline>
J2VwaWtfcHl0aG9uJywgJy1waCcsICc3LjAnLCAnLXRuJywgJzgnLCAnLW1hJywgJzIwMCcsICctbWV0YWxfYmluZGluZycsICctaW1hZScsICc8aW5maWxlLm1hZT4nLCAnLW9tYWUnLCAnPG91dGZpbGUubWFlPic=

> <r_lp_tautomer_probability>
1

> <r_epik_Ionization_Penalty>
0.00849196

> <r_epik_Ionization_Penalty_Charging>
0.00848754

> <r_epik_Ionization_Penalty_Neutral>
4.42049e-06

> <r_epik_State_Penalty>
0.00639836

> <r_epik_Charging_Adjusted_Penalty>
0.0148859

> <i_epik_Tot_Q>
1

> <i_epik_Tot_abs_Q>
1

> <r_epik_Metal_State_Penalty>
0.00639878

> <b_epik_Metal_Only>
0

> <s_lp_Force_Field>
OPLS_2005

> <r_lp_Energy>
12.7684

> <b_lp_Chiralities_Consistent>
1

> <s_lp_Variant>
AV-unprocessed.smi:3165-2

> <Gold.Version>
5.8.1

> <Gold.Id.Protein>
6NUR|6NUR_protein|mol2

> <Gold.PLP.Fitness>
49.5394

> <Gold.PLP.PLP>
-39.1151

> <Gold.PLP.part.hbond>
-2.0000

> <Gold.PLP.part.metal>
0.0000

> <Gold.PLP.part.buried>
-2.8444

> <Gold.PLP.part.nonpolar>
-34.1827

> <Gold.PLP.part.repulsive>
0.4083

> <Gold.PLP.ligand.clash>
0.0000

> <Gold.PLP.ligand.torsion>
0.8489

> <Gold.PLP.Chemscore.Hbond>
3.0000

> <Gold.PLP.Chemscore.CHOScore>
0.9952

> <Gold.PLP.Chemscore.Metal>
0.0000

> <Gold.Chemscore.Hbonds>
donor molecule, donor type, donor heavy atom, donor atom, acceptor molecule, acceptor atom, score
      L1  H     9    38       P1  8028  2.00
      P1  H  7989  7998       L1     8  1.00
      L1  C     5    23       P1  7948  0.45

> <Gold.PLP.Chemscore.Internal.Correction>
0.1366

> <Gold.Rescore>
     Score         DG    S(hbond)    S(metal)    S(lipo)     H(rot)  DE(clash)    DE(int)     intcor
     18.27     -19.46       1.89        0.00     101.42       1.64       0.15       1.04       ----

> <Gold.Chemscore.Fitness>
18.2747

> <Gold.Chemscore.DG>
-19.4598

> <Gold.Chemscore.ZeroCoef>
-5.4800

> <Gold.Chemscore.Hbond>
1.8931

> <Gold.Chemscore.Metal>
0.0000

> <Gold.Chemscore.Lipo>
101.4237

> <Gold.Chemscore.Internal_Hbond>
0.0000

> <Gold.Chemscore.DEClash>
0.1483

> <Gold.Chemscore.DEInternal>
1.0367

> <Gold.Chemscore.Rot>
1.6444

> <Gold.Chemscore.Internal.Correction>
   9.000000E+99

> <Gold.Chemscore.Hbonds>
donor molecule, donor type, donor heavy atom, donor atom, acceptor molecule, acceptor atom, score
      L1  H     9    38       P1  8028  1.00
      P1  H  7989  7998       L1     8  0.26

> <Gold.Chemscore.Hbond.Weighted>
-6.3229

> <Gold.Chemscore.Metal.Weighted>
-0.0000

> <Gold.Chemscore.Lipo.Weighted>
-11.8666

> <Gold.Chemscore.Internal_Hbond.Weighted>
0.0000

> <Gold.Chemscore.DEClash.Weighted>
0.1483

> <Gold.Chemscore.DEInternal.Weighted>
1.0367

> <Gold.Chemscore.Rot.Weighted>
4.2097

> <Gold.Chemscore.Internal.Correction.Weighted>
   9.000000E+99

> <Gold.Protein.RotatedTorsions>
[ 6907 6896 6895 6894 ] final   88.82 input  -60.11 | X-H torsion
[ 7974 7965 7964 7962 ] final -148.32 input  175.53 | X-H torsion
[ 8008 7997 7996 7995 ] final -100.91 input   59.86 | X-H torsion
[ 10167 10162 10161 10158 ] final  -70.94 input  -65.29 | X-H torsion
[ 10718 10713 10712 10709 ] final -123.06 input   66.30 | X-H torsion
[ 10763 10752 10751 10750 ] final   92.03 input  -60.55 | X-H torsion
[ 11005 11000 10999 10996 ] final  140.62 input  -57.11 | X-H torsion

> <Gold.Protein.ActiveResidues>
 VAL166  LYS551  ARG553  GLY616  TRP617  ASP618  TYR619  PRO620  LYS621  CYS622 
 ASP623  PHE694  ASN695  SER759  ASP760  ASP761  ALA762  ILE779  LEU786  VAL792 
 PHE793  MET794  SER795  GLU796  ALA797  LYS798  CYS799  TRP800  GLU811  SER814 

> <Gold.Protein.RotatedAtoms>
  152.5429  134.2062  159.8731 H   0  0  0  0  0  0  0  0  0  0  0  0  # atno 6907 bound_to 6896
  151.2047  133.4583  159.2604 H   0  0  0  0  0  0  0  0  0  0  0  0  # atno 6908 bound_to 6896
  151.0955  134.9954  159.8479 H   0  0  0  0  0  0  0  0  0  0  0  0  # atno 6909 bound_to 6896
  144.8037  140.5212  143.5690 H   0  0  0  0  0  0  0  0  0  0  0  0  # atno 7974 bound_to 7965
  154.8351  140.0438  157.1504 H   0  0  0  0  0  0  0  0  0  0  0  0  # atno 8008 bound_to 7997
  154.9109  140.3013  155.5247 H   0  0  0  0  0  0  0  0  0  0  0  0  # atno 8009 bound_to 7997
  156.2989  140.2358  156.4148 H   0  0  0  0  0  0  0  0  0  0  0  0  # atno 8010 bound_to 7997
  140.5313  143.2321  151.7257 H   0  0  0  0  0  0  0  0  0  0  0  0  # atno 10167 bound_to 10162
  156.1470  130.6507  150.9857 H   0  0  0  0  0  0  0  0  0  0  0  0  # atno 10718 bound_to 10713
  153.2147  135.4376  155.0420 H   0  0  0  0  0  0  0  0  0  0  0  0  # atno 10763 bound_to 10752
  154.8219  135.3341  154.7016 H   0  0  0  0  0  0  0  0  0  0  0  0  # atno 10764 bound_to 10752
  153.7452  135.7002  153.5014 H   0  0  0  0  0  0  0  0  0  0  0  0  # atno 10765 bound_to 10752
  140.0341  134.9337  157.0719 H   0  0  0  0  0  0  0  0  0  0  0  0  # atno 11005 bound_to 11000
  145.5490  139.1476  143.3404 LP  0  0  0  0  0  0  0  0  0  0  0  0  # atno 17320 bound_to 7965
  146.2324  140.5629  142.8969 LP  0  0  0  0  0  0  0  0  0  0  0  0  # atno 17321 bound_to 7965
  139.4955  144.4110  152.0080 LP  0  0  0  0  0  0  0  0  0  0  0  0  # atno 17342 bound_to 10162
  140.3213  144.3425  150.6009 LP  0  0  0  0  0  0  0  0  0  0  0  0  # atno 17343 bound_to 10162
  157.6625  131.0878  150.7806 LP  0  0  0  0  0  0  0  0  0  0  0  0  # atno 17370 bound_to 10713
  156.7876  130.4879  149.5390 LP  0  0  0  0  0  0  0  0  0  0  0  0  # atno 17371 bound_to 10713
  140.4177  134.1914  155.7164 LP  0  0  0  0  0  0  0  0  0  0  0  0  # atno 17394 bound_to 11000
  141.1847  133.8338  157.1129 LP  0  0  0  0  0  0  0  0  0  0  0  0  # atno 17395 bound_to 11000

$$$$
