AV-unprocessed.smi:2378|AV-procd|sdf|9450|dock8
  -GOLD-   2272013 83D 1   1.00000     0.00000
 Structure written by MMmdl.
 40 41  0  0  0  0  0  0  0  0  1 V2000
  151.9482  145.7664  160.4297 C   0  0  0  0  0  0  0  0  0  0  0  0
  152.0240  144.4589  159.6694 C   0  0  0  0  0  0  0  0  0  0  0  0
  152.9101  143.4403  160.0688 C   0  0  0  0  0  0  0  0  0  0  0  0
  152.9337  142.2494  159.3196 C   0  0  0  0  0  0  0  0  0  0  0  0
  152.1508  142.0393  158.2407 N   0  0  0  0  0  0  0  0  0  0  0  0
  151.2933  143.0132  157.8458 C   0  0  0  0  0  0  0  0  0  0  0  0
  150.4249  142.8946  156.7280 N   0  0  0  0  0  0  0  0  0  0  0  0
  150.2385  141.8295  155.9284 C   0  0  0  0  0  0  0  0  0  0  0  0
  150.8174  140.7479  156.0348 O   0  0  0  0  0  0  0  0  0  0  0  0
  149.3313  142.0914  154.9763 N   0  0  0  0  0  0  0  0  0  0  0  0
  148.9110  141.1564  153.9389 C   0  0  0  0  0  0  0  0  0  0  0  0
  147.4171  140.8120  154.0632 C   0  0  0  0  0  0  0  0  0  0  0  0
  146.5785  141.9769  154.6121 C   0  0  1  0  0  0  0  0  0  0  0  0
  145.9968  142.8493  153.4825 C   0  0  0  0  0  0  0  0  0  0  0  0
  145.1062  143.9547  154.0602 C   0  0  0  0  0  0  0  0  0  0  0  0
  144.0492  143.3364  154.9809 C   0  0  0  0  0  0  0  0  0  0  0  0
  144.7172  142.4339  156.0305 C   0  0  0  0  0  0  0  0  0  0  0  0
  145.5063  141.4395  155.3845 O   0  0  0  0  0  0  0  0  0  0  0  0
  151.2061  144.2398  158.5425 C   0  0  0  0  0  0  0  0  0  0  0  0
  152.5189  145.7182  161.3577 H   0  0  0  0  0  0  0  0  0  0  0  0
  150.9131  146.0008  160.6790 H   0  0  0  0  0  0  0  0  0  0  0  0
  152.3493  146.5788  159.8234 H   0  0  0  0  0  0  0  0  0  0  0  0
  153.5565  143.5633  160.9254 H   0  0  0  0  0  0  0  0  0  0  0  0
  153.5992  141.4440  159.5933 H   0  0  0  0  0  0  0  0  0  0  0  0
  149.8834  143.7180  156.5107 H   0  0  0  0  0  0  0  0  0  0  0  0
  148.9049  143.0062  154.9630 H   0  0  0  0  0  0  0  0  0  0  0  0
  149.1321  141.5670  152.9522 H   0  0  0  0  0  0  0  0  0  0  0  0
  149.5105  140.2515  154.0385 H   0  0  0  0  0  0  0  0  0  0  0  0
  147.0366  140.5302  153.0805 H   0  0  0  0  0  0  0  0  0  0  0  0
  147.2882  139.9386  154.7039 H   0  0  0  0  0  0  0  0  0  0  0  0
  147.2109  142.5929  155.2543 H   0  0  0  0  0  0  0  0  0  0  0  0
  146.8000  143.2900  152.8913 H   0  0  0  0  0  0  0  0  0  0  0  0
  145.4120  142.2292  152.8019 H   0  0  0  0  0  0  0  0  0  0  0  0
  145.7168  144.6616  154.6232 H   0  0  0  0  0  0  0  0  0  0  0  0
  144.6301  144.5189  153.2578 H   0  0  0  0  0  0  0  0  0  0  0  0
  143.4681  144.1195  155.4688 H   0  0  0  0  0  0  0  0  0  0  0  0
  143.3474  142.7476  154.3888 H   0  0  0  0  0  0  0  0  0  0  0  0
  145.3370  143.0201  156.7107 H   0  0  0  0  0  0  0  0  0  0  0  0
  143.9584  141.9404  156.6379 H   0  0  0  0  0  0  0  0  0  0  0  0
  150.5189  145.0078  158.2174 H   0  0  0  0  0  0  0  0  0  0  0  0
  1  2  1  0  0  0  0
  1 20  1  0  0  0  0
  1 21  1  0  0  0  0
  1 22  1  0  0  0  0
  2 19  1  0  0  0  0
  2  3  2  0  0  0  0
  3  4  1  0  0  0  0
  3 23  1  0  0  0  0
  4  5  2  0  0  0  0
  4 24  1  0  0  0  0
  5  6  1  0  0  0  0
  6  7  1  0  0  0  0
  6 19  2  0  0  0  0
  7  8  1  0  0  0  0
  7 25  1  0  0  0  0
  8  9  2  0  0  0  0
  8 10  1  0  0  0  0
 10 11  1  0  0  0  0
 10 26  1  0  0  0  0
 11 12  1  0  0  0  0
 11 27  1  0  0  0  0
 11 28  1  0  0  0  0
 12 13  1  0  0  0  0
 12 29  1  0  0  0  0
 12 30  1  0  0  0  0
 13 18  1  0  0  0  0
 13 14  1  0  0  0  0
 13 31  1  0  0  0  0
 14 15  1  0  0  0  0
 14 32  1  0  0  0  0
 14 33  1  0  0  0  0
 15 16  1  0  0  0  0
 15 34  1  0  0  0  0
 15 35  1  0  0  0  0
 16 17  1  0  0  0  0
 16 36  1  0  0  0  0
 16 37  1  0  0  0  0
 17 18  1  0  0  0  0
 17 38  1  0  0  0  0
 17 39  1  0  0  0  0
 19 40  1  0  0  0  0
M  END
> <s_m_source_file>
AV-unprocessed.smi

> <i_m_source_file_index>
2378

> <i_lp_mmshare_version>
43012

> <i_f3d_flags>
0

> <s_epik_input>
W0NIM11jMVtjSF1bY0hdbmMoW2NIXTEpW05IXUMoPU8pW05IXVtDSDJdW0NIMl1bQ0BASF0yW0NIMl1bQ0gyXVtDSDJdW0NIMl1PMg==

> <s_epik_cmdline>
J2VwaWtfcHl0aG9uJywgJy1waCcsICc3LjAnLCAnLXRuJywgJzgnLCAnLW1hJywgJzIwMCcsICctbWV0YWxfYmluZGluZycsICctaW1hZScsICc8aW5maWxlLm1hZT4nLCAnLW9tYWUnLCAnPG91dGZpbGUubWFlPic=

> <r_lp_tautomer_probability>
1

> <r_epik_Ionization_Penalty>
8.60919e-05

> <r_epik_Ionization_Penalty_Charging>
0

> <r_epik_Ionization_Penalty_Neutral>
8.60919e-05

> <r_epik_State_Penalty>
-0

> <r_epik_Charging_Adjusted_Penalty>
0

> <i_epik_Tot_Q>
0

> <i_epik_Tot_abs_Q>
0

> <r_epik_Metal_State_Penalty>
-0

> <b_epik_Metal_Only>
0

> <s_lp_Force_Field>
OPLS_2005

> <r_lp_Energy>
10.7522

> <b_lp_Chiralities_Consistent>
1

> <s_lp_Variant>
AV-unprocessed.smi:2378-2

> <Gold.Version>
5.8.1

> <Gold.Id.Protein>
6NUR|6NUR_protein|mol2

> <Gold.PLP.Fitness>
47.3754

> <Gold.PLP.PLP>
-42.6391

> <Gold.PLP.part.hbond>
-2.0000

> <Gold.PLP.part.metal>
0.0000

> <Gold.PLP.part.buried>
-7.0916

> <Gold.PLP.part.nonpolar>
-34.6966

> <Gold.PLP.part.repulsive>
0.3868

> <Gold.PLP.ligand.clash>
0.0000

> <Gold.PLP.ligand.torsion>
0.5977

> <Gold.PLP.Chemscore.Hbond>
1.9760

> <Gold.PLP.Chemscore.CHOScore>
0.0000

> <Gold.PLP.Chemscore.Metal>
0.0000

> <Gold.Chemscore.Hbonds>
donor molecule, donor type, donor heavy atom, donor atom, acceptor molecule, acceptor atom, score
      L1  H     7    25       P1  8028  1.00
      L1  H    10    26       P1  8028  0.96

> <Gold.PLP.Chemscore.Internal.Correction>
0.0037

> <Gold.Rescore>
     Score         DG    S(hbond)    S(metal)    S(lipo)     H(rot)  DE(clash)    DE(int)     intcor
     17.94     -19.86       1.92        0.00      99.40       1.42       0.02       1.90       ----

> <Gold.Chemscore.Fitness>
17.9423

> <Gold.Chemscore.DG>
-19.8630

> <Gold.Chemscore.ZeroCoef>
-5.4800

> <Gold.Chemscore.Hbond>
1.9166

> <Gold.Chemscore.Metal>
0.0000

> <Gold.Chemscore.Lipo>
99.3951

> <Gold.Chemscore.Internal_Hbond>
0.0000

> <Gold.Chemscore.DEClash>
0.0234

> <Gold.Chemscore.DEInternal>
1.8972

> <Gold.Chemscore.Rot>
1.4248

> <Gold.Chemscore.Internal.Correction>
   9.000000E+99

> <Gold.Chemscore.Hbonds>
donor molecule, donor type, donor heavy atom, donor atom, acceptor molecule, acceptor atom, score
      L1  H     7    25       P1  8028  0.99
      L1  H    10    26       P1  8028  0.92

> <Gold.Chemscore.Hbond.Weighted>
-6.4014

> <Gold.Chemscore.Metal.Weighted>
-0.0000

> <Gold.Chemscore.Lipo.Weighted>
-11.6292

> <Gold.Chemscore.Internal_Hbond.Weighted>
0.0000

> <Gold.Chemscore.DEClash.Weighted>
0.0234

> <Gold.Chemscore.DEInternal.Weighted>
1.8972

> <Gold.Chemscore.Rot.Weighted>
3.6476

> <Gold.Chemscore.Internal.Correction.Weighted>
   9.000000E+99

> <Gold.Protein.RotatedTorsions>
[ 6907 6896 6895 6894 ] final -171.93 input  -60.11 | X-H torsion
[ 7974 7965 7964 7962 ] final -149.02 input  175.53 | X-H torsion
[ 8008 7997 7996 7995 ] final  127.19 input   59.86 | X-H torsion
[ 10167 10162 10161 10158 ] final  143.27 input  -65.29 | X-H torsion
[ 10718 10713 10712 10709 ] final  -25.88 input   66.30 | X-H torsion
[ 10763 10752 10751 10750 ] final -100.45 input  -60.55 | X-H torsion
[ 11005 11000 10999 10996 ] final -121.64 input  -57.11 | X-H torsion

> <Gold.Protein.ActiveResidues>
 VAL166  LYS551  ARG553  GLY616  TRP617  ASP618  TYR619  PRO620  LYS621  CYS622 
 ASP623  PHE694  ASN695  SER759  ASP760  ASP761  ALA762  ILE779  LEU786  VAL792 
 PHE793  MET794  SER795  GLU796  ALA797  LYS798  CYS799  TRP800  GLU811  SER814 

> <Gold.Protein.RotatedAtoms>
  151.5318  133.3448  159.2919 H   0  0  0  0  0  0  0  0  0  0  0  0  # atno 6907 bound_to 6896
  150.8589  134.7938  159.7078 H   0  0  0  0  0  0  0  0  0  0  0  0  # atno 6908 bound_to 6896
  152.4614  134.5184  159.9826 H   0  0  0  0  0  0  0  0  0  0  0  0  # atno 6909 bound_to 6896
  144.7993  140.5120  143.5718 H   0  0  0  0  0  0  0  0  0  0  0  0  # atno 7974 bound_to 7965
  156.2884  140.2675  156.2232 H   0  0  0  0  0  0  0  0  0  0  0  0  # atno 8008 bound_to 7997
  155.0146  140.0387  157.2431 H   0  0  0  0  0  0  0  0  0  0  0  0  # atno 8009 bound_to 7997
  154.7488  140.2739  155.6315 H   0  0  0  0  0  0  0  0  0  0  0  0  # atno 8010 bound_to 7997
  139.4974  144.6051  151.6395 H   0  0  0  0  0  0  0  0  0  0  0  0  # atno 10167 bound_to 10162
  156.4586  130.4499  149.6943 H   0  0  0  0  0  0  0  0  0  0  0  0  # atno 10718 bound_to 10713
  154.7580  135.4935  153.9410 H   0  0  0  0  0  0  0  0  0  0  0  0  # atno 10763 bound_to 10752
  153.1218  135.6733  153.9331 H   0  0  0  0  0  0  0  0  0  0  0  0  # atno 10764 bound_to 10752
  153.9061  135.3104  155.3427 H   0  0  0  0  0  0  0  0  0  0  0  0  # atno 10765 bound_to 10752
  141.0055  134.0340  157.3482 H   0  0  0  0  0  0  0  0  0  0  0  0  # atno 11005 bound_to 11000
  145.5593  139.1479  143.3350 LP  0  0  0  0  0  0  0  0  0  0  0  0  # atno 17320 bound_to 7965
  146.2270  140.5729  142.8992 LP  0  0  0  0  0  0  0  0  0  0  0  0  # atno 17321 bound_to 7965
  140.5711  144.0107  150.6217 LP  0  0  0  0  0  0  0  0  0  0  0  0  # atno 17342 bound_to 10162
  140.3225  143.3128  152.0770 LP  0  0  0  0  0  0  0  0  0  0  0  0  # atno 17343 bound_to 10162
  156.3741  130.7545  151.2532 LP  0  0  0  0  0  0  0  0  0  0  0  0  # atno 17370 bound_to 10713
  157.7499  131.0314  150.4183 LP  0  0  0  0  0  0  0  0  0  0  0  0  # atno 17371 bound_to 10713
  139.9061  135.0179  156.7492 LP  0  0  0  0  0  0  0  0  0  0  0  0  # atno 17394 bound_to 11000
  140.6819  133.9467  155.7915 LP  0  0  0  0  0  0  0  0  0  0  0  0  # atno 17395 bound_to 11000

$$$$
