AV-unprocessed.smi:313|AV-procd|sdf|2309|dock7
  -GOLD-   2262022203D 1   1.00000     0.00000
 Structure written by MMmdl.
 50 51  0  0  0  0  0  0  0  0  1 V2000
  151.7129  140.8825  158.6682 C   0  0  0  0  0  0  0  0  0  0  0  0
  150.6631  140.9522  157.5493 C   0  0  0  0  0  0  0  0  0  0  0  0
  150.8228  142.1748  156.6262 C   0  0  2  0  0  0  0  0  0  0  0  0
  150.8338  143.4886  157.4235 C   0  0  0  0  0  0  0  0  0  0  0  0
  149.7501  142.2005  155.6347 N   0  0  0  0  0  0  0  0  0  0  0  0
  149.4783  141.2262  154.7531 C   0  0  0  0  0  0  0  0  0  0  0  0
  150.1205  140.1767  154.6850 O   0  0  0  0  0  0  0  0  0  0  0  0
  148.2827  141.4765  153.8196 C   0  0  2  0  0  0  0  0  0  0  0  0
  147.1692  142.1460  154.6416 C   0  0  0  0  0  0  0  0  0  0  0  0
  147.7606  140.2161  153.2939 N   0  0  0  0  0  0  0  0  0  0  0  0
  147.0473  139.3187  153.9951 C   0  0  0  0  0  0  0  0  0  0  0  0
  146.7369  139.4712  155.1768 O   0  0  0  0  0  0  0  0  0  0  0  0
  146.5809  138.1172  153.2254 C   0  0  0  0  0  0  0  0  0  0  0  0
  146.4571  138.1374  151.8191 C   0  0  0  0  0  0  0  0  0  0  0  0
  146.0414  136.9703  151.1503 C   0  0  0  0  0  0  0  0  0  0  0  0
  145.7663  135.8032  151.9016 C   0  0  0  0  0  0  0  0  0  0  0  0
  145.3535  134.6204  151.2504 N   0  0  0  0  0  0  0  0  0  0  0  0
  146.3574  133.5620  151.1700 C   0  0  0  0  0  0  0  0  0  0  0  0
  145.9030  132.4640  150.1929 C   0  0  0  0  0  0  0  0  0  0  0  0
  144.6193  131.9806  150.5737 O   0  0  0  0  0  0  0  0  0  0  0  0
  143.6342  133.0074  150.5340 C   0  0  0  0  0  0  0  0  0  0  0  0
  144.0077  134.1210  151.5268 C   0  0  0  0  0  0  0  0  0  0  0  0
  145.8880  135.7858  153.2518 N   0  0  0  0  0  0  0  0  0  0  0  0
  146.2894  136.9063  153.8888 C   0  0  0  0  0  0  0  0  0  0  0  0
  151.5270  140.0285  159.3196 H   0  0  0  0  0  0  0  0  0  0  0  0
  151.6897  141.7813  159.2849 H   0  0  0  0  0  0  0  0  0  0  0  0
  152.7214  140.7766  158.2676 H   0  0  0  0  0  0  0  0  0  0  0  0
  150.7035  140.0352  156.9600 H   0  0  0  0  0  0  0  0  0  0  0  0
  149.6721  140.9754  158.0045 H   0  0  0  0  0  0  0  0  0  0  0  0
  151.7819  142.0807  156.1133 H   0  0  0  0  0  0  0  0  0  0  0  0
  151.6395  143.4950  158.1579 H   0  0  0  0  0  0  0  0  0  0  0  0
  149.8952  143.6364  157.9586 H   0  0  0  0  0  0  0  0  0  0  0  0
  150.9824  144.3477  156.7685 H   0  0  0  0  0  0  0  0  0  0  0  0
  149.1668  143.0245  155.6202 H   0  0  0  0  0  0  0  0  0  0  0  0
  148.5751  142.1314  152.9963 H   0  0  0  0  0  0  0  0  0  0  0  0
  147.5001  143.1001  155.0542 H   0  0  0  0  0  0  0  0  0  0  0  0
  146.8437  141.5186  155.4731 H   0  0  0  0  0  0  0  0  0  0  0  0
  146.2960  142.3476  154.0204 H   0  0  0  0  0  0  0  0  0  0  0  0
  147.9386  140.0230  152.3192 H   0  0  0  0  0  0  0  0  0  0  0  0
  146.6764  139.0287  151.2493 H   0  0  0  0  0  0  0  0  0  0  0  0
  145.9291  136.9875  150.0767 H   0  0  0  0  0  0  0  0  0  0  0  0
  147.3237  133.9450  150.8458 H   0  0  0  0  0  0  0  0  0  0  0  0
  146.5017  133.1390  152.1650 H   0  0  0  0  0  0  0  0  0  0  0  0
  145.8727  132.8425  149.1699 H   0  0  0  0  0  0  0  0  0  0  0  0
  146.6114  131.6357  150.2045 H   0  0  0  0  0  0  0  0  0  0  0  0
  143.5454  133.4027  149.5208 H   0  0  0  0  0  0  0  0  0  0  0  0
  142.6659  132.5808  150.7953 H   0  0  0  0  0  0  0  0  0  0  0  0
  143.9666  133.7389  152.5477 H   0  0  0  0  0  0  0  0  0  0  0  0
  143.2811  134.9309  151.4510 H   0  0  0  0  0  0  0  0  0  0  0  0
  146.3745  136.8275  154.9628 H   0  0  0  0  0  0  0  0  0  0  0  0
  1  2  1  0  0  0  0
  1 25  1  0  0  0  0
  1 26  1  0  0  0  0
  1 27  1  0  0  0  0
  2  3  1  0  0  0  0
  2 28  1  0  0  0  0
  2 29  1  0  0  0  0
  3  4  1  0  0  0  0
  3  5  1  0  0  0  0
  3 30  1  0  0  0  0
  4 31  1  0  0  0  0
  4 32  1  0  0  0  0
  4 33  1  0  0  0  0
  5  6  1  0  0  0  0
  5 34  1  0  0  0  0
  6  7  2  0  0  0  0
  6  8  1  0  0  0  0
  8  9  1  0  0  0  0
  8 10  1  0  0  0  0
  8 35  1  0  0  0  0
  9 36  1  0  0  0  0
  9 37  1  0  0  0  0
  9 38  1  0  0  0  0
 10 11  1  0  0  0  0
 10 39  1  0  0  0  0
 11 12  2  0  0  0  0
 11 13  1  0  0  0  0
 13 24  1  0  0  0  0
 13 14  2  0  0  0  0
 14 15  1  0  0  0  0
 14 40  1  0  0  0  0
 15 16  2  0  0  0  0
 15 41  1  0  0  0  0
 16 17  1  0  0  0  0
 16 23  1  0  0  0  0
 17 22  1  0  0  0  0
 17 18  1  0  0  0  0
 18 19  1  0  0  0  0
 18 42  1  0  0  0  0
 18 43  1  0  0  0  0
 19 20  1  0  0  0  0
 19 44  1  0  0  0  0
 19 45  1  0  0  0  0
 20 21  1  0  0  0  0
 21 22  1  0  0  0  0
 21 46  1  0  0  0  0
 21 47  1  0  0  0  0
 22 48  1  0  0  0  0
 22 49  1  0  0  0  0
 23 24  2  0  0  0  0
 24 50  1  0  0  0  0
M  END
> <s_m_source_file>
AV-unprocessed.smi

> <i_m_source_file_index>
313

> <i_lp_mmshare_version>
43012

> <i_f3d_flags>
0

> <s_epik_input>
W0NIM11bQ0gyXVtDQEhdKFtDSDNdKVtOSF1DKD1PKVtDQEhdKFtDSDNdKVtOSF1DKD1PKWMxW2NIXVtjSF1jKG5bY0hdMSlOMltDSDJdW0NIMl1PW0NIMl1bQ0gyXTI=

> <s_epik_cmdline>
J2VwaWtfcHl0aG9uJywgJy1waCcsICc3LjAnLCAnLXRuJywgJzgnLCAnLW1hJywgJzIwMCcsICctbWV0YWxfYmluZGluZycsICctaW1hZScsICc8aW5maWxlLm1hZT4nLCAnLW9tYWUnLCAnPG91dGZpbGUubWFlPic=

> <r_lp_tautomer_probability>
1

> <r_epik_Ionization_Penalty>
9.96442e-06

> <r_epik_Ionization_Penalty_Charging>
0

> <r_epik_Ionization_Penalty_Neutral>
9.96442e-06

> <r_epik_State_Penalty>
-0

> <r_epik_Charging_Adjusted_Penalty>
0

> <i_epik_Tot_Q>
0

> <i_epik_Tot_abs_Q>
0

> <r_epik_Metal_State_Penalty>
-0

> <b_epik_Metal_Only>
0

> <s_lp_Force_Field>
OPLS_2005

> <r_lp_Energy>
19.8546

> <b_lp_Chiralities_Consistent>
1

> <s_lp_Variant>
AV-unprocessed.smi:313-1

> <Gold.Version>
5.8.1

> <Gold.Id.Protein>
6NUR|6NUR_protein|mol2

> <Gold.PLP.Fitness>
44.9154

> <Gold.PLP.PLP>
-39.8019

> <Gold.PLP.part.hbond>
-3.0000

> <Gold.PLP.part.metal>
0.0000

> <Gold.PLP.part.buried>
1.0187

> <Gold.PLP.part.nonpolar>
-37.6820

> <Gold.PLP.part.repulsive>
0.7398

> <Gold.PLP.ligand.clash>
0.0000

> <Gold.PLP.ligand.torsion>
1.2212

> <Gold.PLP.Chemscore.Hbond>
2.3838

> <Gold.PLP.Chemscore.CHOScore>
0.0000

> <Gold.PLP.Chemscore.Metal>
0.0000

> <Gold.Chemscore.Hbonds>
donor molecule, donor type, donor heavy atom, donor atom, acceptor molecule, acceptor atom, score
      L1  H     5    34       P1  8028  1.00
      L1  H    10    39       P1  7957  0.70
      P1  H  7989  7998       L1     7  0.83

> <Gold.PLP.Chemscore.Internal.Correction>
0.4046

> <Gold.Rescore>
     Score         DG    S(hbond)    S(metal)    S(lipo)     H(rot)  DE(clash)    DE(int)     intcor
     14.91     -18.65       1.92        0.00      96.85       1.79       0.73       3.02       ----

> <Gold.Chemscore.Fitness>
14.9074

> <Gold.Chemscore.DG>
-18.6537

> <Gold.Chemscore.ZeroCoef>
-5.4800

> <Gold.Chemscore.Hbond>
1.9226

> <Gold.Chemscore.Metal>
0.0000

> <Gold.Chemscore.Lipo>
96.8513

> <Gold.Chemscore.Internal_Hbond>
0.0000

> <Gold.Chemscore.DEClash>
0.7286

> <Gold.Chemscore.DEInternal>
3.0177

> <Gold.Chemscore.Rot>
1.7888

> <Gold.Chemscore.Internal.Correction>
   9.000000E+99

> <Gold.Chemscore.Hbonds>
donor molecule, donor type, donor heavy atom, donor atom, acceptor molecule, acceptor atom, score
      L1  H     5    34       P1  8028  0.98
      L1  H    10    39       P1  7957  0.66
      P1  H  7989  7998       L1     7  0.13

> <Gold.Chemscore.Hbond.Weighted>
-6.4214

> <Gold.Chemscore.Metal.Weighted>
-0.0000

> <Gold.Chemscore.Lipo.Weighted>
-11.3316

> <Gold.Chemscore.Internal_Hbond.Weighted>
0.0000

> <Gold.Chemscore.DEClash.Weighted>
0.7286

> <Gold.Chemscore.DEInternal.Weighted>
3.0177

> <Gold.Chemscore.Rot.Weighted>
4.5793

> <Gold.Chemscore.Internal.Correction.Weighted>
   9.000000E+99

> <Gold.Protein.RotatedTorsions>
[ 6907 6896 6895 6894 ] final   74.23 input  -60.11 | X-H torsion
[ 7974 7965 7964 7962 ] final -103.05 input  175.53 | X-H torsion
[ 8008 7997 7996 7995 ] final -138.16 input   59.86 | X-H torsion
[ 10167 10162 10161 10158 ] final   14.08 input  -65.29 | X-H torsion
[ 10718 10713 10712 10709 ] final  106.55 input   66.30 | X-H torsion
[ 10763 10752 10751 10750 ] final   22.11 input  -60.55 | X-H torsion
[ 11005 11000 10999 10996 ] final  114.83 input  -57.11 | X-H torsion

> <Gold.Protein.ActiveResidues>
 VAL166  LYS551  ARG553  GLY616  TRP617  ASP618  TYR619  PRO620  LYS621  CYS622 
 ASP623  PHE694  ASN695  SER759  ASP760  ASP761  ALA762  ILE779  LEU786  VAL792 
 PHE793  MET794  SER795  GLU796  ALA797  LYS798  CYS799  TRP800  GLU811  SER814 

> <Gold.Protein.RotatedAtoms>
  152.4965  134.4303  159.9509 H   0  0  0  0  0  0  0  0  0  0  0  0  # atno 6907 bound_to 6896
  151.4281  133.3672  159.2773 H   0  0  0  0  0  0  0  0  0  0  0  0  # atno 6908 bound_to 6896
  150.9174  134.8615  159.7526 H   0  0  0  0  0  0  0  0  0  0  0  0  # atno 6909 bound_to 6896
  145.2609  140.9269  143.3041 H   0  0  0  0  0  0  0  0  0  0  0  0  # atno 7974 bound_to 7965
  155.4237  140.0520  157.3024 H   0  0  0  0  0  0  0  0  0  0  0  0  # atno 8008 bound_to 7997
  154.4891  140.2113  155.9548 H   0  0  0  0  0  0  0  0  0  0  0  0  # atno 8009 bound_to 7997
  156.1316  140.3170  155.8363 H   0  0  0  0  0  0  0  0  0  0  0  0  # atno 8010 bound_to 7997
  140.5960  143.8701  150.6918 H   0  0  0  0  0  0  0  0  0  0  0  0  # atno 10167 bound_to 10162
  157.6664  131.0853  150.6023 H   0  0  0  0  0  0  0  0  0  0  0  0  # atno 10718 bound_to 10713
  153.0941  135.6655  153.9796 H   0  0  0  0  0  0  0  0  0  0  0  0  # atno 10763 bound_to 10752
  153.9385  135.2996  155.3445 H   0  0  0  0  0  0  0  0  0  0  0  0  # atno 10764 bound_to 10752
  154.7359  135.5102  153.9114 H   0  0  0  0  0  0  0  0  0  0  0  0  # atno 10765 bound_to 10752
  139.8992  134.9574  156.6951 H   0  0  0  0  0  0  0  0  0  0  0  0  # atno 11005 bound_to 11000
  144.9419  139.4179  143.6444 LP  0  0  0  0  0  0  0  0  0  0  0  0  # atno 17320 bound_to 7965
  146.3275  139.8383  142.8895 LP  0  0  0  0  0  0  0  0  0  0  0  0  # atno 17321 bound_to 7965
  140.2236  143.3790  152.1623 LP  0  0  0  0  0  0  0  0  0  0  0  0  # atno 17342 bound_to 10162
  139.5258  144.7100  151.5235 LP  0  0  0  0  0  0  0  0  0  0  0  0  # atno 17343 bound_to 10162
  156.6324  130.4435  149.5782 LP  0  0  0  0  0  0  0  0  0  0  0  0  # atno 17370 bound_to 10713
  156.2272  130.6772  151.1427 LP  0  0  0  0  0  0  0  0  0  0  0  0  # atno 17371 bound_to 10713
  140.7194  133.9154  155.8137 LP  0  0  0  0  0  0  0  0  0  0  0  0  # atno 17394 bound_to 11000
  141.0239  134.0850  157.4090 LP  0  0  0  0  0  0  0  0  0  0  0  0  # atno 17395 bound_to 11000

$$$$
