AV-unprocessed.smi:1406|AV-procd|sdf|5717|dock1
  -GOLD-   22720 5353D 1   1.00000     0.00000
 Structure written by MMmdl.
 41 43  0  0  0  0  0  0  0  0  2 V2000
  147.7020  142.0124  154.0608 C   0  0  0  0  0  0  0  0  0  0  0  0
  147.9304  140.7971  154.9826 C   0  0  2  0  0  0  0  0  0  0  0  0
  149.4163  140.5506  155.2892 C   0  0  0  0  0  0  0  0  0  0  0  0
  150.1971  140.2127  154.3990 O   0  0  0  0  0  0  0  0  0  0  0  0
  149.7983  140.7337  156.5637 N   0  0  0  0  0  0  0  0  0  0  0  0
  151.1497  140.5220  157.0787 C   0  0  2  0  0  0  0  0  0  0  0  0
  151.2014  139.4968  158.2272 C   0  0  0  0  0  0  0  0  0  0  0  0
  152.2166  140.0775  159.2169 C   0  0  0  0  0  0  0  0  0  0  0  0
  152.0160  141.5246  159.0789 N   0  3  1  0  0  0  0  0  0  0  0  0
  152.9910  142.4383  159.7077 C   0  0  0  0  0  0  0  0  0  0  0  0
  152.4549  143.8808  159.5843 C   0  0  0  0  0  0  0  0  0  0  0  0
  152.0804  144.2449  158.1291 C   0  0  0  0  0  0  0  0  0  0  0  0
  151.1648  143.1802  157.4864 C   0  0  0  0  0  0  0  0  0  0  0  0
  151.8210  141.7969  157.6442 C   0  0  2  0  0  0  0  0  0  0  0  0
  147.3144  139.5861  154.4546 N   0  0  0  0  0  0  0  0  0  0  0  0
  147.4862  138.9783  153.2787 C   0  0  0  0  0  0  0  0  0  0  0  0
  146.7240  137.9072  153.1094 N   0  0  0  0  0  0  0  0  0  0  0  0
  146.0523  137.9148  154.2988 C   0  0  0  0  0  0  0  0  0  0  0  0
  146.3600  138.9047  155.1366 N   0  0  0  0  0  0  0  0  0  0  0  0
  148.1182  142.9208  154.4976 H   0  0  0  0  0  0  0  0  0  0  0  0
  146.6369  142.1855  153.9040 H   0  0  0  0  0  0  0  0  0  0  0  0
  148.1611  141.8767  153.0806 H   0  0  0  0  0  0  0  0  0  0  0  0
  147.4393  141.0178  155.9320 H   0  0  0  0  0  0  0  0  0  0  0  0
  149.0940  141.0136  157.2308 H   0  0  0  0  0  0  0  0  0  0  0  0
  151.7751  140.1398  156.2689 H   0  0  0  0  0  0  0  0  0  0  0  0
  150.2275  139.4241  158.7142 H   0  0  0  0  0  0  0  0  0  0  0  0
  151.4746  138.4973  157.8875 H   0  0  0  0  0  0  0  0  0  0  0  0
  152.0511  139.7371  160.2394 H   0  0  0  0  0  0  0  0  0  0  0  0
  153.2343  139.8159  158.9229 H   0  0  0  0  0  0  0  0  0  0  0  0
  153.1206  142.1738  160.7576 H   0  0  0  0  0  0  0  0  0  0  0  0
  153.9647  142.3402  159.2252 H   0  0  0  0  0  0  0  0  0  0  0  0
  151.5709  143.9878  160.2144 H   0  0  0  0  0  0  0  0  0  0  0  0
  153.1912  144.5873  159.9688 H   0  0  0  0  0  0  0  0  0  0  0  0
  151.5967  145.2218  158.0994 H   0  0  0  0  0  0  0  0  0  0  0  0
  152.9927  144.3374  157.5384 H   0  0  0  0  0  0  0  0  0  0  0  0
  150.1830  143.1933  157.9616 H   0  0  0  0  0  0  0  0  0  0  0  0
  151.0130  143.4165  156.4329 H   0  0  0  0  0  0  0  0  0  0  0  0
  152.8104  141.8459  157.1838 H   0  0  0  0  0  0  0  0  0  0  0  0
  148.1805  139.3287  152.5289 H   0  0  0  0  0  0  0  0  0  0  0  0
  145.3100  137.1723  154.5524 H   0  0  0  0  0  0  0  0  0  0  0  0
  151.1266  141.7126  159.5190 H   0  0  0  0  0  0  0  0  0  0  0  0
  1  2  1  0  0  0  0
  1 20  1  0  0  0  0
  1 21  1  0  0  0  0
  1 22  1  0  0  0  0
  2  3  1  0  0  0  0
  2 15  1  0  0  0  0
  2 23  1  0  0  0  0
  3  4  2  0  0  0  0
  3  5  1  0  0  0  0
  5  6  1  0  0  0  0
  5 24  1  0  0  0  0
  6 14  1  0  0  0  0
  6  7  1  0  0  0  0
  6 25  1  0  0  0  0
  7  8  1  0  0  0  0
  7 26  1  0  0  0  0
  7 27  1  0  0  0  0
  8  9  1  0  0  0  0
  8 28  1  0  0  0  0
  8 29  1  0  0  0  0
  9 14  1  0  0  0  0
  9 10  1  0  0  0  0
  9 41  1  0  0  0  0
 10 11  1  0  0  0  0
 10 30  1  0  0  0  0
 10 31  1  0  0  0  0
 11 12  1  0  0  0  0
 11 32  1  0  0  0  0
 11 33  1  0  0  0  0
 12 13  1  0  0  0  0
 12 34  1  0  0  0  0
 12 35  1  0  0  0  0
 13 14  1  0  0  0  0
 13 36  1  0  0  0  0
 13 37  1  0  0  0  0
 14 38  1  0  0  0  0
 15 19  1  0  0  0  0
 15 16  1  0  0  0  0
 16 17  2  0  0  0  0
 16 39  1  0  0  0  0
 17 18  1  0  0  0  0
 18 19  2  0  0  0  0
 18 40  1  0  0  0  0
M  CHG  1   9   1
M  END
> <s_m_source_file>
AV-unprocessed.smi

> <i_m_source_file_index>
1406

> <i_lp_mmshare_version>
43012

> <i_f3d_flags>
0

> <s_epik_input>
bjFbY0hdbltjSF1uMVtDQEhdKFtDSDNdKUMoPU8pW05IXVtDQEhdKFtDSDJdW0NIMl0yKVtDQEBIXShOMjMpW0NIMl1bQ0gyXVtDSDJdW0NIMl0z

> <s_epik_cmdline>
J2VwaWtfcHl0aG9uJywgJy1waCcsICc3LjAnLCAnLXRuJywgJzgnLCAnLW1hJywgJzIwMCcsICctbWV0YWxfYmluZGluZycsICctaW1hZScsICc8aW5maWxlLm1hZT4nLCAnLW9tYWUnLCAnPG91dGZpbGUubWFlPic=

> <r_lp_tautomer_probability>
1

> <r_epik_Ionization_Penalty>
0.00197066

> <r_epik_Ionization_Penalty_Charging>
0.00196223

> <r_epik_Ionization_Penalty_Neutral>
8.43107e-06

> <r_epik_State_Penalty>
0.00133866

> <r_epik_Charging_Adjusted_Penalty>
0.00330089

> <i_epik_Tot_Q>
1

> <i_epik_Tot_abs_Q>
1

> <r_epik_Metal_State_Penalty>
-0

> <b_epik_Metal_Only>
0

> <s_lp_Force_Field>
OPLS_2005

> <r_lp_Energy>
47.4686

> <b_lp_Chiralities_Consistent>
1

> <s_lp_Variant>
AV-unprocessed.smi:1406-9

> <Gold.Version>
5.8.1

> <Gold.Id.Protein>
6NUR|6NUR_protein|mol2

> <Gold.PLP.Fitness>
38.4361

> <Gold.PLP.PLP>
-32.6498

> <Gold.PLP.part.hbond>
-1.0000

> <Gold.PLP.part.metal>
0.0000

> <Gold.PLP.part.buried>
-4.3407

> <Gold.PLP.part.nonpolar>
-27.9454

> <Gold.PLP.part.repulsive>
0.5526

> <Gold.PLP.ligand.clash>
0.0000

> <Gold.PLP.ligand.torsion>
0.1194

> <Gold.PLP.Chemscore.Hbond>
0.9760

> <Gold.PLP.Chemscore.CHOScore>
1.0000

> <Gold.PLP.Chemscore.Metal>
0.0000

> <Gold.Chemscore.Hbonds>
donor molecule, donor type, donor heavy atom, donor atom, acceptor molecule, acceptor atom, score
      P1  H  7989  7998       L1     4  1.00
      L1  C    16    39       P1  7957  1.00

> <Gold.PLP.Chemscore.Internal.Correction>
0.0970

> <Gold.Rescore>
     Score         DG    S(hbond)    S(metal)    S(lipo)     H(rot)  DE(clash)    DE(int)     intcor
     13.16     -13.32       0.97        0.00      80.64       1.89       0.01       0.15       ----

> <Gold.Chemscore.Fitness>
13.1628

> <Gold.Chemscore.DG>
-13.3213

> <Gold.Chemscore.ZeroCoef>
-5.4800

> <Gold.Chemscore.Hbond>
0.9690

> <Gold.Chemscore.Metal>
0.0000

> <Gold.Chemscore.Lipo>
80.6363

> <Gold.Chemscore.Internal_Hbond>
0.0000

> <Gold.Chemscore.DEClash>
0.0095

> <Gold.Chemscore.DEInternal>
0.1491

> <Gold.Chemscore.Rot>
1.8865

> <Gold.Chemscore.Internal.Correction>
   9.000000E+99

> <Gold.Chemscore.Hbonds>
donor molecule, donor type, donor heavy atom, donor atom, acceptor molecule, acceptor atom, score
      P1  H  7989  7998       L1     4  0.96

> <Gold.Chemscore.Hbond.Weighted>
-3.2364

> <Gold.Chemscore.Metal.Weighted>
-0.0000

> <Gold.Chemscore.Lipo.Weighted>
-9.4344

> <Gold.Chemscore.Internal_Hbond.Weighted>
0.0000

> <Gold.Chemscore.DEClash.Weighted>
0.0095

> <Gold.Chemscore.DEInternal.Weighted>
0.1491

> <Gold.Chemscore.Rot.Weighted>
4.8295

> <Gold.Chemscore.Internal.Correction.Weighted>
   9.000000E+99

> <Gold.Protein.RotatedTorsions>
[ 6907 6896 6895 6894 ] final   57.25 input  -60.11 | X-H torsion
[ 7974 7965 7964 7962 ] final   67.24 input  175.53 | X-H torsion
[ 8008 7997 7996 7995 ] final -148.41 input   59.86 | X-H torsion
[ 10167 10162 10161 10158 ] final  111.50 input  -65.29 | X-H torsion
[ 10718 10713 10712 10709 ] final   41.58 input   66.30 | X-H torsion
[ 10763 10752 10751 10750 ] final -178.67 input  -60.55 | X-H torsion
[ 11005 11000 10999 10996 ] final  135.99 input  -57.11 | X-H torsion

> <Gold.Protein.ActiveResidues>
 VAL166  LYS551  ARG553  GLY616  TRP617  ASP618  TYR619  PRO620  LYS621  CYS622 
 ASP623  PHE694  ASN695  SER759  ASP760  ASP761  ALA762  ILE779  LEU786  VAL792 
 PHE793  MET794  SER795  GLU796  ALA797  LYS798  CYS799  TRP800  GLU811  SER814 

> <Gold.Protein.RotatedAtoms>
  152.3714  134.6728  160.0174 H   0  0  0  0  0  0  0  0  0  0  0  0  # atno 6907 bound_to 6896
  151.7020  133.3306  159.3277 H   0  0  0  0  0  0  0  0  0  0  0  0  # atno 6908 bound_to 6896
  150.7676  134.6542  159.6349 H   0  0  0  0  0  0  0  0  0  0  0  0  # atno 6909 bound_to 6896
  145.8170  139.3063  143.1066 H   0  0  0  0  0  0  0  0  0  0  0  0  # atno 7974 bound_to 7965
  155.5911  140.0652  157.2758 H   0  0  0  0  0  0  0  0  0  0  0  0  # atno 8008 bound_to 7997
  154.4305  140.1835  156.1122 H   0  0  0  0  0  0  0  0  0  0  0  0  # atno 8009 bound_to 7997
  156.0232  140.3314  155.7064 H   0  0  0  0  0  0  0  0  0  0  0  0  # atno 8010 bound_to 7997
  139.6607  144.7128  151.1871 H   0  0  0  0  0  0  0  0  0  0  0  0  # atno 10167 bound_to 10162
  157.3952  130.7829  149.7302 H   0  0  0  0  0  0  0  0  0  0  0  0  # atno 10718 bound_to 10713
  154.5448  135.2808  155.1063 H   0  0  0  0  0  0  0  0  0  0  0  0  # atno 10763 bound_to 10752
  154.2531  135.6335  153.5251 H   0  0  0  0  0  0  0  0  0  0  0  0  # atno 10764 bound_to 10752
  152.9988  135.5587  154.5997 H   0  0  0  0  0  0  0  0  0  0  0  0  # atno 10765 bound_to 10752
  140.0016  134.9476  157.0084 H   0  0  0  0  0  0  0  0  0  0  0  0  # atno 11005 bound_to 11000
  145.9716  140.8755  143.0159 LP  0  0  0  0  0  0  0  0  0  0  0  0  # atno 17320 bound_to 7965
  144.6751  140.1954  143.7392 LP  0  0  0  0  0  0  0  0  0  0  0  0  # atno 17321 bound_to 7965
  140.7578  143.5999  150.8710 LP  0  0  0  0  0  0  0  0  0  0  0  0  # atno 17342 bound_to 10162
  139.9656  143.6114  152.2989 LP  0  0  0  0  0  0  0  0  0  0  0  0  # atno 17343 bound_to 10162
  155.9808  130.4025  150.3505 LP  0  0  0  0  0  0  0  0  0  0  0  0  # atno 17370 bound_to 10713
  157.1626  131.0349  151.2834 LP  0  0  0  0  0  0  0  0  0  0  0  0  # atno 17371 bound_to 10713
  140.4718  134.1379  155.7204 LP  0  0  0  0  0  0  0  0  0  0  0  0  # atno 17394 bound_to 11000
  141.1646  133.8728  157.1752 LP  0  0  0  0  0  0  0  0  0  0  0  0  # atno 17395 bound_to 11000

$$$$
