AV-unprocessed.smi:1604|AV-procd|sdf|6450|dock5
  -GOLD-   22720 7103D 1   1.00000     0.00000
 Structure written by MMmdl.
 47 49  0  0  0  0  0  0  0  0  2 V2000
  150.9300  133.6735  154.8894 O   0  0  0  0  0  0  0  0  0  0  0  0
  150.2029  134.2953  154.1154 C   0  0  0  0  0  0  0  0  0  0  0  0
  149.1984  133.7549  153.4058 N   0  0  0  0  0  0  0  0  0  0  0  0
  148.7896  132.3915  153.3635 C   0  0  0  0  0  0  0  0  0  0  0  0
  149.6610  131.3343  153.7317 C   0  0  0  0  0  0  0  0  0  0  0  0
  149.2127  130.0011  153.6631 C   0  0  0  0  0  0  0  0  0  0  0  0
  147.9040  129.7434  153.2184 C   0  0  0  0  0  0  0  0  0  0  0  0
  147.1052  130.7699  152.8597 N   0  3  0  0  0  0  0  0  0  0  0  0
  147.4817  132.0719  152.9069 C   0  0  0  0  0  0  0  0  0  0  0  0
  146.5700  133.0614  152.4819 N   0  0  0  0  0  0  0  0  0  0  0  0
  146.1750  132.9438  151.0805 C   0  0  0  0  0  0  0  0  0  0  0  0
  144.6962  133.3324  151.0121 C   0  0  0  0  0  0  0  0  0  0  0  0
  144.1851  132.9955  152.4073 C   0  0  0  0  0  0  0  0  0  0  0  0
  145.3833  133.3439  153.2879 C   0  0  0  0  0  0  0  0  0  0  0  0
  150.3074  135.6141  153.8786 N   0  0  0  0  0  0  0  0  0  0  0  0
  151.2429  136.5692  154.4890 C   0  0  1  0  0  0  0  0  0  0  0  0
  151.4565  137.8331  153.6194 C   0  0  0  0  0  0  0  0  0  0  0  0
  152.8172  138.5162  153.8288 C   0  0  0  0  0  0  0  0  0  0  0  0
  153.0411  139.0779  155.2401 C   0  0  0  0  0  0  0  0  0  0  0  0
  153.1182  137.9947  156.3290 C   0  0  0  0  0  0  0  0  0  0  0  0
  151.8061  137.5021  156.7295 N   0  0  0  0  0  0  0  0  0  0  0  0
  150.9106  136.8537  155.9690 C   0  0  0  0  0  0  0  0  0  0  0  0
  149.8359  136.4919  156.4469 O   0  0  0  0  0  0  0  0  0  0  0  0
  148.6153  134.4018  152.8958 H   0  0  0  0  0  0  0  0  0  0  0  0
  150.6734  131.5236  154.0547 H   0  0  0  0  0  0  0  0  0  0  0  0
  149.8669  129.1882  153.9428 H   0  0  0  0  0  0  0  0  0  0  0  0
  147.4775  128.7548  153.1302 H   0  0  0  0  0  0  0  0  0  0  0  0
  146.7817  133.5884  150.4440 H   0  0  0  0  0  0  0  0  0  0  0  0
  146.3060  131.9161  150.7372 H   0  0  0  0  0  0  0  0  0  0  0  0
  144.6024  134.4050  150.8360 H   0  0  0  0  0  0  0  0  0  0  0  0
  144.1563  132.8118  150.2208 H   0  0  0  0  0  0  0  0  0  0  0  0
  143.2836  133.5458  152.6783 H   0  0  0  0  0  0  0  0  0  0  0  0
  143.9679  131.9287  152.4769 H   0  0  0  0  0  0  0  0  0  0  0  0
  145.3472  132.8233  154.2446 H   0  0  0  0  0  0  0  0  0  0  0  0
  145.3817  134.4115  153.5102 H   0  0  0  0  0  0  0  0  0  0  0  0
  149.6632  136.0101  153.2101 H   0  0  0  0  0  0  0  0  0  0  0  0
  152.1848  136.0193  154.4939 H   0  0  0  0  0  0  0  0  0  0  0  0
  151.3909  137.5605  152.5651 H   0  0  0  0  0  0  0  0  0  0  0  0
  150.6565  138.5542  153.7927 H   0  0  0  0  0  0  0  0  0  0  0  0
  153.6188  137.8193  153.5811 H   0  0  0  0  0  0  0  0  0  0  0  0
  152.9057  139.3343  153.1132 H   0  0  0  0  0  0  0  0  0  0  0  0
  153.9834  139.6268  155.2375 H   0  0  0  0  0  0  0  0  0  0  0  0
  152.2707  139.8103  155.4852 H   0  0  0  0  0  0  0  0  0  0  0  0
  153.7563  137.1665  156.0179 H   0  0  0  0  0  0  0  0  0  0  0  0
  153.5824  138.4187  157.2196 H   0  0  0  0  0  0  0  0  0  0  0  0
  151.5470  137.6710  157.6911 H   0  0  0  0  0  0  0  0  0  0  0  0
  146.1647  130.5524  152.5296 H   0  0  0  0  0  0  0  0  0  0  0  0
  1  2  2  0  0  0  0
  2  3  1  0  0  0  0
  2 15  1  0  0  0  0
  3  4  1  0  0  0  0
  3 24  1  0  0  0  0
  4  9  1  0  0  0  0
  4  5  2  0  0  0  0
  5  6  1  0  0  0  0
  5 25  1  0  0  0  0
  6  7  2  0  0  0  0
  6 26  1  0  0  0  0
  7  8  1  0  0  0  0
  7 27  1  0  0  0  0
  8  9  2  0  0  0  0
  8 47  1  0  0  0  0
  9 10  1  0  0  0  0
 10 14  1  0  0  0  0
 10 11  1  0  0  0  0
 11 12  1  0  0  0  0
 11 28  1  0  0  0  0
 11 29  1  0  0  0  0
 12 13  1  0  0  0  0
 12 30  1  0  0  0  0
 12 31  1  0  0  0  0
 13 14  1  0  0  0  0
 13 32  1  0  0  0  0
 13 33  1  0  0  0  0
 14 34  1  0  0  0  0
 14 35  1  0  0  0  0
 15 16  1  0  0  0  0
 15 36  1  0  0  0  0
 16 22  1  0  0  0  0
 16 17  1  0  0  0  0
 16 37  1  0  0  0  0
 17 18  1  0  0  0  0
 17 38  1  0  0  0  0
 17 39  1  0  0  0  0
 18 19  1  0  0  0  0
 18 40  1  0  0  0  0
 18 41  1  0  0  0  0
 19 20  1  0  0  0  0
 19 42  1  0  0  0  0
 19 43  1  0  0  0  0
 20 21  1  0  0  0  0
 20 44  1  0  0  0  0
 20 45  1  0  0  0  0
 21 22  1  0  0  0  0
 21 46  1  0  0  0  0
 22 23  2  0  0  0  0
M  CHG  1   8   1
M  END
> <s_m_source_file>
AV-unprocessed.smi

> <i_m_source_file_index>
1604

> <i_lp_mmshare_version>
43012

> <i_f3d_flags>
0

> <s_epik_input>
Tz1DMVtOSF1bQ0gyXVtDSDJdW0NIMl1bQ0gyXVtDQEhdMVtOSF1DKD1PKVtOSF1jMltjSF1bY0hdW2NIXW5jMk4zW0NIMl1bQ0gyXVtDSDJdW0NIMl0z

> <s_epik_cmdline>
J2VwaWtfcHl0aG9uJywgJy1waCcsICc3LjAnLCAnLXRuJywgJzgnLCAnLW1hJywgJzIwMCcsICctbWV0YWxfYmluZGluZycsICctaW1hZScsICc8aW5maWxlLm1hZT4nLCAnLW9tYWUnLCAnPG91dGZpbGUubWFlPic=

> <r_lp_tautomer_probability>
0.999994

> <r_epik_Ionization_Penalty>
1.20452

> <r_epik_Ionization_Penalty_Charging>
1.2045

> <r_epik_Ionization_Penalty_Neutral>
1.88134e-05

> <r_epik_State_Penalty>
1.2704

> <r_epik_Charging_Adjusted_Penalty>
2.4749

> <i_epik_Tot_Q>
1

> <i_epik_Tot_abs_Q>
1

> <r_epik_Metal_State_Penalty>
1.34433

> <b_epik_Metal_Only>
0

> <s_lp_Force_Field>
OPLS_2005

> <r_lp_Energy>
47.2667

> <b_lp_Chiralities_Consistent>
1

> <s_lp_Variant>
AV-unprocessed.smi:1604-4

> <Gold.Version>
5.8.1

> <Gold.Id.Protein>
6NUR|6NUR_protein|mol2

> <Gold.PLP.Fitness>
40.7027

> <Gold.PLP.PLP>
-36.1585

> <Gold.PLP.part.hbond>
-3.7666

> <Gold.PLP.part.metal>
0.0000

> <Gold.PLP.part.buried>
-2.3013

> <Gold.PLP.part.nonpolar>
-29.5312

> <Gold.PLP.part.repulsive>
0.2570

> <Gold.PLP.ligand.clash>
0.0000

> <Gold.PLP.ligand.torsion>
0.3981

> <Gold.PLP.Chemscore.Hbond>
1.7137

> <Gold.PLP.Chemscore.CHOScore>
0.0000

> <Gold.PLP.Chemscore.Metal>
0.0000

> <Gold.Chemscore.Hbonds>
donor molecule, donor type, donor heavy atom, donor atom, acceptor molecule, acceptor atom, score
      L1  H     3    24       P1  7948  0.44
      L1  H    15    36       P1  7948  0.68

> <Gold.PLP.Chemscore.Internal.Correction>
0.1993

> <Gold.Rescore>
     Score         DG    S(hbond)    S(metal)    S(lipo)     H(rot)  DE(clash)    DE(int)     intcor
     14.04     -15.67       1.27        0.00      78.44       1.26       0.02       1.61       ----

> <Gold.Chemscore.Fitness>
14.0405

> <Gold.Chemscore.DG>
-15.6690

> <Gold.Chemscore.ZeroCoef>
-5.4800

> <Gold.Chemscore.Hbond>
1.2658

> <Gold.Chemscore.Metal>
0.0000

> <Gold.Chemscore.Lipo>
78.4444

> <Gold.Chemscore.Internal_Hbond>
0.0000

> <Gold.Chemscore.DEClash>
0.0207

> <Gold.Chemscore.DEInternal>
1.6078

> <Gold.Chemscore.Rot>
1.2566

> <Gold.Chemscore.Internal.Correction>
   9.000000E+99

> <Gold.Chemscore.Hbonds>
donor molecule, donor type, donor heavy atom, donor atom, acceptor molecule, acceptor atom, score
      L1  H     3    24       P1  7948  0.05
      L1  H    15    36       P1  7948  0.08

> <Gold.Chemscore.Hbond.Weighted>
-4.2279

> <Gold.Chemscore.Metal.Weighted>
-0.0000

> <Gold.Chemscore.Lipo.Weighted>
-9.1780

> <Gold.Chemscore.Internal_Hbond.Weighted>
0.0000

> <Gold.Chemscore.DEClash.Weighted>
0.0207

> <Gold.Chemscore.DEInternal.Weighted>
1.6078

> <Gold.Chemscore.Rot.Weighted>
3.2168

> <Gold.Chemscore.Internal.Correction.Weighted>
   9.000000E+99

> <Gold.Protein.RotatedTorsions>
[ 6907 6896 6895 6894 ] final   82.07 input  -60.11 | X-H torsion
[ 7974 7965 7964 7962 ] final -142.88 input  175.53 | X-H torsion
[ 8008 7997 7996 7995 ] final   61.92 input   59.86 | X-H torsion
[ 10167 10162 10161 10158 ] final  -34.31 input  -65.29 | X-H torsion
[ 10718 10713 10712 10709 ] final -161.88 input   66.30 | X-H torsion
[ 10763 10752 10751 10750 ] final   73.28 input  -60.55 | X-H torsion
[ 11005 11000 10999 10996 ] final  -71.83 input  -57.11 | X-H torsion

> <Gold.Protein.ActiveResidues>
 VAL166  LYS551  ARG553  GLY616  TRP617  ASP618  TYR619  PRO620  LYS621  CYS622 
 ASP623  PHE694  ASN695  SER759  ASP760  ASP761  ALA762  ILE779  LEU786  VAL792 
 PHE793  MET794  SER795  GLU796  ALA797  LYS798  CYS799  TRP800  GLU811  SER814 

> <Gold.Protein.RotatedAtoms>
  152.5288  134.3106  159.9111 H   0  0  0  0  0  0  0  0  0  0  0  0  # atno 6907 bound_to 6896
  151.3056  133.4097  159.2650 H   0  0  0  0  0  0  0  0  0  0  0  0  # atno 6908 bound_to 6896
  151.0082  134.9392  159.8049 H   0  0  0  0  0  0  0  0  0  0  0  0  # atno 6909 bound_to 6896
  144.8411  140.5904  143.5452 H   0  0  0  0  0  0  0  0  0  0  0  0  # atno 7974 bound_to 7965
  155.6061  140.3494  155.4608 H   0  0  0  0  0  0  0  0  0  0  0  0  # atno 8008 bound_to 7997
  156.0191  140.1249  157.0400 H   0  0  0  0  0  0  0  0  0  0  0  0  # atno 8009 bound_to 7997
  154.4308  140.1066  156.5924 H   0  0  0  0  0  0  0  0  0  0  0  0  # atno 8010 bound_to 7997
  140.7188  143.3557  151.2064 H   0  0  0  0  0  0  0  0  0  0  0  0  # atno 10167 bound_to 10162
  156.6026  130.8817  151.2917 H   0  0  0  0  0  0  0  0  0  0  0  0  # atno 10718 bound_to 10713
  153.0511  135.5068  154.7870 H   0  0  0  0  0  0  0  0  0  0  0  0  # atno 10763 bound_to 10752
  154.6731  135.2956  154.9717 H   0  0  0  0  0  0  0  0  0  0  0  0  # atno 10764 bound_to 10752
  154.0528  135.6701  153.4855 H   0  0  0  0  0  0  0  0  0  0  0  0  # atno 10765 bound_to 10752
  141.1599  133.6829  156.6966 H   0  0  0  0  0  0  0  0  0  0  0  0  # atno 11005 bound_to 11000
  145.4693  139.1505  143.3823 LP  0  0  0  0  0  0  0  0  0  0  0  0  # atno 17320 bound_to 7965
  146.2703  140.4825  142.8817 LP  0  0  0  0  0  0  0  0  0  0  0  0  # atno 17321 bound_to 7965
  139.7098  143.9395  152.2942 LP  0  0  0  0  0  0  0  0  0  0  0  0  # atno 17342 bound_to 10162
  139.9116  144.6853  150.8556 LP  0  0  0  0  0  0  0  0  0  0  0  0  # atno 17343 bound_to 10162
  157.7275  130.9644  150.1704 LP  0  0  0  0  0  0  0  0  0  0  0  0  # atno 17370 bound_to 10713
  156.2457  130.3695  149.8288 LP  0  0  0  0  0  0  0  0  0  0  0  0  # atno 17371 bound_to 10713
  140.2990  134.8179  157.4081 LP  0  0  0  0  0  0  0  0  0  0  0  0  # atno 17394 bound_to 11000
  140.1279  134.5134  155.8130 LP  0  0  0  0  0  0  0  0  0  0  0  0  # atno 17395 bound_to 11000

$$$$
