AV-unprocessed.smi:1978|AV-procd|sdf|7996|dock4
  -GOLD-   2272010183D 1   1.00000     0.00000
 Structure written by MMmdl.
 45 46  0  0  0  0  0  0  0  0  2 V2000
  151.3814  141.2523  156.1811 C   0  0  0  0  0  0  0  0  0  0  0  0
  151.5632  139.8608  155.6795 C   0  0  0  0  0  0  0  0  0  0  0  0
  150.7153  138.9656  155.0901 C   0  0  0  0  0  0  0  0  0  0  0  0
  151.5450  137.8329  154.8761 C   0  0  0  0  0  0  0  0  0  0  0  0
  151.0311  136.6565  154.2737 N   0  0  0  0  0  0  0  0  0  0  0  0
  150.0923  135.8300  154.7652 C   0  0  0  0  0  0  0  0  0  0  0  0
  149.5236  135.9663  155.8489 O   0  0  0  0  0  0  0  0  0  0  0  0
  149.8320  134.8252  153.9153 N   0  0  0  0  0  0  0  0  0  0  0  0
  148.8607  133.7572  154.1414 C   0  0  0  0  0  0  0  0  0  0  0  0
  147.3971  134.2616  154.0790 C   0  0  2  0  0  0  0  0  0  0  0  0
  146.4536  133.5500  155.0741 C   0  0  0  0  0  0  0  0  0  0  0  0
  146.8752  134.2342  152.6731 N   0  3  1  0  0  0  0  0  0  0  0  0
  146.7445  132.8570  152.1100 C   0  0  0  0  0  0  0  0  0  0  0  0
  146.4808  132.8895  150.5984 C   0  0  0  0  0  0  0  0  0  0  0  0
  145.2143  133.6918  150.2946 C   0  0  0  0  0  0  0  0  0  0  0  0
  145.3363  135.0931  150.9009 C   0  0  0  0  0  0  0  0  0  0  0  0
  145.6376  135.0458  152.4159 C   0  0  2  0  0  0  0  0  0  0  0  0
  145.7167  136.4911  152.9496 C   0  0  0  0  0  0  0  0  0  0  0  0
  152.7872  138.0204  155.2947 N   0  0  0  0  0  0  0  0  0  0  0  0
  152.8052  139.3212  155.8114 O   0  0  0  0  0  0  0  0  0  0  0  0
  150.3693  141.6079  155.9879 H   0  0  0  0  0  0  0  0  0  0  0  0
  152.0782  141.9333  155.6922 H   0  0  0  0  0  0  0  0  0  0  0  0
  151.5574  141.3009  157.2557 H   0  0  0  0  0  0  0  0  0  0  0  0
  149.6705  139.1019  154.8540 H   0  0  0  0  0  0  0  0  0  0  0  0
  151.4110  136.4274  153.3671 H   0  0  0  0  0  0  0  0  0  0  0  0
  150.3479  134.7943  153.0479 H   0  0  0  0  0  0  0  0  0  0  0  0
  149.0189  133.0059  153.3671 H   0  0  0  0  0  0  0  0  0  0  0  0
  149.0790  133.2615  155.0866 H   0  0  0  0  0  0  0  0  0  0  0  0
  147.4701  135.2975  154.4004 H   0  0  0  0  0  0  0  0  0  0  0  0
  146.7542  133.7354  156.1050 H   0  0  0  0  0  0  0  0  0  0  0  0
  146.4505  132.4698  154.9283 H   0  0  0  0  0  0  0  0  0  0  0  0
  145.4276  133.9045  154.9822 H   0  0  0  0  0  0  0  0  0  0  0  0
  147.6451  132.2715  152.2835 H   0  0  0  0  0  0  0  0  0  0  0  0
  145.9293  132.3290  152.6062 H   0  0  0  0  0  0  0  0  0  0  0  0
  147.3347  133.3311  150.0825 H   0  0  0  0  0  0  0  0  0  0  0  0
  146.3774  131.8739  150.2154 H   0  0  0  0  0  0  0  0  0  0  0  0
  145.0579  133.7573  149.2174 H   0  0  0  0  0  0  0  0  0  0  0  0
  144.3428  133.1829  150.7086 H   0  0  0  0  0  0  0  0  0  0  0  0
  146.1259  135.6427  150.3860 H   0  0  0  0  0  0  0  0  0  0  0  0
  144.4118  135.6426  150.7187 H   0  0  0  0  0  0  0  0  0  0  0  0
  144.7974  134.5542  152.9084 H   0  0  0  0  0  0  0  0  0  0  0  0
  144.8725  137.0830  152.5948 H   0  0  0  0  0  0  0  0  0  0  0  0
  146.6280  136.9908  152.6198 H   0  0  0  0  0  0  0  0  0  0  0  0
  145.6736  136.5327  154.0376 H   0  0  0  0  0  0  0  0  0  0  0  0
  147.5955  134.6841  152.1266 H   0  0  0  0  0  0  0  0  0  0  0  0
  1  2  1  0  0  0  0
  1 21  1  0  0  0  0
  1 22  1  0  0  0  0
  1 23  1  0  0  0  0
  2 20  1  0  0  0  0
  2  3  2  0  0  0  0
  3  4  1  0  0  0  0
  3 24  1  0  0  0  0
  4  5  1  0  0  0  0
  4 19  2  0  0  0  0
  5  6  1  0  0  0  0
  5 25  1  0  0  0  0
  6  7  2  0  0  0  0
  6  8  1  0  0  0  0
  8  9  1  0  0  0  0
  8 26  1  0  0  0  0
  9 10  1  0  0  0  0
  9 27  1  0  0  0  0
  9 28  1  0  0  0  0
 10 11  1  0  0  0  0
 10 12  1  0  0  0  0
 10 29  1  0  0  0  0
 11 30  1  0  0  0  0
 11 31  1  0  0  0  0
 11 32  1  0  0  0  0
 12 17  1  0  0  0  0
 12 13  1  0  0  0  0
 12 45  1  0  0  0  0
 13 14  1  0  0  0  0
 13 33  1  0  0  0  0
 13 34  1  0  0  0  0
 14 15  1  0  0  0  0
 14 35  1  0  0  0  0
 14 36  1  0  0  0  0
 15 16  1  0  0  0  0
 15 37  1  0  0  0  0
 15 38  1  0  0  0  0
 16 17  1  0  0  0  0
 16 39  1  0  0  0  0
 16 40  1  0  0  0  0
 17 18  1  0  0  0  0
 17 41  1  0  0  0  0
 18 42  1  0  0  0  0
 18 43  1  0  0  0  0
 18 44  1  0  0  0  0
 19 20  1  0  0  0  0
M  CHG  1  12   1
M  END
> <s_m_source_file>
AV-unprocessed.smi

> <i_m_source_file_index>
1978

> <i_lp_mmshare_version>
43012

> <i_f3d_flags>
0

> <s_epik_input>
W0NIM11jMVtjSF1jKG5vMSlbTkhdQyg9TylbTkhdW0NIMl1bQ0BIXShbQ0gzXSlOMltDSDJdW0NIMl1bQ0gyXVtDSDJdW0NASF0yW0NIM10=

> <s_epik_cmdline>
J2VwaWtfcHl0aG9uJywgJy1waCcsICc3LjAnLCAnLXRuJywgJzgnLCAnLW1hJywgJzIwMCcsICctbWV0YWxfYmluZGluZycsICctaW1hZScsICc8aW5maWxlLm1hZT4nLCAnLW9tYWUnLCAnPG91dGZpbGUubWFlPic=

> <r_epik_Ionization_Penalty>
0.00265971

> <r_epik_Ionization_Penalty_Charging>
0.00262393

> <r_epik_Ionization_Penalty_Neutral>
3.57846e-05

> <r_epik_State_Penalty>
0.00182566

> <r_epik_Charging_Adjusted_Penalty>
0.00444959

> <i_epik_Tot_Q>
1

> <i_epik_Tot_abs_Q>
1

> <r_epik_Metal_State_Penalty>
0.0216344

> <b_epik_Metal_Only>
0

> <s_lp_Force_Field>
OPLS_2005

> <r_lp_Energy>
21.464

> <b_lp_Chiralities_Consistent>
1

> <s_lp_Variant>
AV-unprocessed.smi:1978-5

> <Gold.Version>
5.8.1

> <Gold.Id.Protein>
6NUR|6NUR_protein|mol2

> <Gold.PLP.Fitness>
40.7008

> <Gold.PLP.PLP>
-30.8923

> <Gold.PLP.part.hbond>
-6.1714

> <Gold.PLP.part.metal>
0.0000

> <Gold.PLP.part.buried>
0.5468

> <Gold.PLP.part.nonpolar>
-24.9111

> <Gold.PLP.part.repulsive>
0.2364

> <Gold.PLP.ligand.clash>
0.0000

> <Gold.PLP.ligand.torsion>
1.1645

> <Gold.PLP.Chemscore.Hbond>
4.0000

> <Gold.PLP.Chemscore.CHOScore>
0.0000

> <Gold.PLP.Chemscore.Metal>
0.0000

> <Gold.Chemscore.Hbonds>
donor molecule, donor type, donor heavy atom, donor atom, acceptor molecule, acceptor atom, score
      L1  H     5    25       P1  7949  1.00
      L1  H    12    45       P1  7948  2.00
      P1  H  7997  8010       L1    20  1.00

> <Gold.PLP.Chemscore.Internal.Correction>
0.1375

> <Gold.Rescore>
     Score         DG    S(hbond)    S(metal)    S(lipo)     H(rot)  DE(clash)    DE(int)     intcor
     14.76     -17.45       2.54        0.00      63.65       1.55       1.47       1.22       ----

> <Gold.Chemscore.Fitness>
14.7550

> <Gold.Chemscore.DG>
-17.4476

> <Gold.Chemscore.ZeroCoef>
-5.4800

> <Gold.Chemscore.Hbond>
2.5395

> <Gold.Chemscore.Metal>
0.0000

> <Gold.Chemscore.Lipo>
63.6479

> <Gold.Chemscore.Internal_Hbond>
0.0000

> <Gold.Chemscore.DEClash>
1.4717

> <Gold.Chemscore.DEInternal>
1.2209

> <Gold.Chemscore.Rot>
1.5474

> <Gold.Chemscore.Internal.Correction>
   9.000000E+99

> <Gold.Chemscore.Hbonds>
donor molecule, donor type, donor heavy atom, donor atom, acceptor molecule, acceptor atom, score
      L1  H     5    25       P1  7949  0.74
      L1  H    12    45       P1  7948  0.63
      P1  H  7997  8010       L1    20  0.97

> <Gold.Chemscore.Hbond.Weighted>
-8.4820

> <Gold.Chemscore.Metal.Weighted>
-0.0000

> <Gold.Chemscore.Lipo.Weighted>
-7.4468

> <Gold.Chemscore.Internal_Hbond.Weighted>
0.0000

> <Gold.Chemscore.DEClash.Weighted>
1.4717

> <Gold.Chemscore.DEInternal.Weighted>
1.2209

> <Gold.Chemscore.Rot.Weighted>
3.9612

> <Gold.Chemscore.Internal.Correction.Weighted>
   9.000000E+99

> <Gold.Protein.RotatedTorsions>
[ 6907 6896 6895 6894 ] final  -78.78 input  -60.11 | X-H torsion
[ 7974 7965 7964 7962 ] final  -84.11 input  175.53 | X-H torsion
[ 8008 7997 7996 7995 ] final   94.93 input   59.86 | X-H torsion
[ 10167 10162 10161 10158 ] final   33.40 input  -65.29 | X-H torsion
[ 10718 10713 10712 10709 ] final -161.76 input   66.30 | X-H torsion
[ 10763 10752 10751 10750 ] final  -19.02 input  -60.55 | X-H torsion
[ 11005 11000 10999 10996 ] final -157.09 input  -57.11 | X-H torsion

> <Gold.Protein.ActiveResidues>
 VAL166  LYS551  ARG553  GLY616  TRP617  ASP618  TYR619  PRO620  LYS621  CYS622 
 ASP623  PHE694  ASN695  SER759  ASP760  ASP761  ALA762  ILE779  LEU786  VAL792 
 PHE793  MET794  SER795  GLU796  ALA797  LYS798  CYS799  TRP800  GLU811  SER814 

> <Gold.Protein.RotatedAtoms>
  150.6965  134.4221  159.5209 H   0  0  0  0  0  0  0  0  0  0  0  0  # atno 6907 bound_to 6896
  152.1962  134.8626  160.0522 H   0  0  0  0  0  0  0  0  0  0  0  0  # atno 6908 bound_to 6896
  151.9563  133.3646  159.4055 H   0  0  0  0  0  0  0  0  0  0  0  0  # atno 6909 bound_to 6896
  145.5110  140.9540  143.1707 H   0  0  0  0  0  0  0  0  0  0  0  0  # atno 7974 bound_to 7965
  156.0633  140.3293  155.7488 H   0  0  0  0  0  0  0  0  0  0  0  0  # atno 8008 bound_to 7997
  155.5420  140.0602  157.2885 H   0  0  0  0  0  0  0  0  0  0  0  0  # atno 8009 bound_to 7997
  154.4492  140.1909  156.0589 H   0  0  0  0  0  0  0  0  0  0  0  0  # atno 8010 bound_to 7997
  140.4410  144.1187  150.6174 H   0  0  0  0  0  0  0  0  0  0  0  0  # atno 10167 bound_to 10162
  156.6009  130.8810  151.2913 H   0  0  0  0  0  0  0  0  0  0  0  0  # atno 10718 bound_to 10713
  153.5983  135.7000  153.5395 H   0  0  0  0  0  0  0  0  0  0  0  0  # atno 10763 bound_to 10752
  153.3119  135.4099  155.1343 H   0  0  0  0  0  0  0  0  0  0  0  0  # atno 10764 bound_to 10752
  154.8587  135.3674  154.5517 H   0  0  0  0  0  0  0  0  0  0  0  0  # atno 10765 bound_to 10752
  140.6684  134.4274  157.5232 H   0  0  0  0  0  0  0  0  0  0  0  0  # atno 11005 bound_to 11000
  144.7727  139.6698  143.7188 LP  0  0  0  0  0  0  0  0  0  0  0  0  # atno 17320 bound_to 7965
  146.2167  139.5561  142.9646 LP  0  0  0  0  0  0  0  0  0  0  0  0  # atno 17321 bound_to 7965
  140.4318  143.2565  151.9586 LP  0  0  0  0  0  0  0  0  0  0  0  0  # atno 17342 bound_to 10162
  139.4789  144.5737  151.8047 LP  0  0  0  0  0  0  0  0  0  0  0  0  # atno 17343 bound_to 10162
  157.7280  130.9650  150.1722 LP  0  0  0  0  0  0  0  0  0  0  0  0  # atno 17370 bound_to 10713
  156.2470  130.3696  149.8274 LP  0  0  0  0  0  0  0  0  0  0  0  0  # atno 17371 bound_to 10713
  139.8989  134.8602  156.1980 LP  0  0  0  0  0  0  0  0  0  0  0  0  # atno 17394 bound_to 11000
  141.0411  133.6937  156.1600 LP  0  0  0  0  0  0  0  0  0  0  0  0  # atno 17395 bound_to 11000

$$$$
