#       Name:                AV-unprocessed.smi:2213
#       Creating user name   scv26
#       Creation time:       Fri Mar 27 12:17:29 2020


#       File generated by GOLD software.
#

@<TRIPOS>MOLECULE
AV-unprocessed.smi:2213
    45    46     1
SMALL
NO_CHARGES


@<TRIPOS>ATOM
      1 ****        -2.5568   5.5224  -0.4250 C.3            1 S1                 0.0000
      2 ****        -1.9863   4.1195  -0.3166 C.2            1 S1                 0.0000
      3 ****        -1.6858   3.6879   0.9787 N.2            1 S1                 0.0000
      4 ****        -1.1951   2.5066   1.1672 C.2            1 S1                 0.0000
      5 ****        -0.9547   1.6285   0.0979 N.am           1 S1                 0.0000
      6 ****        -0.3944   0.3129   0.4479 C.3            1 S1                 0.0000
      7 ****         1.1384   0.2631   0.2572 C.3            1 S1                 0.0000
      8 ****         1.7936   0.7901   1.3932 O.3            1 S1                 0.0000
      9 ****         1.6719  -1.1612   0.0301 C.3            1 S1                 0.0000
     10 ****         1.0875  -2.0480   0.9762 O.3            1 S1                 0.0000
     11 ****         1.4023  -3.3887   0.9061 C.ar           1 S1                 0.0000
     12 ****         2.3027  -3.9415  -0.0402 C.ar           1 S1                 0.0000
     13 ****         2.5724  -5.3240  -0.0475 C.ar           1 S1                 0.0000
     14 ****         3.6701  -5.9816  -1.2048 Cl             1 S1                 0.0000
     15 ****         1.9485  -6.1699   0.8879 C.ar           1 S1                 0.0000
     16 ****         1.0542  -5.6316   1.8308 C.ar           1 S1                 0.0000
     17 ****         0.7827  -4.2494   1.8396 C.ar           1 S1                 0.0000
     18 ****        -0.3210  -3.6136   3.0065 Cl             1 S1                 0.0000
     19 ****        -1.2073   1.9742  -1.1976 C.2            1 S1                 0.0000
     20 ****        -0.9724   1.2030  -2.1301 O.2            1 S1                 0.0000
     21 ****        -1.7699   3.3196  -1.3964 C.2            1 S1                 0.0000
     22 ****        -2.0759   3.7362  -2.8297 C.3            1 S1                 0.0000
     23 ****        -3.5494   5.4985  -0.8754 H              1 S1                 0.0000
     24 ****        -1.9099   6.1504  -1.0382 H              1 S1                 0.0000
     25 ****        -2.6457   5.9923   0.5554 H              1 S1                 0.0000
     26 ****        -0.9368   2.1245   2.1564 H              1 S1                 0.0000
     27 ****        -0.6646   0.0072   1.4611 H              1 S1                 0.0000
     28 ****        -0.8612  -0.4398  -0.1904 H              1 S1                 0.0000
     29 ****         1.4339   0.8696  -0.5999 H              1 S1                 0.0000
     30 ****         1.5974   0.2374   2.1343 H              1 S1                 0.0000
     31 ****         1.3941  -1.4805  -0.9756 H              1 S1                 0.0000
     32 ****         2.7615  -1.1769   0.0944 H              1 S1                 0.0000
     33 ****         2.8005  -3.3240  -0.7721 H              1 S1                 0.0000
     34 ****         2.1547  -7.2302   0.8836 H              1 S1                 0.0000
     35 ****         0.5753  -6.2812   2.5486 H              1 S1                 0.0000
     36 ****        -1.1631   3.7289  -3.4261 H              1 S1                 0.0000
     37 ****        -2.5094   4.7321  -2.9046 H              1 S1                 0.0000
     38 ****        -2.7814   3.0383  -3.2821 H              1 S1                 0.0000
     39 ****        -1.8502   4.2920   1.7584 LP             1 S1                 0.0000
     40 ****         1.4687   1.7192   1.5696 LP             1 S1                 0.0000
     41 ****         2.7810   0.8064   1.2362 LP             1 S1                 0.0000
     42 ****         0.0953  -1.9726   0.8772 LP             1 S1                 0.0000
     43 ****         1.3570  -1.7291   1.8848 LP             1 S1                 0.0000
     44 ****        -0.5872   0.2987  -1.9462 LP             1 S1                 0.0000
     45 ****        -1.1671   1.4816  -3.0706 LP             1 S1                 0.0000
@<TRIPOS>BOND
    1    1    2 1     
    2    1   23 1     
    3    1   24 1     
    4    1   25 1     
    5    2   21 2     
    6    2    3 1     
    7    3    4 2     
    8    4    5 1     
    9    4   26 1     
   10    5    6 1     
   11    5   19 am    
   12    6    7 1     
   13    6   27 1     
   14    6   28 1     
   15    7    8 1     
   16    7    9 1     
   17    7   29 1     
   18    8   30 1     
   19    9   10 1     
   20    9   31 1     
   21    9   32 1     
   22   10   11 1     
   23   11   17 ar    
   24   11   12 ar    
   25   12   13 ar    
   26   12   33 1     
   27   13   14 1     
   28   13   15 ar    
   29   15   16 ar    
   30   15   34 1     
   31   16   17 ar    
   32   16   35 1     
   33   17   18 1     
   34   19   20 2     
   35   19   21 1     
   36   21   22 1     
   37   22   36 1     
   38   22   37 1     
   39   22   38 1     
   40    3   39 1     
   41    8   40 1     
   42    8   41 1     
   43   10   42 1     
   44   10   43 1     
   45   20   44 1     
   46   20   45 1     
@<TRIPOS>SUBSTRUCTURE
      1 S1             1
@<TRIPOS>SET
LONE_PAIRS      STATIC     ATOMS    <user>   **** ""
7 39 40 41 42 43 44 45
DONOR_HYDROGENS      STATIC     ATOMS    <user>   **** ""
1 30
ATOM$BLUE        STATIC     ATOMS    COLORGROUP SYSTEM
7 39 40 41 42 43 44 45
ATOM$RED        STATIC     ATOMS    COLORGROUP SYSTEM
1 30
