AV-unprocessed.smi:741|AV-procd|sdf|3556|dock9
  -GOLD-   22720 0553D 1   1.00000     0.00000
 Structure written by MMmdl.
 43 44  0  0  0  0  0  0  0  0  3 V2000
  150.3603  130.6426  154.6934 C   0  0  0  0  0  0  0  0  0  0  0  0
  150.0836  129.4081  153.8231 C   0  0  0  0  0  0  0  0  0  0  0  0
  148.5849  129.1187  153.6120 C   0  0  2  0  0  0  0  0  0  0  0  0
  148.3429  127.6173  153.3387 C   0  0  0  0  0  0  0  0  0  0  0  0
  149.1950  127.0815  152.2492 N   0  3  0  0  0  0  0  0  0  0  0  0
  149.5288  125.6436  152.3782 C   0  0  0  0  0  0  0  0  0  0  0  0
  149.4754  125.0432  150.9663 C   0  0  0  0  0  0  0  0  0  0  0  0
  149.3843  126.2461  150.0319 C   0  0  0  0  0  0  0  0  0  0  0  0
  148.6689  127.2882  150.8836 C   0  0  0  0  0  0  0  0  0  0  0  0
  148.0764  129.9384  152.5090 N   0  0  0  0  0  0  0  0  0  0  0  0
  146.8077  130.3394  152.3397 C   0  0  0  0  0  0  0  0  0  0  0  0
  145.8859  130.0033  153.0819 O   0  0  0  0  0  0  0  0  0  0  0  0
  146.6844  131.1211  151.2528 N   0  0  0  0  0  0  0  0  0  0  0  0
  145.5204  131.7640  150.7484 C   0  0  0  0  0  0  0  0  0  0  0  0
  144.4845  132.0519  151.6650 C   0  0  0  0  0  0  0  0  0  0  0  0
  143.3042  132.6740  151.2094 C   0  0  0  0  0  0  0  0  0  0  0  0
  143.1681  132.9812  149.9017 N   0  3  0  0  0  0  0  0  0  0  0  0
  144.1232  132.7133  148.9858 C   0  0  0  0  0  0  0  0  0  0  0  0
  145.3255  132.0925  149.3823 C   0  0  0  0  0  0  0  0  0  0  0  0
  151.4315  130.7718  154.8494 H   0  0  0  0  0  0  0  0  0  0  0  0
  149.8931  130.5452  155.6738 H   0  0  0  0  0  0  0  0  0  0  0  0
  149.9842  131.5552  154.2308 H   0  0  0  0  0  0  0  0  0  0  0  0
  150.5778  129.5292  152.8582 H   0  0  0  0  0  0  0  0  0  0  0  0
  150.5520  128.5437  154.2951 H   0  0  0  0  0  0  0  0  0  0  0  0
  148.0745  129.3935  154.5368 H   0  0  0  0  0  0  0  0  0  0  0  0
  148.5502  127.0598  154.2538 H   0  0  0  0  0  0  0  0  0  0  0  0
  147.2946  127.4320  153.0995 H   0  0  0  0  0  0  0  0  0  0  0  0
  150.5237  125.5483  152.8139 H   0  0  0  0  0  0  0  0  0  0  0  0
  148.8288  125.1231  153.0337 H   0  0  0  0  0  0  0  0  0  0  0  0
  150.3353  124.4100  150.7469 H   0  0  0  0  0  0  0  0  0  0  0  0
  148.5789  124.4305  150.8626 H   0  0  0  0  0  0  0  0  0  0  0  0
  150.3853  126.5981  149.7793 H   0  0  0  0  0  0  0  0  0  0  0  0
  148.8594  126.0234  149.1024 H   0  0  0  0  0  0  0  0  0  0  0  0
  147.5942  127.0995  150.8656 H   0  0  0  0  0  0  0  0  0  0  0  0
  148.8381  128.3032  150.5250 H   0  0  0  0  0  0  0  0  0  0  0  0
  148.7624  130.2592  151.8408 H   0  0  0  0  0  0  0  0  0  0  0  0
  147.5177  131.2386  150.6948 H   0  0  0  0  0  0  0  0  0  0  0  0
  144.5904  131.8037  152.7113 H   0  0  0  0  0  0  0  0  0  0  0  0
  142.4701  132.9305  151.8462 H   0  0  0  0  0  0  0  0  0  0  0  0
  143.8962  132.9954  147.9680 H   0  0  0  0  0  0  0  0  0  0  0  0
  146.0644  131.8696  148.6282 H   0  0  0  0  0  0  0  0  0  0  0  0
  150.0774  127.5714  152.2902 H   0  0  0  0  0  0  0  0  0  0  0  0
  142.3051  133.4292  149.5917 H   0  0  0  0  0  0  0  0  0  0  0  0
  1  2  1  0  0  0  0
  1 20  1  0  0  0  0
  1 21  1  0  0  0  0
  1 22  1  0  0  0  0
  2  3  1  0  0  0  0
  2 23  1  0  0  0  0
  2 24  1  0  0  0  0
  3  4  1  0  0  0  0
  3 10  1  0  0  0  0
  3 25  1  0  0  0  0
  4  5  1  0  0  0  0
  4 26  1  0  0  0  0
  4 27  1  0  0  0  0
  5  9  1  0  0  0  0
  5  6  1  0  0  0  0
  5 42  1  0  0  0  0
  6  7  1  0  0  0  0
  6 28  1  0  0  0  0
  6 29  1  0  0  0  0
  7  8  1  0  0  0  0
  7 30  1  0  0  0  0
  7 31  1  0  0  0  0
  8  9  1  0  0  0  0
  8 32  1  0  0  0  0
  8 33  1  0  0  0  0
  9 34  1  0  0  0  0
  9 35  1  0  0  0  0
 10 11  1  0  0  0  0
 10 36  1  0  0  0  0
 11 12  2  0  0  0  0
 11 13  1  0  0  0  0
 13 14  1  0  0  0  0
 13 37  1  0  0  0  0
 14 19  1  0  0  0  0
 14 15  2  0  0  0  0
 15 16  1  0  0  0  0
 15 38  1  0  0  0  0
 16 17  2  0  0  0  0
 16 39  1  0  0  0  0
 17 18  1  0  0  0  0
 17 43  1  0  0  0  0
 18 19  2  0  0  0  0
 18 40  1  0  0  0  0
 19 41  1  0  0  0  0
M  CHG  1   5   1
M  CHG  1  17   1
M  END
> <s_m_source_file>
AV-unprocessed.smi

> <i_m_source_file_index>
741

> <i_lp_mmshare_version>
43012

> <i_f3d_flags>
0

> <s_epik_input>
W0NIMl0xW0NIMl1bQ0gyXVtDSDJdTjFbQ0gyXVtDQEBIXShbQ0gyXVtDSDNdKVtOSF1DKD1PKVtOSF1jMltjSF1bY0hdbltjSF1bY0hdMg==

> <s_epik_cmdline>
J2VwaWtfcHl0aG9uJywgJy1waCcsICc3LjAnLCAnLXRuJywgJzgnLCAnLW1hJywgJzIwMCcsICctbWV0YWxfYmluZGluZycsICctaW1hZScsICc8aW5maWxlLm1hZT4nLCAnLW9tYWUnLCAnPG91dGZpbGUubWFlPic=

> <r_epik_Ionization_Penalty>
1.10771

> <r_epik_Ionization_Penalty_Charging>
1.10769

> <r_epik_Ionization_Penalty_Neutral>
1.91663e-05

> <r_epik_State_Penalty>
1.16347

> <r_epik_Charging_Adjusted_Penalty>
2.27116

> <i_epik_Tot_Q>
2

> <i_epik_Tot_abs_Q>
2

> <r_epik_Metal_State_Penalty>
1.24871

> <b_epik_Metal_Only>
0

> <s_lp_Force_Field>
OPLS_2005

> <r_lp_Energy>
49.4114

> <b_lp_Chiralities_Consistent>
1

> <s_lp_Variant>
AV-unprocessed.smi:741-3

> <Gold.Version>
5.8.1

> <Gold.Id.Protein>
6NUR|6NUR_protein|mol2

> <Gold.PLP.Fitness>
50.0328

> <Gold.PLP.PLP>
-37.6742

> <Gold.PLP.part.hbond>
-3.9079

> <Gold.PLP.part.metal>
0.0000

> <Gold.PLP.part.buried>
-3.6242

> <Gold.PLP.part.nonpolar>
-29.0385

> <Gold.PLP.part.repulsive>
0.3905

> <Gold.PLP.ligand.clash>
0.0000

> <Gold.PLP.ligand.torsion>
1.1227

> <Gold.PLP.Chemscore.Hbond>
4.8468

> <Gold.PLP.Chemscore.CHOScore>
0.0000

> <Gold.PLP.Chemscore.Metal>
0.0000

> <Gold.Chemscore.Hbonds>
donor molecule, donor type, donor heavy atom, donor atom, acceptor molecule, acceptor atom, score
      L1  H     5    42       P1 10737  0.94
      L1  H    10    36       P1 10747  0.91
      L1  H    13    37       P1 10747  1.00
      L1  H    17    43       P1 10186  2.00

> <Gold.PLP.Chemscore.Internal.Correction>
0.0636

> <Gold.Rescore>
     Score         DG    S(hbond)    S(metal)    S(lipo)     H(rot)  DE(clash)    DE(int)     intcor
     19.55     -22.41       3.12        0.00      91.37       1.63       0.47       2.40       ----

> <Gold.Chemscore.Fitness>
19.5453

> <Gold.Chemscore.DG>
-22.4138

> <Gold.Chemscore.ZeroCoef>
-5.4800

> <Gold.Chemscore.Hbond>
3.1157

> <Gold.Chemscore.Metal>
0.0000

> <Gold.Chemscore.Lipo>
91.3668

> <Gold.Chemscore.Internal_Hbond>
0.0000

> <Gold.Chemscore.DEClash>
0.4717

> <Gold.Chemscore.DEInternal>
2.3968

> <Gold.Chemscore.Rot>
1.6260

> <Gold.Chemscore.Internal.Correction>
   9.000000E+99

> <Gold.Chemscore.Hbonds>
donor molecule, donor type, donor heavy atom, donor atom, acceptor molecule, acceptor atom, score
      L1  H     5    42       P1 10737  0.85
      L1  H    10    36       P1 10747  0.31
      L1  H    13    37       P1 10747  0.93
      L1  H    17    43       P1 10186  0.99

> <Gold.Chemscore.Hbond.Weighted>
-10.4065

> <Gold.Chemscore.Metal.Weighted>
-0.0000

> <Gold.Chemscore.Lipo.Weighted>
-10.6899

> <Gold.Chemscore.Internal_Hbond.Weighted>
0.0000

> <Gold.Chemscore.DEClash.Weighted>
0.4717

> <Gold.Chemscore.DEInternal.Weighted>
2.3968

> <Gold.Chemscore.Rot.Weighted>
4.1626

> <Gold.Chemscore.Internal.Correction.Weighted>
   9.000000E+99

> <Gold.Protein.RotatedTorsions>
[ 6907 6896 6895 6894 ] final -149.07 input  -60.11 | X-H torsion
[ 7974 7965 7964 7962 ] final   84.49 input  175.53 | X-H torsion
[ 8008 7997 7996 7995 ] final -146.12 input   59.86 | X-H torsion
[ 10167 10162 10161 10158 ] final   57.05 input  -65.29 | X-H torsion
[ 10718 10713 10712 10709 ] final   28.91 input   66.30 | X-H torsion
[ 10763 10752 10751 10750 ] final  -90.31 input  -60.55 | X-H torsion
[ 11005 11000 10999 10996 ] final  176.17 input  -57.11 | X-H torsion

> <Gold.Protein.ActiveResidues>
 VAL166  LYS551  ARG553  GLY616  TRP617  ASP618  TYR619  PRO620  LYS621  CYS622 
 ASP623  PHE694  ASN695  SER759  ASP760  ASP761  ALA762  ILE779  LEU786  VAL792 
 PHE793  MET794  SER795  GLU796  ALA797  LYS798  CYS799  TRP800  GLU811  SER814 

> <Gold.Protein.RotatedAtoms>
  151.1789  133.4737  159.2593 H   0  0  0  0  0  0  0  0  0  0  0  0  # atno 6907 bound_to 6896
  151.1280  135.0115  159.8579 H   0  0  0  0  0  0  0  0  0  0  0  0  # atno 6908 bound_to 6896
  152.5459  134.1694  159.8643 H   0  0  0  0  0  0  0  0  0  0  0  0  # atno 6909 bound_to 6896
  145.5980  139.2348  143.2262 H   0  0  0  0  0  0  0  0  0  0  0  0  # atno 7974 bound_to 7965
  155.5542  140.0619  157.2843 H   0  0  0  0  0  0  0  0  0  0  0  0  # atno 8008 bound_to 7997
  154.4411  140.1897  156.0762 H   0  0  0  0  0  0  0  0  0  0  0  0  # atno 8009 bound_to 7997
  156.0494  140.3286  155.7337 H   0  0  0  0  0  0  0  0  0  0  0  0  # atno 8010 bound_to 7997
  140.2021  144.3977  150.6524 H   0  0  0  0  0  0  0  0  0  0  0  0  # atno 10167 bound_to 10162
  157.2396  130.7063  149.6352 H   0  0  0  0  0  0  0  0  0  0  0  0  # atno 10718 bound_to 10713
  154.6644  135.5309  153.8059 H   0  0  0  0  0  0  0  0  0  0  0  0  # atno 10763 bound_to 10752
  153.0462  135.6513  154.0821 H   0  0  0  0  0  0  0  0  0  0  0  0  # atno 10764 bound_to 10752
  154.0727  135.2953  155.3285 H   0  0  0  0  0  0  0  0  0  0  0  0  # atno 10765 bound_to 10752
  140.3702  134.7036  157.4387 H   0  0  0  0  0  0  0  0  0  0  0  0  # atno 11005 bound_to 11000
  146.1597  140.6805  142.9283 LP  0  0  0  0  0  0  0  0  0  0  0  0  # atno 17320 bound_to 7965
  144.7322  140.4705  143.6929 LP  0  0  0  0  0  0  0  0  0  0  0  0  # atno 17321 bound_to 7965
  140.6383  143.2199  151.6347 LP  0  0  0  0  0  0  0  0  0  0  0  0  # atno 17342 bound_to 10162
  139.5213  144.3197  152.0921 LP  0  0  0  0  0  0  0  0  0  0  0  0  # atno 17343 bound_to 10162
  155.9671  130.4462  150.5532 LP  0  0  0  0  0  0  0  0  0  0  0  0  # atno 17370 bound_to 10713
  157.3392  131.0714  151.1801 LP  0  0  0  0  0  0  0  0  0  0  0  0  # atno 17371 bound_to 10713
  140.0558  134.6066  155.8807 LP  0  0  0  0  0  0  0  0  0  0  0  0  # atno 17394 bound_to 11000
  141.1957  133.6588  156.5655 LP  0  0  0  0  0  0  0  0  0  0  0  0  # atno 17395 bound_to 11000

$$$$
