AV-unprocessed.smi:321|AV-procd|sdf|2334|dock4
  -GOLD-   2262022243D 1   1.00000     0.00000
 Structure written by MMmdl.
 49 50  0  0  0  0  0  0  0  0  1 V2000
  144.1531  131.7784  150.0996 C   0  0  0  0  0  0  0  0  0  0  0  0
  144.2365  133.3087  150.0585 C   0  0  0  0  0  0  0  0  0  0  0  0
  143.7573  134.0715  151.6729 S   0  0  0  0  0  0  0  0  0  0  0  0
  142.3161  133.8669  151.8871 O   0  0  0  0  0  0  0  0  0  0  0  0
  144.7185  133.6267  152.6936 O   0  0  0  0  0  0  0  0  0  0  0  0
  144.0128  135.7767  151.4281 N   0  0  0  0  0  0  0  0  0  0  0  0
  143.6451  136.7515  152.4768 C   0  0  0  0  0  0  0  0  0  0  0  0
  144.8771  137.2875  153.2276 C   0  0  0  0  0  0  0  0  0  0  0  0
  145.9390  137.8311  152.2560 C   0  0  0  0  0  0  0  0  0  0  0  0
  147.1377  138.2522  152.9745 N   0  0  0  0  0  0  0  0  0  0  0  0
  147.2447  139.3610  153.7290 C   0  0  0  0  0  0  0  0  0  0  0  0
  146.3110  140.1474  153.8950 O   0  0  0  0  0  0  0  0  0  0  0  0
  148.5772  139.5780  154.3579 C   0  0  0  0  0  0  0  0  0  0  0  0
  149.5644  138.5219  154.2113 C   0  0  0  0  0  0  0  0  0  0  0  0
  150.7804  138.6981  154.7727 C   0  0  0  0  0  0  0  0  0  0  0  0
  151.1233  139.9124  155.5148 C   0  0  0  0  0  0  0  0  0  0  0  0
  152.2259  140.0951  156.0295 O   0  0  0  0  0  0  0  0  0  0  0  0
  150.1076  140.8258  155.5823 N   0  0  0  0  0  0  0  0  0  0  0  0
  150.2785  142.1070  156.2776 C   0  0  0  0  0  0  0  0  0  0  0  0
  150.6710  141.9104  157.7511 C   0  0  0  0  0  0  0  0  0  0  0  0
  150.4553  143.1117  158.4732 O   0  0  0  0  0  0  0  0  0  0  0  0
  151.2727  144.1749  158.0176 C   0  0  0  0  0  0  0  0  0  0  0  0
  148.8562  140.6597  155.0111 N   0  0  0  0  0  0  0  0  0  0  0  0
  146.3010  136.7413  151.2372 C   0  0  0  0  0  0  0  0  0  0  0  0
  145.0538  136.2385  150.4898 C   0  0  0  0  0  0  0  0  0  0  0  0
  144.4105  131.3507  149.1308 H   0  0  0  0  0  0  0  0  0  0  0  0
  143.1492  131.4413  150.3562 H   0  0  0  0  0  0  0  0  0  0  0  0
  144.8423  131.3661  150.8367 H   0  0  0  0  0  0  0  0  0  0  0  0
  145.2647  133.6048  149.8505 H   0  0  0  0  0  0  0  0  0  0  0  0
  143.6195  133.7227  149.2652 H   0  0  0  0  0  0  0  0  0  0  0  0
  143.1241  137.5828  152.0005 H   0  0  0  0  0  0  0  0  0  0  0  0
  142.9377  136.3108  153.1784 H   0  0  0  0  0  0  0  0  0  0  0  0
  144.5619  138.0741  153.9141 H   0  0  0  0  0  0  0  0  0  0  0  0
  145.3052  136.5033  153.8506 H   0  0  0  0  0  0  0  0  0  0  0  0
  145.5276  138.6854  151.7146 H   0  0  0  0  0  0  0  0  0  0  0  0
  147.9515  137.6600  152.8903 H   0  0  0  0  0  0  0  0  0  0  0  0
  149.3396  137.6153  153.6686 H   0  0  0  0  0  0  0  0  0  0  0  0
  151.5236  137.9210  154.6713 H   0  0  0  0  0  0  0  0  0  0  0  0
  151.0611  142.6785  155.7756 H   0  0  0  0  0  0  0  0  0  0  0  0
  149.3836  142.7273  156.2058 H   0  0  0  0  0  0  0  0  0  0  0  0
  150.1001  141.0914  158.1918 H   0  0  0  0  0  0  0  0  0  0  0  0
  151.7258  141.6383  157.8110 H   0  0  0  0  0  0  0  0  0  0  0  0
  151.0733  145.0691  158.6081 H   0  0  0  0  0  0  0  0  0  0  0  0
  151.0680  144.4091  156.9721 H   0  0  0  0  0  0  0  0  0  0  0  0
  152.3309  143.9318  158.1219 H   0  0  0  0  0  0  0  0  0  0  0  0
  147.0229  137.1294  150.5177 H   0  0  0  0  0  0  0  0  0  0  0  0
  146.7905  135.9093  151.7430 H   0  0  0  0  0  0  0  0  0  0  0  0
  145.3217  135.4401  149.7981 H   0  0  0  0  0  0  0  0  0  0  0  0
  144.6395  137.0451  149.8841 H   0  0  0  0  0  0  0  0  0  0  0  0
  1  2  1  0  0  0  0
  1 26  1  0  0  0  0
  1 27  1  0  0  0  0
  1 28  1  0  0  0  0
  2  3  1  0  0  0  0
  2 29  1  0  0  0  0
  2 30  1  0  0  0  0
  3  4  2  0  0  0  0
  3  5  2  0  0  0  0
  3  6  1  0  0  0  0
  6 25  1  0  0  0  0
  6  7  1  0  0  0  0
  7  8  1  0  0  0  0
  7 31  1  0  0  0  0
  7 32  1  0  0  0  0
  8  9  1  0  0  0  0
  8 33  1  0  0  0  0
  8 34  1  0  0  0  0
  9 10  1  0  0  0  0
  9 24  1  0  0  0  0
  9 35  1  0  0  0  0
 10 11  1  0  0  0  0
 10 36  1  0  0  0  0
 11 12  2  0  0  0  0
 11 13  1  0  0  0  0
 13 23  2  0  0  0  0
 13 14  1  0  0  0  0
 14 15  2  0  0  0  0
 14 37  1  0  0  0  0
 15 16  1  0  0  0  0
 15 38  1  0  0  0  0
 16 17  2  0  0  0  0
 16 18  1  0  0  0  0
 18 19  1  0  0  0  0
 18 23  1  0  0  0  0
 19 20  1  0  0  0  0
 19 39  1  0  0  0  0
 19 40  1  0  0  0  0
 20 21  1  0  0  0  0
 20 41  1  0  0  0  0
 20 42  1  0  0  0  0
 21 22  1  0  0  0  0
 22 43  1  0  0  0  0
 22 44  1  0  0  0  0
 22 45  1  0  0  0  0
 24 25  1  0  0  0  0
 24 46  1  0  0  0  0
 24 47  1  0  0  0  0
 25 48  1  0  0  0  0
 25 49  1  0  0  0  0
M  END
> <s_m_source_file>
AV-unprocessed.smi

> <i_m_source_file_index>
321

> <i_lp_mmshare_version>
43012

> <i_f3d_flags>
0

> <s_epik_input>
W0NIM11bQ0gyXVMoPU8pKD1PKU4xW0NIMl1bQ0gyXVtDSF0oW0NIMl1bQ0gyXTEpW05IXUMoPU8pYzJbY0hdW2NIXWMoPU8pbihuMilbQ0gyXVtDSDJdT1tDSDNd

> <s_epik_cmdline>
J2VwaWtfcHl0aG9uJywgJy1waCcsICc3LjAnLCAnLXRuJywgJzgnLCAnLW1hJywgJzIwMCcsICctbWV0YWxfYmluZGluZycsICctaW1hZScsICc8aW5maWxlLm1hZT4nLCAnLW9tYWUnLCAnPG91dGZpbGUubWFlPic=

> <r_lp_tautomer_probability>
1

> <r_epik_Ionization_Penalty>
1.38514e-06

> <r_epik_Ionization_Penalty_Charging>
6.369e-09

> <r_epik_Ionization_Penalty_Neutral>
1.37877e-06

> <r_epik_State_Penalty>
-0

> <r_epik_Charging_Adjusted_Penalty>
6.369e-09

> <i_epik_Tot_Q>
0

> <i_epik_Tot_abs_Q>
0

> <r_epik_Metal_State_Penalty>
-0

> <b_epik_Metal_Only>
0

> <s_lp_Force_Field>
OPLS_2005

> <r_lp_Energy>
23.8323

> <b_lp_Chiralities_Consistent>
1

> <s_lp_Variant>
AV-unprocessed.smi:321-1

> <Gold.Version>
5.8.1

> <Gold.Id.Protein>
6NUR|6NUR_protein|mol2

> <Gold.PLP.Fitness>
45.9849

> <Gold.PLP.PLP>
-41.4139

> <Gold.PLP.part.hbond>
-2.0000

> <Gold.PLP.part.metal>
0.0000

> <Gold.PLP.part.buried>
0.7776

> <Gold.PLP.part.nonpolar>
-41.8091

> <Gold.PLP.part.repulsive>
1.2199

> <Gold.PLP.ligand.clash>
0.4697

> <Gold.PLP.ligand.torsion>
1.5092

> <Gold.PLP.Chemscore.Hbond>
1.9440

> <Gold.PLP.Chemscore.CHOScore>
0.0000

> <Gold.PLP.Chemscore.Metal>
0.0000

> <Gold.Chemscore.Hbonds>
donor molecule, donor type, donor heavy atom, donor atom, acceptor molecule, acceptor atom, score
      L1  H    10    36       P1  7948  0.98
      P1  H  7997  8010       L1    17  0.65

> <Gold.PLP.Chemscore.Internal.Correction>
2.2272

> <Gold.Rescore>
     Score         DG    S(hbond)    S(metal)    S(lipo)     H(rot)  DE(clash)    DE(int)     intcor
     13.57     -17.83       1.95        0.00      90.43       1.86       2.35       1.91       ----

> <Gold.Chemscore.Fitness>
13.5731

> <Gold.Chemscore.DG>
-17.8324

> <Gold.Chemscore.ZeroCoef>
-5.4800

> <Gold.Chemscore.Hbond>
1.9536

> <Gold.Chemscore.Metal>
0.0000

> <Gold.Chemscore.Lipo>
90.4316

> <Gold.Chemscore.Internal_Hbond>
0.0000

> <Gold.Chemscore.DEClash>
2.3474

> <Gold.Chemscore.DEInternal>
1.9119

> <Gold.Chemscore.Rot>
1.8567

> <Gold.Chemscore.Internal.Correction>
   9.000000E+99

> <Gold.Chemscore.Hbonds>
donor molecule, donor type, donor heavy atom, donor atom, acceptor molecule, acceptor atom, score
      L1  H    10    36       P1  7948  0.88
      P1  H  7997  8010       L1    17  0.62

> <Gold.Chemscore.Hbond.Weighted>
-6.5249

> <Gold.Chemscore.Metal.Weighted>
-0.0000

> <Gold.Chemscore.Lipo.Weighted>
-10.5805

> <Gold.Chemscore.Internal_Hbond.Weighted>
0.0000

> <Gold.Chemscore.DEClash.Weighted>
2.3474

> <Gold.Chemscore.DEInternal.Weighted>
1.9119

> <Gold.Chemscore.Rot.Weighted>
4.7530

> <Gold.Chemscore.Internal.Correction.Weighted>
   9.000000E+99

> <Gold.Protein.RotatedTorsions>
[ 6907 6896 6895 6894 ] final  141.81 input  -60.11 | X-H torsion
[ 7974 7965 7964 7962 ] final  -16.41 input  175.53 | X-H torsion
[ 8008 7997 7996 7995 ] final   67.26 input   59.86 | X-H torsion
[ 10167 10162 10161 10158 ] final   -7.05 input  -65.29 | X-H torsion
[ 10718 10713 10712 10709 ] final -161.37 input   66.30 | X-H torsion
[ 10763 10752 10751 10750 ] final   -8.16 input  -60.55 | X-H torsion
[ 11005 11000 10999 10996 ] final  -88.62 input  -57.11 | X-H torsion

> <Gold.Protein.ActiveResidues>
 VAL166  LYS551  ARG553  GLY616  TRP617  ASP618  TYR619  PRO620  LYS621  CYS622 
 ASP623  PHE694  ASN695  SER759  ASP760  ASP761  ALA762  ILE779  LEU786  VAL792 
 PHE793  MET794  SER795  GLU796  ALA797  LYS798  CYS799  TRP800  GLU811  SER814 

> <Gold.Protein.RotatedAtoms>
  152.2264  133.5024  159.5190 H   0  0  0  0  0  0  0  0  0  0  0  0  # atno 6907 bound_to 6896
  150.7026  134.1274  159.4066 H   0  0  0  0  0  0  0  0  0  0  0  0  # atno 6908 bound_to 6896
  151.9195  135.0304  160.0571 H   0  0  0  0  0  0  0  0  0  0  0  0  # atno 6909 bound_to 6896
  146.1989  140.3632  142.8430 H   0  0  0  0  0  0  0  0  0  0  0  0  # atno 7974 bound_to 7965
  155.6902  140.3496  155.4890 H   0  0  0  0  0  0  0  0  0  0  0  0  # atno 8008 bound_to 7997
  155.9531  140.1123  157.0982 H   0  0  0  0  0  0  0  0  0  0  0  0  # atno 8009 bound_to 7997
  154.4126  140.1190  156.5065 H   0  0  0  0  0  0  0  0  0  0  0  0  # atno 8010 bound_to 7997
  140.7017  143.6124  150.8691 H   0  0  0  0  0  0  0  0  0  0  0  0  # atno 10167 bound_to 10162
  156.5953  130.8787  151.2900 H   0  0  0  0  0  0  0  0  0  0  0  0  # atno 10718 bound_to 10713
  153.4365  135.7013  153.6197 H   0  0  0  0  0  0  0  0  0  0  0  0  # atno 10763 bound_to 10752
  153.4590  135.3740  155.2327 H   0  0  0  0  0  0  0  0  0  0  0  0  # atno 10764 bound_to 10752
  154.8727  135.4015  154.3757 H   0  0  0  0  0  0  0  0  0  0  0  0  # atno 10765 bound_to 10752
  141.1599  133.7581  156.9477 H   0  0  0  0  0  0  0  0  0  0  0  0  # atno 11005 bound_to 11000
  144.8639  140.7178  143.6090 LP  0  0  0  0  0  0  0  0  0  0  0  0  # atno 17320 bound_to 7965
  145.3552  139.1696  143.4413 LP  0  0  0  0  0  0  0  0  0  0  0  0  # atno 17321 bound_to 7965
  139.9847  143.5913  152.2931 LP  0  0  0  0  0  0  0  0  0  0  0  0  # atno 17342 bound_to 10162
  139.6546  144.7662  151.2080 LP  0  0  0  0  0  0  0  0  0  0  0  0  # atno 17343 bound_to 10162
  157.7293  130.9669  150.1783 LP  0  0  0  0  0  0  0  0  0  0  0  0  # atno 17370 bound_to 10713
  156.2515  130.3701  149.8227 LP  0  0  0  0  0  0  0  0  0  0  0  0  # atno 17371 bound_to 10713
  140.1278  134.9375  157.2295 LP  0  0  0  0  0  0  0  0  0  0  0  0  # atno 17394 bound_to 11000
  140.2991  134.3153  155.7294 LP  0  0  0  0  0  0  0  0  0  0  0  0  # atno 17395 bound_to 11000

$$$$
