AV-unprocessed.smi:2336|AV-procd|sdf|9328|dock1
  -GOLD-   2272012543D 1   1.00000     0.00000
 Structure written by MMmdl.
 50 51  0  0  0  0  0  0  0  0  2 V2000
  145.6321  137.4112  155.9797 C   0  0  0  0  0  0  0  0  0  0  0  0
  147.0191  137.2646  155.3301 C   0  0  0  0  0  0  0  0  0  0  0  0
  148.1274  137.2548  156.3971 C   0  0  0  0  0  0  0  0  0  0  0  0
  147.3314  138.2578  154.1708 C   0  0  1  0  0  0  0  0  0  0  0  0
  146.3685  138.1715  152.9580 C   0  0  0  0  0  0  0  0  0  0  0  0
  146.5316  136.9206  152.2292 N   0  0  0  0  0  0  0  0  0  0  0  0
  145.5848  135.9788  152.1285 C   0  0  0  0  0  0  0  0  0  0  0  0
  144.4719  136.0890  152.6415 O   0  0  0  0  0  0  0  0  0  0  0  0
  146.0177  134.9338  151.4018 N   0  0  0  0  0  0  0  0  0  0  0  0
  145.3436  133.7319  151.0452 C   0  0  0  0  0  0  0  0  0  0  0  0
  143.9565  133.6314  150.7737 C   0  0  0  0  0  0  0  0  0  0  0  0
  143.4233  132.3705  150.4381 C   0  0  0  0  0  0  0  0  0  0  0  0
  144.1636  131.2446  150.3632 N   0  0  0  0  0  0  0  0  0  0  0  0
  145.4832  131.3418  150.6279 C   0  0  0  0  0  0  0  0  0  0  0  0
  146.1161  132.5530  150.9720 C   0  0  0  0  0  0  0  0  0  0  0  0
  147.4467  132.5788  151.2269 F   0  0  0  0  0  0  0  0  0  0  0  0
  147.5425  139.6313  154.6656 N   0  0  0  0  0  0  0  0  0  0  0  0
  146.3640  140.2701  155.2673 C   0  0  0  0  0  0  0  0  0  0  0  0
  146.7695  141.6094  155.9126 C   0  0  0  0  0  0  0  0  0  0  0  0
  147.3661  142.5284  154.9137 N   0  3  0  0  0  0  0  0  0  0  0  0
  146.3743  143.1655  154.0168 C   0  0  0  0  0  0  0  0  0  0  0  0
  148.4804  141.8624  154.1980 C   0  0  0  0  0  0  0  0  0  0  0  0
  148.0443  140.5075  153.6025 C   0  0  0  0  0  0  0  0  0  0  0  0
  145.5641  138.3115  156.5890 H   0  0  0  0  0  0  0  0  0  0  0  0
  145.4293  136.5679  156.6402 H   0  0  0  0  0  0  0  0  0  0  0  0
  144.8348  137.4350  155.2377 H   0  0  0  0  0  0  0  0  0  0  0  0
  147.0347  136.2661  154.8929 H   0  0  0  0  0  0  0  0  0  0  0  0
  148.1722  138.1998  156.9389 H   0  0  0  0  0  0  0  0  0  0  0  0
  149.1057  137.0807  155.9483 H   0  0  0  0  0  0  0  0  0  0  0  0
  147.9587  136.4647  157.1294 H   0  0  0  0  0  0  0  0  0  0  0  0
  148.2987  137.9197  153.7957 H   0  0  0  0  0  0  0  0  0  0  0  0
  145.3275  138.2544  153.2724 H   0  0  0  0  0  0  0  0  0  0  0  0
  146.5572  138.9949  152.2677 H   0  0  0  0  0  0  0  0  0  0  0  0
  147.4207  136.7619  151.7783 H   0  0  0  0  0  0  0  0  0  0  0  0
  146.9535  135.0168  151.0318 H   0  0  0  0  0  0  0  0  0  0  0  0
  143.2895  134.4771  150.8179 H   0  0  0  0  0  0  0  0  0  0  0  0
  142.3698  132.2639  150.2262 H   0  0  0  0  0  0  0  0  0  0  0  0
  146.0527  130.4264  150.5643 H   0  0  0  0  0  0  0  0  0  0  0  0
  145.5896  140.4379  154.5185 H   0  0  0  0  0  0  0  0  0  0  0  0
  145.9221  139.6312  156.0280 H   0  0  0  0  0  0  0  0  0  0  0  0
  145.9086  142.0822  156.3866 H   0  0  0  0  0  0  0  0  0  0  0  0
  147.4977  141.4305  156.7051 H   0  0  0  0  0  0  0  0  0  0  0  0
  145.8679  142.4367  153.3843 H   0  0  0  0  0  0  0  0  0  0  0  0
  146.8604  143.8953  153.3689 H   0  0  0  0  0  0  0  0  0  0  0  0
  145.6177  143.6937  154.5978 H   0  0  0  0  0  0  0  0  0  0  0  0
  148.8681  142.5171  153.4168 H   0  0  0  0  0  0  0  0  0  0  0  0
  149.2999  141.7045  154.9007 H   0  0  0  0  0  0  0  0  0  0  0  0
  148.9096  140.0480  153.1233 H   0  0  0  0  0  0  0  0  0  0  0  0
  147.2899  140.6448  152.8271 H   0  0  0  0  0  0  0  0  0  0  0  0
  147.7780  143.2880  155.4369 H   0  0  0  0  0  0  0  0  0  0  0  0
  1  2  1  0  0  0  0
  1 24  1  0  0  0  0
  1 25  1  0  0  0  0
  1 26  1  0  0  0  0
  2  3  1  0  0  0  0
  2  4  1  0  0  0  0
  2 27  1  0  0  0  0
  3 28  1  0  0  0  0
  3 29  1  0  0  0  0
  3 30  1  0  0  0  0
  4  5  1  0  0  0  0
  4 17  1  0  0  0  0
  4 31  1  0  0  0  0
  5  6  1  0  0  0  0
  5 32  1  0  0  0  0
  5 33  1  0  0  0  0
  6  7  1  0  0  0  0
  6 34  1  0  0  0  0
  7  8  2  0  0  0  0
  7  9  1  0  0  0  0
  9 10  1  0  0  0  0
  9 35  1  0  0  0  0
 10 15  1  0  0  0  0
 10 11  2  0  0  0  0
 11 12  1  0  0  0  0
 11 36  1  0  0  0  0
 12 13  2  0  0  0  0
 12 37  1  0  0  0  0
 13 14  1  0  0  0  0
 14 15  2  0  0  0  0
 14 38  1  0  0  0  0
 15 16  1  0  0  0  0
 17 23  1  0  0  0  0
 17 18  1  0  0  0  0
 18 19  1  0  0  0  0
 18 39  1  0  0  0  0
 18 40  1  0  0  0  0
 19 20  1  0  0  0  0
 19 41  1  0  0  0  0
 19 42  1  0  0  0  0
 20 21  1  0  0  0  0
 20 22  1  0  0  0  0
 20 50  1  0  0  0  0
 21 43  1  0  0  0  0
 21 44  1  0  0  0  0
 21 45  1  0  0  0  0
 22 23  1  0  0  0  0
 22 46  1  0  0  0  0
 22 47  1  0  0  0  0
 23 48  1  0  0  0  0
 23 49  1  0  0  0  0
M  CHG  1  20   1
M  END
> <s_m_source_file>
AV-unprocessed.smi

> <i_m_source_file_index>
2336

> <i_lp_mmshare_version>
43012

> <i_f3d_flags>
0

> <s_epik_input>
W0NIMl0xW0NIMl1OKFtDSDNdKVtDSDJdW0NIMl1OMVtDQEhdKFtDSF0oW0NIM10pW0NIM10pW0NIMl1bTkhdQyg9TylbTkhdYzJbY0hdW2NIXW5bY0hdYzJG

> <s_epik_cmdline>
J2VwaWtfcHl0aG9uJywgJy1waCcsICc3LjAnLCAnLXRuJywgJzgnLCAnLW1hJywgJzIwMCcsICctbWV0YWxfYmluZGluZycsICctaW1hZScsICc8aW5maWxlLm1hZT4nLCAnLW9tYWUnLCAnPG91dGZpbGUubWFlPic=

> <r_epik_Ionization_Penalty>
0.0313013

> <r_epik_Ionization_Penalty_Charging>
0.0272987

> <r_epik_Ionization_Penalty_Neutral>
0.00400259

> <r_epik_State_Penalty>
0.0776825

> <r_epik_Charging_Adjusted_Penalty>
0.104981

> <i_epik_Tot_Q>
1

> <i_epik_Tot_abs_Q>
1

> <r_epik_Metal_State_Penalty>
0.0776139

> <b_epik_Metal_Only>
0

> <s_lp_Force_Field>
OPLS_2005

> <r_lp_Energy>
31.1795

> <b_lp_Chiralities_Consistent>
1

> <s_lp_Variant>
AV-unprocessed.smi:2336-2

> <Gold.Version>
5.8.1

> <Gold.Id.Protein>
6NUR|6NUR_protein|mol2

> <Gold.PLP.Fitness>
42.9969

> <Gold.PLP.PLP>
-27.7189

> <Gold.PLP.part.hbond>
-3.5196

> <Gold.PLP.part.metal>
0.0000

> <Gold.PLP.part.buried>
4.1881

> <Gold.PLP.part.nonpolar>
-29.0205

> <Gold.PLP.part.repulsive>
0.6037

> <Gold.PLP.ligand.clash>
0.0000

> <Gold.PLP.ligand.torsion>
0.4581

> <Gold.PLP.Chemscore.Hbond>
3.5845

> <Gold.PLP.Chemscore.CHOScore>
1.6932

> <Gold.PLP.Chemscore.Metal>
0.0000

> <Gold.Chemscore.Hbonds>
donor molecule, donor type, donor heavy atom, donor atom, acceptor molecule, acceptor atom, score
      L1  H     6    34       P1  7948  1.00
      L1  H     9    35       P1  7948  0.01
      L1  H    20    50       P1  8028  2.00
      P1  H 10785 10796       L1    13  0.35
      L1  C    12    37       P1 10186  0.59
      L1  C    12    37       P1 10952  0.98

> <Gold.PLP.Chemscore.Internal.Correction>
0.3611

> <Gold.Rescore>
     Score         DG    S(hbond)    S(metal)    S(lipo)     H(rot)  DE(clash)    DE(int)     intcor
     14.51     -16.56       1.71        0.00      82.49       1.67       1.58       0.46       ----

> <Gold.Chemscore.Fitness>
14.5148

> <Gold.Chemscore.DG>
-16.5574

> <Gold.Chemscore.ZeroCoef>
-5.4800

> <Gold.Chemscore.Hbond>
1.7100

> <Gold.Chemscore.Metal>
0.0000

> <Gold.Chemscore.Lipo>
82.4900

> <Gold.Chemscore.Internal_Hbond>
0.0000

> <Gold.Chemscore.DEClash>
1.5790

> <Gold.Chemscore.DEInternal>
0.4636

> <Gold.Chemscore.Rot>
1.6739

> <Gold.Chemscore.Internal.Correction>
   9.000000E+99

> <Gold.Chemscore.Hbonds>
donor molecule, donor type, donor heavy atom, donor atom, acceptor molecule, acceptor atom, score
      L1  H     6    34       P1  7948  0.94
      L1  H     9    35       P1  7948  0.03
      L1  H    20    50       P1  8028  0.39
      P1  H 10785 10796       L1    13  0.16

> <Gold.Chemscore.Hbond.Weighted>
-5.7112

> <Gold.Chemscore.Metal.Weighted>
-0.0000

> <Gold.Chemscore.Lipo.Weighted>
-9.6513

> <Gold.Chemscore.Internal_Hbond.Weighted>
0.0000

> <Gold.Chemscore.DEClash.Weighted>
1.5790

> <Gold.Chemscore.DEInternal.Weighted>
0.4636

> <Gold.Chemscore.Rot.Weighted>
4.2851

> <Gold.Chemscore.Internal.Correction.Weighted>
   9.000000E+99

> <Gold.Protein.RotatedTorsions>
[ 6907 6896 6895 6894 ] final   58.76 input  -60.11 | X-H torsion
[ 7974 7965 7964 7962 ] final  -62.32 input  175.53 | X-H torsion
[ 8008 7997 7996 7995 ] final  -10.57 input   59.86 | X-H torsion
[ 10167 10162 10161 10158 ] final   71.69 input  -65.29 | X-H torsion
[ 10718 10713 10712 10709 ] final -100.48 input   66.30 | X-H torsion
[ 10763 10752 10751 10750 ] final   29.92 input  -60.55 | X-H torsion
[ 11005 11000 10999 10996 ] final -137.78 input  -57.11 | X-H torsion

> <Gold.Protein.ActiveResidues>
 VAL166  LYS551  ARG553  GLY616  TRP617  ASP618  TYR619  PRO620  LYS621  CYS622 
 ASP623  PHE694  ASN695  SER759  ASP760  ASP761  ALA762  ILE779  LEU786  VAL792 
 PHE793  MET794  SER795  GLU796  ALA797  LYS798  CYS799  TRP800  GLU811  SER814 

> <Gold.Protein.RotatedAtoms>
  152.3853  134.6527  160.0127 H   0  0  0  0  0  0  0  0  0  0  0  0  # atno 6907 bound_to 6896
  151.6777  133.3307  159.3220 H   0  0  0  0  0  0  0  0  0  0  0  0  # atno 6908 bound_to 6896
  150.7781  134.6744  159.6454 H   0  0  0  0  0  0  0  0  0  0  0  0  # atno 6909 bound_to 6896
  145.7927  140.8700  143.0272 H   0  0  0  0  0  0  0  0  0  0  0  0  # atno 7974 bound_to 7965
  154.5542  140.2325  155.8436 H   0  0  0  0  0  0  0  0  0  0  0  0  # atno 8008 bound_to 7997
  156.1974  140.3061  155.9415 H   0  0  0  0  0  0  0  0  0  0  0  0  # atno 8009 bound_to 7997
  155.3011  140.0431  157.3020 H   0  0  0  0  0  0  0  0  0  0  0  0  # atno 8010 bound_to 7997
  140.0434  144.5371  150.7417 H   0  0  0  0  0  0  0  0  0  0  0  0  # atno 10167 bound_to 10162
  156.0164  130.5329  150.6823 H   0  0  0  0  0  0  0  0  0  0  0  0  # atno 10718 bound_to 10713
  153.0402  135.6477  154.0965 H   0  0  0  0  0  0  0  0  0  0  0  0  # atno 10763 bound_to 10752
  154.0673  135.2883  155.3316 H   0  0  0  0  0  0  0  0  0  0  0  0  # atno 10764 bound_to 10752
  154.6618  135.5389  153.8092 H   0  0  0  0  0  0  0  0  0  0  0  0  # atno 10765 bound_to 10752
  140.8678  134.2088  157.4669 H   0  0  0  0  0  0  0  0  0  0  0  0  # atno 11005 bound_to 11000
  144.6779  140.0146  143.7484 LP  0  0  0  0  0  0  0  0  0  0  0  0  # atno 17320 bound_to 7965
  145.9960  139.3053  143.0956 LP  0  0  0  0  0  0  0  0  0  0  0  0  # atno 17321 bound_to 7965
  140.7250  143.2627  151.4151 LP  0  0  0  0  0  0  0  0  0  0  0  0  # atno 17342 bound_to 10162
  139.5999  144.1317  152.2186 LP  0  0  0  0  0  0  0  0  0  0  0  0  # atno 17343 bound_to 10162
  157.4522  131.0874  151.0834 LP  0  0  0  0  0  0  0  0  0  0  0  0  # atno 17370 bound_to 10713
  157.1346  130.6117  149.5538 LP  0  0  0  0  0  0  0  0  0  0  0  0  # atno 17371 bound_to 10713
  139.8710  134.9760  156.4905 LP  0  0  0  0  0  0  0  0  0  0  0  0  # atno 17394 bound_to 11000
  140.8608  133.8061  155.9263 LP  0  0  0  0  0  0  0  0  0  0  0  0  # atno 17395 bound_to 11000

$$$$
