AV-unprocessed.smi:2448|AV-procd|sdf|9656|dock5
  -GOLD-   2272013293D 1   1.00000     0.00000
 Structure written by MMmdl.
 38 39  0  0  0  0  0  0  0  0  2 V2000
  146.3035  135.4810  151.5789 O   0  0  0  0  0  0  0  0  0  0  0  0
  146.1317  134.1240  151.9503 C   0  0  2  0  0  0  0  0  0  0  0  0
  147.0209  133.8422  153.1773 C   0  0  0  0  0  0  0  0  0  0  0  0
  148.4576  133.8189  152.8214 N   0  3  0  0  0  0  0  0  0  0  0  0
  149.3114  132.9710  153.6869 C   0  0  2  0  0  0  0  0  0  0  0  0
  148.5701  131.6792  154.1005 C   0  0  0  0  0  0  0  0  0  0  0  0
  148.3498  130.7110  152.9525 C   0  0  0  0  0  0  0  0  0  0  0  0
  147.0609  130.5099  152.4159 C   0  0  0  0  0  0  0  0  0  0  0  0
  146.9157  129.6191  151.3333 C   0  0  0  0  0  0  0  0  0  0  0  0
  147.9498  128.9485  150.7823 N   0  0  0  0  0  0  0  0  0  0  0  0
  149.1795  129.1394  151.3061 C   0  0  0  0  0  0  0  0  0  0  0  0
  149.4331  130.0079  152.3869 C   0  0  0  0  0  0  0  0  0  0  0  0
  149.7691  133.7797  154.9161 C   0  0  0  0  0  0  0  0  0  0  0  0
  148.7109  134.1019  155.6601 F   0  0  0  0  0  0  0  0  0  0  0  0
  150.6166  133.0673  155.6591 F   0  0  0  0  0  0  0  0  0  0  0  0
  150.3690  134.9055  154.5304 F   0  0  0  0  0  0  0  0  0  0  0  0
  146.5171  133.2513  150.7444 C   0  0  0  0  0  0  0  0  0  0  0  0
  145.3965  133.3637  149.7054 C   0  0  0  0  0  0  0  0  0  0  0  0
  143.8359  133.5518  150.6029 S   0  0  0  0  0  0  0  0  0  0  0  0
  144.6395  133.8406  152.2010 C   0  0  0  0  0  0  0  0  0  0  0  0
  147.2243  135.6442  151.4407 H   0  0  0  0  0  0  0  0  0  0  0  0
  146.8460  134.6046  153.9362 H   0  0  0  0  0  0  0  0  0  0  0  0
  146.7499  132.8858  153.6271 H   0  0  0  0  0  0  0  0  0  0  0  0
  148.5249  133.4668  151.8766 H   0  0  0  0  0  0  0  0  0  0  0  0
  150.2109  132.6954  153.1333 H   0  0  0  0  0  0  0  0  0  0  0  0
  149.1375  131.1566  154.8714 H   0  0  0  0  0  0  0  0  0  0  0  0
  147.6080  131.9261  154.5513 H   0  0  0  0  0  0  0  0  0  0  0  0
  146.2009  131.0269  152.8159 H   0  0  0  0  0  0  0  0  0  0  0  0
  145.9440  129.4459  150.8951 H   0  0  0  0  0  0  0  0  0  0  0  0
  149.9868  128.5878  150.8477 H   0  0  0  0  0  0  0  0  0  0  0  0
  150.4370  130.1309  152.7667 H   0  0  0  0  0  0  0  0  0  0  0  0
  147.4859  133.5247  150.3244 H   0  0  0  0  0  0  0  0  0  0  0  0
  146.5940  132.2103  151.0622 H   0  0  0  0  0  0  0  0  0  0  0  0
  145.5427  134.2511  149.0891 H   0  0  0  0  0  0  0  0  0  0  0  0
  145.3646  132.5005  149.0403 H   0  0  0  0  0  0  0  0  0  0  0  0
  144.5259  132.9261  152.7833 H   0  0  0  0  0  0  0  0  0  0  0  0
  144.1424  134.6404  152.7508 H   0  0  0  0  0  0  0  0  0  0  0  0
  148.8203  134.7613  152.8336 H   0  0  0  0  0  0  0  0  0  0  0  0
  1  2  1  0  0  0  0
  1 21  1  0  0  0  0
  2 20  1  0  0  0  0
  2  3  1  0  0  0  0
  2 17  1  0  0  0  0
  3  4  1  0  0  0  0
  3 22  1  0  0  0  0
  3 23  1  0  0  0  0
  4  5  1  0  0  0  0
  4 24  1  0  0  0  0
  4 38  1  0  0  0  0
  5  6  1  0  0  0  0
  5 13  1  0  0  0  0
  5 25  1  0  0  0  0
  6  7  1  0  0  0  0
  6 26  1  0  0  0  0
  6 27  1  0  0  0  0
  7 12  1  0  0  0  0
  7  8  2  0  0  0  0
  8  9  1  0  0  0  0
  8 28  1  0  0  0  0
  9 10  2  0  0  0  0
  9 29  1  0  0  0  0
 10 11  1  0  0  0  0
 11 12  2  0  0  0  0
 11 30  1  0  0  0  0
 12 31  1  0  0  0  0
 13 14  1  0  0  0  0
 13 15  1  0  0  0  0
 13 16  1  0  0  0  0
 17 18  1  0  0  0  0
 17 32  1  0  0  0  0
 17 33  1  0  0  0  0
 18 19  1  0  0  0  0
 18 34  1  0  0  0  0
 18 35  1  0  0  0  0
 19 20  1  0  0  0  0
 20 36  1  0  0  0  0
 20 37  1  0  0  0  0
M  CHG  1   4   1
M  END
> <s_m_source_file>
AV-unprocessed.smi

> <i_m_source_file_index>
2448

> <i_lp_mmshare_version>
43012

> <i_f3d_flags>
0

> <s_epik_input>
W0NIMl0xU1tDSDJdW0NIMl1bQ0BAXTEoW09IXSlbQ0gyXVtOSF1bQ0BASF0oQyhGKShGKUYpW0NIMl1jMltjSF1bY0hdbltjSF1bY0hdMg==

> <s_epik_cmdline>
J2VwaWtfcHl0aG9uJywgJy1waCcsICc3LjAnLCAnLXRuJywgJzgnLCAnLW1hJywgJzIwMCcsICctbWV0YWxfYmluZGluZycsICctaW1hZScsICc8aW5maWxlLm1hZT4nLCAnLW9tYWUnLCAnPG91dGZpbGUubWFlPic=

> <r_epik_Ionization_Penalty>
1.19945

> <r_epik_Ionization_Penalty_Charging>
1.19892

> <r_epik_Ionization_Penalty_Neutral>
0.000532129

> <r_epik_State_Penalty>
0.752927

> <r_epik_Charging_Adjusted_Penalty>
1.95185

> <i_epik_Tot_Q>
1

> <i_epik_Tot_abs_Q>
1

> <r_epik_Metal_State_Penalty>
0.804507

> <b_epik_Metal_Only>
0

> <s_lp_Force_Field>
OPLS_2005

> <r_lp_Energy>
23.2993

> <b_lp_Chiralities_Consistent>
1

> <s_lp_Variant>
AV-unprocessed.smi:2448-6

> <Gold.Version>
5.8.1

> <Gold.Id.Protein>
6NUR|6NUR_protein|mol2

> <Gold.PLP.Fitness>
44.2920

> <Gold.PLP.PLP>
-33.2269

> <Gold.PLP.part.hbond>
-2.0000

> <Gold.PLP.part.metal>
0.0000

> <Gold.PLP.part.buried>
-4.6040

> <Gold.PLP.part.nonpolar>
-26.4833

> <Gold.PLP.part.repulsive>
0.1169

> <Gold.PLP.ligand.clash>
0.0000

> <Gold.PLP.ligand.torsion>
0.7305

> <Gold.PLP.Chemscore.Hbond>
2.8920

> <Gold.PLP.Chemscore.CHOScore>
1.0000

> <Gold.PLP.Chemscore.Metal>
0.0000

> <Gold.Chemscore.Hbonds>
donor molecule, donor type, donor heavy atom, donor atom, acceptor molecule, acceptor atom, score
      L1  H     1    21       P1  7948  1.00
      L1  H     4    38       P1  7948  1.16
      L1  C    11    30       P1 10737  0.72

> <Gold.PLP.Chemscore.Internal.Correction>
0.8502

> <Gold.Rescore>
     Score         DG    S(hbond)    S(metal)    S(lipo)     H(rot)  DE(clash)    DE(int)     intcor
     11.40     -12.67       1.56        0.00      69.12       2.39       0.13       1.14       ----

> <Gold.Chemscore.Fitness>
11.3980

> <Gold.Chemscore.DG>
-12.6701

> <Gold.Chemscore.ZeroCoef>
-5.4800

> <Gold.Chemscore.Hbond>
1.5607

> <Gold.Chemscore.Metal>
0.0000

> <Gold.Chemscore.Lipo>
69.1193

> <Gold.Chemscore.Internal_Hbond>
0.0000

> <Gold.Chemscore.DEClash>
0.1310

> <Gold.Chemscore.DEInternal>
1.1411

> <Gold.Chemscore.Rot>
2.3866

> <Gold.Chemscore.Internal.Correction>
   9.000000E+99

> <Gold.Chemscore.Hbonds>
donor molecule, donor type, donor heavy atom, donor atom, acceptor molecule, acceptor atom, score
      L1  H     1    21       P1  7948  0.98
      L1  H     4    38       P1  7948  0.06

> <Gold.Chemscore.Hbond.Weighted>
-5.2128

> <Gold.Chemscore.Metal.Weighted>
-0.0000

> <Gold.Chemscore.Lipo.Weighted>
-8.0870

> <Gold.Chemscore.Internal_Hbond.Weighted>
0.0000

> <Gold.Chemscore.DEClash.Weighted>
0.1310

> <Gold.Chemscore.DEInternal.Weighted>
1.1411

> <Gold.Chemscore.Rot.Weighted>
6.1096

> <Gold.Chemscore.Internal.Correction.Weighted>
   9.000000E+99

> <Gold.Protein.RotatedTorsions>
[ 6907 6896 6895 6894 ] final   -1.93 input  -60.11 | X-H torsion
[ 7974 7965 7964 7962 ] final   78.54 input  175.53 | X-H torsion
[ 8008 7997 7996 7995 ] final   14.07 input   59.86 | X-H torsion
[ 10167 10162 10161 10158 ] final    0.01 input  -65.29 | X-H torsion
[ 10718 10713 10712 10709 ] final   -3.73 input   66.30 | X-H torsion
[ 10763 10752 10751 10750 ] final -125.66 input  -60.55 | X-H torsion
[ 11005 11000 10999 10996 ] final  -71.08 input  -57.11 | X-H torsion

> <Gold.Protein.ActiveResidues>
 VAL166  LYS551  ARG553  GLY616  TRP617  ASP618  TYR619  PRO620  LYS621  CYS622 
 ASP623  PHE694  ASN695  SER759  ASP760  ASP761  ALA762  ILE779  LEU786  VAL792 
 PHE793  MET794  SER795  GLU796  ALA797  LYS798  CYS799  TRP800  GLU811  SER814 

> <Gold.Protein.RotatedAtoms>
  151.5381  135.1068  159.9919 H   0  0  0  0  0  0  0  0  0  0  0  0  # atno 6907 bound_to 6896
  152.4548  133.7696  159.6802 H   0  0  0  0  0  0  0  0  0  0  0  0  # atno 6908 bound_to 6896
  150.8487  133.7754  159.3058 H   0  0  0  0  0  0  0  0  0  0  0  0  # atno 6909 bound_to 6896
  145.6759  139.2510  143.1842 H   0  0  0  0  0  0  0  0  0  0  0  0  # atno 7974 bound_to 7965
  154.8433  140.2918  155.5645 H   0  0  0  0  0  0  0  0  0  0  0  0  # atno 8008 bound_to 7997
  156.3013  140.2510  156.3310 H   0  0  0  0  0  0  0  0  0  0  0  0  # atno 8009 bound_to 7997
  154.9102  140.0389  157.1931 H   0  0  0  0  0  0  0  0  0  0  0  0  # atno 8010 bound_to 7997
  140.6747  143.6949  150.7998 H   0  0  0  0  0  0  0  0  0  0  0  0  # atno 10167 bound_to 10162
  156.7717  130.5302  149.5766 H   0  0  0  0  0  0  0  0  0  0  0  0  # atno 10718 bound_to 10713
  154.8738  135.4022  154.3304 H   0  0  0  0  0  0  0  0  0  0  0  0  # atno 10763 bound_to 10752
  153.4118  135.7021  153.6359 H   0  0  0  0  0  0  0  0  0  0  0  0  # atno 10764 bound_to 10752
  153.5058  135.3718  155.2533 H   0  0  0  0  0  0  0  0  0  0  0  0  # atno 10765 bound_to 10752
  141.1586  133.6807  156.6851 H   0  0  0  0  0  0  0  0  0  0  0  0  # atno 11005 bound_to 11000
  146.1006  140.7548  142.9551 LP  0  0  0  0  0  0  0  0  0  0  0  0  # atno 17320 bound_to 7965
  144.7042  140.3781  143.7132 LP  0  0  0  0  0  0  0  0  0  0  0  0  # atno 17321 bound_to 7965
  140.0640  143.5127  152.2613 LP  0  0  0  0  0  0  0  0  0  0  0  0  # atno 17342 bound_to 10162
  139.6034  144.7589  151.3119 LP  0  0  0  0  0  0  0  0  0  0  0  0  # atno 17343 bound_to 10162
  156.1274  130.6153  151.0283 LP  0  0  0  0  0  0  0  0  0  0  0  0  # atno 17370 bound_to 10713
  157.6688  131.0866  150.7663 LP  0  0  0  0  0  0  0  0  0  0  0  0  # atno 17371 bound_to 10713
  140.3073  134.8115  157.4147 LP  0  0  0  0  0  0  0  0  0  0  0  0  # atno 17394 bound_to 11000
  140.1209  134.5221  155.8184 LP  0  0  0  0  0  0  0  0  0  0  0  0  # atno 17395 bound_to 11000

$$$$
