AV-unprocessed.smi:2453|AV-procd|sdf|9688|dock2
  -GOLD-   2272013323D 1   1.00000     0.00000
 Structure written by MMmdl.
 40 41  0  0  0  0  0  0  0  0  1 V2000
  151.2537  143.3273  159.1063 C   0  0  0  0  0  0  0  0  0  0  0  0
  152.2604  142.3522  159.6917 C   0  0  0  0  0  0  0  0  0  0  0  0
  153.0904  142.7546  160.7601 C   0  0  0  0  0  0  0  0  0  0  0  0
  154.0100  141.9519  161.3341 N   0  0  0  0  0  0  0  0  0  0  0  0
  154.1397  140.6996  160.8510 C   0  0  0  0  0  0  0  0  0  0  0  0
  153.3652  140.1935  159.7892 C   0  0  0  0  0  0  0  0  0  0  0  0
  152.3894  141.0315  159.1968 C   0  0  0  0  0  0  0  0  0  0  0  0
  151.5707  140.6267  158.1047 N   0  0  0  0  0  0  0  0  0  0  0  0
  151.8970  139.8794  157.0361 C   0  0  0  0  0  0  0  0  0  0  0  0
  152.9956  139.3613  156.8375 O   0  0  0  0  0  0  0  0  0  0  0  0
  150.8522  139.7534  156.2050 N   0  0  0  0  0  0  0  0  0  0  0  0
  150.8382  139.0266  154.9335 C   0  0  1  0  0  0  0  0  0  0  0  0
  151.4605  137.6280  155.1187 C   0  0  0  0  0  0  0  0  0  0  0  0
  150.5702  136.7020  155.9650 C   0  0  0  0  0  0  0  0  0  0  0  0
  149.1532  136.6077  155.3807 C   0  0  0  0  0  0  0  0  0  0  0  0
  148.5217  137.9998  155.2161 C   0  0  0  0  0  0  0  0  0  0  0  0
  149.4021  138.9281  154.3517 C   0  0  1  0  0  0  0  0  0  0  0  0
  148.7248  140.2990  154.1408 C   0  0  0  0  0  0  0  0  0  0  0  0
  149.4853  141.1039  153.2643 O   0  0  0  0  0  0  0  0  0  0  0  0
  151.2927  144.2909  159.6153 H   0  0  0  0  0  0  0  0  0  0  0  0
  150.2417  142.9343  159.2063 H   0  0  0  0  0  0  0  0  0  0  0  0
  151.4571  143.4965  158.0486 H   0  0  0  0  0  0  0  0  0  0  0  0
  153.0179  143.7521  161.1679 H   0  0  0  0  0  0  0  0  0  0  0  0
  154.8905  140.0817  161.3210 H   0  0  0  0  0  0  0  0  0  0  0  0
  153.5447  139.1864  159.4464 H   0  0  0  0  0  0  0  0  0  0  0  0
  150.6024  140.9038  158.1694 H   0  0  0  0  0  0  0  0  0  0  0  0
  149.9907  140.2107  156.4643 H   0  0  0  0  0  0  0  0  0  0  0  0
  151.4571  139.5556  154.2068 H   0  0  0  0  0  0  0  0  0  0  0  0
  151.6139  137.1744  154.1387 H   0  0  0  0  0  0  0  0  0  0  0  0
  152.4499  137.7116  155.5701 H   0  0  0  0  0  0  0  0  0  0  0  0
  151.0158  135.7082  156.0188 H   0  0  0  0  0  0  0  0  0  0  0  0
  150.5201  137.0708  156.9901 H   0  0  0  0  0  0  0  0  0  0  0  0
  149.1903  136.1073  154.4122 H   0  0  0  0  0  0  0  0  0  0  0  0
  148.5268  135.9890  156.0240 H   0  0  0  0  0  0  0  0  0  0  0  0
  147.5353  137.8951  154.7634 H   0  0  0  0  0  0  0  0  0  0  0  0
  148.3601  138.4459  156.1982 H   0  0  0  0  0  0  0  0  0  0  0  0
  149.4820  138.4591  153.3693 H   0  0  0  0  0  0  0  0  0  0  0  0
  147.7351  140.1677  153.7024 H   0  0  0  0  0  0  0  0  0  0  0  0
  148.5842  140.8252  155.0852 H   0  0  0  0  0  0  0  0  0  0  0  0
  149.8488  140.5532  152.5875 H   0  0  0  0  0  0  0  0  0  0  0  0
  1  2  1  0  0  0  0
  1 20  1  0  0  0  0
  1 21  1  0  0  0  0
  1 22  1  0  0  0  0
  2  7  1  0  0  0  0
  2  3  2  0  0  0  0
  3  4  1  0  0  0  0
  3 23  1  0  0  0  0
  4  5  2  0  0  0  0
  5  6  1  0  0  0  0
  5 24  1  0  0  0  0
  6  7  2  0  0  0  0
  6 25  1  0  0  0  0
  7  8  1  0  0  0  0
  8  9  1  0  0  0  0
  8 26  1  0  0  0  0
  9 10  2  0  0  0  0
  9 11  1  0  0  0  0
 11 12  1  0  0  0  0
 11 27  1  0  0  0  0
 12 17  1  0  0  0  0
 12 13  1  0  0  0  0
 12 28  1  0  0  0  0
 13 14  1  0  0  0  0
 13 29  1  0  0  0  0
 13 30  1  0  0  0  0
 14 15  1  0  0  0  0
 14 31  1  0  0  0  0
 14 32  1  0  0  0  0
 15 16  1  0  0  0  0
 15 33  1  0  0  0  0
 15 34  1  0  0  0  0
 16 17  1  0  0  0  0
 16 35  1  0  0  0  0
 16 36  1  0  0  0  0
 17 18  1  0  0  0  0
 17 37  1  0  0  0  0
 18 19  1  0  0  0  0
 18 38  1  0  0  0  0
 18 39  1  0  0  0  0
 19 40  1  0  0  0  0
M  END
> <s_m_source_file>
AV-unprocessed.smi

> <i_m_source_file_index>
2453

> <i_lp_mmshare_version>
43012

> <i_f3d_flags>
0

> <s_epik_input>
W0NIM11jMVtjSF1uW2NIXVtjSF1jMVtOSF1DKD1PKVtOSF1bQ0BASF0yW0NIMl1bQ0gyXVtDSDJdW0NIMl1bQ0BIXTJbQ0gyXVtPSF0=

> <s_epik_cmdline>
J2VwaWtfcHl0aG9uJywgJy1waCcsICc3LjAnLCAnLXRuJywgJzgnLCAnLW1hJywgJzIwMCcsICctbWV0YWxfYmluZGluZycsICctaW1hZScsICc8aW5maWxlLm1hZT4nLCAnLW9tYWUnLCAnPG91dGZpbGUubWFlPic=

> <r_epik_Ionization_Penalty>
0.210691

> <r_epik_Ionization_Penalty_Charging>
0

> <r_epik_Ionization_Penalty_Neutral>
0.210691

> <r_epik_State_Penalty>
0.200732

> <r_epik_Charging_Adjusted_Penalty>
0.200732

> <i_epik_Tot_Q>
0

> <i_epik_Tot_abs_Q>
0

> <r_epik_Metal_State_Penalty>
0.147519

> <b_epik_Metal_Only>
0

> <s_lp_Force_Field>
OPLS_2005

> <r_lp_Energy>
17.3761

> <b_lp_Chiralities_Consistent>
1

> <s_lp_Variant>
AV-unprocessed.smi:2453-2

> <Gold.Version>
5.8.1

> <Gold.Id.Protein>
6NUR|6NUR_protein|mol2

> <Gold.PLP.Fitness>
40.8912

> <Gold.PLP.PLP>
-34.6938

> <Gold.PLP.part.hbond>
-4.1319

> <Gold.PLP.part.metal>
0.0000

> <Gold.PLP.part.buried>
-3.9123

> <Gold.PLP.part.nonpolar>
-26.9124

> <Gold.PLP.part.repulsive>
0.1708

> <Gold.PLP.ligand.clash>
0.0000

> <Gold.PLP.ligand.torsion>
0.4062

> <Gold.PLP.Chemscore.Hbond>
2.3300

> <Gold.PLP.Chemscore.CHOScore>
0.0000

> <Gold.PLP.Chemscore.Metal>
0.0000

> <Gold.Chemscore.Hbonds>
donor molecule, donor type, donor heavy atom, donor atom, acceptor molecule, acceptor atom, score
      L1  H    19    40       P1  7957  0.86
      P1  H  7997  8010       L1    10  1.00
      P1  H  8011  8017       L1    19  0.45

> <Gold.PLP.Chemscore.Internal.Correction>
0.0200

> <Gold.Rescore>
     Score         DG    S(hbond)    S(metal)    S(lipo)     H(rot)  DE(clash)    DE(int)     intcor
     16.40     -18.06       1.96        0.00      90.00       1.75       0.01       1.65       ----

> <Gold.Chemscore.Fitness>
16.3964

> <Gold.Chemscore.DG>
-18.0641

> <Gold.Chemscore.ZeroCoef>
-5.4800

> <Gold.Chemscore.Hbond>
1.9556

> <Gold.Chemscore.Metal>
0.0000

> <Gold.Chemscore.Lipo>
90.0034

> <Gold.Chemscore.Internal_Hbond>
0.0000

> <Gold.Chemscore.DEClash>
0.0142

> <Gold.Chemscore.DEInternal>
1.6534

> <Gold.Chemscore.Rot>
1.7493

> <Gold.Chemscore.Internal.Correction>
   9.000000E+99

> <Gold.Chemscore.Hbonds>
donor molecule, donor type, donor heavy atom, donor atom, acceptor molecule, acceptor atom, score
      L1  H    19    40       P1  7957  0.78
      P1  H  7997  8010       L1    10  0.96
      P1  H  8011  8017       L1    19  0.02

> <Gold.Chemscore.Hbond.Weighted>
-6.5318

> <Gold.Chemscore.Metal.Weighted>
-0.0000

> <Gold.Chemscore.Lipo.Weighted>
-10.5304

> <Gold.Chemscore.Internal_Hbond.Weighted>
0.0000

> <Gold.Chemscore.DEClash.Weighted>
0.0142

> <Gold.Chemscore.DEInternal.Weighted>
1.6534

> <Gold.Chemscore.Rot.Weighted>
4.4782

> <Gold.Chemscore.Internal.Correction.Weighted>
   9.000000E+99

> <Gold.Protein.RotatedTorsions>
[ 6907 6896 6895 6894 ] final  156.01 input  -60.11 | X-H torsion
[ 7974 7965 7964 7962 ] final -105.77 input  175.53 | X-H torsion
[ 8008 7997 7996 7995 ] final   44.19 input   59.86 | X-H torsion
[ 10167 10162 10161 10158 ] final -127.29 input  -65.29 | X-H torsion
[ 10718 10713 10712 10709 ] final  125.84 input   66.30 | X-H torsion
[ 10763 10752 10751 10750 ] final  -82.48 input  -60.55 | X-H torsion
[ 11005 11000 10999 10996 ] final  158.16 input  -57.11 | X-H torsion

> <Gold.Protein.ActiveResidues>
 VAL166  LYS551  ARG553  GLY616  TRP617  ASP618  TYR619  PRO620  LYS621  CYS622 
 ASP623  PHE694  ASN695  SER759  ASP760  ASP761  ALA762  ILE779  LEU786  VAL792 
 PHE793  MET794  SER795  GLU796  ALA797  LYS798  CYS799  TRP800  GLU811  SER814 

> <Gold.Protein.RotatedAtoms>
  152.0359  133.3957  159.4316 H   0  0  0  0  0  0  0  0  0  0  0  0  # atno 6907 bound_to 6896
  150.6879  134.3469  159.4901 H   0  0  0  0  0  0  0  0  0  0  0  0  # atno 6908 bound_to 6896
  152.1261  134.9169  160.0611 H   0  0  0  0  0  0  0  0  0  0  0  0  # atno 6909 bound_to 6896
  145.2262  140.9153  143.3231 H   0  0  0  0  0  0  0  0  0  0  0  0  # atno 7974 bound_to 7965
  155.3152  140.3393  155.4242 H   0  0  0  0  0  0  0  0  0  0  0  0  # atno 8008 bound_to 7997
  156.1936  140.1706  156.8081 H   0  0  0  0  0  0  0  0  0  0  0  0  # atno 8009 bound_to 7997
  154.5471  140.0713  156.8591 H   0  0  0  0  0  0  0  0  0  0  0  0  # atno 8010 bound_to 7997
  139.9624  143.5935  152.2441 H   0  0  0  0  0  0  0  0  0  0  0  0  # atno 10167 bound_to 10162
  157.5469  131.1095  150.8766 H   0  0  0  0  0  0  0  0  0  0  0  0  # atno 10718 bound_to 10713
  154.5762  135.5590  153.7142 H   0  0  0  0  0  0  0  0  0  0  0  0  # atno 10763 bound_to 10752
  153.0065  135.6309  154.2046 H   0  0  0  0  0  0  0  0  0  0  0  0  # atno 10764 bound_to 10752
  154.1986  135.2879  155.2978 H   0  0  0  0  0  0  0  0  0  0  0  0  # atno 10765 bound_to 10752
  140.1839  134.8456  157.2834 H   0  0  0  0  0  0  0  0  0  0  0  0  # atno 11005 bound_to 11000
  144.9719  139.3872  143.6305 LP  0  0  0  0  0  0  0  0  0  0  0  0  # atno 17320 bound_to 7965
  146.3364  139.8820  142.8823 LP  0  0  0  0  0  0  0  0  0  0  0  0  # atno 17321 bound_to 7965
  139.6544  144.7662  151.2085 LP  0  0  0  0  0  0  0  0  0  0  0  0  # atno 17342 bound_to 10162
  140.7549  143.6109  150.8606 LP  0  0  0  0  0  0  0  0  0  0  0  0  # atno 17343 bound_to 10162
  156.9302  130.5347  149.5279 LP  0  0  0  0  0  0  0  0  0  0  0  0  # atno 17370 bound_to 10713
  156.0543  130.5608  150.9058 LP  0  0  0  0  0  0  0  0  0  0  0  0  # atno 17371 bound_to 10713
  140.2236  134.3993  155.7554 LP  0  0  0  0  0  0  0  0  0  0  0  0  # atno 17394 bound_to 11000
  141.2224  133.7179  156.8530 LP  0  0  0  0  0  0  0  0  0  0  0  0  # atno 17395 bound_to 11000

$$$$
