#       Name:                AV-unprocessed.smi:1751
#       Creating user name   scv26
#       Creation time:       Fri Mar 27 08:27:20 2020


#       File generated by GOLD software.
#

@<TRIPOS>MOLECULE
AV-unprocessed.smi:1751
    42    43     1
SMALL
NO_CHARGES


@<TRIPOS>ATOM
      1 ****        -6.8648   0.5283  -0.1477 C.3            1 S1                 0.0000
      2 ****        -6.1721  -0.6662  -0.4934 O.3            1 S1                 0.0000
      3 ****        -4.8043  -0.6037  -0.6652 C.ar           1 S1                 0.0000
      4 ****        -4.1128  -1.7839  -1.0027 C.ar           1 S1                 0.0000
      5 ****        -2.7172  -1.7257  -1.1760 C.ar           1 S1                 0.0000
      6 ****        -2.0526  -0.4959  -0.9977 C.ar           1 S1                 0.0000
      7 ****        -0.6457  -0.4626  -1.1928 N.am           1 S1                 0.0000
      8 ****         0.2412   0.4256  -0.7126 C.2            1 S1                 0.0000
      9 ****        -0.0305   1.3843   0.0101 O.2            1 S1                 0.0000
     10 ****         1.4876   0.1237  -1.1009 N.am           1 S1                 0.0000
     11 ****         2.6859   0.8583  -0.7115 C.3            1 S1                 0.0000
     12 ****         3.1662   0.4505   0.6912 C.3            1 S1                 0.0000
     13 ****         4.3870   1.2307   1.1749 C.3            1 S1                 0.0000
     14 ****         4.9770   0.2730   2.1841 C.3            1 S1                 0.0000
     15 ****         4.7453  -1.0739   1.5057 C.3            1 S1                 0.0000
     16 ****         3.5762  -0.9154   0.7053 O.3            1 S1                 0.0000
     17 ****        -2.8379   0.6369  -0.6729 C.ar           1 S1                 0.0000
     18 ****        -4.1770   0.5881  -0.5077 N.ar           1 S1                 0.0000
     19 ****        -7.9284   0.3125  -0.0479 H              1 S1                 0.0000
     20 ****        -6.7536   1.2916  -0.9192 H              1 S1                 0.0000
     21 ****        -6.5180   0.9291   0.8059 H              1 S1                 0.0000
     22 ****        -4.6433  -2.7164  -1.1259 H              1 S1                 0.0000
     23 ****        -2.1661  -2.6175  -1.4369 H              1 S1                 0.0000
     24 ****        -0.2598  -1.2444  -1.7019 H              1 S1                 0.0000
     25 ****         1.6223  -0.6863  -1.6881 H              1 S1                 0.0000
     26 ****         3.4661   0.6602  -1.4470 H              1 S1                 0.0000
     27 ****         2.4912   1.9315  -0.7477 H              1 S1                 0.0000
     28 ****         2.3638   0.5677   1.4214 H              1 S1                 0.0000
     29 ****         5.0921   1.3924   0.3582 H              1 S1                 0.0000
     30 ****         4.1298   2.1998   1.6035 H              1 S1                 0.0000
     31 ****         6.0276   0.4674   2.4006 H              1 S1                 0.0000
     32 ****         4.4184   0.3248   3.1196 H              1 S1                 0.0000
     33 ****         5.5811  -1.3187   0.8491 H              1 S1                 0.0000
     34 ****         4.6299  -1.8856   2.2243 H              1 S1                 0.0000
     35 ****        -2.4053   1.6185  -0.5587 H              1 S1                 0.0000
     36 ****        -6.5634  -0.9972  -1.3521 LP             1 S1                 0.0000
     37 ****        -6.3491  -1.3314   0.2319 LP             1 S1                 0.0000
     38 ****        -0.9774   1.5506   0.2851 LP             1 S1                 0.0000
     39 ****         0.6957   1.9969   0.3222 LP             1 S1                 0.0000
     40 ****         3.7743  -1.2098  -0.2296 LP             1 S1                 0.0000
     41 ****         2.8397  -1.4768   1.0826 LP             1 S1                 0.0000
     42 ****        -4.6941   1.4117  -0.2746 LP             1 S1                 0.0000
@<TRIPOS>BOND
    1    1    2 1     
    2    1   19 1     
    3    1   20 1     
    4    1   21 1     
    5    2    3 1     
    6    3   18 ar    
    7    3    4 ar    
    8    4    5 ar    
    9    4   22 1     
   10    5    6 ar    
   11    5   23 1     
   12    6    7 1     
   13    6   17 ar    
   14    7    8 am    
   15    7   24 1     
   16    8    9 2     
   17    8   10 am    
   18   10   11 1     
   19   10   25 1     
   20   11   12 1     
   21   11   26 1     
   22   11   27 1     
   23   12   16 1     
   24   12   13 1     
   25   12   28 1     
   26   13   14 1     
   27   13   29 1     
   28   13   30 1     
   29   14   15 1     
   30   14   31 1     
   31   14   32 1     
   32   15   16 1     
   33   15   33 1     
   34   15   34 1     
   35   17   18 ar    
   36   17   35 1     
   37    2   36 1     
   38    2   37 1     
   39    9   38 1     
   40    9   39 1     
   41   16   40 1     
   42   16   41 1     
   43   18   42 1     
@<TRIPOS>SUBSTRUCTURE
      1 S1             1
@<TRIPOS>SET
LONE_PAIRS      STATIC     ATOMS    <user>   **** ""
7 36 37 38 39 40 41 42
DONOR_HYDROGENS      STATIC     ATOMS    <user>   **** ""
2 24 25
ATOM$BLUE        STATIC     ATOMS    COLORGROUP SYSTEM
7 36 37 38 39 40 41 42
ATOM$RED        STATIC     ATOMS    COLORGROUP SYSTEM
2 24 25
