AV-unprocessed.smi:2883|AV-procd|sdf|11076|dock9
  -GOLD-   2272015553D 1   1.00000     0.00000
 Structure written by MMmdl.
 40 42  0  0  0  0  0  0  0  0  2 V2000
  151.8631  137.8678  156.6146 C   0  0  0  0  0  0  0  0  0  0  0  0
  151.7021  138.3929  155.1691 C   0  0  0  0  0  0  0  0  0  0  0  0
  153.0546  138.9140  154.6507 C   0  0  0  0  0  0  0  0  0  0  0  0
  151.2512  137.1847  154.3166 C   0  0  0  0  0  0  0  0  0  0  0  0
  150.6630  139.5216  155.1104 C   0  0  0  0  0  0  0  0  0  0  0  0
  149.6554  139.4432  154.2226 N   0  3  0  0  0  0  0  0  0  0  0  0
  148.7906  140.4769  154.0811 C   0  0  0  0  0  0  0  0  0  0  0  0
  148.9576  141.6531  154.8340 C   0  0  0  0  0  0  0  0  0  0  0  0
  150.0549  141.6946  155.7095 C   0  0  0  0  0  0  0  0  0  0  0  0
  150.2871  142.8457  156.4745 N   0  0  0  0  0  0  0  0  0  0  0  0
  151.3082  142.8598  157.5183 C   0  0  1  0  0  0  0  0  0  0  0  0
  152.1172  144.1584  157.5503 C   0  0  0  0  0  0  0  0  0  0  0  0
  151.9723  144.5836  159.0185 C   0  0  1  0  0  0  0  0  0  0  0  0
  150.5770  145.1532  159.3041 C   0  0  0  0  0  0  0  0  0  0  0  0
  149.7146  143.8932  159.2667 C   0  0  0  0  0  0  0  0  0  0  0  0
  150.7551  142.8031  158.9568 C   0  0  2  0  0  0  0  0  0  0  0  0
  151.8718  143.3221  159.6582 O   0  0  0  0  0  0  0  0  0  0  0  0
  150.8932  140.6410  155.8139 N   0  0  0  0  0  0  0  0  0  0  0  0
  152.5672  137.0361  156.6587 H   0  0  0  0  0  0  0  0  0  0  0  0
  150.9135  137.5138  157.0175 H   0  0  0  0  0  0  0  0  0  0  0  0
  152.2415  138.6365  157.2897 H   0  0  0  0  0  0  0  0  0  0  0  0
  153.4153  139.7481  155.2539 H   0  0  0  0  0  0  0  0  0  0  0  0
  152.9765  139.2641  153.6207 H   0  0  0  0  0  0  0  0  0  0  0  0
  153.8181  138.1358  154.6766 H   0  0  0  0  0  0  0  0  0  0  0  0
  151.9633  136.3617  154.3884 H   0  0  0  0  0  0  0  0  0  0  0  0
  151.1693  137.4379  153.2590 H   0  0  0  0  0  0  0  0  0  0  0  0
  150.2817  136.8067  154.6437 H   0  0  0  0  0  0  0  0  0  0  0  0
  147.9973  140.3316  153.3625 H   0  0  0  0  0  0  0  0  0  0  0  0
  148.2775  142.4864  154.7319 H   0  0  0  0  0  0  0  0  0  0  0  0
  149.6080  143.5927  156.4615 H   0  0  0  0  0  0  0  0  0  0  0  0
  151.9971  142.0283  157.3616 H   0  0  0  0  0  0  0  0  0  0  0  0
  153.1607  143.9588  157.3041 H   0  0  0  0  0  0  0  0  0  0  0  0
  151.7501  144.9247  156.8659 H   0  0  0  0  0  0  0  0  0  0  0  0
  152.7880  145.2096  159.3812 H   0  0  0  0  0  0  0  0  0  0  0  0
  150.5401  145.6131  160.2923 H   0  0  0  0  0  0  0  0  0  0  0  0
  150.2730  145.8984  158.5684 H   0  0  0  0  0  0  0  0  0  0  0  0
  149.2585  143.7196  160.2419 H   0  0  0  0  0  0  0  0  0  0  0  0
  148.9149  143.9457  158.5279 H   0  0  0  0  0  0  0  0  0  0  0  0
  150.4559  141.8052  159.2788 H   0  0  0  0  0  0  0  0  0  0  0  0
  149.5314  138.6042  153.6555 H   0  0  0  0  0  0  0  0  0  0  0  0
  1  2  1  0  0  0  0
  1 19  1  0  0  0  0
  1 20  1  0  0  0  0
  1 21  1  0  0  0  0
  2  3  1  0  0  0  0
  2  4  1  0  0  0  0
  2  5  1  0  0  0  0
  3 22  1  0  0  0  0
  3 23  1  0  0  0  0
  3 24  1  0  0  0  0
  4 25  1  0  0  0  0
  4 26  1  0  0  0  0
  4 27  1  0  0  0  0
  5 18  1  0  0  0  0
  5  6  2  0  0  0  0
  6  7  1  0  0  0  0
  6 40  1  0  0  0  0
  7  8  2  0  0  0  0
  7 28  1  0  0  0  0
  8  9  1  0  0  0  0
  8 29  1  0  0  0  0
  9 10  1  0  0  0  0
  9 18  2  0  0  0  0
 10 11  1  0  0  0  0
 10 30  1  0  0  0  0
 11 16  1  0  0  0  0
 11 12  1  0  0  0  0
 11 31  1  0  0  0  0
 12 13  1  0  0  0  0
 12 32  1  0  0  0  0
 12 33  1  0  0  0  0
 13 17  1  0  0  0  0
 13 14  1  0  0  0  0
 13 34  1  0  0  0  0
 14 15  1  0  0  0  0
 14 35  1  0  0  0  0
 14 36  1  0  0  0  0
 15 16  1  0  0  0  0
 15 37  1  0  0  0  0
 15 38  1  0  0  0  0
 16 17  1  0  0  0  0
 16 39  1  0  0  0  0
M  CHG  1   6   1
M  END
> <s_m_source_file>
AV-unprocessed.smi

> <i_m_source_file_index>
2883

> <i_lp_mmshare_version>
43012

> <i_f3d_flags>
0

> <s_epik_input>
W0NIM11DKFtDSDNdKShbQ0gzXSljMW5bY0hdW2NIXWMobjEpW05IXVtDQEhdKFtDSDJdW0NAQEhdMjMpW0NAQEhdKE8zKVtDSDJdW0NIMl0y

> <s_epik_cmdline>
J2VwaWtfcHl0aG9uJywgJy1waCcsICc3LjAnLCAnLXRuJywgJzgnLCAnLW1hJywgJzIwMCcsICctbWV0YWxfYmluZGluZycsICctaW1hZScsICc8aW5maWxlLm1hZT4nLCAnLW9tYWUnLCAnPG91dGZpbGUubWFlPic=

> <r_lp_tautomer_probability>
0.999336

> <r_epik_Ionization_Penalty>
0.371831

> <r_epik_Ionization_Penalty_Charging>
0.371821

> <r_epik_Ionization_Penalty_Neutral>
1.06897e-05

> <r_epik_State_Penalty>
0.369311

> <r_epik_Charging_Adjusted_Penalty>
0.741132

> <i_epik_Tot_Q>
1

> <i_epik_Tot_abs_Q>
1

> <r_epik_Metal_State_Penalty>
0.621338

> <b_epik_Metal_Only>
0

> <s_lp_Force_Field>
OPLS_2005

> <r_lp_Energy>
39.2266

> <b_lp_Chiralities_Consistent>
1

> <s_lp_Variant>
AV-unprocessed.smi:2883-2

> <Gold.Version>
5.8.1

> <Gold.Id.Protein>
6NUR|6NUR_protein|mol2

> <Gold.PLP.Fitness>
40.7548

> <Gold.PLP.PLP>
-38.3174

> <Gold.PLP.part.hbond>
-1.4937

> <Gold.PLP.part.metal>
0.0000

> <Gold.PLP.part.buried>
-4.3023

> <Gold.PLP.part.nonpolar>
-32.9967

> <Gold.PLP.part.repulsive>
0.2166

> <Gold.PLP.ligand.clash>
0.0000

> <Gold.PLP.ligand.torsion>
0.3532

> <Gold.PLP.Chemscore.Hbond>
1.0000

> <Gold.PLP.Chemscore.CHOScore>
0.0000

> <Gold.PLP.Chemscore.Metal>
0.0000

> <Gold.Chemscore.Hbonds>
donor molecule, donor type, donor heavy atom, donor atom, acceptor molecule, acceptor atom, score
      L1  H    10    30       P1  8028  0.98

> <Gold.PLP.Chemscore.Internal.Correction>
0.1437

> <Gold.Rescore>
     Score         DG    S(hbond)    S(metal)    S(lipo)     H(rot)  DE(clash)    DE(int)     intcor
     17.25     -17.78       0.95        0.00     103.38       1.16       0.03       0.49       ----

> <Gold.Chemscore.Fitness>
17.2522

> <Gold.Chemscore.DG>
-17.7803

> <Gold.Chemscore.ZeroCoef>
-5.4800

> <Gold.Chemscore.Hbond>
0.9525

> <Gold.Chemscore.Metal>
0.0000

> <Gold.Chemscore.Lipo>
103.3766

> <Gold.Chemscore.Internal_Hbond>
0.0000

> <Gold.Chemscore.DEClash>
0.0333

> <Gold.Chemscore.DEInternal>
0.4948

> <Gold.Chemscore.Rot>
1.1626

> <Gold.Chemscore.Internal.Correction>
   9.000000E+99

> <Gold.Chemscore.Hbonds>
donor molecule, donor type, donor heavy atom, donor atom, acceptor molecule, acceptor atom, score
      L1  H    10    30       P1  8028  0.90

> <Gold.Chemscore.Hbond.Weighted>
-3.1815

> <Gold.Chemscore.Metal.Weighted>
-0.0000

> <Gold.Chemscore.Lipo.Weighted>
-12.0951

> <Gold.Chemscore.Internal_Hbond.Weighted>
0.0000

> <Gold.Chemscore.DEClash.Weighted>
0.0333

> <Gold.Chemscore.DEInternal.Weighted>
0.4948

> <Gold.Chemscore.Rot.Weighted>
2.9763

> <Gold.Chemscore.Internal.Correction.Weighted>
   9.000000E+99

> <Gold.Protein.RotatedTorsions>
[ 6907 6896 6895 6894 ] final   89.78 input  -60.11 | X-H torsion
[ 7974 7965 7964 7962 ] final -161.87 input  175.53 | X-H torsion
[ 8008 7997 7996 7995 ] final  -60.62 input   59.86 | X-H torsion
[ 10167 10162 10161 10158 ] final   63.19 input  -65.29 | X-H torsion
[ 10718 10713 10712 10709 ] final  -57.76 input   66.30 | X-H torsion
[ 10763 10752 10751 10750 ] final -115.16 input  -60.55 | X-H torsion
[ 11005 11000 10999 10996 ] final   55.91 input  -57.11 | X-H torsion

> <Gold.Protein.ActiveResidues>
 VAL166  LYS551  ARG553  GLY616  TRP617  ASP618  TYR619  PRO620  LYS621  CYS622 
 ASP623  PHE694  ASN695  SER759  ASP760  ASP761  ALA762  ILE779  LEU786  VAL792 
 PHE793  MET794  SER795  GLU796  ALA797  LYS798  CYS799  TRP800  GLU811  SER814 

> <Gold.Protein.RotatedAtoms>
  152.5439  134.1913  159.8674 H   0  0  0  0  0  0  0  0  0  0  0  0  # atno 6907 bound_to 6896
  151.1908  133.4661  159.2602 H   0  0  0  0  0  0  0  0  0  0  0  0  # atno 6908 bound_to 6896
  151.1085  135.0025  159.8538 H   0  0  0  0  0  0  0  0  0  0  0  0  # atno 6909 bound_to 6896
  144.7376  140.3334  143.6148 H   0  0  0  0  0  0  0  0  0  0  0  0  # atno 7974 bound_to 7965
  154.4407  140.1035  156.6302 H   0  0  0  0  0  0  0  0  0  0  0  0  # atno 8008 bound_to 7997
  155.5613  140.3487  155.4473 H   0  0  0  0  0  0  0  0  0  0  0  0  # atno 8009 bound_to 7997
  156.0457  140.1292  157.0095 H   0  0  0  0  0  0  0  0  0  0  0  0  # atno 8010 bound_to 7997
  140.1357  144.4601  150.6839 H   0  0  0  0  0  0  0  0  0  0  0  0  # atno 10167 bound_to 10162
  156.1186  130.4168  150.0485 H   0  0  0  0  0  0  0  0  0  0  0  0  # atno 10718 bound_to 10713
  154.8470  135.4391  154.1619 H   0  0  0  0  0  0  0  0  0  0  0  0  # atno 10763 bound_to 10752
  153.2754  135.6949  153.7444 H   0  0  0  0  0  0  0  0  0  0  0  0  # atno 10764 bound_to 10752
  153.6669  135.3425  155.3118 H   0  0  0  0  0  0  0  0  0  0  0  0  # atno 10765 bound_to 10752
  140.0570  134.5656  155.9196 H   0  0  0  0  0  0  0  0  0  0  0  0  # atno 11005 bound_to 11000
  145.7448  139.1775  143.2355 LP  0  0  0  0  0  0  0  0  0  0  0  0  # atno 17320 bound_to 7965
  146.1106  140.7433  142.9505 LP  0  0  0  0  0  0  0  0  0  0  0  0  # atno 17321 bound_to 7965
  140.6790  143.2318  151.5432 LP  0  0  0  0  0  0  0  0  0  0  0  0  # atno 17342 bound_to 10162
  139.5497  144.2428  152.1508 LP  0  0  0  0  0  0  0  0  0  0  0  0  # atno 17343 bound_to 10162
  156.8429  130.9432  151.3630 LP  0  0  0  0  0  0  0  0  0  0  0  0  # atno 17370 bound_to 10713
  157.6369  130.8774  149.9376 LP  0  0  0  0  0  0  0  0  0  0  0  0  # atno 17371 bound_to 10713
  141.1956  133.6588  156.5653 LP  0  0  0  0  0  0  0  0  0  0  0  0  # atno 17394 bound_to 11000
  140.3829  134.7508  157.4672 LP  0  0  0  0  0  0  0  0  0  0  0  0  # atno 17395 bound_to 11000

$$$$
