AV-unprocessed.smi:49|AV-procd|sdf|476|dock5
  -GOLD-   2262016343D 1   1.00000     0.00000
 Structure written by MMmdl.
 27 28  0  0  0  0  0  0  0  0  1 V2000
  153.0426  142.0064  161.1073 C   0  0  0  0  0  0  0  0  0  0  0  0
  152.6618  143.2989  160.3767 C   0  0  0  0  0  0  0  0  0  0  0  0
  151.7923  143.0433  159.1904 C   0  0  0  0  0  0  0  0  0  0  0  0
  151.4112  141.7867  158.8107 N   0  0  0  0  0  0  0  0  0  0  0  0
  150.7058  142.0728  157.7197 C   0  0  0  0  0  0  0  0  0  0  0  0
  150.0220  141.0783  156.8334 C   0  0  1  0  0  0  0  0  0  0  0  0
  149.3707  141.7251  155.6023 C   0  0  0  0  0  0  0  0  0  0  0  0
  149.4476  140.6186  154.5604 C   0  0  1  0  0  0  0  0  0  0  0  0
  149.3799  141.1017  153.2358 O   0  0  0  0  0  0  0  0  0  0  0  0
  150.7963  139.9808  154.8779 C   0  0  0  0  0  0  0  0  0  0  0  0
  150.9205  140.0308  156.3321 N   0  0  0  0  0  0  0  0  0  0  0  0
  150.6835  143.3816  157.4589 N   0  0  0  0  0  0  0  0  0  0  0  0
  151.3921  144.0389  158.4009 N   0  0  0  0  0  0  0  0  0  0  0  0
  149.2362  140.5955  157.4158 H   0  0  0  0  0  0  0  0  0  0  0  0
  148.6465  139.8961  154.7236 H   0  0  0  0  0  0  0  0  0  0  0  0
  150.2276  143.8468  156.6871 H   0  0  0  0  0  0  0  0  0  0  0  0
  153.6802  142.2186  161.9654 H   0  0  0  0  0  0  0  0  0  0  0  0
  153.5849  141.3274  160.4487 H   0  0  0  0  0  0  0  0  0  0  0  0
  152.1565  141.4852  161.4709 H   0  0  0  0  0  0  0  0  0  0  0  0
  152.1415  143.9707  161.0604 H   0  0  0  0  0  0  0  0  0  0  0  0
  153.5631  143.8224  160.0554 H   0  0  0  0  0  0  0  0  0  0  0  0
  148.3567  142.0787  155.7911 H   0  0  0  0  0  0  0  0  0  0  0  0
  149.9659  142.5774  155.2680 H   0  0  0  0  0  0  0  0  0  0  0  0
  149.5262  140.3797  152.6441 H   0  0  0  0  0  0  0  0  0  0  0  0
  150.8820  138.9638  154.4948 H   0  0  0  0  0  0  0  0  0  0  0  0
  151.5962  140.5717  154.4296 H   0  0  0  0  0  0  0  0  0  0  0  0
  150.6182  139.1399  156.7125 H   0  0  0  0  0  0  0  0  0  0  0  0
  1  2  1  0  0  0  0
  1 17  1  0  0  0  0
  1 18  1  0  0  0  0
  1 19  1  0  0  0  0
  2 20  1  0  0  0  0
  2 21  1  0  0  0  0
  2  3  1  0  0  0  0
  3  4  1  0  0  0  0
  3 13  2  0  0  0  0
  4  5  2  0  0  0  0
  5  6  1  0  0  0  0
  5 12  1  0  0  0  0
  6 14  1  0  0  0  0
  6 11  1  0  0  0  0
  6  7  1  0  0  0  0
  7  8  1  0  0  0  0
  7 22  1  0  0  0  0
  7 23  1  0  0  0  0
  8 15  1  0  0  0  0
  8  9  1  0  0  0  0
  8 10  1  0  0  0  0
  9 24  1  0  0  0  0
 10 11  1  0  0  0  0
 10 25  1  0  0  0  0
 10 26  1  0  0  0  0
 11 27  1  0  0  0  0
 12 13  1  0  0  0  0
 12 16  1  0  0  0  0
M  END
> <s_m_source_file>
AV-unprocessed.smi

> <i_m_source_file_index>
49

> <i_lp_mmshare_version>
43012

> <i_f3d_flags>
0

> <s_epik_input>
W0NIM11bQ0gyXWMxbmMobltuSF0xKVtDQEBIXTJbQ0gyXVtDQEBIXShbT0hdKVtDSDJdW05IXTI=

> <s_epik_cmdline>
J2VwaWtfcHl0aG9uJywgJy1waCcsICc3LjAnLCAnLXRuJywgJzgnLCAnLW1hJywgJzIwMCcsICctbWV0YWxfYmluZGluZycsICctaW1hZScsICc8aW5maWxlLm1hZT4nLCAnLW9tYWUnLCAnPG91dGZpbGUubWFlPic=

> <r_epik_Ionization_Penalty>
1.31544

> <r_epik_Ionization_Penalty_Charging>
0

> <r_epik_Ionization_Penalty_Neutral>
1.31544

> <r_epik_State_Penalty>
2.06074

> <r_epik_Charging_Adjusted_Penalty>
2.06074

> <i_epik_Tot_Q>
0

> <i_epik_Tot_abs_Q>
0

> <r_epik_Metal_State_Penalty>
2.32913

> <b_epik_Metal_Only>
0

> <s_lp_Force_Field>
OPLS_2005

> <r_lp_Energy>
18.1426

> <b_lp_Chiralities_Consistent>
1

> <s_lp_Variant>
AV-unprocessed.smi:49-14

> <Gold.Version>
5.8.1

> <Gold.Id.Protein>
6NUR|6NUR_protein|mol2

> <Gold.PLP.Fitness>
35.0199

> <Gold.PLP.PLP>
-26.5863

> <Gold.PLP.part.hbond>
-3.3791

> <Gold.PLP.part.metal>
0.0000

> <Gold.PLP.part.buried>
-1.1575

> <Gold.PLP.part.nonpolar>
-22.3738

> <Gold.PLP.part.repulsive>
0.0912

> <Gold.PLP.ligand.clash>
0.0000

> <Gold.PLP.ligand.torsion>
0.0357

> <Gold.PLP.Chemscore.Hbond>
2.8320

> <Gold.PLP.Chemscore.CHOScore>
0.0000

> <Gold.PLP.Chemscore.Metal>
0.0000

> <Gold.Chemscore.Hbonds>
donor molecule, donor type, donor heavy atom, donor atom, acceptor molecule, acceptor atom, score
      L1  H     9    24       P1  7957  0.81
      L1  H    12    16       P1  8028  1.00
      P1  H  8011  8017       L1     9  1.00

> <Gold.PLP.Chemscore.Internal.Correction>
0.0090

> <Gold.Rescore>
     Score         DG    S(hbond)    S(metal)    S(lipo)     H(rot)  DE(clash)    DE(int)     intcor
     14.18     -14.48       2.38        0.00      49.66       1.86       0.15       0.14       ----

> <Gold.Chemscore.Fitness>
14.1836

> <Gold.Chemscore.DG>
-14.4774

> <Gold.Chemscore.ZeroCoef>
-5.4800

> <Gold.Chemscore.Hbond>
2.3767

> <Gold.Chemscore.Metal>
0.0000

> <Gold.Chemscore.Lipo>
49.6571

> <Gold.Chemscore.Internal_Hbond>
0.0000

> <Gold.Chemscore.DEClash>
0.1524

> <Gold.Chemscore.DEInternal>
0.1414

> <Gold.Chemscore.Rot>
1.8558

> <Gold.Chemscore.Internal.Correction>
   9.000000E+99

> <Gold.Chemscore.Hbonds>
donor molecule, donor type, donor heavy atom, donor atom, acceptor molecule, acceptor atom, score
      L1  H     9    24       P1  7957  0.77
      L1  H    12    16       P1  8028  1.00
      P1  H  8011  8017       L1     9  0.39

> <Gold.Chemscore.Hbond.Weighted>
-7.9382

> <Gold.Chemscore.Metal.Weighted>
-0.0000

> <Gold.Chemscore.Lipo.Weighted>
-5.8099

> <Gold.Chemscore.Internal_Hbond.Weighted>
0.0000

> <Gold.Chemscore.DEClash.Weighted>
0.1524

> <Gold.Chemscore.DEInternal.Weighted>
0.1414

> <Gold.Chemscore.Rot.Weighted>
4.7507

> <Gold.Chemscore.Internal.Correction.Weighted>
   9.000000E+99

> <Gold.Protein.RotatedTorsions>
[ 6907 6896 6895 6894 ] final  -22.77 input  -60.11 | X-H torsion
[ 7974 7965 7964 7962 ] final  -79.11 input  175.53 | X-H torsion
[ 8008 7997 7996 7995 ] final  -52.72 input   59.86 | X-H torsion
[ 10167 10162 10161 10158 ] final   18.21 input  -65.29 | X-H torsion
[ 10718 10713 10712 10709 ] final  -20.15 input   66.30 | X-H torsion
[ 10763 10752 10751 10750 ] final   86.74 input  -60.55 | X-H torsion
[ 11005 11000 10999 10996 ] final  155.14 input  -57.11 | X-H torsion

> <Gold.Protein.ActiveResidues>
 VAL166  LYS551  ARG553  GLY616  TRP617  ASP618  TYR619  PRO620  LYS621  CYS622 
 ASP623  PHE694  ASN695  SER759  ASP760  ASP761  ALA762  ILE779  LEU786  VAL792 
 PHE793  MET794  SER795  GLU796  ALA797  LYS798  CYS799  TRP800  GLU811  SER814 

> <Gold.Protein.RotatedAtoms>
  151.2137  135.0491  159.8921 H   0  0  0  0  0  0  0  0  0  0  0  0  # atno 6907 bound_to 6896
  152.5422  134.0716  159.8206 H   0  0  0  0  0  0  0  0  0  0  0  0  # atno 6908 bound_to 6896
  151.0873  133.5295  159.2649 H   0  0  0  0  0  0  0  0  0  0  0  0  # atno 6909 bound_to 6896
  145.5776  140.9454  143.1362 H   0  0  0  0  0  0  0  0  0  0  0  0  # atno 7974 bound_to 7965
  154.4114  140.1217  156.5037 H   0  0  0  0  0  0  0  0  0  0  0  0  # atno 8008 bound_to 7997
  155.6869  140.3495  155.4858 H   0  0  0  0  0  0  0  0  0  0  0  0  # atno 8009 bound_to 7997
  155.9503  140.1103  157.0972 H   0  0  0  0  0  0  0  0  0  0  0  0  # atno 8010 bound_to 7997
  140.5670  143.9232  150.6684 H   0  0  0  0  0  0  0  0  0  0  0  0  # atno 10167 bound_to 10162
  156.5358  130.4666  149.6523 H   0  0  0  0  0  0  0  0  0  0  0  0  # atno 10718 bound_to 10713
  153.1600  135.4569  154.9759 H   0  0  0  0  0  0  0  0  0  0  0  0  # atno 10763 bound_to 10752
  154.7890  135.3214  154.7822 H   0  0  0  0  0  0  0  0  0  0  0  0  # atno 10764 bound_to 10752
  153.8314  135.6938  153.4868 H   0  0  0  0  0  0  0  0  0  0  0  0  # atno 10765 bound_to 10752
  140.1554  134.8646  157.2507 H   0  0  0  0  0  0  0  0  0  0  0  0  # atno 11005 bound_to 11000
  144.7409  139.7452  143.7311 LP  0  0  0  0  0  0  0  0  0  0  0  0  # atno 17320 bound_to 7965
  146.1740  139.4902  142.9909 LP  0  0  0  0  0  0  0  0  0  0  0  0  # atno 17321 bound_to 7965
  140.2698  143.3464  152.1248 LP  0  0  0  0  0  0  0  0  0  0  0  0  # atno 17342 bound_to 10162
  139.5098  144.6873  151.5854 LP  0  0  0  0  0  0  0  0  0  0  0  0  # atno 17343 bound_to 10162
  156.3017  130.7180  151.2053 LP  0  0  0  0  0  0  0  0  0  0  0  0  # atno 17370 bound_to 10713
  157.7414  131.0504  150.5100 LP  0  0  0  0  0  0  0  0  0  0  0  0  # atno 17371 bound_to 10713
  140.2554  134.3634  155.7426 LP  0  0  0  0  0  0  0  0  0  0  0  0  # atno 17394 bound_to 11000
  141.2204  133.7339  156.8999 LP  0  0  0  0  0  0  0  0  0  0  0  0  # atno 17395 bound_to 11000

$$$$
