AV-unprocessed.smi:442|AV-procd|sdf|2583|dock6
  -GOLD-   2262022573D 1   1.00000     0.00000
 Structure written by MMmdl.
 37 37  0  0  0  0  0  0  0  0  3 V2000
  149.6134  144.8713  160.0338 C   0  0  0  0  0  0  0  0  0  0  0  0
  150.8136  145.3287  159.1921 C   0  0  0  0  0  0  0  0  0  0  0  0
  151.5969  144.1735  158.5376 C   0  0  2  0  0  0  0  0  0  0  0  0
  152.9045  144.6657  157.9019 C   0  0  0  0  0  0  0  0  0  0  0  0
  150.7870  143.5145  157.5140 N   0  0  0  0  0  0  0  0  0  0  0  0
  150.7248  142.1931  157.2858 C   0  0  0  0  0  0  0  0  0  0  0  0
  151.3475  141.3598  157.9454 O   0  0  0  0  0  0  0  0  0  0  0  0
  149.7918  141.7549  156.1479 C   0  0  0  0  0  0  0  0  0  0  0  0
  150.0177  140.3641  155.7135 N   0  0  0  0  0  0  0  0  0  0  0  0
  151.3294  140.0319  155.3305 C   0  0  0  0  0  0  0  0  0  0  0  0
  151.6626  138.8005  154.9063 C   0  0  0  0  0  0  0  0  0  0  0  0
  153.0187  138.4855  154.5110 N   0  3  0  0  0  0  0  0  0  0  0  0
  153.8478  139.3890  154.4760 O   0  0  0  0  0  0  0  0  0  0  0  0
  153.3008  137.3266  154.2213 O   0  5  0  0  0  0  0  0  0  0  0  0
  150.6190  137.7976  154.8528 C   0  0  0  0  0  0  0  0  0  0  0  0
  149.3445  138.0967  155.2128 C   0  0  0  0  0  0  0  0  0  0  0  0
  148.2472  137.1039  155.1751 C   0  0  0  0  0  0  0  0  0  0  0  0
  148.6211  135.8840  154.7689 N   0  0  0  0  0  0  0  0  0  0  0  0
  147.0679  137.2933  155.4719 O   0  0  0  0  0  0  0  0  0  0  0  0
  148.9849  139.4648  155.6757 C   0  0  0  0  0  0  0  0  0  0  0  0
  147.8520  139.8195  156.0124 O   0  0  0  0  0  0  0  0  0  0  0  0
  149.1350  145.7224  160.5185 H   0  0  0  0  0  0  0  0  0  0  0  0
  149.9226  144.1753  160.8141 H   0  0  0  0  0  0  0  0  0  0  0  0
  148.8592  144.3759  159.4220 H   0  0  0  0  0  0  0  0  0  0  0  0
  150.4699  146.0238  158.4247 H   0  0  0  0  0  0  0  0  0  0  0  0
  151.4881  145.8968  159.8337 H   0  0  0  0  0  0  0  0  0  0  0  0
  151.8671  143.4619  159.3200 H   0  0  0  0  0  0  0  0  0  0  0  0
  153.5472  145.1403  158.6439 H   0  0  0  0  0  0  0  0  0  0  0  0
  152.7150  145.3936  157.1122 H   0  0  0  0  0  0  0  0  0  0  0  0
  153.4646  143.8381  157.4650 H   0  0  0  0  0  0  0  0  0  0  0  0
  150.2322  144.1174  156.9240 H   0  0  0  0  0  0  0  0  0  0  0  0
  148.7631  141.8905  156.4846 H   0  0  0  0  0  0  0  0  0  0  0  0
  149.9018  142.4385  155.3037 H   0  0  0  0  0  0  0  0  0  0  0  0
  152.0356  140.8470  155.3960 H   0  0  0  0  0  0  0  0  0  0  0  0
  150.8874  136.8063  154.5199 H   0  0  0  0  0  0  0  0  0  0  0  0
  147.9433  135.1382  154.7116 H   0  0  0  0  0  0  0  0  0  0  0  0
  149.5854  135.7147  154.5218 H   0  0  0  0  0  0  0  0  0  0  0  0
  1  2  1  0  0  0  0
  1 22  1  0  0  0  0
  1 23  1  0  0  0  0
  1 24  1  0  0  0  0
  2  3  1  0  0  0  0
  2 25  1  0  0  0  0
  2 26  1  0  0  0  0
  3  4  1  0  0  0  0
  3  5  1  0  0  0  0
  3 27  1  0  0  0  0
  4 28  1  0  0  0  0
  4 29  1  0  0  0  0
  4 30  1  0  0  0  0
  5  6  1  0  0  0  0
  5 31  1  0  0  0  0
  6  7  2  0  0  0  0
  6  8  1  0  0  0  0
  8  9  1  0  0  0  0
  8 32  1  0  0  0  0
  8 33  1  0  0  0  0
  9 20  1  0  0  0  0
  9 10  1  0  0  0  0
 10 11  2  0  0  0  0
 10 34  1  0  0  0  0
 11 12  1  0  0  0  0
 11 15  1  0  0  0  0
 12 13  2  0  0  0  0
 12 14  1  0  0  0  0
 15 16  2  0  0  0  0
 15 35  1  0  0  0  0
 16 17  1  0  0  0  0
 16 20  1  0  0  0  0
 17 18  1  0  0  0  0
 17 19  2  0  0  0  0
 18 36  1  0  0  0  0
 18 37  1  0  0  0  0
 20 21  2  0  0  0  0
M  CHG  1  12   1
M  CHG  1  14  -1
M  END
> <s_m_source_file>
AV-unprocessed.smi

> <i_m_source_file_index>
442

> <i_lp_mmshare_version>
43012

> <i_f3d_flags>
0

> <s_epik_input>
W0NIM11bQ0gyXVtDQEhdKFtDSDNdKVtOSF1DKD1PKVtDSDJdbjFbY0hdYyhbTitdKD1PKVtPLV0pW2NIXWMoYzE9TylDKD1PKVtOSDJd

> <s_epik_cmdline>
J2VwaWtfcHl0aG9uJywgJy1waCcsICc3LjAnLCAnLXRuJywgJzgnLCAnLW1hJywgJzIwMCcsICctbWV0YWxfYmluZGluZycsICctaW1hZScsICc8aW5maWxlLm1hZT4nLCAnLW9tYWUnLCAnPG91dGZpbGUubWFlPic=

> <r_lp_tautomer_probability>
1

> <r_epik_Ionization_Penalty>
2.86914e-06

> <r_epik_Ionization_Penalty_Charging>
2.2828e-12

> <r_epik_Ionization_Penalty_Neutral>
2.86914e-06

> <r_epik_State_Penalty>
-0

> <r_epik_Charging_Adjusted_Penalty>
2.2828e-12

> <i_epik_Tot_Q>
0

> <i_epik_Tot_abs_Q>
2

> <r_epik_Metal_State_Penalty>
-0

> <b_epik_Metal_Only>
0

> <s_lp_Force_Field>
OPLS_2005

> <r_lp_Energy>
21.8648

> <b_lp_Chiralities_Consistent>
1

> <s_lp_Variant>
AV-unprocessed.smi:442-1

> <Gold.Version>
5.8.1

> <Gold.Id.Protein>
6NUR|6NUR_protein|mol2

> <Gold.PLP.Fitness>
41.6958

> <Gold.PLP.PLP>
-36.7672

> <Gold.PLP.part.hbond>
-4.1101

> <Gold.PLP.part.metal>
0.0000

> <Gold.PLP.part.buried>
-0.7266

> <Gold.PLP.part.nonpolar>
-29.9316

> <Gold.PLP.part.repulsive>
0.1658

> <Gold.PLP.ligand.clash>
0.0000

> <Gold.PLP.ligand.torsion>
0.5778

> <Gold.PLP.Chemscore.Hbond>
2.0000

> <Gold.PLP.Chemscore.CHOScore>
0.0000

> <Gold.PLP.Chemscore.Metal>
0.0000

> <Gold.Chemscore.Hbonds>
donor molecule, donor type, donor heavy atom, donor atom, acceptor molecule, acceptor atom, score
      L1  H     5    31       P1  8028  1.00
      P1  H  7997  8010       L1    13  1.00

> <Gold.PLP.Chemscore.Internal.Correction>
0.0842

> <Gold.Rescore>
     Score         DG    S(hbond)    S(metal)    S(lipo)     H(rot)  DE(clash)    DE(int)     intcor
     12.24     -15.54       1.92        0.00      75.79       2.03       0.15       3.15       ----

> <Gold.Chemscore.Fitness>
12.2409

> <Gold.Chemscore.DG>
-15.5393

> <Gold.Chemscore.ZeroCoef>
-5.4800

> <Gold.Chemscore.Hbond>
1.9160

> <Gold.Chemscore.Metal>
0.0000

> <Gold.Chemscore.Lipo>
75.7874

> <Gold.Chemscore.Internal_Hbond>
0.0000

> <Gold.Chemscore.DEClash>
0.1492

> <Gold.Chemscore.DEInternal>
3.1493

> <Gold.Chemscore.Rot>
2.0340

> <Gold.Chemscore.Internal.Correction>
   9.000000E+99

> <Gold.Chemscore.Hbonds>
donor molecule, donor type, donor heavy atom, donor atom, acceptor molecule, acceptor atom, score
      L1  H     5    31       P1  8028  0.96
      P1  H  7997  8010       L1    13  0.99
      P1  H 10752 10765       L1    14  0.04

> <Gold.Chemscore.Hbond.Weighted>
-6.3993

> <Gold.Chemscore.Metal.Weighted>
-0.0000

> <Gold.Chemscore.Lipo.Weighted>
-8.8671

> <Gold.Chemscore.Internal_Hbond.Weighted>
0.0000

> <Gold.Chemscore.DEClash.Weighted>
0.1492

> <Gold.Chemscore.DEInternal.Weighted>
3.1493

> <Gold.Chemscore.Rot.Weighted>
5.2071

> <Gold.Chemscore.Internal.Correction.Weighted>
   9.000000E+99

> <Gold.Protein.RotatedTorsions>
[ 6907 6896 6895 6894 ] final   77.77 input  -60.11 | X-H torsion
[ 7974 7965 7964 7962 ] final   74.99 input  175.53 | X-H torsion
[ 8008 7997 7996 7995 ] final  113.49 input   59.86 | X-H torsion
[ 10167 10162 10161 10158 ] final  164.68 input  -65.29 | X-H torsion
[ 10718 10713 10712 10709 ] final  -85.26 input   66.30 | X-H torsion
[ 10763 10752 10751 10750 ] final -172.99 input  -60.55 | X-H torsion
[ 11005 11000 10999 10996 ] final  -76.65 input  -57.11 | X-H torsion

> <Gold.Protein.ActiveResidues>
 VAL166  LYS551  ARG553  GLY616  TRP617  ASP618  TYR619  PRO620  LYS621  CYS622 
 ASP623  PHE694  ASN695  SER759  ASP760  ASP761  ALA762  ILE779  LEU786  VAL792 
 PHE793  MET794  SER795  GLU796  ALA797  LYS798  CYS799  TRP800  GLU811  SER814 

> <Gold.Protein.RotatedAtoms>
  152.5131  134.3766  159.9336 H   0  0  0  0  0  0  0  0  0  0  0  0  # atno 6907 bound_to 6896
  151.3722  133.3844  159.2708 H   0  0  0  0  0  0  0  0  0  0  0  0  # atno 6908 bound_to 6896
  150.9569  134.8981  159.7765 H   0  0  0  0  0  0  0  0  0  0  0  0  # atno 6909 bound_to 6896
  145.7212  139.2649  143.1595 H   0  0  0  0  0  0  0  0  0  0  0  0  # atno 7974 bound_to 7965
  156.2261  140.2978  156.0070 H   0  0  0  0  0  0  0  0  0  0  0  0  # atno 8008 bound_to 7997
  155.2353  140.0420  157.2985 H   0  0  0  0  0  0  0  0  0  0  0  0  # atno 8009 bound_to 7997
  154.5918  140.2403  155.7918 H   0  0  0  0  0  0  0  0  0  0  0  0  # atno 8010 bound_to 7997
  139.4893  144.4210  151.9186 H   0  0  0  0  0  0  0  0  0  0  0  0  # atno 10167 bound_to 10162
  155.9998  130.4725  150.4535 H   0  0  0  0  0  0  0  0  0  0  0  0  # atno 10718 bound_to 10713
  154.6130  135.2866  155.0411 H   0  0  0  0  0  0  0  0  0  0  0  0  # atno 10763 bound_to 10752
  154.1634  135.6484  153.4995 H   0  0  0  0  0  0  0  0  0  0  0  0  # atno 10764 bound_to 10752
  153.0203  135.5383  154.6891 H   0  0  0  0  0  0  0  0  0  0  0  0  # atno 10765 bound_to 10752
  141.1655  133.6992  156.7701 H   0  0  0  0  0  0  0  0  0  0  0  0  # atno 11005 bound_to 11000
  146.0623  140.7957  142.9728 LP  0  0  0  0  0  0  0  0  0  0  0  0  # atno 17320 bound_to 7965
  144.6916  140.3216  143.7231 LP  0  0  0  0  0  0  0  0  0  0  0  0  # atno 17321 bound_to 7965
  140.3654  144.2921  150.5927 LP  0  0  0  0  0  0  0  0  0  0  0  0  # atno 17342 bound_to 10162
  140.5366  143.2232  151.8153 LP  0  0  0  0  0  0  0  0  0  0  0  0  # atno 17343 bound_to 10162
  157.2566  131.0558  151.2346 LP  0  0  0  0  0  0  0  0  0  0  0  0  # atno 17370 bound_to 10713
  157.3476  130.7065  149.6420 LP  0  0  0  0  0  0  0  0  0  0  0  0  # atno 17371 bound_to 10713
  140.2470  134.8569  157.3630 LP  0  0  0  0  0  0  0  0  0  0  0  0  # atno 17394 bound_to 11000
  140.1739  134.4574  155.7814 LP  0  0  0  0  0  0  0  0  0  0  0  0  # atno 17395 bound_to 11000

$$$$
