AV-unprocessed.smi:224|AV-procd|sdf|1713|dock6
  -GOLD-   2262020183D 1   1.00000     0.00000
 Structure written by MMmdl.
 56 59  0  0  0  0  0  0  0  0  2 V2000
  152.2486  143.9557  158.8948 C   0  0  0  0  0  0  0  0  0  0  0  0
  151.5314  143.2739  157.7225 C   0  0  2  0  0  0  0  0  0  0  0  0
  150.1938  143.7309  157.7097 O   0  0  0  0  0  0  0  0  0  0  0  0
  151.5503  141.7379  157.8580 C   0  0  0  0  0  0  0  0  0  0  0  0
  151.3766  141.0377  156.5579 N   0  3  1  0  0  0  0  0  0  0  0  0
  151.8800  139.6374  156.5537 C   0  0  0  0  0  0  0  0  0  0  0  0
  151.8051  139.0323  155.1405 C   0  0  0  0  0  0  0  0  0  0  0  0
  150.4600  139.1578  154.5824 N   0  0  0  0  0  0  0  0  0  0  0  0
  149.5669  138.1450  154.7527 C   0  0  0  0  0  0  0  0  0  0  0  0
  148.2369  138.3935  154.6134 N   0  0  0  0  0  0  0  0  0  0  0  0
  147.3425  137.4131  154.7648 C   0  0  0  0  0  0  0  0  0  0  0  0
  147.5551  136.1299  155.0572 N   0  0  0  0  0  0  0  0  0  0  0  0
  148.8848  135.8710  155.2095 C   0  0  0  0  0  0  0  0  0  0  0  0
  149.9476  136.8103  155.0778 C   0  0  0  0  0  0  0  0  0  0  0  0
  151.1622  136.1800  155.3237 N   0  0  0  0  0  0  0  0  0  0  0  0
  150.8379  134.9410  155.5731 C   0  0  0  0  0  0  0  0  0  0  0  0
  149.4904  134.6665  155.5221 N   0  0  0  0  0  0  0  0  0  0  0  0
  148.8567  133.3794  155.7644 C   0  0  0  0  0  0  0  0  0  0  0  0
  149.2677  132.2894  154.7477 C   0  0  2  0  0  0  0  0  0  0  0  0
  149.2313  132.8406  153.4421 O   0  0  0  0  0  0  0  0  0  0  0  0
  148.3864  131.0440  154.7745 C   0  0  0  0  0  0  0  0  0  0  0  0
  149.3554  129.9352  154.3894 C   0  0  0  0  0  0  0  0  0  0  0  0
  150.5385  130.3079  155.0749 O   0  0  0  0  0  0  0  0  0  0  0  0
  150.6798  131.7228  154.9988 C   0  0  0  0  0  0  0  0  0  0  0  0
  149.9385  140.5237  154.5781 C   0  0  0  0  0  0  0  0  0  0  0  0
  150.0049  141.1690  155.9809 C   0  0  1  0  0  0  0  0  0  0  0  0
  148.8938  140.6442  156.9162 C   0  0  0  0  0  0  0  0  0  0  0  0
  153.2957  143.6555  158.9411 H   0  0  0  0  0  0  0  0  0  0  0  0
  151.7865  143.6991  159.8488 H   0  0  0  0  0  0  0  0  0  0  0  0
  152.2226  145.0412  158.7945 H   0  0  0  0  0  0  0  0  0  0  0  0
  152.0128  143.5920  156.7985 H   0  0  0  0  0  0  0  0  0  0  0  0
  149.9644  143.9873  156.8300 H   0  0  0  0  0  0  0  0  0  0  0  0
  152.4840  141.4108  158.3181 H   0  0  0  0  0  0  0  0  0  0  0  0
  150.7528  141.4435  158.5426 H   0  0  0  0  0  0  0  0  0  0  0  0
  152.9142  139.6022  156.8928 H   0  0  0  0  0  0  0  0  0  0  0  0
  151.3047  139.0354  157.2577 H   0  0  0  0  0  0  0  0  0  0  0  0
  152.4921  139.5642  154.4812 H   0  0  0  0  0  0  0  0  0  0  0  0
  152.1401  137.9942  155.1437 H   0  0  0  0  0  0  0  0  0  0  0  0
  146.3090  137.6973  154.6324 H   0  0  0  0  0  0  0  0  0  0  0  0
  151.5772  134.1871  155.8024 H   0  0  0  0  0  0  0  0  0  0  0  0
  149.1045  133.0614  156.7780 H   0  0  0  0  0  0  0  0  0  0  0  0
  147.7754  133.5218  155.7462 H   0  0  0  0  0  0  0  0  0  0  0  0
  150.1131  132.8634  153.1027 H   0  0  0  0  0  0  0  0  0  0  0  0
  148.0303  130.8560  155.7877 H   0  0  0  0  0  0  0  0  0  0  0  0
  147.5148  131.1043  154.1214 H   0  0  0  0  0  0  0  0  0  0  0  0
  149.0094  128.9463  154.6907 H   0  0  0  0  0  0  0  0  0  0  0  0
  149.5381  129.9269  153.3138 H   0  0  0  0  0  0  0  0  0  0  0  0
  151.3749  131.9786  154.1972 H   0  0  0  0  0  0  0  0  0  0  0  0
  151.1124  132.0858  155.9317 H   0  0  0  0  0  0  0  0  0  0  0  0
  150.5486  141.1036  153.8849 H   0  0  0  0  0  0  0  0  0  0  0  0
  148.9210  140.5812  154.1962 H   0  0  0  0  0  0  0  0  0  0  0  0
  149.8197  142.2349  155.8412 H   0  0  0  0  0  0  0  0  0  0  0  0
  147.9160  140.7406  156.4435 H   0  0  0  0  0  0  0  0  0  0  0  0
  148.8516  141.2055  157.8494 H   0  0  0  0  0  0  0  0  0  0  0  0
  149.0276  139.5935  157.1698 H   0  0  0  0  0  0  0  0  0  0  0  0
  151.9684  141.5367  155.9097 H   0  0  0  0  0  0  0  0  0  0  0  0
  1  2  1  0  0  0  0
  1 28  1  0  0  0  0
  1 29  1  0  0  0  0
  1 30  1  0  0  0  0
  2  3  1  0  0  0  0
  2  4  1  0  0  0  0
  2 31  1  0  0  0  0
  3 32  1  0  0  0  0
  4  5  1  0  0  0  0
  4 33  1  0  0  0  0
  4 34  1  0  0  0  0
  5 26  1  0  0  0  0
  5  6  1  0  0  0  0
  5 56  1  0  0  0  0
  6  7  1  0  0  0  0
  6 35  1  0  0  0  0
  6 36  1  0  0  0  0
  7  8  1  0  0  0  0
  7 37  1  0  0  0  0
  7 38  1  0  0  0  0
  8  9  1  0  0  0  0
  8 25  1  0  0  0  0
  9 14  1  0  0  0  0
  9 10  2  0  0  0  0
 10 11  1  0  0  0  0
 11 12  2  0  0  0  0
 11 39  1  0  0  0  0
 12 13  1  0  0  0  0
 13 17  1  0  0  0  0
 13 14  2  0  0  0  0
 14 15  1  0  0  0  0
 15 16  2  0  0  0  0
 16 17  1  0  0  0  0
 16 40  1  0  0  0  0
 17 18  1  0  0  0  0
 18 19  1  0  0  0  0
 18 41  1  0  0  0  0
 18 42  1  0  0  0  0
 19 24  1  0  0  0  0
 19 20  1  0  0  0  0
 19 21  1  0  0  0  0
 20 43  1  0  0  0  0
 21 22  1  0  0  0  0
 21 44  1  0  0  0  0
 21 45  1  0  0  0  0
 22 23  1  0  0  0  0
 22 46  1  0  0  0  0
 22 47  1  0  0  0  0
 23 24  1  0  0  0  0
 24 48  1  0  0  0  0
 24 49  1  0  0  0  0
 25 26  1  0  0  0  0
 25 50  1  0  0  0  0
 25 51  1  0  0  0  0
 26 27  1  0  0  0  0
 26 52  1  0  0  0  0
 27 53  1  0  0  0  0
 27 54  1  0  0  0  0
 27 55  1  0  0  0  0
M  CHG  1   5   1
M  END
> <s_m_source_file>
AV-unprocessed.smi

> <i_m_source_file_index>
224

> <i_lp_mmshare_version>
43012

> <i_f3d_flags>
0

> <s_epik_input>
W0NIM11bQ0BIXShbT0hdKVtDSDJdTjFbQ0gyXVtDSDJdTihbQ0gyXVtDQEhdMVtDSDNdKWMobltjSF1uMiljKGMyMyluW2NIXW4zW0NIMl1bQ0BAXTQoW09IXSlbQ0gyXVtDSDJdT1tDSDJdNA==

> <s_epik_cmdline>
J2VwaWtfcHl0aG9uJywgJy1waCcsICc3LjAnLCAnLXRuJywgJzgnLCAnLW1hJywgJzIwMCcsICctbWV0YWxfYmluZGluZycsICctaW1hZScsICc8aW5maWxlLm1hZT4nLCAnLW9tYWUnLCAnPG91dGZpbGUubWFlPic=

> <r_lp_tautomer_probability>
1

> <r_epik_Ionization_Penalty>
0.00516958

> <r_epik_Ionization_Penalty_Charging>
0.00509693

> <r_epik_Ionization_Penalty_Neutral>
7.26542e-05

> <r_epik_State_Penalty>
-0

> <r_epik_Charging_Adjusted_Penalty>
0.00509693

> <i_epik_Tot_Q>
1

> <i_epik_Tot_abs_Q>
1

> <r_epik_Metal_State_Penalty>
-0

> <b_epik_Metal_Only>
0

> <s_lp_Force_Field>
OPLS_2005

> <r_lp_Energy>
51.1284

> <b_lp_Chiralities_Consistent>
1

> <s_lp_Variant>
AV-unprocessed.smi:224-7

> <Gold.Version>
5.8.1

> <Gold.Id.Protein>
6NUR|6NUR_protein|mol2

> <Gold.PLP.Fitness>
41.2938

> <Gold.PLP.PLP>
-38.0723

> <Gold.PLP.part.hbond>
-2.3569

> <Gold.PLP.part.metal>
0.0000

> <Gold.PLP.part.buried>
-4.0404

> <Gold.PLP.part.nonpolar>
-32.8750

> <Gold.PLP.part.repulsive>
0.4491

> <Gold.PLP.ligand.clash>
0.0000

> <Gold.PLP.ligand.torsion>
0.6806

> <Gold.PLP.Chemscore.Hbond>
1.4000

> <Gold.PLP.Chemscore.CHOScore>
0.0000

> <Gold.PLP.Chemscore.Metal>
0.0000

> <Gold.Chemscore.Hbonds>
donor molecule, donor type, donor heavy atom, donor atom, acceptor molecule, acceptor atom, score
      L1  H     3    32       P1  8028  1.00
      P1  H 10752 10764       L1    15  0.40

> <Gold.PLP.Chemscore.Internal.Correction>
0.3827

> <Gold.Rescore>
     Score         DG    S(hbond)    S(metal)    S(lipo)     H(rot)  DE(clash)    DE(int)     intcor
      9.22     -11.08       0.93        0.00      87.63       3.02       0.05       1.82       ----

> <Gold.Chemscore.Fitness>
9.2195

> <Gold.Chemscore.DG>
-11.0841

> <Gold.Chemscore.ZeroCoef>
-5.4800

> <Gold.Chemscore.Hbond>
0.9252

> <Gold.Chemscore.Metal>
0.0000

> <Gold.Chemscore.Lipo>
87.6328

> <Gold.Chemscore.Internal_Hbond>
0.0000

> <Gold.Chemscore.DEClash>
0.0456

> <Gold.Chemscore.DEInternal>
1.8189

> <Gold.Chemscore.Rot>
3.0231

> <Gold.Chemscore.Internal.Correction>
   9.000000E+99

> <Gold.Chemscore.Hbonds>
donor molecule, donor type, donor heavy atom, donor atom, acceptor molecule, acceptor atom, score
      L1  H     3    32       P1  8028  0.94
      P1  H 10752 10764       L1    15  0.01

> <Gold.Chemscore.Hbond.Weighted>
-3.0902

> <Gold.Chemscore.Metal.Weighted>
-0.0000

> <Gold.Chemscore.Lipo.Weighted>
-10.2530

> <Gold.Chemscore.Internal_Hbond.Weighted>
0.0000

> <Gold.Chemscore.DEClash.Weighted>
0.0456

> <Gold.Chemscore.DEInternal.Weighted>
1.8189

> <Gold.Chemscore.Rot.Weighted>
7.7391

> <Gold.Chemscore.Internal.Correction.Weighted>
   9.000000E+99

> <Gold.Protein.RotatedTorsions>
[ 6907 6896 6895 6894 ] final -131.13 input  -60.11 | X-H torsion
[ 7974 7965 7964 7962 ] final  -70.75 input  175.53 | X-H torsion
[ 8008 7997 7996 7995 ] final -138.64 input   59.86 | X-H torsion
[ 10167 10162 10161 10158 ] final   47.98 input  -65.29 | X-H torsion
[ 10718 10713 10712 10709 ] final  -71.57 input   66.30 | X-H torsion
[ 10763 10752 10751 10750 ] final  -41.16 input  -60.55 | X-H torsion
[ 11005 11000 10999 10996 ] final  150.03 input  -57.11 | X-H torsion

> <Gold.Protein.ActiveResidues>
 VAL166  LYS551  ARG553  GLY616  TRP617  ASP618  TYR619  PRO620  LYS621  CYS622 
 ASP623  PHE694  ASN695  SER759  ASP760  ASP761  ALA762  ILE779  LEU786  VAL792 
 PHE793  MET794  SER795  GLU796  ALA797  LYS798  CYS799  TRP800  GLU811  SER814 

> <Gold.Protein.RotatedAtoms>
  150.9475  133.6586  159.2778 H   0  0  0  0  0  0  0  0  0  0  0  0  # atno 6907 bound_to 6896
  151.3954  135.0961  159.9549 H   0  0  0  0  0  0  0  0  0  0  0  0  # atno 6908 bound_to 6896
  152.5096  133.8981  159.7482 H   0  0  0  0  0  0  0  0  0  0  0  0  # atno 6909 bound_to 6896
  145.6869  140.9167  143.0802 H   0  0  0  0  0  0  0  0  0  0  0  0  # atno 7974 bound_to 7965
  155.4318  140.0525  157.3018 H   0  0  0  0  0  0  0  0  0  0  0  0  # atno 8008 bound_to 7997
  154.4857  140.2099  155.9620 H   0  0  0  0  0  0  0  0  0  0  0  0  # atno 8009 bound_to 7997
  156.1270  140.3178  155.8298 H   0  0  0  0  0  0  0  0  0  0  0  0  # atno 8010 bound_to 7997
  140.2980  144.2967  150.6225 H   0  0  0  0  0  0  0  0  0  0  0  0  # atno 10167 bound_to 10162
  156.0357  130.4354  150.2463 H   0  0  0  0  0  0  0  0  0  0  0  0  # atno 10718 bound_to 10713
  153.9580  135.6743  153.4745 H   0  0  0  0  0  0  0  0  0  0  0  0  # atno 10763 bound_to 10752
  153.0852  135.4902  154.8579 H   0  0  0  0  0  0  0  0  0  0  0  0  # atno 10764 bound_to 10752
  154.7289  135.3133  154.8885 H   0  0  0  0  0  0  0  0  0  0  0  0  # atno 10765 bound_to 10752
  140.1096  134.8932  157.1917 H   0  0  0  0  0  0  0  0  0  0  0  0  # atno 11005 bound_to 11000
  144.7008  139.8770  143.7444 LP  0  0  0  0  0  0  0  0  0  0  0  0  # atno 17320 bound_to 7965
  146.0916  139.3906  143.0402 LP  0  0  0  0  0  0  0  0  0  0  0  0  # atno 17321 bound_to 7965
  140.5675  143.2184  151.7657 LP  0  0  0  0  0  0  0  0  0  0  0  0  # atno 17342 bound_to 10162
  139.4922  144.4263  151.9922 LP  0  0  0  0  0  0  0  0  0  0  0  0  # atno 17343 bound_to 10162
  157.0563  131.0077  151.3237 LP  0  0  0  0  0  0  0  0  0  0  0  0  # atno 17370 bound_to 10713
  157.5103  130.7935  149.7698 LP  0  0  0  0  0  0  0  0  0  0  0  0  # atno 17371 bound_to 10713
  140.3109  134.3025  155.7267 LP  0  0  0  0  0  0  0  0  0  0  0  0  # atno 17394 bound_to 11000
  141.2127  133.7650  156.9775 LP  0  0  0  0  0  0  0  0  0  0  0  0  # atno 17395 bound_to 11000

$$$$
