#       Name:                AV-unprocessed.smi:247
#       Creating user name   scv26
#       Creation time:       Thu Mar 26 20:54:44 2020


#       File generated by GOLD software.
#

@<TRIPOS>MOLECULE
AV-unprocessed.smi:247
    73    77     1
SMALL
NO_CHARGES


@<TRIPOS>ATOM
      1 ****        -4.2704   3.8398  -1.1567 O.3            1 S1                 0.0000
      2 ****        -3.6464   2.5840  -0.9749 C.3            1 S1                 0.0000
      3 ****        -4.0607   1.8717   0.3429 C.3            1 S1                 0.0000
      4 ****        -3.3870   0.4634   0.3747 C.3            1 S1                 0.0000
      5 ****        -1.9305   0.4741   0.3790 N.pl3          1 S1                 0.0000
      6 ****        -1.1101   0.5291   1.4846 C.2            1 S1                 0.0000
      7 ****         0.1702   0.5180   1.2327 N.2            1 S1                 0.0000
      8 ****         0.2375   0.4262  -0.1506 C.ar           1 S1                 0.0000
      9 ****         1.3056   0.3557  -1.0811 C.ar           1 S1                 0.0000
     10 ****         2.5964   0.3695  -0.6811 N.3            1 S1                 0.0000
     11 ****         3.3300   1.5859  -1.0150 C.3            1 S1                 0.0000
     12 ****         4.7670   1.1582  -1.3464 C.3            1 S1                 0.0000
     13 ****         4.8528  -0.2902  -0.8692 C.3            1 S1                 0.0000
     14 ****         3.4144  -0.7758  -1.0659 C.3            1 S1                 0.0000
     15 ****         3.0171  -2.0916  -0.3416 C.3            1 S1                 0.0000
     16 ****         3.1085  -1.9989   1.2003 C.3            1 S1                 0.0000
     17 ****         2.6568  -3.2098   1.7965 O.3            1 S1                 0.0000
     18 ****         3.4634  -4.3304   1.4533 C.3            1 S1                 0.0000
     19 ****         3.3940  -4.5705  -0.0617 C.3            1 S1                 0.0000
     20 ****         3.8276  -3.3121  -0.8272 C.3            1 S1                 0.0000
     21 ****         3.6239  -3.5338  -2.2086 O.3            1 S1                 0.0000
     22 ****         0.9966   0.2624  -2.4013 N.ar           1 S1                 0.0000
     23 ****        -0.2837   0.2358  -2.7847 C.ar           1 S1                 0.0000
     24 ****        -1.3835   0.2902  -2.0292 N.ar           1 S1                 0.0000
     25 ****        -1.0720   0.3888  -0.7045 C.ar           1 S1                 0.0000
     26 ****        -3.6527   2.7409   1.5606 C.3            1 S1                 0.0000
     27 ****        -4.2340   2.2058   2.8814 C.3            1 S1                 0.0000
     28 ****        -5.6515   2.1336   2.7890 O.3            1 S1                 0.0000
     29 ****        -6.0994   1.2354   1.7810 C.3            1 S1                 0.0000
     30 ****        -5.6008   1.6957   0.3971 C.3            1 S1                 0.0000
     31 ****        -3.9697   4.2092  -1.9729 H              1 S1                 0.0000
     32 ****        -3.8887   1.9603  -1.8360 H              1 S1                 0.0000
     33 ****        -2.5704   2.7545  -1.0004 H              1 S1                 0.0000
     34 ****        -3.7035  -0.1098   1.2446 H              1 S1                 0.0000
     35 ****        -3.7141  -0.1203  -0.4867 H              1 S1                 0.0000
     36 ****        -1.4931   0.5840   2.4931 H              1 S1                 0.0000
     37 ****         2.8823   2.1352  -1.8448 H              1 S1                 0.0000
     38 ****         3.3213   2.2410  -0.1436 H              1 S1                 0.0000
     39 ****         4.9196   1.1974  -2.4257 H              1 S1                 0.0000
     40 ****         5.5149   1.8001  -0.8799 H              1 S1                 0.0000
     41 ****         5.5815  -0.8754  -1.4310 H              1 S1                 0.0000
     42 ****         5.1396  -0.3074   0.1819 H              1 S1                 0.0000
     43 ****         3.2774  -0.9301  -2.1374 H              1 S1                 0.0000
     44 ****         1.9709  -2.2887  -0.5818 H              1 S1                 0.0000
     45 ****         4.1259  -1.7927   1.5332 H              1 S1                 0.0000
     46 ****         2.4845  -1.1878   1.5740 H              1 S1                 0.0000
     47 ****         4.4927  -4.1675   1.7766 H              1 S1                 0.0000
     48 ****         3.0957  -5.2059   1.9888 H              1 S1                 0.0000
     49 ****         4.0235  -5.4178  -0.3360 H              1 S1                 0.0000
     50 ****         2.3719  -4.8389  -0.3332 H              1 S1                 0.0000
     51 ****         4.8920  -3.1420  -0.6612 H              1 S1                 0.0000
     52 ****         2.7035  -3.6892  -2.3565 H              1 S1                 0.0000
     53 ****        -0.4507   0.1586  -3.8490 H              1 S1                 0.0000
     54 ****        -2.5702   2.8373   1.6335 H              1 S1                 0.0000
     55 ****        -4.0239   3.7579   1.4301 H              1 S1                 0.0000
     56 ****        -3.8223   1.2295   3.1382 H              1 S1                 0.0000
     57 ****        -3.9735   2.8783   3.6988 H              1 S1                 0.0000
     58 ****        -5.7768   0.2202   2.0120 H              1 S1                 0.0000
     59 ****        -7.1892   1.2204   1.7928 H              1 S1                 0.0000
     60 ****        -6.0963   2.6408   0.1736 H              1 S1                 0.0000
     61 ****        -5.9327   0.9956  -0.3704 H              1 S1                 0.0000
     62 ****        -4.0286   4.4490  -0.4014 LP             1 S1                 0.0000
     63 ****        -5.2631   3.7222  -1.1852 LP             1 S1                 0.0000
     64 ****         0.9269   0.5648   1.8848 LP             1 S1                 0.0000
     65 ****         2.4606   0.3213   0.3085 LP             1 S1                 0.0000
     66 ****         1.7205  -3.3854   1.4923 LP             1 S1                 0.0000
     67 ****         2.6692  -3.1001   2.7904 LP             1 S1                 0.0000
     68 ****         4.1517  -4.3303  -2.5034 LP             1 S1                 0.0000
     69 ****         3.9171  -2.7297  -2.7257 LP             1 S1                 0.0000
     70 ****         1.7254   0.2138  -3.0843 LP             1 S1                 0.0000
     71 ****        -2.3163   0.2623  -2.3885 LP             1 S1                 0.0000
     72 ****        -6.0039   3.0462   2.5817 LP             1 S1                 0.0000
     73 ****        -6.0129   1.8290   3.6703 LP             1 S1                 0.0000
@<TRIPOS>BOND
    1    1    2 1     
    2    1   31 1     
    3    2    3 1     
    4    2   32 1     
    5    2   33 1     
    6    3   30 1     
    7    3    4 1     
    8    3   26 1     
    9    4    5 1     
   10    4   34 1     
   11    4   35 1     
   12    5   25 1     
   13    5    6 1     
   14    6    7 2     
   15    6   36 1     
   16    7    8 1     
   17    8   25 ar    
   18    8    9 ar    
   19    9   10 1     
   20    9   22 ar    
   21   10   14 1     
   22   10   11 1     
   23   11   12 1     
   24   11   37 1     
   25   11   38 1     
   26   12   13 1     
   27   12   39 1     
   28   12   40 1     
   29   13   14 1     
   30   13   41 1     
   31   13   42 1     
   32   14   15 1     
   33   14   43 1     
   34   15   20 1     
   35   15   16 1     
   36   15   44 1     
   37   16   17 1     
   38   16   45 1     
   39   16   46 1     
   40   17   18 1     
   41   18   19 1     
   42   18   47 1     
   43   18   48 1     
   44   19   20 1     
   45   19   49 1     
   46   19   50 1     
   47   20   21 1     
   48   20   51 1     
   49   21   52 1     
   50   22   23 ar    
   51   23   24 ar    
   52   23   53 1     
   53   24   25 ar    
   54   26   27 1     
   55   26   54 1     
   56   26   55 1     
   57   27   28 1     
   58   27   56 1     
   59   27   57 1     
   60   28   29 1     
   61   29   30 1     
   62   29   58 1     
   63   29   59 1     
   64   30   60 1     
   65   30   61 1     
   66    1   62 1     
   67    1   63 1     
   68    7   64 1     
   69   10   65 1     
   70   17   66 1     
   71   17   67 1     
   72   21   68 1     
   73   21   69 1     
   74   22   70 1     
   75   24   71 1     
   76   28   72 1     
   77   28   73 1     
@<TRIPOS>SUBSTRUCTURE
      1 S1             1
@<TRIPOS>SET
LONE_PAIRS      STATIC     ATOMS    <user>   **** ""
12 62 63 64 65 66 67 68 69 70 71 72 73
DONOR_HYDROGENS      STATIC     ATOMS    <user>   **** ""
2 31 52
ATOM$BLUE        STATIC     ATOMS    COLORGROUP SYSTEM
12 62 63 64 65 66 67 68 69 70 71 72 73
ATOM$RED        STATIC     ATOMS    COLORGROUP SYSTEM
2 31 52
