AV-unprocessed.smi:2221|AV-procd|sdf|8982|dock8
  -GOLD-   2272012193D 1   1.00000     0.00000
 Structure written by MMmdl.
 53 54  0  0  0  0  0  0  0  0  2 V2000
  153.4691  141.0573  160.1887 C   0  0  0  0  0  0  0  0  0  0  0  0
  152.7010  142.2318  159.6197 C   0  0  0  0  0  0  0  0  0  0  0  0
  152.7081  143.4770  160.2762 C   0  0  0  0  0  0  0  0  0  0  0  0
  151.9741  144.5344  159.7046 C   0  0  0  0  0  0  0  0  0  0  0  0
  151.9440  145.9007  160.3567 C   0  0  0  0  0  0  0  0  0  0  0  0
  151.2690  144.4073  158.5604 N   0  0  0  0  0  0  0  0  0  0  0  0
  151.2529  143.2121  157.9198 C   0  0  0  0  0  0  0  0  0  0  0  0
  150.5413  142.9744  156.7139 N   0  0  0  0  0  0  0  0  0  0  0  0
  150.1203  141.7983  156.2158 C   0  0  0  0  0  0  0  0  0  0  0  0
  150.2884  140.6985  156.7441 O   0  0  0  0  0  0  0  0  0  0  0  0
  149.4835  141.9655  155.0477 N   0  0  0  0  0  0  0  0  0  0  0  0
  148.9105  140.8902  154.2478 C   0  0  0  0  0  0  0  0  0  0  0  0
  147.3963  141.0942  154.0441 C   0  0  0  0  0  0  0  0  0  0  0  0
  146.8840  142.2318  154.8075 N   0  0  0  0  0  0  0  0  0  0  0  0
  146.6375  141.7998  156.1861 C   0  0  0  0  0  0  0  0  0  0  0  0
  146.1947  142.9913  157.0529 C   0  0  0  0  0  0  0  0  0  0  0  0
  144.9127  143.6273  156.4796 C   0  0  0  0  0  0  0  0  0  0  0  0
  144.4026  144.7923  157.2597 N   0  3  0  0  0  0  0  0  0  0  0  0
  144.1566  144.5376  158.7001 C   0  0  0  0  0  0  0  0  0  0  0  0
  143.2473  145.4579  156.6153 C   0  0  0  0  0  0  0  0  0  0  0  0
  145.1458  143.9752  154.9993 C   0  0  0  0  0  0  0  0  0  0  0  0
  145.6398  142.7428  154.2210 C   0  0  0  0  0  0  0  0  0  0  0  0
  151.9620  142.0995  158.4263 C   0  0  0  0  0  0  0  0  0  0  0  0
  154.3993  141.3921  160.6488 H   0  0  0  0  0  0  0  0  0  0  0  0
  153.7176  140.3380  159.4079 H   0  0  0  0  0  0  0  0  0  0  0  0
  152.8734  140.5498  160.9472 H   0  0  0  0  0  0  0  0  0  0  0  0
  153.2621  143.6174  161.1929 H   0  0  0  0  0  0  0  0  0  0  0  0
  152.2085  145.8364  161.4125 H   0  0  0  0  0  0  0  0  0  0  0  0
  150.9492  146.3419  160.2841 H   0  0  0  0  0  0  0  0  0  0  0  0
  152.6525  146.5676  159.8650 H   0  0  0  0  0  0  0  0  0  0  0  0
  150.3305  143.7951  156.1660 H   0  0  0  0  0  0  0  0  0  0  0  0
  149.3885  142.9030  154.6853 H   0  0  0  0  0  0  0  0  0  0  0  0
  149.4227  140.8274  153.2858 H   0  0  0  0  0  0  0  0  0  0  0  0
  149.1158  139.9581  154.7722 H   0  0  0  0  0  0  0  0  0  0  0  0
  147.1576  141.2076  152.9852 H   0  0  0  0  0  0  0  0  0  0  0  0
  146.8868  140.1902  154.3817 H   0  0  0  0  0  0  0  0  0  0  0  0
  145.8827  141.0117  156.2051 H   0  0  0  0  0  0  0  0  0  0  0  0
  147.5506  141.3771  156.6072 H   0  0  0  0  0  0  0  0  0  0  0  0
  146.0303  142.6538  158.0763 H   0  0  0  0  0  0  0  0  0  0  0  0
  147.0083  143.7163  157.0886 H   0  0  0  0  0  0  0  0  0  0  0  0
  144.1295  142.8674  156.4948 H   0  0  0  0  0  0  0  0  0  0  0  0
  143.3012  143.8779  158.8495 H   0  0  0  0  0  0  0  0  0  0  0  0
  143.9424  145.4748  159.2147 H   0  0  0  0  0  0  0  0  0  0  0  0
  145.0237  144.0941  159.1881 H   0  0  0  0  0  0  0  0  0  0  0  0
  142.3722  144.8072  156.6010 H   0  0  0  0  0  0  0  0  0  0  0  0
  143.4816  145.7413  155.5885 H   0  0  0  0  0  0  0  0  0  0  0  0
  142.9822  146.3689  157.1529 H   0  0  0  0  0  0  0  0  0  0  0  0
  144.2224  144.3437  154.5520 H   0  0  0  0  0  0  0  0  0  0  0  0
  145.8810  144.7730  154.8959 H   0  0  0  0  0  0  0  0  0  0  0  0
  145.7986  143.0330  153.1836 H   0  0  0  0  0  0  0  0  0  0  0  0
  144.8766  141.9627  154.2202 H   0  0  0  0  0  0  0  0  0  0  0  0
  151.9402  141.1529  157.9055 H   0  0  0  0  0  0  0  0  0  0  0  0
  145.1473  145.4741  157.2274 H   0  0  0  0  0  0  0  0  0  0  0  0
  1  2  1  0  0  0  0
  1 24  1  0  0  0  0
  1 25  1  0  0  0  0
  1 26  1  0  0  0  0
  2 23  1  0  0  0  0
  2  3  2  0  0  0  0
  3  4  1  0  0  0  0
  3 27  1  0  0  0  0
  4  5  1  0  0  0  0
  4  6  2  0  0  0  0
  5 28  1  0  0  0  0
  5 29  1  0  0  0  0
  5 30  1  0  0  0  0
  6  7  1  0  0  0  0
  7  8  1  0  0  0  0
  7 23  2  0  0  0  0
  8  9  1  0  0  0  0
  8 31  1  0  0  0  0
  9 10  2  0  0  0  0
  9 11  1  0  0  0  0
 11 12  1  0  0  0  0
 11 32  1  0  0  0  0
 12 13  1  0  0  0  0
 12 33  1  0  0  0  0
 12 34  1  0  0  0  0
 13 14  1  0  0  0  0
 13 35  1  0  0  0  0
 13 36  1  0  0  0  0
 14 22  1  0  0  0  0
 14 15  1  0  0  0  0
 15 16  1  0  0  0  0
 15 37  1  0  0  0  0
 15 38  1  0  0  0  0
 16 17  1  0  0  0  0
 16 39  1  0  0  0  0
 16 40  1  0  0  0  0
 17 18  1  0  0  0  0
 17 21  1  0  0  0  0
 17 41  1  0  0  0  0
 18 19  1  0  0  0  0
 18 20  1  0  0  0  0
 18 53  1  0  0  0  0
 19 42  1  0  0  0  0
 19 43  1  0  0  0  0
 19 44  1  0  0  0  0
 20 45  1  0  0  0  0
 20 46  1  0  0  0  0
 20 47  1  0  0  0  0
 21 22  1  0  0  0  0
 21 48  1  0  0  0  0
 21 49  1  0  0  0  0
 22 50  1  0  0  0  0
 22 51  1  0  0  0  0
 23 52  1  0  0  0  0
M  CHG  1  18   1
M  END
> <s_m_source_file>
AV-unprocessed.smi

> <i_m_source_file_index>
2221

> <i_lp_mmshare_version>
43012

> <i_f3d_flags>
0

> <s_epik_input>
W0NIM11jMVtjSF1jKFtDSDNdKW5jKFtjSF0xKVtOSF1DKD1PKVtOSF1bQ0gyXVtDSDJdTjJbQ0gyXVtDSDJdW0NIXShOKFtDSDNdKVtDSDNdKVtDSDJdW0NIMl0y

> <s_epik_cmdline>
J2VwaWtfcHl0aG9uJywgJy1waCcsICc3LjAnLCAnLXRuJywgJzgnLCAnLW1hJywgJzIwMCcsICctbWV0YWxfYmluZGluZycsICctaW1hZScsICc8aW5maWxlLm1hZT4nLCAnLW9tYWUnLCAnPG91dGZpbGUubWFlPic=

> <r_epik_Ionization_Penalty>
0.929621

> <r_epik_Ionization_Penalty_Charging>
0.000679816

> <r_epik_Ionization_Penalty_Neutral>
0.928941

> <r_epik_State_Penalty>
1.01912

> <r_epik_Charging_Adjusted_Penalty>
1.0198

> <i_epik_Tot_Q>
1

> <i_epik_Tot_abs_Q>
1

> <r_epik_Metal_State_Penalty>
1.01908

> <b_epik_Metal_Only>
0

> <s_lp_Force_Field>
OPLS_2005

> <r_lp_Energy>
22.8604

> <b_lp_Chiralities_Consistent>
1

> <s_lp_Variant>
AV-unprocessed.smi:2221-3

> <Gold.Version>
5.8.1

> <Gold.Id.Protein>
6NUR|6NUR_protein|mol2

> <Gold.PLP.Fitness>
46.4294

> <Gold.PLP.PLP>
-43.1285

> <Gold.PLP.part.hbond>
-2.0000

> <Gold.PLP.part.metal>
0.0000

> <Gold.PLP.part.buried>
-7.0689

> <Gold.PLP.part.nonpolar>
-35.7221

> <Gold.PLP.part.repulsive>
0.5691

> <Gold.PLP.ligand.clash>
0.0000

> <Gold.PLP.ligand.torsion>
0.7456

> <Gold.PLP.Chemscore.Hbond>
1.5680

> <Gold.PLP.Chemscore.CHOScore>
0.0000

> <Gold.PLP.Chemscore.Metal>
0.0000

> <Gold.Chemscore.Hbonds>
donor molecule, donor type, donor heavy atom, donor atom, acceptor molecule, acceptor atom, score
      L1  H     8    31       P1  8028  0.78
      L1  H    11    32       P1  8028  0.52

> <Gold.PLP.Chemscore.Internal.Correction>
0.0880

> <Gold.Rescore>
     Score         DG    S(hbond)    S(metal)    S(lipo)     H(rot)  DE(clash)    DE(int)     intcor
     16.68     -19.01       1.88        0.00      97.87       1.64       0.04       2.29       ----

> <Gold.Chemscore.Fitness>
16.6829

> <Gold.Chemscore.DG>
-19.0082

> <Gold.Chemscore.ZeroCoef>
-5.4800

> <Gold.Chemscore.Hbond>
1.8777

> <Gold.Chemscore.Metal>
0.0000

> <Gold.Chemscore.Lipo>
97.8728

> <Gold.Chemscore.Internal_Hbond>
0.0000

> <Gold.Chemscore.DEClash>
0.0391

> <Gold.Chemscore.DEInternal>
2.2862

> <Gold.Chemscore.Rot>
1.6385

> <Gold.Chemscore.Internal.Correction>
   9.000000E+99

> <Gold.Chemscore.Hbonds>
donor molecule, donor type, donor heavy atom, donor atom, acceptor molecule, acceptor atom, score
      L1  H     8    31       P1  8028  0.78
      L1  H    11    32       P1  8028  0.51

> <Gold.Chemscore.Hbond.Weighted>
-6.2716

> <Gold.Chemscore.Metal.Weighted>
-0.0000

> <Gold.Chemscore.Lipo.Weighted>
-11.4511

> <Gold.Chemscore.Internal_Hbond.Weighted>
0.0000

> <Gold.Chemscore.DEClash.Weighted>
0.0391

> <Gold.Chemscore.DEInternal.Weighted>
2.2862

> <Gold.Chemscore.Rot.Weighted>
4.1945

> <Gold.Chemscore.Internal.Correction.Weighted>
   9.000000E+99

> <Gold.Protein.RotatedTorsions>
[ 6907 6896 6895 6894 ] final  167.40 input  -60.11 | X-H torsion
[ 7974 7965 7964 7962 ] final  105.78 input  175.53 | X-H torsion
[ 8008 7997 7996 7995 ] final -170.58 input   59.86 | X-H torsion
[ 10167 10162 10161 10158 ] final -108.71 input  -65.29 | X-H torsion
[ 10718 10713 10712 10709 ] final  -93.88 input   66.30 | X-H torsion
[ 10763 10752 10751 10750 ] final  123.27 input  -60.55 | X-H torsion
[ 11005 11000 10999 10996 ] final   90.38 input  -57.11 | X-H torsion

> <Gold.Protein.ActiveResidues>
 VAL166  LYS551  ARG553  GLY616  TRP617  ASP618  TYR619  PRO620  LYS621  CYS622 
 ASP623  PHE694  ASN695  SER759  ASP760  ASP761  ALA762  ILE779  LEU786  VAL792 
 PHE793  MET794  SER795  GLU796  ALA797  LYS798  CYS799  TRP800  GLU811  SER814 

> <Gold.Protein.RotatedAtoms>
  151.8640  133.3462  159.3712 H   0  0  0  0  0  0  0  0  0  0  0  0  # atno 6907 bound_to 6896
  150.7171  134.5179  159.5648 H   0  0  0  0  0  0  0  0  0  0  0  0  # atno 6908 bound_to 6896
  152.2698  134.7946  160.0467 H   0  0  0  0  0  0  0  0  0  0  0  0  # atno 6909 bound_to 6896
  145.3152  139.2528  143.3741 H   0  0  0  0  0  0  0  0  0  0  0  0  # atno 7974 bound_to 7965
  155.9203  140.1073  157.1212 H   0  0  0  0  0  0  0  0  0  0  0  0  # atno 8008 bound_to 7997
  154.4053  140.1257  156.4736 H   0  0  0  0  0  0  0  0  0  0  0  0  # atno 8009 bound_to 7997
  155.7204  140.3470  155.5016 H   0  0  0  0  0  0  0  0  0  0  0  0  # atno 8010 bound_to 7997
  140.1632  143.4103  152.1410 H   0  0  0  0  0  0  0  0  0  0  0  0  # atno 10167 bound_to 10162
  156.0019  130.5045  150.5842 H   0  0  0  0  0  0  0  0  0  0  0  0  # atno 10718 bound_to 10713
  153.6429  135.3376  155.3077 H   0  0  0  0  0  0  0  0  0  0  0  0  # atno 10763 bound_to 10752
  154.8555  135.4322  154.1985 H   0  0  0  0  0  0  0  0  0  0  0  0  # atno 10764 bound_to 10752
  153.2909  135.7017  153.7368 H   0  0  0  0  0  0  0  0  0  0  0  0  # atno 10765 bound_to 10752
  139.8857  134.8610  156.3276 H   0  0  0  0  0  0  0  0  0  0  0  0  # atno 11005 bound_to 11000
  146.3103  140.3697  142.8673 LP  0  0  0  0  0  0  0  0  0  0  0  0  # atno 17320 bound_to 7965
  144.8983  140.7611  143.5883 LP  0  0  0  0  0  0  0  0  0  0  0  0  # atno 17321 bound_to 7965
  139.5371  144.7221  151.4855 LP  0  0  0  0  0  0  0  0  0  0  0  0  # atno 17342 bound_to 10162
  140.6630  143.8459  150.6909 LP  0  0  0  0  0  0  0  0  0  0  0  0  # atno 17343 bound_to 10162
  157.3718  131.0767  151.1551 LP  0  0  0  0  0  0  0  0  0  0  0  0  # atno 17370 bound_to 10713
  157.2303  130.6522  149.5847 LP  0  0  0  0  0  0  0  0  0  0  0  0  # atno 17371 bound_to 10713
  140.9744  133.7307  156.0581 LP  0  0  0  0  0  0  0  0  0  0  0  0  # atno 17394 bound_to 11000
  140.7829  134.3704  157.5483 LP  0  0  0  0  0  0  0  0  0  0  0  0  # atno 17395 bound_to 11000

$$$$
