AV-unprocessed.smi:1686|AV-procd|sdf|6765|dock7
  -GOLD-   22720 7523D 1   1.00000     0.00000
 Structure written by MMmdl.
 41 43  0  0  0  0  0  0  0  0  1 V2000
  150.2787  135.3492  156.5873 C   0  0  0  0  0  0  0  0  0  0  0  0
  150.3116  133.8645  156.3647 C   0  0  0  0  0  0  0  0  0  0  0  0
  150.7238  133.0734  157.3467 N   0  0  0  0  0  0  0  0  0  0  0  0
  150.6583  131.7653  156.8534 O   0  0  0  0  0  0  0  0  0  0  0  0
  150.2010  131.8436  155.5827 C   0  0  0  0  0  0  0  0  0  0  0  0
  149.9772  130.4523  154.5979 Cl  0  0  0  0  0  0  0  0  0  0  0  0
  149.9524  133.1291  155.1967 C   0  0  0  0  0  0  0  0  0  0  0  0
  149.4384  133.6494  153.8757 C   0  0  0  0  0  0  0  0  0  0  0  0
  147.9157  133.5098  153.7606 C   0  0  0  0  0  0  0  0  0  0  0  0
  147.2988  132.6731  154.4223 O   0  0  0  0  0  0  0  0  0  0  0  0
  147.3244  134.3466  152.8937 N   0  0  0  0  0  0  0  0  0  0  0  0
  145.8959  134.4063  152.5859 C   0  0  1  0  0  0  0  0  0  0  0  0
  145.3628  135.7870  152.9980 C   0  0  0  0  0  0  0  0  0  0  0  0
  145.6741  134.1094  151.0826 C   0  0  1  0  0  0  0  0  0  0  0  0
  146.3546  132.8215  150.5619 C   0  0  0  0  0  0  0  0  0  0  0  0
  145.2204  132.1127  149.7991 C   0  0  1  0  0  0  0  0  0  0  0  0
  144.2316  131.5138  150.8158 C   0  0  0  0  0  0  0  0  0  0  0  0
  143.5121  132.7609  151.3611 C   0  0  0  0  0  0  0  0  0  0  0  0
  144.2107  133.9146  150.6123 C   0  0  2  0  0  0  0  0  0  0  0  0
  144.4248  133.2859  149.2388 C   0  0  0  0  0  0  0  0  0  0  0  0
  150.0762  135.8875  155.6615 H   0  0  0  0  0  0  0  0  0  0  0  0
  151.2325  135.7100  156.9729 H   0  0  0  0  0  0  0  0  0  0  0  0
  149.5044  135.6196  157.3054 H   0  0  0  0  0  0  0  0  0  0  0  0
  149.6993  134.6996  153.7399 H   0  0  0  0  0  0  0  0  0  0  0  0
  149.8970  133.1160  153.0425 H   0  0  0  0  0  0  0  0  0  0  0  0
  147.9163  134.9969  152.3974 H   0  0  0  0  0  0  0  0  0  0  0  0
  145.3678  133.6603  153.1797 H   0  0  0  0  0  0  0  0  0  0  0  0
  144.2852  135.8568  152.8500 H   0  0  0  0  0  0  0  0  0  0  0  0
  145.8315  136.5838  152.4195 H   0  0  0  0  0  0  0  0  0  0  0  0
  145.5568  135.9821  154.0533 H   0  0  0  0  0  0  0  0  0  0  0  0
  146.0821  134.9517  150.5200 H   0  0  0  0  0  0  0  0  0  0  0  0
  147.1823  133.0692  149.8965 H   0  0  0  0  0  0  0  0  0  0  0  0
  146.7508  132.1922  151.3596 H   0  0  0  0  0  0  0  0  0  0  0  0
  145.5730  131.3951  149.0576 H   0  0  0  0  0  0  0  0  0  0  0  0
  143.5228  130.8458  150.3246 H   0  0  0  0  0  0  0  0  0  0  0  0
  144.7355  130.9479  151.6002 H   0  0  0  0  0  0  0  0  0  0  0  0
  142.4534  132.7272  151.1009 H   0  0  0  0  0  0  0  0  0  0  0  0
  143.5729  132.8457  152.4452 H   0  0  0  0  0  0  0  0  0  0  0  0
  143.6307  134.8378  150.5957 H   0  0  0  0  0  0  0  0  0  0  0  0
  145.0012  133.9136  148.5568 H   0  0  0  0  0  0  0  0  0  0  0  0
  143.4969  132.9847  148.7490 H   0  0  0  0  0  0  0  0  0  0  0  0
  1  2  1  0  0  0  0
  1 21  1  0  0  0  0
  1 22  1  0  0  0  0
  1 23  1  0  0  0  0
  2  7  1  0  0  0  0
  2  3  2  0  0  0  0
  3  4  1  0  0  0  0
  4  5  1  0  0  0  0
  5  6  1  0  0  0  0
  5  7  2  0  0  0  0
  7  8  1  0  0  0  0
  8  9  1  0  0  0  0
  8 24  1  0  0  0  0
  8 25  1  0  0  0  0
  9 10  2  0  0  0  0
  9 11  1  0  0  0  0
 11 12  1  0  0  0  0
 11 26  1  0  0  0  0
 12 13  1  0  0  0  0
 12 14  1  0  0  0  0
 12 27  1  0  0  0  0
 13 28  1  0  0  0  0
 13 29  1  0  0  0  0
 13 30  1  0  0  0  0
 14 19  1  0  0  0  0
 14 15  1  0  0  0  0
 14 31  1  0  0  0  0
 15 16  1  0  0  0  0
 15 32  1  0  0  0  0
 15 33  1  0  0  0  0
 16 20  1  0  0  0  0
 16 17  1  0  0  0  0
 16 34  1  0  0  0  0
 17 18  1  0  0  0  0
 17 35  1  0  0  0  0
 17 36  1  0  0  0  0
 18 19  1  0  0  0  0
 18 37  1  0  0  0  0
 18 38  1  0  0  0  0
 19 20  1  0  0  0  0
 19 39  1  0  0  0  0
 20 40  1  0  0  0  0
 20 41  1  0  0  0  0
M  END
> <s_m_source_file>
AV-unprocessed.smi

> <i_m_source_file_index>
1686

> <i_lp_mmshare_version>
43012

> <i_f3d_flags>
0

> <s_epik_input>
W0NIM11jMW5vYyhDbCljMVtDSDJdQyg9TylbTkhdW0NASF0oW0NIM10pW0NASF0oW0NIMl1bQ0BIXTIzKVtDQEhdKFtDSDJdMylbQ0gyXVtDSDJdMg==

> <s_epik_cmdline>
J2VwaWtfcHl0aG9uJywgJy1waCcsICc3LjAnLCAnLXRuJywgJzgnLCAnLW1hJywgJzIwMCcsICctbWV0YWxfYmluZGluZycsICctaW1hZScsICc8aW5maWxlLm1hZT4nLCAnLW9tYWUnLCAnPG91dGZpbGUubWFlPic=

> <r_lp_tautomer_probability>
1

> <r_epik_Ionization_Penalty>
2.01576e-08

> <r_epik_Ionization_Penalty_Charging>
0

> <r_epik_Ionization_Penalty_Neutral>
2.01576e-08

> <r_epik_State_Penalty>
-0

> <r_epik_Charging_Adjusted_Penalty>
0

> <i_epik_Tot_Q>
0

> <i_epik_Tot_abs_Q>
0

> <r_epik_Metal_State_Penalty>
-0

> <b_epik_Metal_Only>
0

> <s_lp_Force_Field>
OPLS_2005

> <r_lp_Energy>
47.064

> <b_lp_Chiralities_Consistent>
1

> <s_lp_Variant>
AV-unprocessed.smi:1686-8

> <Gold.Version>
5.8.1

> <Gold.Id.Protein>
6NUR|6NUR_protein|mol2

> <Gold.PLP.Fitness>
41.6979

> <Gold.PLP.PLP>
-37.0798

> <Gold.PLP.part.hbond>
-2.0000

> <Gold.PLP.part.metal>
0.0000

> <Gold.PLP.part.buried>
-3.1741

> <Gold.PLP.part.nonpolar>
-32.3637

> <Gold.PLP.part.repulsive>
0.0362

> <Gold.PLP.ligand.clash>
0.0000

> <Gold.PLP.ligand.torsion>
0.6952

> <Gold.PLP.Chemscore.Hbond>
2.0000

> <Gold.PLP.Chemscore.CHOScore>
0.0000

> <Gold.PLP.Chemscore.Metal>
0.0000

> <Gold.Chemscore.Hbonds>
donor molecule, donor type, donor heavy atom, donor atom, acceptor molecule, acceptor atom, score
      L1  H    11    26       P1  7948  1.00
      P1  H  6896  6908       L1     3  1.00

> <Gold.PLP.Chemscore.Internal.Correction>
0.0084

> <Gold.Rescore>
     Score         DG    S(hbond)    S(metal)    S(lipo)     H(rot)  DE(clash)    DE(int)     intcor
     18.61     -19.39       1.94        0.00      95.52       1.46       0.29       0.48       ----

> <Gold.Chemscore.Fitness>
18.6100

> <Gold.Chemscore.DG>
-19.3888

> <Gold.Chemscore.ZeroCoef>
-5.4800

> <Gold.Chemscore.Hbond>
1.9409

> <Gold.Chemscore.Metal>
0.0000

> <Gold.Chemscore.Lipo>
95.5219

> <Gold.Chemscore.Internal_Hbond>
0.0000

> <Gold.Chemscore.DEClash>
0.2946

> <Gold.Chemscore.DEInternal>
0.4842

> <Gold.Chemscore.Rot>
1.4648

> <Gold.Chemscore.Internal.Correction>
   9.000000E+99

> <Gold.Chemscore.Hbonds>
donor molecule, donor type, donor heavy atom, donor atom, acceptor molecule, acceptor atom, score
      L1  H    11    26       P1  7948  0.88
      P1  H  6896  6908       L1     3  0.94

> <Gold.Chemscore.Hbond.Weighted>
-6.4827

> <Gold.Chemscore.Metal.Weighted>
-0.0000

> <Gold.Chemscore.Lipo.Weighted>
-11.1761

> <Gold.Chemscore.Internal_Hbond.Weighted>
0.0000

> <Gold.Chemscore.DEClash.Weighted>
0.2946

> <Gold.Chemscore.DEInternal.Weighted>
0.4842

> <Gold.Chemscore.Rot.Weighted>
3.7500

> <Gold.Chemscore.Internal.Correction.Weighted>
   9.000000E+99

> <Gold.Protein.RotatedTorsions>
[ 6907 6896 6895 6894 ] final   93.35 input  -60.11 | X-H torsion
[ 7974 7965 7964 7962 ] final   48.31 input  175.53 | X-H torsion
[ 8008 7997 7996 7995 ] final -146.43 input   59.86 | X-H torsion
[ 10167 10162 10161 10158 ] final  -59.94 input  -65.29 | X-H torsion
[ 10718 10713 10712 10709 ] final   50.23 input   66.30 | X-H torsion
[ 10763 10752 10751 10750 ] final   68.56 input  -60.55 | X-H torsion
[ 11005 11000 10999 10996 ] final -114.00 input  -57.11 | X-H torsion

> <Gold.Protein.ActiveResidues>
 VAL166  LYS551  ARG553  GLY616  TRP617  ASP618  TYR619  PRO620  LYS621  CYS622 
 ASP623  PHE694  ASN695  SER759  ASP760  ASP761  ALA762  ILE779  LEU786  VAL792 
 PHE793  MET794  SER795  GLU796  ALA797  LYS798  CYS799  TRP800  GLU811  SER814 

> <Gold.Protein.RotatedAtoms>
  152.5452  134.1360  159.8458 H   0  0  0  0  0  0  0  0  0  0  0  0  # atno 6907 bound_to 6896
  151.1401  133.4970  159.2604 H   0  0  0  0  0  0  0  0  0  0  0  0  # atno 6908 bound_to 6896
  151.1582  135.0271  159.8753 H   0  0  0  0  0  0  0  0  0  0  0  0  # atno 6909 bound_to 6896
  146.0216  139.4658  142.9893 H   0  0  0  0  0  0  0  0  0  0  0  0  # atno 7974 bound_to 7965
  155.5593  140.0624  157.2832 H   0  0  0  0  0  0  0  0  0  0  0  0  # atno 8008 bound_to 7997
  154.4395  140.1888  156.0811 H   0  0  0  0  0  0  0  0  0  0  0  0  # atno 8009 bound_to 7997
  156.0458  140.3290  155.7299 H   0  0  0  0  0  0  0  0  0  0  0  0  # atno 8010 bound_to 7997
  140.6103  143.2385  151.5724 H   0  0  0  0  0  0  0  0  0  0  0  0  # atno 10167 bound_to 10162
  157.4864  130.8348  149.8152 H   0  0  0  0  0  0  0  0  0  0  0  0  # atno 10718 bound_to 10713
  153.0242  135.5243  154.7154 H   0  0  0  0  0  0  0  0  0  0  0  0  # atno 10763 bound_to 10752
  154.6224  135.2890  155.0313 H   0  0  0  0  0  0  0  0  0  0  0  0  # atno 10764 bound_to 10752
  154.1294  135.6595  153.4971 H   0  0  0  0  0  0  0  0  0  0  0  0  # atno 10765 bound_to 10752
  141.0579  133.9582  157.2720 H   0  0  0  0  0  0  0  0  0  0  0  0  # atno 11005 bound_to 11000
  145.7183  141.0083  143.1416 LP  0  0  0  0  0  0  0  0  0  0  0  0  # atno 17320 bound_to 7965
  144.6992  139.8840  143.7449 LP  0  0  0  0  0  0  0  0  0  0  0  0  # atno 17321 bound_to 7965
  139.5356  144.2790  152.1244 LP  0  0  0  0  0  0  0  0  0  0  0  0  # atno 17342 bound_to 10162
  140.1988  144.4679  150.6442 LP  0  0  0  0  0  0  0  0  0  0  0  0  # atno 17343 bound_to 10162
  156.0149  130.3817  150.2143 LP  0  0  0  0  0  0  0  0  0  0  0  0  # atno 17370 bound_to 10713
  157.0330  131.0013  151.3306 LP  0  0  0  0  0  0  0  0  0  0  0  0  # atno 17371 bound_to 10713
  139.9406  135.0191  156.8697 LP  0  0  0  0  0  0  0  0  0  0  0  0  # atno 17394 bound_to 11000
  140.5927  134.0247  155.7506 LP  0  0  0  0  0  0  0  0  0  0  0  0  # atno 17395 bound_to 11000

$$$$
