#       Name:                AV-unprocessed.smi:2338
#       Creating user name   scv26
#       Creation time:       Fri Mar 27 12:55:45 2020


#       File generated by GOLD software.
#

@<TRIPOS>MOLECULE
AV-unprocessed.smi:2338
    37    38     1
SMALL
NO_CHARGES


@<TRIPOS>ATOM
      1 ****        -0.9782  -2.4077  -2.1904 N.am           1 S1                 0.0000
      2 ****        -1.1842  -1.9474  -0.9539 C.2            1 S1                 0.0000
      3 ****        -1.0484  -2.6597   0.0397 O.2            1 S1                 0.0000
      4 ****        -1.6202  -0.4770  -0.8183 C.3            1 S1                 0.0000
      5 ****        -3.1597  -0.4321  -0.6797 C.3            1 S1                 0.0000
      6 ****        -3.6079   0.9122  -0.5468 O.3            1 S1                 0.0000
      7 ****        -3.0830   1.5270   0.6228 C.3            1 S1                 0.0000
      8 ****        -1.5517   1.5792   0.5199 C.3            1 S1                 0.0000
      9 ****        -1.0085   0.2406   0.3097 N.3            1 S1                 0.0000
     10 ****         0.3988   0.2446   0.3845 C.ar           1 S1                 0.0000
     11 ****         1.0957   0.4697  -0.7566 N.ar           1 S1                 0.0000
     12 ****         2.4442   0.4775  -0.7007 C.ar           1 S1                 0.0000
     13 ****         3.1735   0.2731   0.4896 C.ar           1 S1                 0.0000
     14 ****         4.6933   0.2770   0.4990 C.3            1 S1                 0.0000
     15 ****         5.1471   0.8723   1.6022 F              1 S1                 0.0000
     16 ****         5.1354  -0.9796   0.4751 F              1 S1                 0.0000
     17 ****         5.1824   0.9247  -0.5588 F              1 S1                 0.0000
     18 ****         2.4470   0.0439   1.6758 C.ar           1 S1                 0.0000
     19 ****         1.0395   0.0321   1.6288 C.ar           1 S1                 0.0000
     20 ****         0.1388  -0.2580   3.0760 Cl             1 S1                 0.0000
     21 ****        -0.6833  -3.3638  -2.3259 H              1 S1                 0.0000
     22 ****        -1.1096  -1.7977  -2.9843 H              1 S1                 0.0000
     23 ****        -1.3539   0.0498  -1.7369 H              1 S1                 0.0000
     24 ****        -3.6339  -0.8642  -1.5616 H              1 S1                 0.0000
     25 ****        -3.4983  -1.0169   0.1781 H              1 S1                 0.0000
     26 ****        -3.4897   2.5348   0.7081 H              1 S1                 0.0000
     27 ****        -3.3974   0.9789   1.5126 H              1 S1                 0.0000
     28 ****        -1.2577   2.2266  -0.3080 H              1 S1                 0.0000
     29 ****        -1.1409   2.0185   1.4303 H              1 S1                 0.0000
     30 ****         2.9505   0.6482  -1.6393 H              1 S1                 0.0000
     31 ****         2.9615  -0.1266   2.6102 H              1 S1                 0.0000
     32 ****        -0.7756  -3.6161  -0.0643 LP             1 S1                 0.0000
     33 ****        -1.2109  -2.2824   0.9514 LP             1 S1                 0.0000
     34 ****        -4.6066   0.9175  -0.4957 LP             1 S1                 0.0000
     35 ****        -3.3124   1.4332  -1.3476 LP             1 S1                 0.0000
     36 ****        -1.2908  -0.3385   1.0745 LP             1 S1                 0.0000
     37 ****         0.6201   0.6268  -1.6222 LP             1 S1                 0.0000
@<TRIPOS>BOND
    1    1    2 am    
    2    1   21 1     
    3    1   22 1     
    4    2    3 2     
    5    2    4 1     
    6    4    9 1     
    7    4    5 1     
    8    4   23 1     
    9    5    6 1     
   10    5   24 1     
   11    5   25 1     
   12    6    7 1     
   13    7    8 1     
   14    7   26 1     
   15    7   27 1     
   16    8    9 1     
   17    8   28 1     
   18    8   29 1     
   19    9   10 1     
   20   10   19 ar    
   21   10   11 ar    
   22   11   12 ar    
   23   12   13 ar    
   24   12   30 1     
   25   13   14 1     
   26   13   18 ar    
   27   14   15 1     
   28   14   16 1     
   29   14   17 1     
   30   18   19 ar    
   31   18   31 1     
   32   19   20 1     
   33    3   32 1     
   34    3   33 1     
   35    6   34 1     
   36    6   35 1     
   37    9   36 1     
   38   11   37 1     
@<TRIPOS>SUBSTRUCTURE
      1 S1             1
@<TRIPOS>SET
LONE_PAIRS      STATIC     ATOMS    <user>   **** ""
6 32 33 34 35 36 37
DONOR_HYDROGENS      STATIC     ATOMS    <user>   **** ""
2 21 22
ATOM$BLUE        STATIC     ATOMS    COLORGROUP SYSTEM
6 32 33 34 35 36 37
ATOM$RED        STATIC     ATOMS    COLORGROUP SYSTEM
2 21 22
