AV-unprocessed.smi:3327|AV-procd|sdf|12789|dock4
  -GOLD-   2272019143D 1   1.00000     0.00000
 Structure written by MMmdl.
 40 41  0  0  0  0  0  0  0  0  1 V2000
  151.4322  145.5934  160.1073 C   0  0  0  0  0  0  0  0  0  0  0  0
  151.6915  144.0809  160.0637 C   0  0  2  0  0  0  0  0  0  0  0  0
  152.4239  143.5951  161.3329 C   0  0  0  0  0  0  0  0  0  0  0  0
  152.7978  142.1035  161.2463 C   0  0  0  0  0  0  0  0  0  0  0  0
  153.5321  141.7940  159.9299 C   0  0  0  0  0  0  0  0  0  0  0  0
  152.6843  142.2187  158.8072 N   0  0  0  0  0  0  0  0  0  0  0  0
  152.0382  141.3926  157.9476 C   0  0  0  0  0  0  0  0  0  0  0  0
  151.2462  141.8191  157.1047 O   0  0  0  0  0  0  0  0  0  0  0  0
  152.2789  139.8720  158.0458 C   0  0  0  0  0  0  0  0  0  0  0  0
  152.9136  139.2561  156.8683 N   0  0  0  0  0  0  0  0  0  0  0  0
  152.4246  139.7911  155.6009 C   0  0  0  0  0  0  0  0  0  0  0  0
  151.3407  138.8705  155.0148 C   0  0  0  0  0  0  0  0  0  0  0  0
  150.1839  139.6052  154.5342 N   0  0  0  0  0  0  0  0  0  0  0  0
  149.1037  139.1315  153.8195 C   0  0  0  0  0  0  0  0  0  0  0  0
  148.2687  140.1887  153.5969 C   0  0  0  0  0  0  0  0  0  0  0  0
  148.9325  141.2810  154.2221 C   0  0  0  0  0  0  0  0  0  0  0  0
  150.0772  140.9283  154.7847 N   0  0  0  0  0  0  0  0  0  0  0  0
  152.4858  143.6748  158.8041 C   0  0  0  0  0  0  0  0  0  0  0  0
  152.3661  146.1558  160.1366 H   0  0  0  0  0  0  0  0  0  0  0  0
  150.8507  145.8668  160.9883 H   0  0  0  0  0  0  0  0  0  0  0  0
  150.8739  145.9207  159.2299 H   0  0  0  0  0  0  0  0  0  0  0  0
  150.7217  143.5825  160.0233 H   0  0  0  0  0  0  0  0  0  0  0  0
  153.3348  144.1795  161.4697 H   0  0  0  0  0  0  0  0  0  0  0  0
  151.8091  143.7730  162.2157 H   0  0  0  0  0  0  0  0  0  0  0  0
  153.4192  141.8254  162.0981 H   0  0  0  0  0  0  0  0  0  0  0  0
  151.8944  141.4954  161.3102 H   0  0  0  0  0  0  0  0  0  0  0  0
  154.4763  142.3392  159.8923 H   0  0  0  0  0  0  0  0  0  0  0  0
  153.8043  140.7407  159.9083 H   0  0  0  0  0  0  0  0  0  0  0  0
  152.8895  139.6480  158.9212 H   0  0  0  0  0  0  0  0  0  0  0  0
  151.3130  139.3901  158.1998 H   0  0  0  0  0  0  0  0  0  0  0  0
  152.8263  138.2499  156.8820 H   0  0  0  0  0  0  0  0  0  0  0  0
  152.0011  140.7845  155.7454 H   0  0  0  0  0  0  0  0  0  0  0  0
  153.2498  139.8976  154.8952 H   0  0  0  0  0  0  0  0  0  0  0  0
  151.7446  138.2712  154.1976 H   0  0  0  0  0  0  0  0  0  0  0  0
  151.0029  138.1669  155.7770 H   0  0  0  0  0  0  0  0  0  0  0  0
  149.0212  138.0940  153.5314 H   0  0  0  0  0  0  0  0  0  0  0  0
  147.3276  140.1831  153.0677 H   0  0  0  0  0  0  0  0  0  0  0  0
  148.6176  142.3121  154.2851 H   0  0  0  0  0  0  0  0  0  0  0  0
  151.9719  144.0257  157.9080 H   0  0  0  0  0  0  0  0  0  0  0  0
  153.4586  144.1693  158.7952 H   0  0  0  0  0  0  0  0  0  0  0  0
  1  2  1  0  0  0  0
  1 19  1  0  0  0  0
  1 20  1  0  0  0  0
  1 21  1  0  0  0  0
  2 18  1  0  0  0  0
  2  3  1  0  0  0  0
  2 22  1  0  0  0  0
  3  4  1  0  0  0  0
  3 23  1  0  0  0  0
  3 24  1  0  0  0  0
  4  5  1  0  0  0  0
  4 25  1  0  0  0  0
  4 26  1  0  0  0  0
  5  6  1  0  0  0  0
  5 27  1  0  0  0  0
  5 28  1  0  0  0  0
  6  7  1  0  0  0  0
  6 18  1  0  0  0  0
  7  8  2  0  0  0  0
  7  9  1  0  0  0  0
  9 10  1  0  0  0  0
  9 29  1  0  0  0  0
  9 30  1  0  0  0  0
 10 11  1  0  0  0  0
 10 31  1  0  0  0  0
 11 12  1  0  0  0  0
 11 32  1  0  0  0  0
 11 33  1  0  0  0  0
 12 13  1  0  0  0  0
 12 34  1  0  0  0  0
 12 35  1  0  0  0  0
 13 17  1  0  0  0  0
 13 14  1  0  0  0  0
 14 15  2  0  0  0  0
 14 36  1  0  0  0  0
 15 16  1  0  0  0  0
 15 37  1  0  0  0  0
 16 17  2  0  0  0  0
 16 38  1  0  0  0  0
 18 39  1  0  0  0  0
 18 40  1  0  0  0  0
M  END
> <s_m_source_file>
AV-unprocessed.smi

> <i_m_source_file_index>
3327

> <i_lp_mmshare_version>
43012

> <i_f3d_flags>
0

> <s_epik_input>
W0NIM11bQ0BASF0xW0NIMl1bQ0gyXVtDSDJdTihbQ0gyXTEpQyg9TylbQ0gyXVtOSF1bQ0gyXVtDSDJdbjJbY0hdW2NIXVtjSF1uMg==

> <s_epik_cmdline>
J2VwaWtfcHl0aG9uJywgJy1waCcsICc3LjAnLCAnLXRuJywgJzgnLCAnLW1hJywgJzIwMCcsICctbWV0YWxfYmluZGluZycsICctaW1hZScsICc8aW5maWxlLm1hZT4nLCAnLW9tYWUnLCAnPG91dGZpbGUubWFlPic=

> <r_lp_tautomer_probability>
1

> <r_epik_Ionization_Penalty>
0.752964

> <r_epik_Ionization_Penalty_Charging>
0

> <r_epik_Ionization_Penalty_Neutral>
0.752964

> <r_epik_State_Penalty>
0.778238

> <r_epik_Charging_Adjusted_Penalty>
0.778238

> <i_epik_Tot_Q>
0

> <i_epik_Tot_abs_Q>
0

> <r_epik_Metal_State_Penalty>
0.776974

> <b_epik_Metal_Only>
0

> <s_lp_Force_Field>
OPLS_2005

> <r_lp_Energy>
27.1089

> <b_lp_Chiralities_Consistent>
1

> <s_lp_Variant>
AV-unprocessed.smi:3327-3

> <Gold.Version>
5.8.1

> <Gold.Id.Protein>
6NUR|6NUR_protein|mol2

> <Gold.PLP.Fitness>
52.0644

> <Gold.PLP.PLP>
-46.0983

> <Gold.PLP.part.hbond>
-1.9829

> <Gold.PLP.part.metal>
0.0000

> <Gold.PLP.part.buried>
-1.6059

> <Gold.PLP.part.nonpolar>
-42.3283

> <Gold.PLP.part.repulsive>
0.1756

> <Gold.PLP.ligand.clash>
0.0000

> <Gold.PLP.ligand.torsion>
0.7752

> <Gold.PLP.Chemscore.Hbond>
1.0000

> <Gold.PLP.Chemscore.CHOScore>
1.4851

> <Gold.PLP.Chemscore.Metal>
0.0000

> <Gold.Chemscore.Hbonds>
donor molecule, donor type, donor heavy atom, donor atom, acceptor molecule, acceptor atom, score
      P1  H  7997  8010       L1    10  0.90
      L1  C    14    36       P1  7948  1.00
      L1  C    16    38       P1  8028  0.42

> <Gold.PLP.Chemscore.Internal.Correction>
0.0612

> <Gold.Rescore>
     Score         DG    S(hbond)    S(metal)    S(lipo)     H(rot)  DE(clash)    DE(int)     intcor
     12.56     -14.73       0.23        0.00     110.39       1.73       0.09       2.08       ----

> <Gold.Chemscore.Fitness>
12.5554

> <Gold.Chemscore.DG>
-14.7251

> <Gold.Chemscore.ZeroCoef>
-5.4800

> <Gold.Chemscore.Hbond>
0.2269

> <Gold.Chemscore.Metal>
0.0000

> <Gold.Chemscore.Lipo>
110.3869

> <Gold.Chemscore.Internal_Hbond>
0.0000

> <Gold.Chemscore.DEClash>
0.0870

> <Gold.Chemscore.DEInternal>
2.0827

> <Gold.Chemscore.Rot>
1.7296

> <Gold.Chemscore.Internal.Correction>
   9.000000E+99

> <Gold.Chemscore.Hbonds>
donor molecule, donor type, donor heavy atom, donor atom, acceptor molecule, acceptor atom, score
      P1  H  7997  8010       L1    10  0.05

> <Gold.Chemscore.Hbond.Weighted>
-0.7577

> <Gold.Chemscore.Metal.Weighted>
-0.0000

> <Gold.Chemscore.Lipo.Weighted>
-12.9153

> <Gold.Chemscore.Internal_Hbond.Weighted>
0.0000

> <Gold.Chemscore.DEClash.Weighted>
0.0870

> <Gold.Chemscore.DEInternal.Weighted>
2.0827

> <Gold.Chemscore.Rot.Weighted>
4.4278

> <Gold.Chemscore.Internal.Correction.Weighted>
   9.000000E+99

> <Gold.Protein.RotatedTorsions>
[ 6907 6896 6895 6894 ] final  120.80 input  -60.11 | X-H torsion
[ 7974 7965 7964 7962 ] final  -47.85 input  175.53 | X-H torsion
[ 8008 7997 7996 7995 ] final   42.25 input   59.86 | X-H torsion
[ 10167 10162 10161 10158 ] final  -51.94 input  -65.29 | X-H torsion
[ 10718 10713 10712 10709 ] final  -68.07 input   66.30 | X-H torsion
[ 10763 10752 10751 10750 ] final   41.69 input  -60.55 | X-H torsion
[ 11005 11000 10999 10996 ] final -156.82 input  -57.11 | X-H torsion

> <Gold.Protein.ActiveResidues>
 VAL166  LYS551  ARG553  GLY616  TRP617  ASP618  TYR619  PRO620  LYS621  CYS622 
 ASP623  PHE694  ASN695  SER759  ASP760  ASP761  ALA762  ILE779  LEU786  VAL792 
 PHE793  MET794  SER795  GLU796  ALA797  LYS798  CYS799  TRP800  GLU811  SER814 

> <Gold.Protein.RotatedAtoms>
  152.4370  133.7379  159.6624 H   0  0  0  0  0  0  0  0  0  0  0  0  # atno 6907 bound_to 6896
  150.8255  133.8168  159.3126 H   0  0  0  0  0  0  0  0  0  0  0  0  # atno 6908 bound_to 6896
  151.5837  135.1059  160.0075 H   0  0  0  0  0  0  0  0  0  0  0  0  # atno 6909 bound_to 6896
  145.9573  140.7514  142.9475 H   0  0  0  0  0  0  0  0  0  0  0  0  # atno 7974 bound_to 7965
  155.2831  140.3374  155.4257 H   0  0  0  0  0  0  0  0  0  0  0  0  # atno 8008 bound_to 7997
  156.2080  140.1759  156.7797 H   0  0  0  0  0  0  0  0  0  0  0  0  # atno 8009 bound_to 7997
  154.5648  140.0681  156.8858 H   0  0  0  0  0  0  0  0  0  0  0  0  # atno 8010 bound_to 7997
  140.6563  143.2601  151.4577 H   0  0  0  0  0  0  0  0  0  0  0  0  # atno 10167 bound_to 10162
  156.0524  130.4288  150.1946 H   0  0  0  0  0  0  0  0  0  0  0  0  # atno 10718 bound_to 10713
  152.9901  135.6154  154.2829 H   0  0  0  0  0  0  0  0  0  0  0  0  # atno 10763 bound_to 10752
  154.2558  135.2784  155.2800 H   0  0  0  0  0  0  0  0  0  0  0  0  # atno 10764 bound_to 10752
  154.5249  135.5804  153.6768 H   0  0  0  0  0  0  0  0  0  0  0  0  # atno 10765 bound_to 10752
  140.6713  134.4244  157.5231 H   0  0  0  0  0  0  0  0  0  0  0  0  # atno 11005 bound_to 11000
  144.6807  140.2533  143.7329 LP  0  0  0  0  0  0  0  0  0  0  0  0  # atno 17320 bound_to 7965
  145.8088  139.1995  143.2005 LP  0  0  0  0  0  0  0  0  0  0  0  0  # atno 17321 bound_to 7965
  139.5786  144.1762  152.1937 LP  0  0  0  0  0  0  0  0  0  0  0  0  # atno 17342 bound_to 10162
  140.1080  144.5482  150.6944 LP  0  0  0  0  0  0  0  0  0  0  0  0  # atno 17343 bound_to 10162
  157.0027  130.9927  151.3386 LP  0  0  0  0  0  0  0  0  0  0  0  0  # atno 17370 bound_to 10713
  157.5464  130.8153  149.8091 LP  0  0  0  0  0  0  0  0  0  0  0  0  # atno 17371 bound_to 10713
  139.8980  134.8622  156.2018 LP  0  0  0  0  0  0  0  0  0  0  0  0  # atno 17394 bound_to 11000
  141.0389  133.6948  156.1563 LP  0  0  0  0  0  0  0  0  0  0  0  0  # atno 17395 bound_to 11000

$$$$
