AV-unprocessed.smi:1703|AV-procd|sdf|6867|dock1
  -GOLD-   22720 8 63D 1   1.00000     0.00000
 Structure written by MMmdl.
 49 51  0  0  0  0  0  0  0  0  2 V2000
  147.9172  133.2511  159.1957 C   0  0  0  0  0  0  0  0  0  0  0  0
  147.3971  134.6593  158.8604 C   0  0  2  0  0  0  0  0  0  0  0  0
  148.3779  135.4814  158.0005 C   0  0  0  0  0  0  0  0  0  0  0  0
  149.5357  135.9513  158.7595 N   0  0  0  0  0  0  0  0  0  0  0  0
  150.4566  136.7523  157.9519 C   0  0  0  0  0  0  0  0  0  0  0  0
  150.1688  138.2672  157.9170 C   0  0  2  0  0  0  0  0  0  0  0  0
  148.8483  138.4695  157.4531 O   0  0  0  0  0  0  0  0  0  0  0  0
  151.1558  139.0054  156.9926 C   0  0  0  0  0  0  0  0  0  0  0  0
  150.9134  140.4567  156.9419 N   0  0  0  0  0  0  0  0  0  0  0  0
  150.1940  141.1898  156.0441 C   0  0  0  0  0  0  0  0  0  0  0  0
  149.4606  140.6633  154.8514 C   0  0  0  0  0  0  0  0  0  0  0  0
  150.3064  140.0516  153.9001 O   0  0  0  0  0  0  0  0  0  0  0  0
  150.2721  142.4938  156.4355 N   0  3  0  0  0  0  0  0  0  0  0  0
  151.0485  142.5970  157.5896 C   0  0  0  0  0  0  0  0  0  0  0  0
  151.4075  143.7066  158.3486 C   0  0  0  0  0  0  0  0  0  0  0  0
  152.2217  143.4663  159.4746 C   0  0  0  0  0  0  0  0  0  0  0  0
  152.6471  142.1641  159.8078 C   0  0  0  0  0  0  0  0  0  0  0  0
  152.2745  141.0467  159.0319 C   0  0  0  0  0  0  0  0  0  0  0  0
  151.4674  141.2917  157.9205 C   0  0  0  0  0  0  0  0  0  0  0  0
  149.0657  136.7054  159.9147 C   0  0  0  0  0  0  0  0  0  0  0  0
  148.1350  135.8687  160.8109 C   0  0  1  0  0  0  0  0  0  0  0  0
  147.5705  136.6866  161.9771 C   0  0  0  0  0  0  0  0  0  0  0  0
  147.0386  135.3871  160.0360 O   0  0  0  0  0  0  0  0  0  0  0  0
  148.0833  132.6731  158.2865 H   0  0  0  0  0  0  0  0  0  0  0  0
  147.1976  132.7063  159.8068 H   0  0  0  0  0  0  0  0  0  0  0  0
  148.8622  133.2810  159.7377 H   0  0  0  0  0  0  0  0  0  0  0  0
  146.4778  134.5302  158.2886 H   0  0  0  0  0  0  0  0  0  0  0  0
  148.6905  134.8730  157.1533 H   0  0  0  0  0  0  0  0  0  0  0  0
  147.8468  136.3388  157.5842 H   0  0  0  0  0  0  0  0  0  0  0  0
  151.4740  136.5897  158.3109 H   0  0  0  0  0  0  0  0  0  0  0  0
  150.4462  136.3853  156.9245 H   0  0  0  0  0  0  0  0  0  0  0  0
  150.2495  138.6996  158.9129 H   0  0  0  0  0  0  0  0  0  0  0  0
  148.2616  138.4342  158.1928 H   0  0  0  0  0  0  0  0  0  0  0  0
  152.1749  138.8641  157.3540 H   0  0  0  0  0  0  0  0  0  0  0  0
  151.1374  138.5962  155.9825 H   0  0  0  0  0  0  0  0  0  0  0  0
  148.7181  139.9364  155.1808 H   0  0  0  0  0  0  0  0  0  0  0  0
  148.9241  141.4809  154.3697 H   0  0  0  0  0  0  0  0  0  0  0  0
  149.8494  140.0113  153.0737 H   0  0  0  0  0  0  0  0  0  0  0  0
  151.0842  144.7052  158.0935 H   0  0  0  0  0  0  0  0  0  0  0  0
  152.5275  144.2974  160.0937 H   0  0  0  0  0  0  0  0  0  0  0  0
  153.2733  142.0187  160.6761 H   0  0  0  0  0  0  0  0  0  0  0  0
  152.6111  140.0558  159.2966 H   0  0  0  0  0  0  0  0  0  0  0  0
  149.9182  137.0444  160.5046 H   0  0  0  0  0  0  0  0  0  0  0  0
  148.5422  137.6028  159.5810 H   0  0  0  0  0  0  0  0  0  0  0  0
  148.6880  135.0234  161.2212 H   0  0  0  0  0  0  0  0  0  0  0  0
  148.3705  137.0710  162.6099 H   0  0  0  0  0  0  0  0  0  0  0  0
  146.9173  136.0761  162.6009 H   0  0  0  0  0  0  0  0  0  0  0  0
  146.9897  137.5367  161.6179 H   0  0  0  0  0  0  0  0  0  0  0  0
  149.8235  143.2545  155.9411 H   0  0  0  0  0  0  0  0  0  0  0  0
  1  2  1  0  0  0  0
  1 24  1  0  0  0  0
  1 25  1  0  0  0  0
  1 26  1  0  0  0  0
  2 23  1  0  0  0  0
  2  3  1  0  0  0  0
  2 27  1  0  0  0  0
  3  4  1  0  0  0  0
  3 28  1  0  0  0  0
  3 29  1  0  0  0  0
  4  5  1  0  0  0  0
  4 20  1  0  0  0  0
  5  6  1  0  0  0  0
  5 30  1  0  0  0  0
  5 31  1  0  0  0  0
  6  7  1  0  0  0  0
  6  8  1  0  0  0  0
  6 32  1  0  0  0  0
  7 33  1  0  0  0  0
  8  9  1  0  0  0  0
  8 34  1  0  0  0  0
  8 35  1  0  0  0  0
  9 19  1  0  0  0  0
  9 10  1  0  0  0  0
 10 11  1  0  0  0  0
 10 13  2  0  0  0  0
 11 12  1  0  0  0  0
 11 36  1  0  0  0  0
 11 37  1  0  0  0  0
 12 38  1  0  0  0  0
 13 14  1  0  0  0  0
 13 49  1  0  0  0  0
 14 19  2  0  0  0  0
 14 15  1  0  0  0  0
 15 16  2  0  0  0  0
 15 39  1  0  0  0  0
 16 17  1  0  0  0  0
 16 40  1  0  0  0  0
 17 18  2  0  0  0  0
 17 41  1  0  0  0  0
 18 19  1  0  0  0  0
 18 42  1  0  0  0  0
 20 21  1  0  0  0  0
 20 43  1  0  0  0  0
 20 44  1  0  0  0  0
 21 22  1  0  0  0  0
 21 23  1  0  0  0  0
 21 45  1  0  0  0  0
 22 46  1  0  0  0  0
 22 47  1  0  0  0  0
 22 48  1  0  0  0  0
M  CHG  1  13   1
M  END
> <s_m_source_file>
AV-unprocessed.smi

> <i_m_source_file_index>
1703

> <i_lp_mmshare_version>
43012

> <i_f3d_flags>
0

> <s_epik_input>
W0NIM11bQ0BASF0xW0NIMl1OKFtDSDJdW0NASF0oTzEpW0NIM10pW0NIMl1bQ0BIXShbT0hdKVtDSDJdbihjKG4yKVtDSDJdW09IXSljKGMyMylbY0hdW2NIXVtjSF1bY0hdMw==

> <s_epik_cmdline>
J2VwaWtfcHl0aG9uJywgJy1waCcsICc3LjAnLCAnLXRuJywgJzgnLCAnLW1hJywgJzIwMCcsICctbWV0YWxfYmluZGluZycsICctaW1hZScsICc8aW5maWxlLm1hZT4nLCAnLW9tYWUnLCAnPG91dGZpbGUubWFlPic=

> <r_epik_Ionization_Penalty>
1.7682

> <r_epik_Ionization_Penalty_Charging>
1.55298

> <r_epik_Ionization_Penalty_Neutral>
0.215215

> <r_epik_State_Penalty>
1.83821

> <r_epik_Charging_Adjusted_Penalty>
3.39119

> <i_epik_Tot_Q>
1

> <i_epik_Tot_abs_Q>
1

> <r_epik_Metal_State_Penalty>
5.89206

> <b_epik_Metal_Only>
0

> <s_lp_Force_Field>
OPLS_2005

> <r_lp_Energy>
34.6201

> <b_lp_Chiralities_Consistent>
1

> <s_lp_Variant>
AV-unprocessed.smi:1703-15

> <Gold.Version>
5.8.1

> <Gold.Id.Protein>
6NUR|6NUR_protein|mol2

> <Gold.PLP.Fitness>
53.1020

> <Gold.PLP.PLP>
-39.6921

> <Gold.PLP.part.hbond>
-3.9303

> <Gold.PLP.part.metal>
0.0000

> <Gold.PLP.part.buried>
-4.5837

> <Gold.PLP.part.nonpolar>
-32.3551

> <Gold.PLP.part.repulsive>
0.0616

> <Gold.PLP.ligand.clash>
0.0000

> <Gold.PLP.ligand.torsion>
0.6948

> <Gold.PLP.Chemscore.Hbond>
4.9120

> <Gold.PLP.Chemscore.CHOScore>
0.0000

> <Gold.PLP.Chemscore.Metal>
0.0000

> <Gold.Chemscore.Hbonds>
donor molecule, donor type, donor heavy atom, donor atom, acceptor molecule, acceptor atom, score
      L1  H    12    38       P1  7957  1.00
      L1  H    13    49       P1  8028  2.00
      P1  H  6896  6907       L1     4  1.00
      P1  H  7989  7998       L1    12  0.94

> <Gold.PLP.Chemscore.Internal.Correction>
0.0634

> <Gold.Rescore>
     Score         DG    S(hbond)    S(metal)    S(lipo)     H(rot)  DE(clash)    DE(int)     intcor
     16.76     -17.84       2.39        0.00     102.07       2.96       0.33       0.75       ----

> <Gold.Chemscore.Fitness>
16.7631

> <Gold.Chemscore.DG>
-17.8424

> <Gold.Chemscore.ZeroCoef>
-5.4800

> <Gold.Chemscore.Hbond>
2.3911

> <Gold.Chemscore.Metal>
0.0000

> <Gold.Chemscore.Lipo>
102.0690

> <Gold.Chemscore.Internal_Hbond>
0.0000

> <Gold.Chemscore.DEClash>
0.3319

> <Gold.Chemscore.DEInternal>
0.7474

> <Gold.Chemscore.Rot>
2.9555

> <Gold.Chemscore.Internal.Correction>
   9.000000E+99

> <Gold.Chemscore.Hbonds>
donor molecule, donor type, donor heavy atom, donor atom, acceptor molecule, acceptor atom, score
      L1  H    12    38       P1  7957  0.98
      L1  H    13    49       P1  8028  1.00
      P1  H  6896  6907       L1     4  0.19
      P1  H  7989  7998       L1    12  0.22

> <Gold.Chemscore.Hbond.Weighted>
-7.9864

> <Gold.Chemscore.Metal.Weighted>
-0.0000

> <Gold.Chemscore.Lipo.Weighted>
-11.9421

> <Gold.Chemscore.Internal_Hbond.Weighted>
0.0000

> <Gold.Chemscore.DEClash.Weighted>
0.3319

> <Gold.Chemscore.DEInternal.Weighted>
0.7474

> <Gold.Chemscore.Rot.Weighted>
7.5660

> <Gold.Chemscore.Internal.Correction.Weighted>
   9.000000E+99

> <Gold.Protein.RotatedTorsions>
[ 6907 6896 6895 6894 ] final  -76.03 input  -60.11 | X-H torsion
[ 7974 7965 7964 7962 ] final   62.71 input  175.53 | X-H torsion
[ 8008 7997 7996 7995 ] final  -69.49 input   59.86 | X-H torsion
[ 10167 10162 10161 10158 ] final  144.50 input  -65.29 | X-H torsion
[ 10718 10713 10712 10709 ] final -126.64 input   66.30 | X-H torsion
[ 10763 10752 10751 10750 ] final -105.27 input  -60.55 | X-H torsion
[ 11005 11000 10999 10996 ] final  118.24 input  -57.11 | X-H torsion

> <Gold.Protein.ActiveResidues>
 VAL166  LYS551  ARG553  GLY616  TRP617  ASP618  TYR619  PRO620  LYS621  CYS622 
 ASP623  PHE694  ASN695  SER759  ASP760  ASP761  ALA762  ILE779  LEU786  VAL792 
 PHE793  MET794  SER795  GLU796  ALA797  LYS798  CYS799  TRP800  GLU811  SER814 

> <Gold.Protein.RotatedAtoms>
  150.7040  134.4632  159.5390 H   0  0  0  0  0  0  0  0  0  0  0  0  # atno 6907 bound_to 6896
  152.2303  134.8325  160.0483 H   0  0  0  0  0  0  0  0  0  0  0  0  # atno 6908 bound_to 6896
  151.9144  133.3534  159.3911 H   0  0  0  0  0  0  0  0  0  0  0  0  # atno 6909 bound_to 6896
  145.8702  139.3372  143.0767 H   0  0  0  0  0  0  0  0  0  0  0  0  # atno 7974 bound_to 7965
  154.4942  140.0852  156.7661 H   0  0  0  0  0  0  0  0  0  0  0  0  # atno 8008 bound_to 7997
  155.4156  140.3443  155.4249 H   0  0  0  0  0  0  0  0  0  0  0  0  # atno 8009 bound_to 7997
  156.1372  140.1518  156.8965 H   0  0  0  0  0  0  0  0  0  0  0  0  # atno 8010 bound_to 7997
  139.4946  144.5968  151.6566 H   0  0  0  0  0  0  0  0  0  0  0  0  # atno 10167 bound_to 10162
  156.1783  130.6715  151.0271 H   0  0  0  0  0  0  0  0  0  0  0  0  # atno 10718 bound_to 10713
  154.7935  135.4755  154.0108 H   0  0  0  0  0  0  0  0  0  0  0  0  # atno 10763 bound_to 10752
  153.1668  135.6818  153.8671 H   0  0  0  0  0  0  0  0  0  0  0  0  # atno 10764 bound_to 10752
  153.8267  135.3197  155.3393 H   0  0  0  0  0  0  0  0  0  0  0  0  # atno 10765 bound_to 10752
  139.9102  134.9618  156.7472 H   0  0  0  0  0  0  0  0  0  0  0  0  # atno 11005 bound_to 11000
  145.9146  140.9157  143.0436 LP  0  0  0  0  0  0  0  0  0  0  0  0  # atno 17320 bound_to 7965
  144.6726  140.1206  143.7450 LP  0  0  0  0  0  0  0  0  0  0  0  0  # atno 17321 bound_to 7965
  140.5607  144.0272  150.6168 LP  0  0  0  0  0  0  0  0  0  0  0  0  # atno 17342 bound_to 10162
  140.3357  143.3050  152.0640 LP  0  0  0  0  0  0  0  0  0  0  0  0  # atno 17343 bound_to 10162
  157.6851  131.0827  150.7265 LP  0  0  0  0  0  0  0  0  0  0  0  0  # atno 17370 bound_to 10713
  156.7323  130.4713  149.5497 LP  0  0  0  0  0  0  0  0  0  0  0  0  # atno 17371 bound_to 10713
  140.6802  133.9481  155.7906 LP  0  0  0  0  0  0  0  0  0  0  0  0  # atno 17394 bound_to 11000
  141.0515  134.0477  157.3777 LP  0  0  0  0  0  0  0  0  0  0  0  0  # atno 17395 bound_to 11000

$$$$
