AV-unprocessed.smi:221|AV-procd|sdf|1687|dock5
  -GOLD-   2262020123D 1   1.00000     0.00000
 Structure written by MMmdl.
 50 53  0  0  0  0  0  0  0  0  1 V2000
  143.6409  137.4459  161.2601 N   0  0  0  0  0  0  0  0  0  0  0  0
  144.8226  137.9254  161.6607 C   0  0  0  0  0  0  0  0  0  0  0  0
  145.0749  139.1281  161.6275 O   0  0  0  0  0  0  0  0  0  0  0  0
  145.8793  136.9175  162.1590 C   0  0  1  0  0  0  0  0  0  0  0  0
  145.4614  135.4402  162.1159 C   0  0  0  0  0  0  0  0  0  0  0  0
  146.7925  134.6867  162.2231 C   0  0  1  0  0  0  0  0  0  0  0  0
  146.8625  133.7312  161.2957 F   0  0  0  0  0  0  0  0  0  0  0  0
  147.8829  135.7505  162.0087 C   0  0  0  0  0  0  0  0  0  0  0  0
  147.2089  136.9556  161.5351 N   0  0  0  0  0  0  0  0  0  0  0  0
  147.3405  137.1062  160.1912 C   0  0  0  0  0  0  0  0  0  0  0  0
  146.2526  137.1617  159.3774 N   0  0  0  0  0  0  0  0  0  0  0  0
  146.4087  137.2885  158.0563 C   0  0  0  0  0  0  0  0  0  0  0  0
  147.5412  137.3716  157.3542 N   0  0  0  0  0  0  0  0  0  0  0  0
  148.6338  137.3112  158.1681 C   0  0  0  0  0  0  0  0  0  0  0  0
  148.6214  137.1783  159.5845 C   0  0  0  0  0  0  0  0  0  0  0  0
  149.9207  137.1526  160.0746 N   0  0  0  0  0  0  0  0  0  0  0  0
  150.6622  137.2665  159.0065 C   0  0  0  0  0  0  0  0  0  0  0  0
  149.9718  137.3714  157.8201 N   0  0  0  0  0  0  0  0  0  0  0  0
  150.5503  137.5092  156.4953 C   0  0  0  0  0  0  0  0  0  0  0  0
  150.3807  138.9314  155.9062 C   0  0  2  0  0  0  0  0  0  0  0  0
  150.7199  138.9929  154.3968 C   0  0  0  0  0  0  0  0  0  0  0  0
  150.0245  140.0407  153.7528 O   0  0  0  0  0  0  0  0  0  0  0  0
  151.1603  139.9893  156.7276 C   0  0  2  0  0  0  0  0  0  0  0  0
  150.6844  140.1611  158.1598 C   0  0  0  0  0  0  0  0  0  0  0  0
  151.2689  141.5185  158.5340 C   0  0  0  0  0  0  0  0  0  0  0  0
  151.2830  142.2767  157.3300 O   0  0  0  0  0  0  0  0  0  0  0  0
  151.0207  141.4276  156.2171 C   0  0  0  0  0  0  0  0  0  0  0  0
  146.0431  137.1807  163.2056 H   0  0  0  0  0  0  0  0  0  0  0  0
  146.9068  134.2013  163.1927 H   0  0  0  0  0  0  0  0  0  0  0  0
  142.9292  138.0805  160.9286 H   0  0  0  0  0  0  0  0  0  0  0  0
  143.4646  136.4522  161.2902 H   0  0  0  0  0  0  0  0  0  0  0  0
  144.7778  135.1824  162.9253 H   0  0  0  0  0  0  0  0  0  0  0  0
  144.9609  135.2010  161.1764 H   0  0  0  0  0  0  0  0  0  0  0  0
  148.3689  135.9874  162.9560 H   0  0  0  0  0  0  0  0  0  0  0  0
  148.6664  135.3973  161.3346 H   0  0  0  0  0  0  0  0  0  0  0  0
  145.4964  137.3262  157.4798 H   0  0  0  0  0  0  0  0  0  0  0  0
  151.7416  137.2807  159.0539 H   0  0  0  0  0  0  0  0  0  0  0  0
  151.6056  137.2485  156.5742 H   0  0  0  0  0  0  0  0  0  0  0  0
  150.1004  136.7660  155.8360 H   0  0  0  0  0  0  0  0  0  0  0  0
  149.3219  139.1811  155.9907 H   0  0  0  0  0  0  0  0  0  0  0  0
  151.7891  139.1350  154.2404 H   0  0  0  0  0  0  0  0  0  0  0  0
  150.4683  138.0544  153.9033 H   0  0  0  0  0  0  0  0  0  0  0  0
  149.7542  139.7427  152.8977 H   0  0  0  0  0  0  0  0  0  0  0  0
  152.2201  139.7294  156.7490 H   0  0  0  0  0  0  0  0  0  0  0  0
  149.5947  140.2001  158.1986 H   0  0  0  0  0  0  0  0  0  0  0  0
  151.0223  139.3672  158.8263 H   0  0  0  0  0  0  0  0  0  0  0  0
  150.6954  142.0181  159.3149 H   0  0  0  0  0  0  0  0  0  0  0  0
  152.2955  141.4066  158.8853 H   0  0  0  0  0  0  0  0  0  0  0  0
  151.6992  141.6449  155.3917 H   0  0  0  0  0  0  0  0  0  0  0  0
  150.0026  141.6204  155.8761 H   0  0  0  0  0  0  0  0  0  0  0  0
  1  2  1  0  0  0  0
  1 30  1  0  0  0  0
  1 31  1  0  0  0  0
  2  3  2  0  0  0  0
  2  4  1  0  0  0  0
  4 28  1  0  0  0  0
  4  9  1  0  0  0  0
  4  5  1  0  0  0  0
  5  6  1  0  0  0  0
  5 32  1  0  0  0  0
  5 33  1  0  0  0  0
  6 29  1  0  0  0  0
  6  7  1  0  0  0  0
  6  8  1  0  0  0  0
  8  9  1  0  0  0  0
  8 34  1  0  0  0  0
  8 35  1  0  0  0  0
  9 10  1  0  0  0  0
 10 15  1  0  0  0  0
 10 11  2  0  0  0  0
 11 12  1  0  0  0  0
 12 13  2  0  0  0  0
 12 36  1  0  0  0  0
 13 14  1  0  0  0  0
 14 18  1  0  0  0  0
 14 15  2  0  0  0  0
 15 16  1  0  0  0  0
 16 17  2  0  0  0  0
 17 18  1  0  0  0  0
 17 37  1  0  0  0  0
 18 19  1  0  0  0  0
 19 20  1  0  0  0  0
 19 38  1  0  0  0  0
 19 39  1  0  0  0  0
 20 21  1  0  0  0  0
 20 23  1  0  0  0  0
 20 40  1  0  0  0  0
 21 22  1  0  0  0  0
 21 41  1  0  0  0  0
 21 42  1  0  0  0  0
 22 43  1  0  0  0  0
 23 27  1  0  0  0  0
 23 24  1  0  0  0  0
 23 44  1  0  0  0  0
 24 25  1  0  0  0  0
 24 45  1  0  0  0  0
 24 46  1  0  0  0  0
 25 26  1  0  0  0  0
 25 47  1  0  0  0  0
 25 48  1  0  0  0  0
 26 27  1  0  0  0  0
 27 49  1  0  0  0  0
 27 50  1  0  0  0  0
M  END
> <s_m_source_file>
AV-unprocessed.smi

> <i_m_source_file_index>
221

> <i_lp_mmshare_version>
43012

> <i_f3d_flags>
0

> <s_epik_input>
W05IMl1DKD1PKVtDQEBIXTFbQ0gyXVtDQEBIXShGKVtDSDJdTjFjKG5bY0hdbjIpYyhjMjMpbltjSF1uM1tDSDJdW0NASF0oW0NIMl1bT0hdKVtDQEBIXTRbQ0gyXVtDSDJdT1tDSDJdNA==

> <s_epik_cmdline>
J2VwaWtfcHl0aG9uJywgJy1waCcsICc3LjAnLCAnLXRuJywgJzgnLCAnLW1hJywgJzIwMCcsICctbWV0YWxfYmluZGluZycsICctaW1hZScsICc8aW5maWxlLm1hZT4nLCAnLW9tYWUnLCAnPG91dGZpbGUubWFlPic=

> <r_lp_tautomer_probability>
1

> <r_epik_Ionization_Penalty>
0.000818822

> <r_epik_Ionization_Penalty_Charging>
0

> <r_epik_Ionization_Penalty_Neutral>
0.000818822

> <r_epik_State_Penalty>
0.000440551

> <r_epik_Charging_Adjusted_Penalty>
0.000440551

> <i_epik_Tot_Q>
0

> <i_epik_Tot_abs_Q>
0

> <r_epik_Metal_State_Penalty>
-0

> <b_epik_Metal_Only>
0

> <s_lp_Force_Field>
OPLS_2005

> <r_lp_Energy>
55.6777

> <b_lp_Chiralities_Consistent>
1

> <s_lp_Variant>
AV-unprocessed.smi:221-2

> <Gold.Version>
5.8.1

> <Gold.Id.Protein>
6NUR|6NUR_protein|mol2

> <Gold.PLP.Fitness>
42.7802

> <Gold.PLP.PLP>
-38.6502

> <Gold.PLP.part.hbond>
-6.5706

> <Gold.PLP.part.metal>
0.0000

> <Gold.PLP.part.buried>
-3.9539

> <Gold.PLP.part.nonpolar>
-27.3019

> <Gold.PLP.part.repulsive>
0.1928

> <Gold.PLP.ligand.clash>
0.0623

> <Gold.PLP.ligand.torsion>
0.5357

> <Gold.PLP.Chemscore.Hbond>
1.6962

> <Gold.PLP.Chemscore.CHOScore>
0.0000

> <Gold.PLP.Chemscore.Metal>
0.0000

> <Gold.Chemscore.Hbonds>
donor molecule, donor type, donor heavy atom, donor atom, acceptor molecule, acceptor atom, score
      L1  H    22    43       P1  7957  0.99
      P1  H  6931  6943       L1     9  0.15
      P1  H  6934  6947       L1     3  0.07
      P1  H  7989  7998       L1    22  0.36

> <Gold.PLP.Chemscore.Internal.Correction>
0.1750

> <Gold.Rescore>
     Score         DG    S(hbond)    S(metal)    S(lipo)     H(rot)  DE(clash)    DE(int)     intcor
      3.90      -8.16       1.03        0.00      75.04       3.72       0.11       4.15       ----

> <Gold.Chemscore.Fitness>
3.8974

> <Gold.Chemscore.DG>
-8.1632

> <Gold.Chemscore.ZeroCoef>
-5.4800

> <Gold.Chemscore.Hbond>
1.0260

> <Gold.Chemscore.Metal>
0.0000

> <Gold.Chemscore.Lipo>
75.0448

> <Gold.Chemscore.Internal_Hbond>
0.0000

> <Gold.Chemscore.DEClash>
0.1114

> <Gold.Chemscore.DEInternal>
4.1544

> <Gold.Chemscore.Rot>
3.7202

> <Gold.Chemscore.Internal.Correction>
   9.000000E+99

> <Gold.Chemscore.Hbonds>
donor molecule, donor type, donor heavy atom, donor atom, acceptor molecule, acceptor atom, score
      L1  H    22    43       P1  7957  0.93
      P1  H  6934  6947       L1     3  0.02
      P1  H  7989  7998       L1    22  0.01

> <Gold.Chemscore.Hbond.Weighted>
-3.4267

> <Gold.Chemscore.Metal.Weighted>
-0.0000

> <Gold.Chemscore.Lipo.Weighted>
-8.7802

> <Gold.Chemscore.Internal_Hbond.Weighted>
0.0000

> <Gold.Chemscore.DEClash.Weighted>
0.1114

> <Gold.Chemscore.DEInternal.Weighted>
4.1544

> <Gold.Chemscore.Rot.Weighted>
9.5237

> <Gold.Chemscore.Internal.Correction.Weighted>
   9.000000E+99

> <Gold.Protein.RotatedTorsions>
[ 6907 6896 6895 6894 ] final   98.93 input  -60.11 | X-H torsion
[ 7974 7965 7964 7962 ] final -162.78 input  175.53 | X-H torsion
[ 8008 7997 7996 7995 ] final  -63.71 input   59.86 | X-H torsion
[ 10167 10162 10161 10158 ] final  -64.20 input  -65.29 | X-H torsion
[ 10718 10713 10712 10709 ] final  -67.76 input   66.30 | X-H torsion
[ 10763 10752 10751 10750 ] final   77.31 input  -60.55 | X-H torsion
[ 11005 11000 10999 10996 ] final -166.27 input  -57.11 | X-H torsion

> <Gold.Protein.ActiveResidues>
 VAL166  LYS551  ARG553  GLY616  TRP617  ASP618  TYR619  PRO620  LYS621  CYS622 
 ASP623  PHE694  ASN695  SER759  ASP760  ASP761  ALA762  ILE779  LEU786  VAL792 
 PHE793  MET794  SER795  GLU796  ALA797  LYS798  CYS799  TRP800  GLU811  SER814 

> <Gold.Protein.RotatedAtoms>
  152.5401  134.0506  159.8107 H   0  0  0  0  0  0  0  0  0  0  0  0  # atno 6907 bound_to 6896
  151.0648  133.5507  159.2639 H   0  0  0  0  0  0  0  0  0  0  0  0  # atno 6908 bound_to 6896
  151.2392  135.0591  159.9072 H   0  0  0  0  0  0  0  0  0  0  0  0  # atno 6909 bound_to 6896
  144.7346  140.3202  143.6172 H   0  0  0  0  0  0  0  0  0  0  0  0  # atno 7974 bound_to 7965
  154.4569  140.0969  156.6784 H   0  0  0  0  0  0  0  0  0  0  0  0  # atno 8008 bound_to 7997
  155.5110  140.3476  155.4370 H   0  0  0  0  0  0  0  0  0  0  0  0  # atno 8009 bound_to 7997
  156.0796  140.1369  156.9718 H   0  0  0  0  0  0  0  0  0  0  0  0  # atno 8010 bound_to 7997
  140.5817  143.2328  151.6328 H   0  0  0  0  0  0  0  0  0  0  0  0  # atno 10167 bound_to 10162
  156.0540  130.4283  150.1902 H   0  0  0  0  0  0  0  0  0  0  0  0  # atno 10718 bound_to 10713
  153.0789  135.4919  154.8463 H   0  0  0  0  0  0  0  0  0  0  0  0  # atno 10763 bound_to 10752
  154.7125  135.3023  154.9177 H   0  0  0  0  0  0  0  0  0  0  0  0  # atno 10764 bound_to 10752
  153.9867  135.6783  153.4805 H   0  0  0  0  0  0  0  0  0  0  0  0  # atno 10765 bound_to 10752
  140.5663  134.5282  157.5153 H   0  0  0  0  0  0  0  0  0  0  0  0  # atno 11005 bound_to 11000
  145.7576  139.1814  143.2285 LP  0  0  0  0  0  0  0  0  0  0  0  0  # atno 17320 bound_to 7965
  146.1012  140.7542  142.9548 LP  0  0  0  0  0  0  0  0  0  0  0  0  # atno 17321 bound_to 7965
  139.5174  144.3317  152.0820 LP  0  0  0  0  0  0  0  0  0  0  0  0  # atno 17342 bound_to 10162
  140.2468  144.4211  150.6237 LP  0  0  0  0  0  0  0  0  0  0  0  0  # atno 17343 bound_to 10162
  156.9981  130.9914  151.3398 LP  0  0  0  0  0  0  0  0  0  0  0  0  # atno 17370 bound_to 10713
  157.5494  130.8172  149.8126 LP  0  0  0  0  0  0  0  0  0  0  0  0  # atno 17371 bound_to 10713
  139.9383  134.7834  156.0744 LP  0  0  0  0  0  0  0  0  0  0  0  0  # atno 17394 bound_to 11000
  141.1083  133.6652  156.2918 LP  0  0  0  0  0  0  0  0  0  0  0  0  # atno 17395 bound_to 11000

$$$$
