#       Name:                AV-unprocessed.smi:3025
#       Creating user name   scv26
#       Creation time:       Fri Mar 27 16:44:25 2020


#       File generated by GOLD software.
#

@<TRIPOS>MOLECULE
AV-unprocessed.smi:3025
    44    45     1
SMALL
NO_CHARGES


@<TRIPOS>ATOM
      1 ****        -5.7004  -2.4779   1.3140 C.3            1 S1                 0.0000
      2 ****        -4.1872  -2.2349   1.3358 C.3            1 S1                 0.0000
      3 ****        -3.6488  -1.7579  -0.0238 C.3            1 S1                 0.0000
      4 ****        -2.1158  -1.5924  -0.0738 C.3            1 S1                 0.0000
      5 ****        -1.6161  -0.4278   0.8072 C.3            1 S1                 0.0000
      6 ****        -0.0901  -0.2594   0.7251 C.3            1 S1                 0.0000
      7 ****         0.3840  -0.0641  -0.7296 C.3            1 S1                 0.0000
      8 ****         1.8581   0.0369  -0.8140 N.4            1 S1                 1.0000
      9 ****         2.4295   1.3202  -0.3553 C.3            1 S1                 0.0000
     10 ****         3.9532   1.3402  -0.5342 C.3            1 S1                 0.0000
     11 ****         4.5519   2.6298  -0.0796 C.2            1 S1                 0.0000
     12 ****         4.6736   3.6644  -0.9127 N.2            1 S1                 0.0000
     13 ****         5.2056   4.6116  -0.1103 N.pl3          1 S1                 0.0000
     14 ****         5.3482   4.1059   1.1139 C.2            1 S1                 0.0000
     15 ****         4.9423   2.8468   1.2135 N.2            1 S1                 0.0000
     16 ****        -0.1087  -1.2307  -1.6038 C.3            1 S1                 0.0000
     17 ****        -1.6352  -1.3902  -1.5249 C.3            1 S1                 0.0000
     18 ****        -6.0527  -2.8197   2.2872 H              1 S1                 0.0000
     19 ****        -5.9678  -3.2373   0.5786 H              1 S1                 0.0000
     20 ****        -6.2422  -1.5649   1.0663 H              1 S1                 0.0000
     21 ****        -3.9639  -1.5005   2.1093 H              1 S1                 0.0000
     22 ****        -3.6815  -3.1561   1.6274 H              1 S1                 0.0000
     23 ****        -3.9472  -2.4850  -0.7802 H              1 S1                 0.0000
     24 ****        -4.1308  -0.8200  -0.3027 H              1 S1                 0.0000
     25 ****        -1.6676  -2.5163   0.2956 H              1 S1                 0.0000
     26 ****        -2.1007   0.5003   0.5010 H              1 S1                 0.0000
     27 ****        -1.8933  -0.5909   1.8482 H              1 S1                 0.0000
     28 ****         0.2014   0.5895   1.3434 H              1 S1                 0.0000
     29 ****         0.3940  -1.1364   1.1570 H              1 S1                 0.0000
     30 ****        -0.0445   0.8584  -1.1254 H              1 S1                 0.0000
     31 ****         2.2673  -0.7195  -0.2840 H              1 S1                 0.0000
     32 ****         1.9797   2.1370  -0.9215 H              1 S1                 0.0000
     33 ****         2.1849   1.4814   0.6945 H              1 S1                 0.0000
     34 ****         4.4072   0.5231   0.0285 H              1 S1                 0.0000
     35 ****         4.2120   1.1763  -1.5814 H              1 S1                 0.0000
     36 ****         5.7493   4.6679   1.9449 H              1 S1                 0.0000
     37 ****         0.1864  -1.0701  -2.6415 H              1 S1                 0.0000
     38 ****         0.3681  -2.1597  -1.2877 H              1 S1                 0.0000
     39 ****        -1.9416  -2.2364  -2.1408 H              1 S1                 0.0000
     40 ****        -2.1155  -0.5090  -1.9529 H              1 S1                 0.0000
     41 ****         2.1166  -0.0760  -1.7838 H              1 S1                 0.0000
     42 ****         5.4370   5.5425  -0.4272 H              1 S1                 0.0000
     43 ****         4.4330   3.7235  -1.8815 LP             1 S1                 0.0000
     44 ****         4.9264   2.2345   2.0039 LP             1 S1                 0.0000
@<TRIPOS>BOND
    1    1    2 1     
    2    1   18 1     
    3    1   19 1     
    4    1   20 1     
    5    2    3 1     
    6    2   21 1     
    7    2   22 1     
    8    3    4 1     
    9    3   23 1     
   10    3   24 1     
   11    4   17 1     
   12    4    5 1     
   13    4   25 1     
   14    5    6 1     
   15    5   26 1     
   16    5   27 1     
   17    6    7 1     
   18    6   28 1     
   19    6   29 1     
   20    7    8 1     
   21    7   16 1     
   22    7   30 1     
   23    8    9 1     
   24    8   31 1     
   25    8   41 1     
   26    9   10 1     
   27    9   32 1     
   28    9   33 1     
   29   10   34 1     
   30   10   35 1     
   31   10   11 1     
   32   11   15 1     
   33   11   12 2     
   34   12   13 1     
   35   13   14 1     
   36   13   42 1     
   37   14   15 2     
   38   14   36 1     
   39   16   17 1     
   40   16   37 1     
   41   16   38 1     
   42   17   39 1     
   43   17   40 1     
   44   12   43 1     
   45   15   44 1     
@<TRIPOS>SUBSTRUCTURE
      1 S1             1
@<TRIPOS>SET
LONE_PAIRS      STATIC     ATOMS    <user>   **** ""
2 43 44
DONOR_HYDROGENS      STATIC     ATOMS    <user>   **** ""
3 31 41 42
ATOM$BLUE        STATIC     ATOMS    COLORGROUP SYSTEM
2 43 44
ATOM$RED        STATIC     ATOMS    COLORGROUP SYSTEM
3 31 41 42
