AV-unprocessed.smi:2675|AV-procd|sdf|10363|dock2
  -GOLD-   2272014393D 1   1.00000     0.00000
 Structure written by MMmdl.
 36 37  0  0  0  0  0  0  0  0  1 V2000
  153.0168  142.9919  162.3554 C   0  0  0  0  0  0  0  0  0  0  0  0
  152.7993  142.8272  160.8823 C   0  0  0  0  0  0  0  0  0  0  0  0
  153.4842  141.8439  160.1724 N   0  0  0  0  0  0  0  0  0  0  0  0
  153.0514  141.9902  158.9288 C   0  0  0  0  0  0  0  0  0  0  0  0
  152.1540  142.9718  158.7635 N   0  0  0  0  0  0  0  0  0  0  0  0
  151.5212  143.3605  157.5141 C   0  0  0  0  0  0  0  0  0  0  0  0
  150.9066  142.1498  156.8115 C   0  0  0  0  0  0  0  0  0  0  0  0
  151.4541  141.0517  156.8960 O   0  0  0  0  0  0  0  0  0  0  0  0
  149.7722  142.3754  156.1259 N   0  0  0  0  0  0  0  0  0  0  0  0
  148.9402  141.4130  155.3921 C   0  0  2  0  0  0  0  0  0  0  0  0
  148.0811  140.7034  156.4521 C   0  0  0  0  0  0  0  0  0  0  0  0
  149.7588  140.3854  154.7188 C   0  0  0  0  0  0  0  0  0  0  0  0
  150.4018  139.5787  154.1937 N   0  0  0  0  0  0  0  0  0  0  0  0
  148.0086  142.0225  154.3416 C   0  0  0  0  0  0  0  0  0  0  0  0
  146.6404  142.5916  154.6475 C   0  0  0  0  0  0  0  0  0  0  0  0
  146.7671  141.3123  153.8503 C   0  0  0  0  0  0  0  0  0  0  0  0
  151.9757  143.5323  160.0277 C   0  0  0  0  0  0  0  0  0  0  0  0
  151.0461  144.6749  160.2903 C   0  0  0  0  0  0  0  0  0  0  0  0
  152.4157  143.7999  162.7705 H   0  0  0  0  0  0  0  0  0  0  0  0
  154.0611  143.2159  162.5736 H   0  0  0  0  0  0  0  0  0  0  0  0
  152.7552  142.0807  162.8938 H   0  0  0  0  0  0  0  0  0  0  0  0
  153.3995  141.3702  158.1157 H   0  0  0  0  0  0  0  0  0  0  0  0
  150.7512  144.1052  157.7214 H   0  0  0  0  0  0  0  0  0  0  0  0
  152.2577  143.8385  156.8674 H   0  0  0  0  0  0  0  0  0  0  0  0
  149.4289  143.3247  156.1293 H   0  0  0  0  0  0  0  0  0  0  0  0
  147.4487  139.9369  156.0021 H   0  0  0  0  0  0  0  0  0  0  0  0
  147.4270  141.4057  156.9706 H   0  0  0  0  0  0  0  0  0  0  0  0
  148.7019  140.2126  157.2032 H   0  0  0  0  0  0  0  0  0  0  0  0
  148.5555  142.5719  153.5772 H   0  0  0  0  0  0  0  0  0  0  0  0
  146.2414  142.5087  155.6543 H   0  0  0  0  0  0  0  0  0  0  0  0
  146.3433  143.4892  154.1093 H   0  0  0  0  0  0  0  0  0  0  0  0
  146.5513  141.3607  152.7849 H   0  0  0  0  0  0  0  0  0  0  0  0
  146.4707  140.3880  154.3415 H   0  0  0  0  0  0  0  0  0  0  0  0
  151.0829  144.9920  161.3317 H   0  0  0  0  0  0  0  0  0  0  0  0
  150.0169  144.3953  160.0658 H   0  0  0  0  0  0  0  0  0  0  0  0
  151.3049  145.5359  159.6739 H   0  0  0  0  0  0  0  0  0  0  0  0
  1  2  1  0  0  0  0
  1 19  1  0  0  0  0
  1 20  1  0  0  0  0
  1 21  1  0  0  0  0
  2 17  2  0  0  0  0
  2  3  1  0  0  0  0
  3  4  2  0  0  0  0
  4  5  1  0  0  0  0
  4 22  1  0  0  0  0
  5  6  1  0  0  0  0
  5 17  1  0  0  0  0
  6  7  1  0  0  0  0
  6 23  1  0  0  0  0
  6 24  1  0  0  0  0
  7  8  2  0  0  0  0
  7  9  1  0  0  0  0
  9 10  1  0  0  0  0
  9 25  1  0  0  0  0
 10 11  1  0  0  0  0
 10 12  1  0  0  0  0
 10 14  1  0  0  0  0
 11 26  1  0  0  0  0
 11 27  1  0  0  0  0
 11 28  1  0  0  0  0
 12 13  3  0  0  0  0
 14 16  1  0  0  0  0
 14 15  1  0  0  0  0
 14 29  1  0  0  0  0
 15 16  1  0  0  0  0
 15 30  1  0  0  0  0
 15 31  1  0  0  0  0
 16 32  1  0  0  0  0
 16 33  1  0  0  0  0
 17 18  1  0  0  0  0
 18 34  1  0  0  0  0
 18 35  1  0  0  0  0
 18 36  1  0  0  0  0
M  END
> <s_m_source_file>
AV-unprocessed.smi

> <i_m_source_file_index>
2675

> <i_lp_mmshare_version>
43012

> <i_f3d_flags>
0

> <s_epik_input>
W0NIM11jMW5bY0hdbihjMVtDSDNdKVtDSDJdQyg9TylbTkhdW0NAQF0oW0NIM10pKEMjTilbQ0hdMltDSDJdW0NIMl0y

> <s_epik_cmdline>
J2VwaWtfcHl0aG9uJywgJy1waCcsICc3LjAnLCAnLXRuJywgJzgnLCAnLW1hJywgJzIwMCcsICctbWV0YWxfYmluZGluZycsICctaW1hZScsICc8aW5maWxlLm1hZT4nLCAnLW9tYWUnLCAnPG91dGZpbGUubWFlPic=

> <r_lp_tautomer_probability>
1

> <r_epik_Ionization_Penalty>
0.876174

> <r_epik_Ionization_Penalty_Charging>
0.876172

> <r_epik_Ionization_Penalty_Neutral>
2.64295e-06

> <r_epik_State_Penalty>
0.913958

> <r_epik_Charging_Adjusted_Penalty>
1.79013

> <i_epik_Tot_Q>
0

> <i_epik_Tot_abs_Q>
0

> <r_epik_Metal_State_Penalty>
0.359336

> <b_epik_Metal_Only>
0

> <s_lp_Force_Field>
OPLS_2005

> <r_lp_Energy>
15.5339

> <b_lp_Chiralities_Consistent>
1

> <s_lp_Variant>
AV-unprocessed.smi:2675-4

> <Gold.Version>
5.8.1

> <Gold.Id.Protein>
6NUR|6NUR_protein|mol2

> <Gold.PLP.Fitness>
45.9235

> <Gold.PLP.PLP>
-42.4108

> <Gold.PLP.part.hbond>
-2.0000

> <Gold.PLP.part.metal>
0.0000

> <Gold.PLP.part.buried>
-4.9802

> <Gold.PLP.part.nonpolar>
-36.3145

> <Gold.PLP.part.repulsive>
0.2902

> <Gold.PLP.ligand.clash>
0.0000

> <Gold.PLP.ligand.torsion>
1.6205

> <Gold.PLP.Chemscore.Hbond>
1.7500

> <Gold.PLP.Chemscore.CHOScore>
0.0000

> <Gold.PLP.Chemscore.Metal>
0.0000

> <Gold.Chemscore.Hbonds>
donor molecule, donor type, donor heavy atom, donor atom, acceptor molecule, acceptor atom, score
      L1  H     9    25       P1  8028  1.00
      P1  H  7989  7998       L1    13  0.65

> <Gold.PLP.Chemscore.Internal.Correction>
1.5038

> <Gold.Rescore>
     Score         DG    S(hbond)    S(metal)    S(lipo)     H(rot)  DE(clash)    DE(int)     intcor
      9.82     -14.40       1.03        0.00      85.00       1.74       0.01       4.57       ----

> <Gold.Chemscore.Fitness>
9.8191

> <Gold.Chemscore.DG>
-14.3951

> <Gold.Chemscore.ZeroCoef>
-5.4800

> <Gold.Chemscore.Hbond>
1.0274

> <Gold.Chemscore.Metal>
0.0000

> <Gold.Chemscore.Lipo>
85.0025

> <Gold.Chemscore.Internal_Hbond>
0.0000

> <Gold.Chemscore.DEClash>
0.0106

> <Gold.Chemscore.DEInternal>
4.5654

> <Gold.Chemscore.Rot>
1.7429

> <Gold.Chemscore.Internal.Correction>
   9.000000E+99

> <Gold.Chemscore.Hbonds>
donor molecule, donor type, donor heavy atom, donor atom, acceptor molecule, acceptor atom, score
      L1  H     9    25       P1  8028  0.97
      P1  H  7989  7998       L1    13  0.06

> <Gold.Chemscore.Hbond.Weighted>
-3.4315

> <Gold.Chemscore.Metal.Weighted>
-0.0000

> <Gold.Chemscore.Lipo.Weighted>
-9.9453

> <Gold.Chemscore.Internal_Hbond.Weighted>
0.0000

> <Gold.Chemscore.DEClash.Weighted>
0.0106

> <Gold.Chemscore.DEInternal.Weighted>
4.5654

> <Gold.Chemscore.Rot.Weighted>
4.4617

> <Gold.Chemscore.Internal.Correction.Weighted>
   9.000000E+99

> <Gold.Protein.RotatedTorsions>
[ 6907 6896 6895 6894 ] final  118.55 input  -60.11 | X-H torsion
[ 7974 7965 7964 7962 ] final   26.75 input  175.53 | X-H torsion
[ 8008 7997 7996 7995 ] final -168.69 input   59.86 | X-H torsion
[ 10167 10162 10161 10158 ] final -130.31 input  -65.29 | X-H torsion
[ 10718 10713 10712 10709 ] final  -14.81 input   66.30 | X-H torsion
[ 10763 10752 10751 10750 ] final  101.39 input  -60.55 | X-H torsion
[ 11005 11000 10999 10996 ] final    3.09 input  -57.11 | X-H torsion

> <Gold.Protein.ActiveResidues>
 VAL166  LYS551  ARG553  GLY616  TRP617  ASP618  TYR619  PRO620  LYS621  CYS622 
 ASP623  PHE694  ASN695  SER759  ASP760  ASP761  ALA762  ILE779  LEU786  VAL792 
 PHE793  MET794  SER795  GLU796  ALA797  LYS798  CYS799  TRP800  GLU811  SER814 

> <Gold.Protein.RotatedAtoms>
  152.4535  133.7676  159.6780 H   0  0  0  0  0  0  0  0  0  0  0  0  # atno 6907 bound_to 6896
  150.8454  133.7860  159.3051 H   0  0  0  0  0  0  0  0  0  0  0  0  # atno 6908 bound_to 6896
  151.5472  135.1070  159.9992 H   0  0  0  0  0  0  0  0  0  0  0  0  # atno 6909 bound_to 6896
  146.1821  139.7286  142.8893 H   0  0  0  0  0  0  0  0  0  0  0  0  # atno 7974 bound_to 7965
  155.8948  140.1031  157.1393 H   0  0  0  0  0  0  0  0  0  0  0  0  # atno 8008 bound_to 7997
  154.4019  140.1304  156.4425 H   0  0  0  0  0  0  0  0  0  0  0  0  # atno 8009 bound_to 7997
  155.7492  140.3465  155.5144 H   0  0  0  0  0  0  0  0  0  0  0  0  # atno 8010 bound_to 7997
  139.9306  143.6276  152.2530 H   0  0  0  0  0  0  0  0  0  0  0  0  # atno 10167 bound_to 10162
  156.6107  130.4849  149.6203 H   0  0  0  0  0  0  0  0  0  0  0  0  # atno 10718 bound_to 10713
  153.3261  135.4046  155.1457 H   0  0  0  0  0  0  0  0  0  0  0  0  # atno 10763 bound_to 10752
  154.8612  135.3599  154.5532 H   0  0  0  0  0  0  0  0  0  0  0  0  # atno 10764 bound_to 10752
  153.5968  135.7072  153.5460 H   0  0  0  0  0  0  0  0  0  0  0  0  # atno 10765 bound_to 10752
  140.5970  133.9871  155.8114 H   0  0  0  0  0  0  0  0  0  0  0  0  # atno 11005 bound_to 11000
  145.4046  141.0389  143.3051 LP  0  0  0  0  0  0  0  0  0  0  0  0  # atno 17320 bound_to 7965
  144.8333  139.5592  143.6934 LP  0  0  0  0  0  0  0  0  0  0  0  0  # atno 17321 bound_to 7965
  139.6785  144.7657  151.1652 LP  0  0  0  0  0  0  0  0  0  0  0  0  # atno 17342 bound_to 10162
  140.7638  143.5759  150.8946 LP  0  0  0  0  0  0  0  0  0  0  0  0  # atno 17343 bound_to 10162
  156.2392  130.6841  151.1539 LP  0  0  0  0  0  0  0  0  0  0  0  0  # atno 17370 bound_to 10713
  157.7255  131.0653  150.5951 LP  0  0  0  0  0  0  0  0  0  0  0  0  # atno 17371 bound_to 10713
  141.0897  133.9935  157.3257 LP  0  0  0  0  0  0  0  0  0  0  0  0  # atno 17394 bound_to 11000
  139.9249  135.0201  156.8198 LP  0  0  0  0  0  0  0  0  0  0  0  0  # atno 17395 bound_to 11000

$$$$
