AV-unprocessed.smi:2416|AV-procd|sdf|9544|dock1
  -GOLD-   2272013173D 1   1.00000     0.00000
 Structure written by MMmdl.
 40 41  0  0  0  0  0  0  0  0  1 V2000
  145.9840  141.7167  155.8717 C   0  0  0  0  0  0  0  0  0  0  0  0
  147.1257  140.8728  155.9591 O   0  0  0  0  0  0  0  0  0  0  0  0
  147.6239  140.3064  154.7394 C   0  0  1  0  0  0  0  0  0  0  0  0
  146.6130  139.3039  154.1670 C   0  0  0  0  0  0  0  0  0  0  0  0
  148.1847  141.4158  153.8293 C   0  0  0  0  0  0  0  0  0  0  0  0
  149.5390  141.2632  154.5255 C   0  0  1  0  0  0  0  0  0  0  0  0
  149.6847  142.2248  155.6187 N   0  0  0  0  0  0  0  0  0  0  0  0
  150.6158  142.1510  156.5794 C   0  0  0  0  0  0  0  0  0  0  0  0
  151.4696  141.2651  156.6285 O   0  0  0  0  0  0  0  0  0  0  0  0
  150.4811  143.1537  157.4651 N   0  0  0  0  0  0  0  0  0  0  0  0
  151.2391  143.3929  158.6421 C   0  0  0  0  0  0  0  0  0  0  0  0
  151.9322  142.2688  159.1463 C   0  0  0  0  0  0  0  0  0  0  0  0
  152.7189  142.4024  160.3071 C   0  0  0  0  0  0  0  0  0  0  0  0
  152.7910  143.6593  160.9331 C   0  0  0  0  0  0  0  0  0  0  0  0
  153.5360  143.8369  162.0499 F   0  0  0  0  0  0  0  0  0  0  0  0
  152.0695  144.7273  160.3688 C   0  0  0  0  0  0  0  0  0  0  0  0
  151.3153  144.6004  159.2564 N   0  0  0  0  0  0  0  0  0  0  0  0
  149.0985  139.8432  154.9753 C   0  0  0  0  0  0  0  0  0  0  0  0
  149.4627  139.3748  156.3942 C   0  0  0  0  0  0  0  0  0  0  0  0
  149.6068  138.7331  154.0432 C   0  0  0  0  0  0  0  0  0  0  0  0
  145.8203  142.1920  156.8386 H   0  0  0  0  0  0  0  0  0  0  0  0
  145.0827  141.1514  155.6358 H   0  0  0  0  0  0  0  0  0  0  0  0
  146.1055  142.5075  155.1322 H   0  0  0  0  0  0  0  0  0  0  0  0
  147.0064  138.7822  153.2953 H   0  0  0  0  0  0  0  0  0  0  0  0
  145.6968  139.7919  153.8362 H   0  0  0  0  0  0  0  0  0  0  0  0
  146.3432  138.5487  154.9057 H   0  0  0  0  0  0  0  0  0  0  0  0
  148.2236  141.1151  152.7813 H   0  0  0  0  0  0  0  0  0  0  0  0
  147.7268  142.3999  153.9283 H   0  0  0  0  0  0  0  0  0  0  0  0
  150.3731  141.2653  153.8215 H   0  0  0  0  0  0  0  0  0  0  0  0
  149.0134  142.9779  155.6550 H   0  0  0  0  0  0  0  0  0  0  0  0
  149.7368  143.8115  157.2868 H   0  0  0  0  0  0  0  0  0  0  0  0
  151.8663  141.3109  158.6509 H   0  0  0  0  0  0  0  0  0  0  0  0
  153.2571  141.5560  160.7077 H   0  0  0  0  0  0  0  0  0  0  0  0
  152.0986  145.7086  160.8194 H   0  0  0  0  0  0  0  0  0  0  0  0
  150.5383  139.2313  156.5024 H   0  0  0  0  0  0  0  0  0  0  0  0
  148.9793  138.4282  156.6367 H   0  0  0  0  0  0  0  0  0  0  0  0
  149.1626  140.0859  157.1633 H   0  0  0  0  0  0  0  0  0  0  0  0
  150.6852  138.5991  154.1359 H   0  0  0  0  0  0  0  0  0  0  0  0
  149.4068  138.9564  152.9950 H   0  0  0  0  0  0  0  0  0  0  0  0
  149.1389  137.7733  154.2647 H   0  0  0  0  0  0  0  0  0  0  0  0
  1  2  1  0  0  0  0
  1 21  1  0  0  0  0
  1 22  1  0  0  0  0
  1 23  1  0  0  0  0
  2  3  1  0  0  0  0
  3 18  1  0  0  0  0
  3  4  1  0  0  0  0
  3  5  1  0  0  0  0
  4 24  1  0  0  0  0
  4 25  1  0  0  0  0
  4 26  1  0  0  0  0
  5  6  1  0  0  0  0
  5 27  1  0  0  0  0
  5 28  1  0  0  0  0
  6  7  1  0  0  0  0
  6 18  1  0  0  0  0
  6 29  1  0  0  0  0
  7  8  1  0  0  0  0
  7 30  1  0  0  0  0
  8  9  2  0  0  0  0
  8 10  1  0  0  0  0
 10 11  1  0  0  0  0
 10 31  1  0  0  0  0
 11 17  1  0  0  0  0
 11 12  2  0  0  0  0
 12 13  1  0  0  0  0
 12 32  1  0  0  0  0
 13 14  2  0  0  0  0
 13 33  1  0  0  0  0
 14 15  1  0  0  0  0
 14 16  1  0  0  0  0
 16 17  2  0  0  0  0
 16 34  1  0  0  0  0
 18 19  1  0  0  0  0
 18 20  1  0  0  0  0
 19 35  1  0  0  0  0
 19 36  1  0  0  0  0
 19 37  1  0  0  0  0
 20 38  1  0  0  0  0
 20 39  1  0  0  0  0
 20 40  1  0  0  0  0
M  END
> <s_m_source_file>
AV-unprocessed.smi

> <i_m_source_file_index>
2416

> <i_lp_mmshare_version>
43012

> <i_f3d_flags>
0

> <s_epik_input>
W0NIM11PW0NAQF0xKFtDSDNdKVtDSDJdW0NASF0oQzEoW0NIM10pW0NIM10pW05IXUMoPU8pW05IXWMyW2NIXVtjSF1jKEYpW2NIXW4y

> <s_epik_cmdline>
J2VwaWtfcHl0aG9uJywgJy1waCcsICc3LjAnLCAnLXRuJywgJzgnLCAnLW1hJywgJzIwMCcsICctbWV0YWxfYmluZGluZycsICctaW1hZScsICc8aW5maWxlLm1hZT4nLCAnLW9tYWUnLCAnPG91dGZpbGUubWFlPic=

> <r_lp_tautomer_probability>
1

> <r_epik_Ionization_Penalty>
3.67756e-05

> <r_epik_Ionization_Penalty_Charging>
0

> <r_epik_Ionization_Penalty_Neutral>
3.67756e-05

> <r_epik_State_Penalty>
-0

> <r_epik_Charging_Adjusted_Penalty>
0

> <i_epik_Tot_Q>
0

> <i_epik_Tot_abs_Q>
0

> <r_epik_Metal_State_Penalty>
-0

> <b_epik_Metal_Only>
0

> <s_lp_Force_Field>
OPLS_2005

> <r_lp_Energy>
27.553

> <b_lp_Chiralities_Consistent>
1

> <s_lp_Variant>
AV-unprocessed.smi:2416-1

> <Gold.Version>
5.8.1

> <Gold.Id.Protein>
6NUR|6NUR_protein|mol2

> <Gold.PLP.Fitness>
39.9514

> <Gold.PLP.PLP>
-34.5874

> <Gold.PLP.part.hbond>
-2.0000

> <Gold.PLP.part.metal>
0.0000

> <Gold.PLP.part.buried>
-4.5421

> <Gold.PLP.part.nonpolar>
-27.7034

> <Gold.PLP.part.repulsive>
0.3550

> <Gold.PLP.ligand.clash>
0.0094

> <Gold.PLP.ligand.torsion>
0.3152

> <Gold.PLP.Chemscore.Hbond>
1.8723

> <Gold.PLP.Chemscore.CHOScore>
0.0000

> <Gold.PLP.Chemscore.Metal>
0.0000

> <Gold.Chemscore.Hbonds>
donor molecule, donor type, donor heavy atom, donor atom, acceptor molecule, acceptor atom, score
      L1  H     7    30       P1  8028  0.86
      L1  H    10    31       P1  8028  0.76

> <Gold.PLP.Chemscore.Internal.Correction>
0.3869

> <Gold.Rescore>
     Score         DG    S(hbond)    S(metal)    S(lipo)     H(rot)  DE(clash)    DE(int)     intcor
     14.58     -18.04       1.83        0.00      82.67       1.27       1.68       1.77       ----

> <Gold.Chemscore.Fitness>
14.5842

> <Gold.Chemscore.DG>
-18.0358

> <Gold.Chemscore.ZeroCoef>
-5.4800

> <Gold.Chemscore.Hbond>
1.8333

> <Gold.Chemscore.Metal>
0.0000

> <Gold.Chemscore.Lipo>
82.6665

> <Gold.Chemscore.Internal_Hbond>
0.0000

> <Gold.Chemscore.DEClash>
1.6833

> <Gold.Chemscore.DEInternal>
1.7684

> <Gold.Chemscore.Rot>
1.2653

> <Gold.Chemscore.Internal.Correction>
   9.000000E+99

> <Gold.Chemscore.Hbonds>
donor molecule, donor type, donor heavy atom, donor atom, acceptor molecule, acceptor atom, score
      L1  H     7    30       P1  8028  0.85
      L1  H    10    31       P1  8028  0.53

> <Gold.Chemscore.Hbond.Weighted>
-6.1231

> <Gold.Chemscore.Metal.Weighted>
-0.0000

> <Gold.Chemscore.Lipo.Weighted>
-9.6720

> <Gold.Chemscore.Internal_Hbond.Weighted>
0.0000

> <Gold.Chemscore.DEClash.Weighted>
1.6833

> <Gold.Chemscore.DEInternal.Weighted>
1.7684

> <Gold.Chemscore.Rot.Weighted>
3.2392

> <Gold.Chemscore.Internal.Correction.Weighted>
   9.000000E+99

> <Gold.Protein.RotatedTorsions>
[ 6907 6896 6895 6894 ] final   25.84 input  -60.11 | X-H torsion
[ 7974 7965 7964 7962 ] final -171.56 input  175.53 | X-H torsion
[ 8008 7997 7996 7995 ] final -140.13 input   59.86 | X-H torsion
[ 10167 10162 10161 10158 ] final  131.35 input  -65.29 | X-H torsion
[ 10718 10713 10712 10709 ] final  124.79 input   66.30 | X-H torsion
[ 10763 10752 10751 10750 ] final -148.12 input  -60.55 | X-H torsion
[ 11005 11000 10999 10996 ] final  -95.24 input  -57.11 | X-H torsion

> <Gold.Protein.ActiveResidues>
 VAL166  LYS551  ARG553  GLY616  TRP617  ASP618  TYR619  PRO620  LYS621  CYS622 
 ASP623  PHE694  ASN695  SER759  ASP760  ASP761  ALA762  ILE779  LEU786  VAL792 
 PHE793  MET794  SER795  GLU796  ALA797  LYS798  CYS799  TRP800  GLU811  SER814 

> <Gold.Protein.RotatedAtoms>
  151.9786  135.0040  160.0556 H   0  0  0  0  0  0  0  0  0  0  0  0  # atno 6907 bound_to 6896
  152.1717  133.4643  159.4921 H   0  0  0  0  0  0  0  0  0  0  0  0  # atno 6908 bound_to 6896
  150.6903  134.1862  159.4310 H   0  0  0  0  0  0  0  0  0  0  0  0  # atno 6909 bound_to 6896
  144.7156  140.1904  143.6349 H   0  0  0  0  0  0  0  0  0  0  0  0  # atno 7974 bound_to 7965
  155.4563  140.0542  157.2996 H   0  0  0  0  0  0  0  0  0  0  0  0  # atno 8008 bound_to 7997
  154.4756  140.2059  155.9842 H   0  0  0  0  0  0  0  0  0  0  0  0  # atno 8009 bound_to 7997
  156.1126  140.3201  155.8099 H   0  0  0  0  0  0  0  0  0  0  0  0  # atno 8010 bound_to 7997
  139.5388  144.6709  151.4695 H   0  0  0  0  0  0  0  0  0  0  0  0  # atno 10167 bound_to 10162
  157.5556  131.1092  150.8627 H   0  0  0  0  0  0  0  0  0  0  0  0  # atno 10718 bound_to 10713
  154.8250  135.3342  154.6925 H   0  0  0  0  0  0  0  0  0  0  0  0  # atno 10763 bound_to 10752
  153.7552  135.6936  153.4941 H   0  0  0  0  0  0  0  0  0  0  0  0  # atno 10764 bound_to 10752
  153.2148  135.4469  155.0372 H   0  0  0  0  0  0  0  0  0  0  0  0  # atno 10765 bound_to 10752
  141.1447  133.8012  157.0408 H   0  0  0  0  0  0  0  0  0  0  0  0  # atno 11005 bound_to 11000
  145.8773  139.2304  143.1626 LP  0  0  0  0  0  0  0  0  0  0  0  0  # atno 17320 bound_to 7965
  146.0028  140.8505  143.0010 LP  0  0  0  0  0  0  0  0  0  0  0  0  # atno 17321 bound_to 7965
  140.6608  143.8503  150.6885 LP  0  0  0  0  0  0  0  0  0  0  0  0  # atno 17342 bound_to 10162
  140.1897  143.4047  152.1872 LP  0  0  0  0  0  0  0  0  0  0  0  0  # atno 17343 bound_to 10162
  156.9139  130.5290  149.5280 LP  0  0  0  0  0  0  0  0  0  0  0  0  # atno 17370 bound_to 10713
  156.0616  130.5667  150.9204 LP  0  0  0  0  0  0  0  0  0  0  0  0  # atno 17371 bound_to 10713
  140.0694  134.9711  157.1441 LP  0  0  0  0  0  0  0  0  0  0  0  0  # atno 17394 bound_to 11000
  140.3733  134.2366  155.7176 LP  0  0  0  0  0  0  0  0  0  0  0  0  # atno 17395 bound_to 11000

$$$$
