AV-unprocessed.smi:153|AV-procd|sdf|1256|dock4
  -GOLD-   2262018493D 1   1.00000     0.00000
 Structure written by MMmdl.
 60 63  0  0  0  0  0  0  0  0  2 V2000
  151.6072  143.3392  157.5705 C   0  0  0  0  0  0  0  0  0  0  0  0
  151.6526  142.6170  158.9290 C   0  0  2  0  0  0  0  0  0  0  0  0
  152.5989  143.2482  159.7903 O   0  0  0  0  0  0  0  0  0  0  0  0
  153.6224  142.3296  160.1412 C   0  0  0  0  0  0  0  0  0  0  0  0
  152.9251  140.9765  160.1108 C   0  0  0  0  0  0  0  0  0  0  0  0
  152.0045  141.1067  158.9064 C   0  0  2  0  0  0  0  0  0  0  0  0
  152.7532  140.7792  157.7465 O   0  0  0  0  0  0  0  0  0  0  0  0
  150.7826  140.1593  158.9894 C   0  0  0  0  0  0  0  0  0  0  0  0
  149.8436  140.3292  157.8918 N   0  0  0  0  0  0  0  0  0  0  0  0
  148.5689  140.8386  157.9728 C   0  0  0  0  0  0  0  0  0  0  0  0
  147.9314  140.9159  156.8381 N   0  0  0  0  0  0  0  0  0  0  0  0
  148.8219  140.4039  155.8989 C   0  0  0  0  0  0  0  0  0  0  0  0
  148.7910  140.2098  154.4828 C   0  0  0  0  0  0  0  0  0  0  0  0
  147.7479  140.5290  153.6655 N   0  0  0  0  0  0  0  0  0  0  0  0
  147.0142  141.7702  153.8805 C   0  0  0  0  0  0  0  0  0  0  0  0
  147.6761  139.9101  152.3401 C   0  0  0  0  0  0  0  0  0  0  0  0
  146.5194  138.8958  152.2209 C   0  0  1  0  0  0  0  0  0  0  0  0
  146.9576  137.8097  151.4276 O   0  0  0  0  0  0  0  0  0  0  0  0
  146.1204  138.3274  153.5974 C   0  0  0  0  0  0  0  0  0  0  0  0
  144.6487  138.2140  153.7635 N   0  3  0  0  0  0  0  0  0  0  0  0
  144.0440  137.2363  152.8279 C   0  0  0  0  0  0  0  0  0  0  0  0
  142.5150  137.2136  152.9916 C   0  0  0  0  0  0  0  0  0  0  0  0
  142.1858  136.9041  154.3401 O   0  0  0  0  0  0  0  0  0  0  0  0
  142.6877  137.8775  155.2474 C   0  0  0  0  0  0  0  0  0  0  0  0
  144.2225  137.9288  155.1563 C   0  0  0  0  0  0  0  0  0  0  0  0
  149.9028  139.6735  153.9125 N   0  0  0  0  0  0  0  0  0  0  0  0
  150.9645  139.3474  154.6532 C   0  0  0  0  0  0  0  0  0  0  0  0
  151.1324  139.4773  155.9687 N   0  0  0  0  0  0  0  0  0  0  0  0
  150.0285  140.0203  156.5554 C   0  0  0  0  0  0  0  0  0  0  0  0
  150.8993  142.8643  156.8914 H   0  0  0  0  0  0  0  0  0  0  0  0
  152.5845  143.3466  157.0875 H   0  0  0  0  0  0  0  0  0  0  0  0
  151.2982  144.3769  157.6964 H   0  0  0  0  0  0  0  0  0  0  0  0
  150.6872  142.7493  159.4185 H   0  0  0  0  0  0  0  0  0  0  0  0
  154.4166  142.3732  159.3947 H   0  0  0  0  0  0  0  0  0  0  0  0
  154.0539  142.5615  161.1152 H   0  0  0  0  0  0  0  0  0  0  0  0
  153.6191  140.1374  160.0462 H   0  0  0  0  0  0  0  0  0  0  0  0
  152.3414  140.8562  161.0244 H   0  0  0  0  0  0  0  0  0  0  0  0
  152.2133  140.9331  156.9864 H   0  0  0  0  0  0  0  0  0  0  0  0
  151.1077  139.1183  159.0098 H   0  0  0  0  0  0  0  0  0  0  0  0
  150.2410  140.3266  159.9214 H   0  0  0  0  0  0  0  0  0  0  0  0
  148.1292  141.1685  158.9028 H   0  0  0  0  0  0  0  0  0  0  0  0
  146.7405  141.8839  154.9300 H   0  0  0  0  0  0  0  0  0  0  0  0
  146.0911  141.7787  153.3006 H   0  0  0  0  0  0  0  0  0  0  0  0
  147.6098  142.6305  153.5744 H   0  0  0  0  0  0  0  0  0  0  0  0
  147.6399  140.6505  151.5399 H   0  0  0  0  0  0  0  0  0  0  0  0
  148.6204  139.3857  152.1907 H   0  0  0  0  0  0  0  0  0  0  0  0
  145.6615  139.3696  151.7444 H   0  0  0  0  0  0  0  0  0  0  0  0
  147.4354  137.2079  151.9791 H   0  0  0  0  0  0  0  0  0  0  0  0
  146.5782  137.3432  153.7112 H   0  0  0  0  0  0  0  0  0  0  0  0
  146.5248  138.9452  154.4008 H   0  0  0  0  0  0  0  0  0  0  0  0
  144.2969  137.4998  151.8002 H   0  0  0  0  0  0  0  0  0  0  0  0
  144.4563  136.2438  153.0168 H   0  0  0  0  0  0  0  0  0  0  0  0
  142.0785  138.1728  152.7078 H   0  0  0  0  0  0  0  0  0  0  0  0
  142.0776  136.4591  152.3378 H   0  0  0  0  0  0  0  0  0  0  0  0
  142.2517  138.8540  155.0306 H   0  0  0  0  0  0  0  0  0  0  0  0
  142.3803  137.6093  156.2583 H   0  0  0  0  0  0  0  0  0  0  0  0
  144.6455  136.9771  155.4815 H   0  0  0  0  0  0  0  0  0  0  0  0
  144.5958  138.6928  155.8371 H   0  0  0  0  0  0  0  0  0  0  0  0
  151.8003  138.9268  154.1135 H   0  0  0  0  0  0  0  0  0  0  0  0
  144.2672  139.1157  153.5136 H   0  0  0  0  0  0  0  0  0  0  0  0
  1  2  1  0  0  0  0
  1 30  1  0  0  0  0
  1 31  1  0  0  0  0
  1 32  1  0  0  0  0
  2  6  1  0  0  0  0
  2  3  1  0  0  0  0
  2 33  1  0  0  0  0
  3  4  1  0  0  0  0
  4  5  1  0  0  0  0
  4 34  1  0  0  0  0
  4 35  1  0  0  0  0
  5  6  1  0  0  0  0
  5 36  1  0  0  0  0
  5 37  1  0  0  0  0
  6  7  1  0  0  0  0
  6  8  1  0  0  0  0
  7 38  1  0  0  0  0
  8  9  1  0  0  0  0
  8 39  1  0  0  0  0
  8 40  1  0  0  0  0
  9 29  1  0  0  0  0
  9 10  1  0  0  0  0
 10 11  2  0  0  0  0
 10 41  1  0  0  0  0
 11 12  1  0  0  0  0
 12 29  2  0  0  0  0
 12 13  1  0  0  0  0
 13 14  1  0  0  0  0
 13 26  2  0  0  0  0
 14 15  1  0  0  0  0
 14 16  1  0  0  0  0
 15 42  1  0  0  0  0
 15 43  1  0  0  0  0
 15 44  1  0  0  0  0
 16 17  1  0  0  0  0
 16 45  1  0  0  0  0
 16 46  1  0  0  0  0
 17 18  1  0  0  0  0
 17 19  1  0  0  0  0
 17 47  1  0  0  0  0
 18 48  1  0  0  0  0
 19 20  1  0  0  0  0
 19 49  1  0  0  0  0
 19 50  1  0  0  0  0
 20 25  1  0  0  0  0
 20 21  1  0  0  0  0
 20 60  1  0  0  0  0
 21 22  1  0  0  0  0
 21 51  1  0  0  0  0
 21 52  1  0  0  0  0
 22 23  1  0  0  0  0
 22 53  1  0  0  0  0
 22 54  1  0  0  0  0
 23 24  1  0  0  0  0
 24 25  1  0  0  0  0
 24 55  1  0  0  0  0
 24 56  1  0  0  0  0
 25 57  1  0  0  0  0
 25 58  1  0  0  0  0
 26 27  1  0  0  0  0
 27 28  2  0  0  0  0
 27 59  1  0  0  0  0
 28 29  1  0  0  0  0
M  CHG  1  20   1
M  END
> <s_m_source_file>
AV-unprocessed.smi

> <i_m_source_file_index>
153

> <i_lp_mmshare_version>
43012

> <i_f3d_flags>
0

> <s_epik_input>
W0NIMl0xW0NIMl1PW0NAQEhdKFtDSDNdKVtDQEBdMShbT0hdKVtDSDJdbihbY0hdbjIpYyhjMjMpbltjSF1uYzNOKFtDSDNdKVtDSDJdW0NASF0oW09IXSlbQ0gyXU40W0NIMl1bQ0gyXU9bQ0gyXVtDSDJdNA==

> <s_epik_cmdline>
J2VwaWtfcHl0aG9uJywgJy1waCcsICc3LjAnLCAnLXRuJywgJzgnLCAnLW1hJywgJzIwMCcsICctbWV0YWxfYmluZGluZycsICctaW1hZScsICc8aW5maWxlLm1hZT4nLCAnLW9tYWUnLCAnPG91dGZpbGUubWFlPic=

> <r_lp_tautomer_probability>
1

> <r_epik_Ionization_Penalty>
0.403509

> <r_epik_Ionization_Penalty_Charging>
0.40072

> <r_epik_Ionization_Penalty_Neutral>
0.00278876

> <r_epik_State_Penalty>
0.400058

> <r_epik_Charging_Adjusted_Penalty>
0.800778

> <i_epik_Tot_Q>
1

> <i_epik_Tot_abs_Q>
1

> <r_epik_Metal_State_Penalty>
0.400321

> <b_epik_Metal_Only>
0

> <s_lp_Force_Field>
OPLS_2005

> <r_lp_Energy>
47.9216

> <b_lp_Chiralities_Consistent>
1

> <s_lp_Variant>
AV-unprocessed.smi:153-7

> <Gold.Version>
5.8.1

> <Gold.Id.Protein>
6NUR|6NUR_protein|mol2

> <Gold.PLP.Fitness>
44.9928

> <Gold.PLP.PLP>
-34.7923

> <Gold.PLP.part.hbond>
-4.8314

> <Gold.PLP.part.metal>
0.0000

> <Gold.PLP.part.buried>
3.7447

> <Gold.PLP.part.nonpolar>
-36.8006

> <Gold.PLP.part.repulsive>
2.6431

> <Gold.PLP.ligand.clash>
0.0000

> <Gold.PLP.ligand.torsion>
1.8471

> <Gold.PLP.Chemscore.Hbond>
4.4080

> <Gold.PLP.Chemscore.CHOScore>
0.0000

> <Gold.PLP.Chemscore.Metal>
0.0000

> <Gold.Chemscore.Hbonds>
donor molecule, donor type, donor heavy atom, donor atom, acceptor molecule, acceptor atom, score
      L1  H    18    48       P1  7948  0.70
      L1  H    20    60       P1 10175  2.00
      P1  H  7954  7966       L1    18  0.95
      P1  H  7997  8009       L1     7  0.55

> <Gold.PLP.Chemscore.Internal.Correction>
0.6708

> <Gold.Rescore>
     Score         DG    S(hbond)    S(metal)    S(lipo)     H(rot)  DE(clash)    DE(int)     intcor
      9.55     -15.70       2.37        0.00      98.76       3.62       3.01       3.14       ----

> <Gold.Chemscore.Fitness>
9.5521

> <Gold.Chemscore.DG>
-15.7003

> <Gold.Chemscore.ZeroCoef>
-5.4800

> <Gold.Chemscore.Hbond>
2.3737

> <Gold.Chemscore.Metal>
0.0000

> <Gold.Chemscore.Lipo>
98.7567

> <Gold.Chemscore.Internal_Hbond>
0.0000

> <Gold.Chemscore.DEClash>
3.0077

> <Gold.Chemscore.DEInternal>
3.1404

> <Gold.Chemscore.Rot>
3.6182

> <Gold.Chemscore.Internal.Correction>
   9.000000E+99

> <Gold.Chemscore.Hbonds>
donor molecule, donor type, donor heavy atom, donor atom, acceptor molecule, acceptor atom, score
      L1  H    18    48       P1  7948  0.70
      L1  H    20    60       P1 10175  0.99
      P1  H  7954  7966       L1    18  0.21
      P1  H  7997  8009       L1     7  0.27

> <Gold.Chemscore.Hbond.Weighted>
-7.9282

> <Gold.Chemscore.Metal.Weighted>
-0.0000

> <Gold.Chemscore.Lipo.Weighted>
-11.5545

> <Gold.Chemscore.Internal_Hbond.Weighted>
0.0000

> <Gold.Chemscore.DEClash.Weighted>
3.0077

> <Gold.Chemscore.DEInternal.Weighted>
3.1404

> <Gold.Chemscore.Rot.Weighted>
9.2625

> <Gold.Chemscore.Internal.Correction.Weighted>
   9.000000E+99

> <Gold.Protein.RotatedTorsions>
[ 6907 6896 6895 6894 ] final  134.21 input  -60.11 | X-H torsion
[ 7974 7965 7964 7962 ] final   95.31 input  175.53 | X-H torsion
[ 8008 7997 7996 7995 ] final  157.10 input   59.86 | X-H torsion
[ 10167 10162 10161 10158 ] final -151.46 input  -65.29 | X-H torsion
[ 10718 10713 10712 10709 ] final  141.18 input   66.30 | X-H torsion
[ 10763 10752 10751 10750 ] final  -54.96 input  -60.55 | X-H torsion
[ 11005 11000 10999 10996 ] final -164.29 input  -57.11 | X-H torsion

> <Gold.Protein.ActiveResidues>
 VAL166  LYS551  ARG553  GLY616  TRP617  ASP618  TYR619  PRO620  LYS621  CYS622 
 ASP623  PHE694  ASN695  SER759  ASP760  ASP761  ALA762  ILE779  LEU786  VAL792 
 PHE793  MET794  SER795  GLU796  ALA797  LYS798  CYS799  TRP800  GLU811  SER814 

> <Gold.Protein.RotatedAtoms>
  152.3138  133.5780  159.5698 H   0  0  0  0  0  0  0  0  0  0  0  0  # atno 6907 bound_to 6896
  150.7336  134.0113  159.3679 H   0  0  0  0  0  0  0  0  0  0  0  0  # atno 6908 bound_to 6896
  151.8004  135.0711  160.0450 H   0  0  0  0  0  0  0  0  0  0  0  0  # atno 6909 bound_to 6896
  145.4539  139.2291  143.3024 H   0  0  0  0  0  0  0  0  0  0  0  0  # atno 7974 bound_to 7965
  156.2384  140.1894  156.7056 H   0  0  0  0  0  0  0  0  0  0  0  0  # atno 8008 bound_to 7997
  154.6150  140.0616  156.9569 H   0  0  0  0  0  0  0  0  0  0  0  0  # atno 8009 bound_to 7997
  155.1954  140.3288  155.4354 H   0  0  0  0  0  0  0  0  0  0  0  0  # atno 8010 bound_to 7997
  139.7265  143.8874  152.2521 H   0  0  0  0  0  0  0  0  0  0  0  0  # atno 10167 bound_to 10162
  157.3949  131.1009  151.0610 H   0  0  0  0  0  0  0  0  0  0  0  0  # atno 10718 bound_to 10713
  154.1833  135.6440  153.5040 H   0  0  0  0  0  0  0  0  0  0  0  0  # atno 10763 bound_to 10752
  153.0054  135.5411  154.6492 H   0  0  0  0  0  0  0  0  0  0  0  0  # atno 10764 bound_to 10752
  154.5862  135.2930  155.0655 H   0  0  0  0  0  0  0  0  0  0  0  0  # atno 10765 bound_to 10752
  140.5886  134.5068  157.5189 H   0  0  0  0  0  0  0  0  0  0  0  0  # atno 11005 bound_to 11000
  146.2489  140.5301  142.8902 LP  0  0  0  0  0  0  0  0  0  0  0  0  # atno 17320 bound_to 7965
  144.8044  140.6272  143.6457 LP  0  0  0  0  0  0  0  0  0  0  0  0  # atno 17321 bound_to 7965
  139.8785  144.7030  150.8905 LP  0  0  0  0  0  0  0  0  0  0  0  0  # atno 17342 bound_to 10162
  140.7763  143.3680  151.1703 LP  0  0  0  0  0  0  0  0  0  0  0  0  # atno 17343 bound_to 10162
  157.1630  130.6234  149.5616 LP  0  0  0  0  0  0  0  0  0  0  0  0  # atno 17370 bound_to 10713
  155.9808  130.4811  150.6791 LP  0  0  0  0  0  0  0  0  0  0  0  0  # atno 17371 bound_to 10713
  139.9284  134.8010  156.1000 LP  0  0  0  0  0  0  0  0  0  0  0  0  # atno 17394 bound_to 11000
  141.0950  133.6699  156.2624 LP  0  0  0  0  0  0  0  0  0  0  0  0  # atno 17395 bound_to 11000

$$$$
