AV-unprocessed.smi:1673|AV-procd|sdf|6712|dock10
  -GOLD-   22720 7453D 1   1.00000     0.00000
 Structure written by MMmdl.
 39 40  0  0  0  0  0  0  0  0  1 V2000
  150.0076  132.3894  156.1768 C   0  0  0  0  0  0  0  0  0  0  0  0
  150.3933  133.8328  156.0084 C   0  0  0  0  0  0  0  0  0  0  0  0
  151.3264  134.3457  156.7968 N   0  0  0  0  0  0  0  0  0  0  0  0
  151.5313  135.6678  156.3728 O   0  0  0  0  0  0  0  0  0  0  0  0
  150.7057  135.9266  155.3254 C   0  0  0  0  0  0  0  0  0  0  0  0
  150.7894  137.2851  154.7157 C   0  0  0  0  0  0  0  0  0  0  0  0
  149.9506  134.8184  155.0776 C   0  0  0  0  0  0  0  0  0  0  0  0
  148.9942  134.7094  154.0373 N   0  0  0  0  0  0  0  0  0  0  0  0
  147.9357  133.8859  154.0029 C   0  0  0  0  0  0  0  0  0  0  0  0
  147.6124  133.1208  154.9108 O   0  0  0  0  0  0  0  0  0  0  0  0
  147.2566  134.0128  152.8536 N   0  0  0  0  0  0  0  0  0  0  0  0
  146.0473  133.2762  152.4876 C   0  0  1  0  0  0  0  0  0  0  0  0
  145.3334  134.0332  151.3505 C   0  0  0  0  0  0  0  0  0  0  0  0
  144.0795  133.2884  150.8703 C   0  0  0  0  0  0  0  0  0  0  0  0
  144.4231  131.8563  150.4398 C   0  0  0  0  0  0  0  0  0  0  0  0
  145.1199  131.0921  151.5757 C   0  0  0  0  0  0  0  0  0  0  0  0
  146.3864  131.8216  152.0688 C   0  0  2  0  0  0  0  0  0  0  0  0
  147.0650  131.0175  153.1926 C   0  0  0  0  0  0  0  0  0  0  0  0
  149.7413  131.9378  155.2211 H   0  0  0  0  0  0  0  0  0  0  0  0
  149.1543  132.2877  156.8474 H   0  0  0  0  0  0  0  0  0  0  0  0
  150.8270  131.8035  156.5943 H   0  0  0  0  0  0  0  0  0  0  0  0
  150.1656  137.3551  153.8246 H   0  0  0  0  0  0  0  0  0  0  0  0
  151.8150  137.5163  154.4282 H   0  0  0  0  0  0  0  0  0  0  0  0
  150.4557  138.0455  155.4219 H   0  0  0  0  0  0  0  0  0  0  0  0
  149.0767  135.3788  153.2863 H   0  0  0  0  0  0  0  0  0  0  0  0
  147.6032  134.6726  152.1729 H   0  0  0  0  0  0  0  0  0  0  0  0
  145.3624  133.2374  153.3370 H   0  0  0  0  0  0  0  0  0  0  0  0
  145.0567  135.0338  151.6850 H   0  0  0  0  0  0  0  0  0  0  0  0
  146.0155  134.1673  150.5094 H   0  0  0  0  0  0  0  0  0  0  0  0
  143.3386  133.2638  151.6705 H   0  0  0  0  0  0  0  0  0  0  0  0
  143.6215  133.8269  150.0401 H   0  0  0  0  0  0  0  0  0  0  0  0
  143.5162  131.3310  150.1392 H   0  0  0  0  0  0  0  0  0  0  0  0
  145.0714  131.8820  149.5630 H   0  0  0  0  0  0  0  0  0  0  0  0
  144.4233  130.9639  152.4057 H   0  0  0  0  0  0  0  0  0  0  0  0
  145.3766  130.0892  151.2328 H   0  0  0  0  0  0  0  0  0  0  0  0
  147.0860  131.8654  151.2325 H   0  0  0  0  0  0  0  0  0  0  0  0
  146.4350  130.9728  154.0816 H   0  0  0  0  0  0  0  0  0  0  0  0
  148.0199  131.4557  153.4827 H   0  0  0  0  0  0  0  0  0  0  0  0
  147.2655  129.9939  152.8754 H   0  0  0  0  0  0  0  0  0  0  0  0
  1  2  1  0  0  0  0
  1 19  1  0  0  0  0
  1 20  1  0  0  0  0
  1 21  1  0  0  0  0
  2  7  1  0  0  0  0
  2  3  2  0  0  0  0
  3  4  1  0  0  0  0
  4  5  1  0  0  0  0
  5  6  1  0  0  0  0
  5  7  2  0  0  0  0
  6 22  1  0  0  0  0
  6 23  1  0  0  0  0
  6 24  1  0  0  0  0
  7  8  1  0  0  0  0
  8  9  1  0  0  0  0
  8 25  1  0  0  0  0
  9 10  2  0  0  0  0
  9 11  1  0  0  0  0
 11 12  1  0  0  0  0
 11 26  1  0  0  0  0
 12 17  1  0  0  0  0
 12 13  1  0  0  0  0
 12 27  1  0  0  0  0
 13 14  1  0  0  0  0
 13 28  1  0  0  0  0
 13 29  1  0  0  0  0
 14 15  1  0  0  0  0
 14 30  1  0  0  0  0
 14 31  1  0  0  0  0
 15 16  1  0  0  0  0
 15 32  1  0  0  0  0
 15 33  1  0  0  0  0
 16 17  1  0  0  0  0
 16 34  1  0  0  0  0
 16 35  1  0  0  0  0
 17 18  1  0  0  0  0
 17 36  1  0  0  0  0
 18 37  1  0  0  0  0
 18 38  1  0  0  0  0
 18 39  1  0  0  0  0
M  END
> <s_m_source_file>
AV-unprocessed.smi

> <i_m_source_file_index>
1673

> <i_lp_mmshare_version>
43012

> <i_f3d_flags>
0

> <s_epik_input>
W0NIM11jMW5vYyhbQ0gzXSljMVtOSF1DKD1PKVtOSF1bQ0BASF0yW0NIMl1bQ0gyXVtDSDJdW0NIMl1bQ0BIXTJbQ0gzXQ==

> <s_epik_cmdline>
J2VwaWtfcHl0aG9uJywgJy1waCcsICc3LjAnLCAnLXRuJywgJzgnLCAnLW1hJywgJzIwMCcsICctbWV0YWxfYmluZGluZycsICctaW1hZScsICc8aW5maWxlLm1hZT4nLCAnLW9tYWUnLCAnPG91dGZpbGUubWFlPic=

> <r_lp_tautomer_probability>
1

> <r_epik_Ionization_Penalty>
4.01865e-05

> <r_epik_Ionization_Penalty_Charging>
0

> <r_epik_Ionization_Penalty_Neutral>
4.01865e-05

> <r_epik_State_Penalty>
-0

> <r_epik_Charging_Adjusted_Penalty>
0

> <i_epik_Tot_Q>
0

> <i_epik_Tot_abs_Q>
0

> <r_epik_Metal_State_Penalty>
-0

> <b_epik_Metal_Only>
0

> <s_lp_Force_Field>
OPLS_2005

> <r_lp_Energy>
12.0286

> <b_lp_Chiralities_Consistent>
1

> <s_lp_Variant>
AV-unprocessed.smi:1673-4

> <Gold.Version>
5.8.1

> <Gold.Id.Protein>
6NUR|6NUR_protein|mol2

> <Gold.PLP.Fitness>
38.0801

> <Gold.PLP.PLP>
-29.9352

> <Gold.PLP.part.hbond>
-3.3647

> <Gold.PLP.part.metal>
0.0000

> <Gold.PLP.part.buried>
-3.2158

> <Gold.PLP.part.nonpolar>
-23.2268

> <Gold.PLP.part.repulsive>
0.0356

> <Gold.PLP.ligand.clash>
0.0000

> <Gold.PLP.ligand.torsion>
0.3915

> <Gold.PLP.Chemscore.Hbond>
2.8880

> <Gold.PLP.Chemscore.CHOScore>
0.0000

> <Gold.PLP.Chemscore.Metal>
0.0000

> <Gold.Chemscore.Hbonds>
donor molecule, donor type, donor heavy atom, donor atom, acceptor molecule, acceptor atom, score
      L1  H     8    25       P1  7948  1.00
      L1  H    11    26       P1  7948  0.87
      P1  H 10752 10763       L1     4  0.55

> <Gold.PLP.Chemscore.Internal.Correction>
0.2639

> <Gold.Rescore>
     Score         DG    S(hbond)    S(metal)    S(lipo)     H(rot)  DE(clash)    DE(int)     intcor
     13.63     -18.34       2.17        0.00      69.92       1.00       0.04       4.68       ----

> <Gold.Chemscore.Fitness>
13.6266

> <Gold.Chemscore.DG>
-18.3449

> <Gold.Chemscore.ZeroCoef>
-5.4800

> <Gold.Chemscore.Hbond>
2.1689

> <Gold.Chemscore.Metal>
0.0000

> <Gold.Chemscore.Lipo>
69.9223

> <Gold.Chemscore.Internal_Hbond>
0.0000

> <Gold.Chemscore.DEClash>
0.0402

> <Gold.Chemscore.DEInternal>
4.6780

> <Gold.Chemscore.Rot>
1.0000

> <Gold.Chemscore.Internal.Correction>
   9.000000E+99

> <Gold.Chemscore.Hbonds>
donor molecule, donor type, donor heavy atom, donor atom, acceptor molecule, acceptor atom, score
      L1  H     8    25       P1  7948  0.44
      L1  H    11    26       P1  7948  0.56
      P1  H 10752 10763       L1     4  0.02

> <Gold.Chemscore.Hbond.Weighted>
-7.2440

> <Gold.Chemscore.Metal.Weighted>
-0.0000

> <Gold.Chemscore.Lipo.Weighted>
-8.1809

> <Gold.Chemscore.Internal_Hbond.Weighted>
0.0000

> <Gold.Chemscore.DEClash.Weighted>
0.0402

> <Gold.Chemscore.DEInternal.Weighted>
4.6780

> <Gold.Chemscore.Rot.Weighted>
2.5600

> <Gold.Chemscore.Internal.Correction.Weighted>
   9.000000E+99

> <Gold.Protein.RotatedTorsions>
[ 6907 6896 6895 6894 ] final -143.09 input  -60.11 | X-H torsion
[ 7974 7965 7964 7962 ] final -121.48 input  175.53 | X-H torsion
[ 8008 7997 7996 7995 ] final  -31.61 input   59.86 | X-H torsion
[ 10167 10162 10161 10158 ] final  -59.47 input  -65.29 | X-H torsion
[ 10718 10713 10712 10709 ] final -111.66 input   66.30 | X-H torsion
[ 10763 10752 10751 10750 ] final  109.12 input  -60.55 | X-H torsion
[ 11005 11000 10999 10996 ] final  -21.90 input  -57.11 | X-H torsion

> <Gold.Protein.ActiveResidues>
 VAL166  LYS551  ARG553  GLY616  TRP617  ASP618  TYR619  PRO620  LYS621  CYS622 
 ASP623  PHE694  ASN695  SER759  ASP760  ASP761  ALA762  ILE779  LEU786  VAL792 
 PHE793  MET794  SER795  GLU796  ALA797  LYS798  CYS799  TRP800  GLU811  SER814 

> <Gold.Protein.RotatedAtoms>
  151.0958  133.5281  159.2612 H   0  0  0  0  0  0  0  0  0  0  0  0  # atno 6907 bound_to 6896
  151.2131  135.0488  159.8929 H   0  0  0  0  0  0  0  0  0  0  0  0  # atno 6908 bound_to 6896
  152.5438  134.0770  159.8272 H   0  0  0  0  0  0  0  0  0  0  0  0  # atno 6909 bound_to 6896
  145.0399  140.8136  143.4272 H   0  0  0  0  0  0  0  0  0  0  0  0  # atno 7974 bound_to 7965
  154.4208  140.1760  156.1594 H   0  0  0  0  0  0  0  0  0  0  0  0  # atno 8008 bound_to 7997
  155.9851  140.3374  155.6675 H   0  0  0  0  0  0  0  0  0  0  0  0  # atno 8009 bound_to 7997
  155.6448  140.0684  157.2597 H   0  0  0  0  0  0  0  0  0  0  0  0  # atno 8010 bound_to 7997
  140.6133  143.2394  151.5657 H   0  0  0  0  0  0  0  0  0  0  0  0  # atno 10167 bound_to 10162
  156.0660  130.5879  150.8404 H   0  0  0  0  0  0  0  0  0  0  0  0  # atno 10718 bound_to 10713
  153.4302  135.3790  155.2166 H   0  0  0  0  0  0  0  0  0  0  0  0  # atno 10763 bound_to 10752
  154.8749  135.3838  154.4277 H   0  0  0  0  0  0  0  0  0  0  0  0  # atno 10764 bound_to 10752
  153.4808  135.7088  153.6002 H   0  0  0  0  0  0  0  0  0  0  0  0  # atno 10765 bound_to 10752
  140.8606  133.7791  156.0070 H   0  0  0  0  0  0  0  0  0  0  0  0  # atno 11005 bound_to 11000
  145.1661  139.2431  143.5366 LP  0  0  0  0  0  0  0  0  0  0  0  0  # atno 17320 bound_to 7965
  146.3508  140.1400  142.8595 LP  0  0  0  0  0  0  0  0  0  0  0  0  # atno 17321 bound_to 7965
  139.5378  144.2731  152.1289 LP  0  0  0  0  0  0  0  0  0  0  0  0  # atno 17342 bound_to 10162
  140.1935  144.4728  150.6467 LP  0  0  0  0  0  0  0  0  0  0  0  0  # atno 17343 bound_to 10162
  157.5702  131.0946  150.9429 LP  0  0  0  0  0  0  0  0  0  0  0  0  # atno 17370 bound_to 10713
  156.9647  130.5468  149.5287 LP  0  0  0  0  0  0  0  0  0  0  0  0  # atno 17371 bound_to 10713
  140.8687  134.2752  157.5201 LP  0  0  0  0  0  0  0  0  0  0  0  0  # atno 17394 bound_to 11000
  139.8707  134.9556  156.4211 LP  0  0  0  0  0  0  0  0  0  0  0  0  # atno 17395 bound_to 11000

$$$$
