#       Name:                AV-unprocessed.smi:2159
#       Creating user name   scv26
#       Creation time:       Fri Mar 27 11:57:32 2020


#       File generated by GOLD software.
#

@<TRIPOS>MOLECULE
AV-unprocessed.smi:2159
    54    56     1
SMALL
NO_CHARGES


@<TRIPOS>ATOM
      1 ****        -2.0987   0.7037   0.8224 O.2            1 S1                 0.0000
      2 ****        -1.4460  -0.0713   0.1224 C.2            1 S1                 0.0000
      3 ****         0.0804   0.0332   0.0596 C.3            1 S1                 0.0000
      4 ****         0.7099   0.4354   1.4084 C.3            1 S1                 0.0000
      5 ****         2.1698   0.5097   1.3133 N.am           1 S1                 0.0000
      6 ****         2.9993  -0.5231   1.5557 C.2            1 S1                 0.0000
      7 ****         2.6865  -1.6887   1.7963 O.2            1 S1                 0.0000
      8 ****         4.4321  -0.0114   1.5637 C.3            1 S1                 0.0000
      9 ****         5.6093  -0.8494   1.0628 C.3            1 S1                 0.0000
     10 ****         6.8852   0.0149   1.2462 C.3            1 S1                 0.0000
     11 ****         6.7701   1.4494   0.6508 C.3            1 S1                 0.0000
     12 ****         5.4608   2.1887   1.0348 C.3            1 S1                 0.0000
     13 ****         4.3067   1.2379   0.7142 C.3            1 S1                 0.0000
     14 ****         2.8495   1.6116   0.9419 C.2            1 S1                 0.0000
     15 ****         2.3912   2.7345   0.7334 O.2            1 S1                 0.0000
     16 ****        -2.0092  -1.0322  -0.6263 N.am           1 S1                 0.0000
     17 ****        -3.4420  -1.2904  -0.7089 C.3            1 S1                 0.0000
     18 ****        -4.1412  -0.3009  -1.6565 C.3            1 S1                 0.0000
     19 ****        -5.6378  -0.5318  -1.7267 C.ar           1 S1                 0.0000
     20 ****        -6.2428  -1.2375  -2.7895 C.ar           1 S1                 0.0000
     21 ****        -7.6421  -1.4167  -2.7884 C.ar           1 S1                 0.0000
     22 ****        -8.4053  -0.8885  -1.7264 C.ar           1 S1                 0.0000
     23 ****        -7.7489  -0.1938  -0.6898 C.ar           1 S1                 0.0000
     24 ****        -6.4066  -0.0430  -0.7265 N.pl3          1 S1                 1.0000
     25 ****         0.4943  -0.9221  -0.2672 H              1 S1                 0.0000
     26 ****         0.3395   0.7649  -0.7063 H              1 S1                 0.0000
     27 ****         0.3180   1.3990   1.7394 H              1 S1                 0.0000
     28 ****         0.4258  -0.2802   2.1825 H              1 S1                 0.0000
     29 ****         4.6314   0.2602   2.6030 H              1 S1                 0.0000
     30 ****         5.6940  -1.7774   1.6290 H              1 S1                 0.0000
     31 ****         5.4748  -1.1227   0.0155 H              1 S1                 0.0000
     32 ****         7.0968   0.1005   2.3128 H              1 S1                 0.0000
     33 ****         7.7440  -0.4975   0.8118 H              1 S1                 0.0000
     34 ****         7.6321   2.0451   0.9520 H              1 S1                 0.0000
     35 ****         6.8228   1.3770  -0.4362 H              1 S1                 0.0000
     36 ****         5.4634   2.4544   2.0927 H              1 S1                 0.0000
     37 ****         5.3683   3.1170   0.4702 H              1 S1                 0.0000
     38 ****         4.3706   0.9783  -0.3452 H              1 S1                 0.0000
     39 ****        -1.4024  -1.6267  -1.1728 H              1 S1                 0.0000
     40 ****        -3.5856  -2.3110  -1.0649 H              1 S1                 0.0000
     41 ****        -3.8828  -1.2452   0.2885 H              1 S1                 0.0000
     42 ****        -3.9650   0.7257  -1.3321 H              1 S1                 0.0000
     43 ****        -3.7183  -0.3817  -2.6589 H              1 S1                 0.0000
     44 ****        -5.6448  -1.6375  -3.5957 H              1 S1                 0.0000
     45 ****        -8.1241  -1.9528  -3.5929 H              1 S1                 0.0000
     46 ****        -9.4780  -1.0150  -1.7072 H              1 S1                 0.0000
     47 ****        -8.2525   0.2427   0.1605 H              1 S1                 0.0000
     48 ****        -5.9518   0.4630   0.0341 H              1 S1                 0.0000
     49 ****        -1.6322   1.4090   1.3562 LP             1 S1                 0.0000
     50 ****        -3.0952   0.6277   0.8570 LP             1 S1                 0.0000
     51 ****         1.7221  -1.9514   1.8270 LP             1 S1                 0.0000
     52 ****         3.3967  -2.3731   1.9612 LP             1 S1                 0.0000
     53 ****         1.4107   2.9016   0.8371 LP             1 S1                 0.0000
     54 ****         2.9992   3.4800   0.4603 LP             1 S1                 0.0000
@<TRIPOS>BOND
    1    1    2 2     
    2    2    3 1     
    3    2   16 am    
    4    3    4 1     
    5    3   25 1     
    6    3   26 1     
    7    4    5 1     
    8    4   27 1     
    9    4   28 1     
   10    5   14 am    
   11    5    6 am    
   12    6    7 2     
   13    6    8 1     
   14    8   13 1     
   15    8    9 1     
   16    8   29 1     
   17    9   10 1     
   18    9   30 1     
   19    9   31 1     
   20   10   11 1     
   21   10   32 1     
   22   10   33 1     
   23   11   12 1     
   24   11   34 1     
   25   11   35 1     
   26   12   13 1     
   27   12   36 1     
   28   12   37 1     
   29   13   14 1     
   30   13   38 1     
   31   14   15 2     
   32   16   17 1     
   33   16   39 1     
   34   17   18 1     
   35   17   40 1     
   36   17   41 1     
   37   18   19 1     
   38   18   42 1     
   39   18   43 1     
   40   19   24 ar    
   41   19   20 ar    
   42   20   21 ar    
   43   20   44 1     
   44   21   22 ar    
   45   21   45 1     
   46   22   23 ar    
   47   22   46 1     
   48   23   24 ar    
   49   23   47 1     
   50   24   48 1     
   51    1   49 1     
   52    1   50 1     
   53    7   51 1     
   54    7   52 1     
   55   15   53 1     
   56   15   54 1     
@<TRIPOS>SUBSTRUCTURE
      1 S1             1
@<TRIPOS>SET
LONE_PAIRS      STATIC     ATOMS    <user>   **** ""
6 49 50 51 52 53 54
DONOR_HYDROGENS      STATIC     ATOMS    <user>   **** ""
2 39 48
ATOM$BLUE        STATIC     ATOMS    COLORGROUP SYSTEM
6 49 50 51 52 53 54
ATOM$RED        STATIC     ATOMS    COLORGROUP SYSTEM
2 39 48
