#       Name:                AV-unprocessed.smi:3315
#       Creating user name   scv26
#       Creation time:       Fri Mar 27 19:08:52 2020


#       File generated by GOLD software.
#

@<TRIPOS>MOLECULE
AV-unprocessed.smi:3315
    44    45     1
SMALL
NO_CHARGES


@<TRIPOS>ATOM
      1 ****        -3.6449   2.6595  -0.6184 C.3            1 S1                 0.0000
      2 ****        -2.8994   1.5158  -1.0153 O.3            1 S1                 0.0000
      3 ****        -1.4788   1.6637  -1.0442 C.3            1 S1                 0.0000
      4 ****        -1.0758   2.6614  -2.1413 C.3            1 S1                 0.0000
      5 ****        -0.8856   1.8612   0.3628 C.3            1 S1                 0.0000
      6 ****         0.2018   0.8729  -0.0535 C.3            1 S1                 0.0000
      7 ****         0.6195   0.0016   1.0397 N.am           1 S1                 0.0000
      8 ****         1.6252  -0.8806   0.9620 C.2            1 S1                 0.0000
      9 ****         2.3049  -1.0438  -0.0514 O.2            1 S1                 0.0000
     10 ****         1.7786  -1.5458   2.1193 N.am           1 S1                 0.0000
     11 ****         2.7323  -2.5452   2.4432 C.2            1 S1                 0.0000
     12 ****         3.7276  -3.0774   1.5723 C.2            1 S1                 0.0000
     13 ****         4.3669  -3.9872   2.3653 C.2            1 S1                 0.0000
     14 ****         3.8157  -4.0139   3.6074 O.3            1 S1                 0.0000
     15 ****         2.7674  -3.0866   3.6478 N.2            1 S1                 0.0000
     16 ****        -0.8213   0.2450  -1.0345 C.3            1 S1                 0.0000
     17 ****        -1.6932  -0.9040  -0.4885 C.3            1 S1                 0.0000
     18 ****        -0.2492  -0.2596  -2.3631 C.3            1 S1                 0.0000
     19 ****        -4.6968   2.3870  -0.5360 H              1 S1                 0.0000
     20 ****        -3.5760   3.4636  -1.3503 H              1 S1                 0.0000
     21 ****        -3.3260   3.0393   0.3525 H              1 S1                 0.0000
     22 ****         0.0041   2.6936  -2.2842 H              1 S1                 0.0000
     23 ****        -1.3822   3.6785  -1.8991 H              1 S1                 0.0000
     24 ****        -1.5241   2.3989  -3.0998 H              1 S1                 0.0000
     25 ****        -0.5247   2.8691   0.5695 H              1 S1                 0.0000
     26 ****        -1.5284   1.4952   1.1657 H              1 S1                 0.0000
     27 ****         1.0301   1.3730  -0.5609 H              1 S1                 0.0000
     28 ****         0.1081   0.0754   1.9069 H              1 S1                 0.0000
     29 ****         1.1417  -1.3021   2.8634 H              1 S1                 0.0000
     30 ****         3.9496  -2.8442   0.5421 H              1 S1                 0.0000
     31 ****         5.1937  -4.6619   2.2001 H              1 S1                 0.0000
     32 ****        -1.1098  -1.8110  -0.3267 H              1 S1                 0.0000
     33 ****        -2.4965  -1.1577  -1.1810 H              1 S1                 0.0000
     34 ****        -2.1615  -0.6527   0.4631 H              1 S1                 0.0000
     35 ****         0.2487  -1.2228  -2.2457 H              1 S1                 0.0000
     36 ****         0.4918   0.4249  -2.7754 H              1 S1                 0.0000
     37 ****        -1.0317  -0.3820  -3.1126 H              1 S1                 0.0000
     38 ****        -3.1979   1.2620  -1.9354 LP             1 S1                 0.0000
     39 ****        -3.1156   0.7755  -0.3788 LP             1 S1                 0.0000
     40 ****         2.1174  -0.5033  -0.8716 LP             1 S1                 0.0000
     41 ****         3.0444  -1.7169  -0.0544 LP             1 S1                 0.0000
     42 ****         4.5067  -3.7718   4.2884 LP             1 S1                 0.0000
     43 ****         3.4636  -4.9297   3.8007 LP             1 S1                 0.0000
     44 ****         2.1718  -2.8784   4.4236 LP             1 S1                 0.0000
@<TRIPOS>BOND
    1    1    2 1     
    2    1   19 1     
    3    1   20 1     
    4    1   21 1     
    5    2    3 1     
    6    3   16 1     
    7    3    4 1     
    8    3    5 1     
    9    4   22 1     
   10    4   23 1     
   11    4   24 1     
   12    5    6 1     
   13    5   25 1     
   14    5   26 1     
   15    6    7 1     
   16    6   16 1     
   17    6   27 1     
   18    7    8 am    
   19    7   28 1     
   20    8    9 2     
   21    8   10 am    
   22   10   11 1     
   23   10   29 1     
   24   11   15 2     
   25   11   12 1     
   26   12   13 2     
   27   12   30 1     
   28   13   14 1     
   29   13   31 1     
   30   14   15 1     
   31   16   17 1     
   32   16   18 1     
   33   17   32 1     
   34   17   33 1     
   35   17   34 1     
   36   18   35 1     
   37   18   36 1     
   38   18   37 1     
   39    2   38 1     
   40    2   39 1     
   41    9   40 1     
   42    9   41 1     
   43   14   42 1     
   44   14   43 1     
   45   15   44 1     
@<TRIPOS>SUBSTRUCTURE
      1 S1             1
@<TRIPOS>SET
LONE_PAIRS      STATIC     ATOMS    <user>   **** ""
7 38 39 40 41 42 43 44
DONOR_HYDROGENS      STATIC     ATOMS    <user>   **** ""
2 28 29
ATOM$BLUE        STATIC     ATOMS    COLORGROUP SYSTEM
7 38 39 40 41 42 43 44
ATOM$RED        STATIC     ATOMS    COLORGROUP SYSTEM
2 28 29
