AV-unprocessed.smi:296|AV-procd|sdf|2258|dock7
  -GOLD-   2262022143D 1   1.00000     0.00000
 Structure written by MMmdl.
 36 37  0  0  0  0  0  0  0  0  1 V2000
  154.0637  134.3831  161.2882 N   0  0  0  0  0  0  0  0  0  0  0  0
  154.3179  135.2129  162.0538 C   0  0  0  0  0  0  0  0  0  0  0  0
  154.6372  136.2549  163.0151 C   0  0  0  0  0  0  0  0  0  0  0  0
  154.1180  136.2441  164.2771 N   0  0  0  0  0  0  0  0  0  0  0  0
  154.6856  137.3500  164.7426 C   0  0  0  0  0  0  0  0  0  0  0  0
  155.4708  137.9722  163.8567 N   0  0  0  0  0  0  0  0  0  0  0  0
  156.2598  139.1838  163.9839 C   0  0  0  0  0  0  0  0  0  0  0  0
  155.6743  140.3145  163.1378 C   0  0  0  0  0  0  0  0  0  0  0  0
  155.7733  141.4800  163.5196 O   0  0  0  0  0  0  0  0  0  0  0  0
  155.0631  139.9527  161.9983 N   0  0  0  0  0  0  0  0  0  0  0  0
  154.4138  140.8563  161.0529 C   0  0  0  0  0  0  0  0  0  0  0  0
  153.6836  142.0064  161.7712 C   0  0  0  0  0  0  0  0  0  0  0  0
  152.9690  142.9609  160.8270 C   0  0  0  0  0  0  0  0  0  0  0  0
  152.3521  144.0731  161.2716 C   0  0  0  0  0  0  0  0  0  0  0  0
  151.6582  145.0799  160.3719 C   0  0  0  0  0  0  0  0  0  0  0  0
  152.0343  144.8954  158.8924 C   0  0  0  0  0  0  0  0  0  0  0  0
  152.0157  143.4134  158.4994 C   0  0  0  0  0  0  0  0  0  0  0  0
  153.0061  142.5946  159.3470 C   0  0  0  0  0  0  0  0  0  0  0  0
  155.4513  137.2610  162.7026 N   0  0  0  0  0  0  0  0  0  0  0  0
  154.5297  137.7127  165.7482 H   0  0  0  0  0  0  0  0  0  0  0  0
  156.3030  139.4851  165.0317 H   0  0  0  0  0  0  0  0  0  0  0  0
  157.2818  138.9704  163.6676 H   0  0  0  0  0  0  0  0  0  0  0  0
  155.0395  138.9686  161.7719 H   0  0  0  0  0  0  0  0  0  0  0  0
  155.1233  141.2439  160.3206 H   0  0  0  0  0  0  0  0  0  0  0  0
  153.6893  140.2712  160.4861 H   0  0  0  0  0  0  0  0  0  0  0  0
  152.9506  141.5986  162.4681 H   0  0  0  0  0  0  0  0  0  0  0  0
  154.3985  142.5628  162.3794 H   0  0  0  0  0  0  0  0  0  0  0  0
  152.3338  144.2911  162.3293 H   0  0  0  0  0  0  0  0  0  0  0  0
  150.5819  144.9674  160.5060 H   0  0  0  0  0  0  0  0  0  0  0  0
  151.9153  146.0884  160.6965 H   0  0  0  0  0  0  0  0  0  0  0  0
  151.3535  145.4661  158.2602 H   0  0  0  0  0  0  0  0  0  0  0  0
  153.0328  145.2985  158.7165 H   0  0  0  0  0  0  0  0  0  0  0  0
  151.0075  143.0204  158.6373 H   0  0  0  0  0  0  0  0  0  0  0  0
  152.2492  143.2986  157.4406 H   0  0  0  0  0  0  0  0  0  0  0  0
  154.0197  142.7533  158.9798 H   0  0  0  0  0  0  0  0  0  0  0  0
  152.7922  141.5320  159.2282 H   0  0  0  0  0  0  0  0  0  0  0  0
  1  2  3  0  0  0  0
  2  3  1  0  0  0  0
  3 19  2  0  0  0  0
  3  4  1  0  0  0  0
  4  5  2  0  0  0  0
  5  6  1  0  0  0  0
  5 20  1  0  0  0  0
  6  7  1  0  0  0  0
  6 19  1  0  0  0  0
  7  8  1  0  0  0  0
  7 21  1  0  0  0  0
  7 22  1  0  0  0  0
  8  9  2  0  0  0  0
  8 10  1  0  0  0  0
 10 11  1  0  0  0  0
 10 23  1  0  0  0  0
 11 12  1  0  0  0  0
 11 24  1  0  0  0  0
 11 25  1  0  0  0  0
 12 13  1  0  0  0  0
 12 26  1  0  0  0  0
 12 27  1  0  0  0  0
 13 18  1  0  0  0  0
 13 14  2  0  0  0  0
 14 15  1  0  0  0  0
 14 28  1  0  0  0  0
 15 16  1  0  0  0  0
 15 29  1  0  0  0  0
 15 30  1  0  0  0  0
 16 17  1  0  0  0  0
 16 31  1  0  0  0  0
 16 32  1  0  0  0  0
 17 18  1  0  0  0  0
 17 33  1  0  0  0  0
 17 34  1  0  0  0  0
 18 35  1  0  0  0  0
 18 36  1  0  0  0  0
M  END
> <s_m_source_file>
AV-unprocessed.smi

> <i_m_source_file_index>
296

> <i_lp_mmshare_version>
43012

> <i_f3d_flags>
0

> <s_epik_input>
TiNDYzFuW2NIXW4objEpW0NIMl1DKD1PKVtOSF1bQ0gyXVtDSDJdQzI9W0NIXVtDSDJdW0NIMl1bQ0gyXVtDSDJdMg==

> <s_epik_cmdline>
J2VwaWtfcHl0aG9uJywgJy1waCcsICc3LjAnLCAnLXRuJywgJzgnLCAnLW1hJywgJzIwMCcsICctbWV0YWxfYmluZGluZycsICctaW1hZScsICc8aW5maWxlLm1hZT4nLCAnLW9tYWUnLCAnPG91dGZpbGUubWFlPic=

> <r_lp_tautomer_probability>
1

> <r_epik_Ionization_Penalty>
6.69355e-08

> <r_epik_Ionization_Penalty_Charging>
0

> <r_epik_Ionization_Penalty_Neutral>
6.69355e-08

> <r_epik_State_Penalty>
-0

> <r_epik_Charging_Adjusted_Penalty>
0

> <i_epik_Tot_Q>
0

> <i_epik_Tot_abs_Q>
0

> <r_epik_Metal_State_Penalty>
-0

> <b_epik_Metal_Only>
0

> <s_lp_Force_Field>
OPLS_2005

> <r_lp_Energy>
11.6781

> <b_lp_Chiralities_Consistent>
1

> <s_lp_Variant>
AV-unprocessed.smi:296-1

> <Gold.Version>
5.8.1

> <Gold.Id.Protein>
6NUR|6NUR_protein|mol2

> <Gold.PLP.Fitness>
49.1306

> <Gold.PLP.PLP>
-47.3822

> <Gold.PLP.part.hbond>
-2.0000

> <Gold.PLP.part.metal>
0.0000

> <Gold.PLP.part.buried>
-6.0991

> <Gold.PLP.part.nonpolar>
-40.0654

> <Gold.PLP.part.repulsive>
0.0518

> <Gold.PLP.ligand.clash>
0.0000

> <Gold.PLP.ligand.torsion>
0.6341

> <Gold.PLP.Chemscore.Hbond>
0.9913

> <Gold.PLP.Chemscore.CHOScore>
0.0000

> <Gold.PLP.Chemscore.Metal>
0.0000

> <Gold.Chemscore.Hbonds>
donor molecule, donor type, donor heavy atom, donor atom, acceptor molecule, acceptor atom, score
      P1  H  6896  6909       L1     1  0.69

> <Gold.PLP.Chemscore.Internal.Correction>
0.0430

> <Gold.Rescore>
     Score         DG    S(hbond)    S(metal)    S(lipo)     H(rot)  DE(clash)    DE(int)     intcor
      9.15     -13.71       0.96        0.00     100.47       2.63       1.06       3.50       ----

> <Gold.Chemscore.Fitness>
9.1532

> <Gold.Chemscore.DG>
-13.7074

> <Gold.Chemscore.ZeroCoef>
-5.4800

> <Gold.Chemscore.Hbond>
0.9577

> <Gold.Chemscore.Metal>
0.0000

> <Gold.Chemscore.Lipo>
100.4672

> <Gold.Chemscore.Internal_Hbond>
0.0000

> <Gold.Chemscore.DEClash>
1.0568

> <Gold.Chemscore.DEInternal>
3.4974

> <Gold.Chemscore.Rot>
2.6273

> <Gold.Chemscore.Internal.Correction>
   9.000000E+99

> <Gold.Chemscore.Hbonds>
donor molecule, donor type, donor heavy atom, donor atom, acceptor molecule, acceptor atom, score
      P1  H  6896  6909       L1     1  0.68

> <Gold.Chemscore.Hbond.Weighted>
-3.1986

> <Gold.Chemscore.Metal.Weighted>
-0.0000

> <Gold.Chemscore.Lipo.Weighted>
-11.7547

> <Gold.Chemscore.Internal_Hbond.Weighted>
0.0000

> <Gold.Chemscore.DEClash.Weighted>
1.0568

> <Gold.Chemscore.DEInternal.Weighted>
3.4974

> <Gold.Chemscore.Rot.Weighted>
6.7259

> <Gold.Chemscore.Internal.Correction.Weighted>
   9.000000E+99

> <Gold.Protein.RotatedTorsions>
[ 6907 6896 6895 6894 ] final -159.04 input  -60.11 | X-H torsion
[ 7974 7965 7964 7962 ] final  -38.41 input  175.53 | X-H torsion
[ 8008 7997 7996 7995 ] final  143.11 input   59.86 | X-H torsion
[ 10167 10162 10161 10158 ] final   86.09 input  -65.29 | X-H torsion
[ 10718 10713 10712 10709 ] final -121.58 input   66.30 | X-H torsion
[ 10763 10752 10751 10750 ] final  -11.43 input  -60.55 | X-H torsion
[ 11005 11000 10999 10996 ] final  101.05 input  -57.11 | X-H torsion

> <Gold.Protein.ActiveResidues>
 VAL166  LYS551  ARG553  GLY616  TRP617  ASP618  TYR619  PRO620  LYS621  CYS622 
 ASP623  PHE694  ASN695  SER759  ASP760  ASP761  ALA762  ILE779  LEU786  VAL792 
 PHE793  MET794  SER795  GLU796  ALA797  LYS798  CYS799  TRP800  GLU811  SER814 

> <Gold.Protein.RotatedAtoms>
  151.3274  133.4014  159.2659 H   0  0  0  0  0  0  0  0  0  0  0  0  # atno 6907 bound_to 6896
  150.9984  134.9302  159.7950 H   0  0  0  0  0  0  0  0  0  0  0  0  # atno 6908 bound_to 6896
  152.5268  134.3239  159.9211 H   0  0  0  0  0  0  0  0  0  0  0  0  # atno 6909 bound_to 6896
  146.0489  140.6508  142.9051 H   0  0  0  0  0  0  0  0  0  0  0  0  # atno 7974 bound_to 7965
  156.2937  140.2271  156.4837 H   0  0  0  0  0  0  0  0  0  0  0  0  # atno 8008 bound_to 7997
  154.7831  140.0459  157.1164 H   0  0  0  0  0  0  0  0  0  0  0  0  # atno 8009 bound_to 7997
  154.9735  140.3069  155.4981 H   0  0  0  0  0  0  0  0  0  0  0  0  # atno 8010 bound_to 7997
  139.8911  144.6385  150.8738 H   0  0  0  0  0  0  0  0  0  0  0  0  # atno 10167 bound_to 10162
  156.1349  130.6423  150.9680 H   0  0  0  0  0  0  0  0  0  0  0  0  # atno 10718 bound_to 10713
  153.4837  135.7017  153.5923 H   0  0  0  0  0  0  0  0  0  0  0  0  # atno 10763 bound_to 10752
  153.4126  135.3845  155.2060 H   0  0  0  0  0  0  0  0  0  0  0  0  # atno 10764 bound_to 10752
  154.8720  135.3908  154.4289 H   0  0  0  0  0  0  0  0  0  0  0  0  # atno 10765 bound_to 10752
  139.8772  134.9166  156.4848 H   0  0  0  0  0  0  0  0  0  0  0  0  # atno 11005 bound_to 11000
  144.7112  140.4045  143.7079 LP  0  0  0  0  0  0  0  0  0  0  0  0  # atno 17320 bound_to 7965
  145.6758  139.1608  143.2728 LP  0  0  0  0  0  0  0  0  0  0  0  0  # atno 17321 bound_to 7965
  140.7726  143.3509  151.2016 LP  0  0  0  0  0  0  0  0  0  0  0  0  # atno 17342 bound_to 10162
  139.7109  143.9379  152.2947 LP  0  0  0  0  0  0  0  0  0  0  0  0  # atno 17343 bound_to 10162
  157.6523  131.0895  150.8025 LP  0  0  0  0  0  0  0  0  0  0  0  0  # atno 17370 bound_to 10713
  156.8106  130.4951  149.5356 LP  0  0  0  0  0  0  0  0  0  0  0  0  # atno 17371 bound_to 10713
  140.8701  133.7995  155.9355 LP  0  0  0  0  0  0  0  0  0  0  0  0  # atno 17394 bound_to 11000
  140.8961  134.2436  157.5068 LP  0  0  0  0  0  0  0  0  0  0  0  0  # atno 17395 bound_to 11000

$$$$
