#       Name:                AV-unprocessed.smi:2489
#       Creating user name   scv26
#       Creation time:       Fri Mar 27 13:43:37 2020


#       File generated by GOLD software.
#

@<TRIPOS>MOLECULE
AV-unprocessed.smi:2489
    40    41     1
SMALL
NO_CHARGES


@<TRIPOS>ATOM
      1 ****        -4.9292   3.9066   0.4296 C.3            1 S1                 0.0000
      2 ****        -4.3477   2.6127   0.5055 O.3            1 S1                 0.0000
      3 ****        -2.9784   2.5251   0.4035 C.2            1 S1                 0.0000
      4 ****        -2.1095   3.6864   0.2284 C.2            1 S1                 0.0000
      5 ****        -0.7869   3.4824   0.1384 C.2            1 S1                 0.0000
      6 ****        -0.2272   2.2149   0.2052 N.pl3          1 S1                 0.0000
      7 ****        -1.0030   1.0541   0.3736 C.2            1 S1                 0.0000
      8 ****        -0.5397  -0.1601   0.4436 N.2            1 S1                 0.0000
      9 ****         0.8182  -0.4536   0.3487 C.2            1 S1                 0.0000
     10 ****         1.7747   0.3112   0.1936 O.2            1 S1                 0.0000
     11 ****         1.0803  -1.9620   0.4551 C.3            1 S1                 0.0000
     12 ****         0.8166  -2.7156  -0.8606 C.3            1 S1                 0.0000
     13 ****         2.2008  -3.1277  -1.3205 C.3            1 S1                 0.0000
     14 ****         2.9388  -3.2818   0.0041 C.3            1 S1                 0.0000
     15 ****         4.4651  -3.2257  -0.1191 C.3            1 S1                 0.0000
     16 ****         2.4582  -2.1818   0.7613 O.3            1 S1                 0.0000
     17 ****        -2.4376   1.2859   0.4716 C.2            1 S1                 0.0000
     18 ****        -6.0116   3.8185   0.5219 H              1 S1                 0.0000
     19 ****        -4.7201   4.3842  -0.5287 H              1 S1                 0.0000
     20 ****        -4.5826   4.5500   1.2396 H              1 S1                 0.0000
     21 ****        -2.4915   4.6943   0.1713 H              1 S1                 0.0000
     22 ****        -0.0723   4.2818   0.0098 H              1 S1                 0.0000
     23 ****         0.4733  -2.3856   1.2571 H              1 S1                 0.0000
     24 ****         0.2088  -3.5994  -0.6625 H              1 S1                 0.0000
     25 ****         0.2976  -2.1237  -1.6162 H              1 S1                 0.0000
     26 ****         2.1988  -4.0397  -1.9178 H              1 S1                 0.0000
     27 ****         2.6468  -2.3290  -1.9149 H              1 S1                 0.0000
     28 ****         2.6323  -4.2065   0.4964 H              1 S1                 0.0000
     29 ****         4.8385  -4.0499  -0.7272 H              1 S1                 0.0000
     30 ****         4.9368  -3.2935   0.8614 H              1 S1                 0.0000
     31 ****         4.7903  -2.2932  -0.5814 H              1 S1                 0.0000
     32 ****        -3.1187   0.4569   0.6017 H              1 S1                 0.0000
     33 ****         0.7789   2.1628   0.1291 H              1 S1                 0.0000
     34 ****        -4.7389   2.0646  -0.2338 LP             1 S1                 0.0000
     35 ****        -4.6083   2.2183   1.3867 LP             1 S1                 0.0000
     36 ****        -1.1853  -0.9131   0.5707 LP             1 S1                 0.0000
     37 ****         1.6201   1.2963   0.1179 LP             1 S1                 0.0000
     38 ****         2.7042  -0.0543   0.1435 LP             1 S1                 0.0000
     39 ****         2.5560  -2.3798   1.7366 LP             1 S1                 0.0000
     40 ****         2.9856  -1.3634   0.5328 LP             1 S1                 0.0000
@<TRIPOS>BOND
    1    1    2 1     
    2    1   18 1     
    3    1   19 1     
    4    1   20 1     
    5    2    3 1     
    6    3   17 2     
    7    3    4 1     
    8    4    5 2     
    9    4   21 1     
   10    5    6 1     
   11    5   22 1     
   12    6    7 1     
   13    6   33 1     
   14    7    8 2     
   15    7   17 1     
   16    8    9 1     
   17    9   10 2     
   18    9   11 1     
   19   11   16 1     
   20   11   12 1     
   21   11   23 1     
   22   12   13 1     
   23   12   24 1     
   24   12   25 1     
   25   13   14 1     
   26   13   26 1     
   27   13   27 1     
   28   14   15 1     
   29   14   16 1     
   30   14   28 1     
   31   15   29 1     
   32   15   30 1     
   33   15   31 1     
   34   17   32 1     
   35    2   34 1     
   36    2   35 1     
   37    8   36 1     
   38   10   37 1     
   39   10   38 1     
   40   16   39 1     
   41   16   40 1     
@<TRIPOS>SUBSTRUCTURE
      1 S1             1
@<TRIPOS>SET
LONE_PAIRS      STATIC     ATOMS    <user>   **** ""
7 34 35 36 37 38 39 40
DONOR_HYDROGENS      STATIC     ATOMS    <user>   **** ""
1 33
ATOM$BLUE        STATIC     ATOMS    COLORGROUP SYSTEM
7 34 35 36 37 38 39 40
ATOM$RED        STATIC     ATOMS    COLORGROUP SYSTEM
1 33
