AV-unprocessed.smi:131|AV-procd|sdf|1162|dock4
  -GOLD-   2262018303D 1   1.00000     0.00000
 Structure written by MMmdl.
 55 58  0  0  0  0  0  0  0  0  1 V2000
  155.9019  138.5886  158.2107 O   0  0  0  0  0  0  0  0  0  0  0  0
  155.1107  137.8846  158.8366 C   0  0  0  0  0  0  0  0  0  0  0  0
  153.6602  138.3777  158.9916 C   0  0  0  0  0  0  0  0  0  0  0  0
  153.5024  139.6665  159.7053 N   0  0  0  0  0  0  0  0  0  0  0  0
  154.2262  139.8715  160.9063 C   0  0  0  0  0  0  0  0  0  0  0  0
  154.9806  139.0060  161.3520 O   0  0  0  0  0  0  0  0  0  0  0  0
  154.0227  141.1634  161.5520 C   0  0  0  0  0  0  0  0  0  0  0  0
  154.6712  141.4455  162.6945 F   0  0  0  0  0  0  0  0  0  0  0  0
  153.1953  142.0852  161.0178 C   0  0  0  0  0  0  0  0  0  0  0  0
  152.4945  141.8720  159.8437 N   0  0  0  0  0  0  0  0  0  0  0  0
  151.5796  142.9233  159.2490 C   0  0  1  0  0  0  0  0  0  0  0  0
  151.3822  144.0932  160.2329 C   0  0  0  0  0  0  0  0  0  0  0  0
  151.7302  145.3050  159.3907 C   0  0  0  0  0  0  0  0  0  0  0  0
  152.7257  144.7248  158.3979 C   0  0  0  0  0  0  0  0  0  0  0  0
  152.1575  143.4583  158.0923 O   0  0  0  0  0  0  0  0  0  0  0  0
  152.6480  140.6503  159.1529 C   0  0  0  0  0  0  0  0  0  0  0  0
  152.0555  140.4516  158.0902 O   0  0  0  0  0  0  0  0  0  0  0  0
  155.4408  136.7136  159.4171 N   0  0  0  0  0  0  0  0  0  0  0  0
  156.6931  136.0444  159.4145 C   0  0  0  0  0  0  0  0  0  0  0  0
  157.8482  136.8364  159.2404 C   0  0  0  0  0  0  0  0  0  0  0  0
  159.1270  136.2464  159.2427 C   0  0  0  0  0  0  0  0  0  0  0  0
  159.2503  134.8570  159.4368 C   0  0  0  0  0  0  0  0  0  0  0  0
  160.8656  134.0906  159.4221 S   0  0  0  0  0  0  0  0  0  0  0  0
  161.5939  134.4523  160.6485 O   0  0  0  0  0  0  0  0  0  0  0  0
  160.6821  132.6772  159.0570 O   0  0  0  0  0  0  0  0  0  0  0  0
  161.6437  134.8763  158.0898 N   0  0  0  0  0  0  0  0  0  0  0  0
  160.9332  134.9941  156.8105 C   0  0  0  0  0  0  0  0  0  0  0  0
  161.9466  134.5892  155.7387 C   0  0  0  0  0  0  0  0  0  0  0  0
  163.2873  134.9447  156.3666 C   0  0  0  0  0  0  0  0  0  0  0  0
  163.0715  134.6365  157.8478 C   0  0  0  0  0  0  0  0  0  0  0  0
  158.1078  134.0569  159.6289 C   0  0  0  0  0  0  0  0  0  0  0  0
  156.8306  134.6500  159.6237 C   0  0  0  0  0  0  0  0  0  0  0  0
  153.2153  138.4313  157.9968 H   0  0  0  0  0  0  0  0  0  0  0  0
  153.0887  137.5902  159.4853 H   0  0  0  0  0  0  0  0  0  0  0  0
  153.0942  143.0222  161.5437 H   0  0  0  0  0  0  0  0  0  0  0  0
  150.6592  142.3979  158.9877 H   0  0  0  0  0  0  0  0  0  0  0  0
  150.3607  144.1151  160.6138 H   0  0  0  0  0  0  0  0  0  0  0  0
  152.0724  144.0032  161.0734 H   0  0  0  0  0  0  0  0  0  0  0  0
  150.8448  145.6644  158.8648 H   0  0  0  0  0  0  0  0  0  0  0  0
  152.1404  146.1289  159.9753 H   0  0  0  0  0  0  0  0  0  0  0  0
  152.8406  145.3396  157.5051 H   0  0  0  0  0  0  0  0  0  0  0  0
  153.7061  144.5983  158.8595 H   0  0  0  0  0  0  0  0  0  0  0  0
  154.7234  136.2879  159.9860 H   0  0  0  0  0  0  0  0  0  0  0  0
  157.7569  137.9032  159.0957 H   0  0  0  0  0  0  0  0  0  0  0  0
  160.0026  136.8617  159.0986 H   0  0  0  0  0  0  0  0  0  0  0  0
  160.0479  134.3575  156.7864 H   0  0  0  0  0  0  0  0  0  0  0  0
  160.6140  136.0285  156.6795 H   0  0  0  0  0  0  0  0  0  0  0  0
  161.8934  133.5133  155.5665 H   0  0  0  0  0  0  0  0  0  0  0  0
  161.7780  135.0917  154.7857 H   0  0  0  0  0  0  0  0  0  0  0  0
  164.1190  134.3870  155.9352 H   0  0  0  0  0  0  0  0  0  0  0  0
  163.4885  136.0085  156.2337 H   0  0  0  0  0  0  0  0  0  0  0  0
  163.6870  135.2569  158.4998 H   0  0  0  0  0  0  0  0  0  0  0  0
  163.3045  133.5906  158.0505 H   0  0  0  0  0  0  0  0  0  0  0  0
  158.2085  132.9926  159.7845 H   0  0  0  0  0  0  0  0  0  0  0  0
  155.9721  134.0194  159.7956 H   0  0  0  0  0  0  0  0  0  0  0  0
  1  2  2  0  0  0  0
  2  3  1  0  0  0  0
  2 18  1  0  0  0  0
  3  4  1  0  0  0  0
  3 33  1  0  0  0  0
  3 34  1  0  0  0  0
  4 16  1  0  0  0  0
  4  5  1  0  0  0  0
  5  6  2  0  0  0  0
  5  7  1  0  0  0  0
  7  8  1  0  0  0  0
  7  9  2  0  0  0  0
  9 10  1  0  0  0  0
  9 35  1  0  0  0  0
 10 11  1  0  0  0  0
 10 16  1  0  0  0  0
 11 15  1  0  0  0  0
 11 12  1  0  0  0  0
 11 36  1  0  0  0  0
 12 13  1  0  0  0  0
 12 37  1  0  0  0  0
 12 38  1  0  0  0  0
 13 14  1  0  0  0  0
 13 39  1  0  0  0  0
 13 40  1  0  0  0  0
 14 15  1  0  0  0  0
 14 41  1  0  0  0  0
 14 42  1  0  0  0  0
 16 17  2  0  0  0  0
 18 19  1  0  0  0  0
 18 43  1  0  0  0  0
 19 32  1  0  0  0  0
 19 20  2  0  0  0  0
 20 21  1  0  0  0  0
 20 44  1  0  0  0  0
 21 22  2  0  0  0  0
 21 45  1  0  0  0  0
 22 23  1  0  0  0  0
 22 31  1  0  0  0  0
 23 24  2  0  0  0  0
 23 25  2  0  0  0  0
 23 26  1  0  0  0  0
 26 30  1  0  0  0  0
 26 27  1  0  0  0  0
 27 28  1  0  0  0  0
 27 46  1  0  0  0  0
 27 47  1  0  0  0  0
 28 29  1  0  0  0  0
 28 48  1  0  0  0  0
 28 49  1  0  0  0  0
 29 30  1  0  0  0  0
 29 50  1  0  0  0  0
 29 51  1  0  0  0  0
 30 52  1  0  0  0  0
 30 53  1  0  0  0  0
 31 32  2  0  0  0  0
 31 54  1  0  0  0  0
 32 55  1  0  0  0  0
M  END
> <s_m_source_file>
AV-unprocessed.smi

> <i_m_source_file_index>
131

> <i_lp_mmshare_version>
43012

> <i_f3d_flags>
0

> <s_epik_input>
W0NIMl0xW0NIMl1bQ0gyXVtDSDJdTjFTKD1PKSg9TyljKFtjSF1bY0hdMilbY0hdW2NIXWMyW05IXUMoPU8pW0NIMl1uM2MoPU8pYyhGKVtjSF1uKGMzPU8pW0NAQEhdNFtDSDJdW0NIMl1bQ0gyXU80

> <s_epik_cmdline>
J2VwaWtfcHl0aG9uJywgJy1waCcsICc3LjAnLCAnLXRuJywgJzgnLCAnLW1hJywgJzIwMCcsICctbWV0YWxfYmluZGluZycsICctaW1hZScsICc8aW5maWxlLm1hZT4nLCAnLW9tYWUnLCAnPG91dGZpbGUubWFlPic=

> <r_lp_tautomer_probability>
1

> <r_epik_Ionization_Penalty>
1.92533e-06

> <r_epik_Ionization_Penalty_Charging>
3.88729e-08

> <r_epik_Ionization_Penalty_Neutral>
1.88646e-06

> <r_epik_State_Penalty>
-0

> <r_epik_Charging_Adjusted_Penalty>
3.88729e-08

> <i_epik_Tot_Q>
0

> <i_epik_Tot_abs_Q>
0

> <r_epik_Metal_State_Penalty>
-0

> <b_epik_Metal_Only>
0

> <s_epik_Chemistry_Notes>
This compound contains an acetal/aminal-like group ( X-CH(R)-Y where X, Y are N, S, or O) that may be acid/base labile, releasing an aldehyde.

> <s_lp_Force_Field>
OPLS_2005

> <r_lp_Energy>
42.789

> <b_lp_Chiralities_Consistent>
1

> <s_lp_Variant>
AV-unprocessed.smi:131-2

> <Gold.Version>
5.8.1

> <Gold.Id.Protein>
6NUR|6NUR_protein|mol2

> <Gold.PLP.Fitness>
44.2238

> <Gold.PLP.PLP>
-42.4456

> <Gold.PLP.part.hbond>
-1.0000

> <Gold.PLP.part.metal>
0.0000

> <Gold.PLP.part.buried>
-2.1959

> <Gold.PLP.part.nonpolar>
-39.1319

> <Gold.PLP.part.repulsive>
0.1772

> <Gold.PLP.ligand.clash>
0.0000

> <Gold.PLP.ligand.torsion>
1.9347

> <Gold.PLP.Chemscore.Hbond>
1.0000

> <Gold.PLP.Chemscore.CHOScore>
0.0000

> <Gold.PLP.Chemscore.Metal>
0.0000

> <Gold.Chemscore.Hbonds>
donor molecule, donor type, donor heavy atom, donor atom, acceptor molecule, acceptor atom, score
      P1  H  7997  8010       L1     1  1.00

> <Gold.PLP.Chemscore.Internal.Correction>
2.6476

> <Gold.Rescore>
     Score         DG    S(hbond)    S(metal)    S(lipo)     H(rot)  DE(clash)    DE(int)     intcor
      7.31     -13.95       0.96        0.00      86.86       1.92       0.89       5.75       ----

> <Gold.Chemscore.Fitness>
7.3063

> <Gold.Chemscore.DG>
-13.9491

> <Gold.Chemscore.ZeroCoef>
-5.4800

> <Gold.Chemscore.Hbond>
0.9621

> <Gold.Chemscore.Metal>
0.0000

> <Gold.Chemscore.Lipo>
86.8565

> <Gold.Chemscore.Internal_Hbond>
0.0000

> <Gold.Chemscore.DEClash>
0.8882

> <Gold.Chemscore.DEInternal>
5.7546

> <Gold.Chemscore.Rot>
1.9166

> <Gold.Chemscore.Internal.Correction>
   9.000000E+99

> <Gold.Chemscore.Hbonds>
donor molecule, donor type, donor heavy atom, donor atom, acceptor molecule, acceptor atom, score
      P1  H  7997  8010       L1     1  0.95

> <Gold.Chemscore.Hbond.Weighted>
-3.2133

> <Gold.Chemscore.Metal.Weighted>
-0.0000

> <Gold.Chemscore.Lipo.Weighted>
-10.1622

> <Gold.Chemscore.Internal_Hbond.Weighted>
0.0000

> <Gold.Chemscore.DEClash.Weighted>
0.8882

> <Gold.Chemscore.DEInternal.Weighted>
5.7546

> <Gold.Chemscore.Rot.Weighted>
4.9064

> <Gold.Chemscore.Internal.Correction.Weighted>
   9.000000E+99

> <Gold.Protein.RotatedTorsions>
[ 6907 6896 6895 6894 ] final   97.09 input  -60.11 | X-H torsion
[ 7974 7965 7964 7962 ] final  102.30 input  175.53 | X-H torsion
[ 8008 7997 7996 7995 ] final  -30.18 input   59.86 | X-H torsion
[ 10167 10162 10161 10158 ] final   14.77 input  -65.29 | X-H torsion
[ 10718 10713 10712 10709 ] final   44.99 input   66.30 | X-H torsion
[ 10763 10752 10751 10750 ] final -150.51 input  -60.55 | X-H torsion
[ 11005 11000 10999 10996 ] final  124.19 input  -57.11 | X-H torsion

> <Gold.Protein.ActiveResidues>
 VAL166  LYS551  ARG553  GLY616  TRP617  ASP618  TYR619  PRO620  LYS621  CYS622 
 ASP623  PHE694  ASN695  SER759  ASP760  ASP761  ALA762  ILE779  LEU786  VAL792 
 PHE793  MET794  SER795  GLU796  ALA797  LYS798  CYS799  TRP800  GLU811  SER814 

> <Gold.Protein.RotatedAtoms>
  152.5428  134.0787  159.8225 H   0  0  0  0  0  0  0  0  0  0  0  0  # atno 6907 bound_to 6896
  151.0892  133.5322  159.2623 H   0  0  0  0  0  0  0  0  0  0  0  0  # atno 6908 bound_to 6896
  151.2120  135.0493  159.8969 H   0  0  0  0  0  0  0  0  0  0  0  0  # atno 6909 bound_to 6896
  145.3609  139.2418  143.3507 H   0  0  0  0  0  0  0  0  0  0  0  0  # atno 7974 bound_to 7965
  154.4260  140.1798  156.1365 H   0  0  0  0  0  0  0  0  0  0  0  0  # atno 8008 bound_to 7997
  156.0026  140.3358  155.6835 H   0  0  0  0  0  0  0  0  0  0  0  0  # atno 8009 bound_to 7997
  155.6222  140.0661  157.2665 H   0  0  0  0  0  0  0  0  0  0  0  0  # atno 8010 bound_to 7997
  140.5913  143.8790  150.6876 H   0  0  0  0  0  0  0  0  0  0  0  0  # atno 10167 bound_to 10162
  157.4328  130.8035  149.7619 H   0  0  0  0  0  0  0  0  0  0  0  0  # atno 10718 bound_to 10713
  154.8115  135.3282  154.7293 H   0  0  0  0  0  0  0  0  0  0  0  0  # atno 10763 bound_to 10752
  153.7942  135.6908  153.4871 H   0  0  0  0  0  0  0  0  0  0  0  0  # atno 10764 bound_to 10752
  153.1897  135.4555  155.0079 H   0  0  0  0  0  0  0  0  0  0  0  0  # atno 10765 bound_to 10752
  139.9347  134.9640  156.8372 H   0  0  0  0  0  0  0  0  0  0  0  0  # atno 11005 bound_to 11000
  146.2928  140.4243  142.8733 LP  0  0  0  0  0  0  0  0  0  0  0  0  # atno 17320 bound_to 7965
  144.8647  140.7189  143.6085 LP  0  0  0  0  0  0  0  0  0  0  0  0  # atno 17321 bound_to 7965
  140.2314  143.3733  152.1563 LP  0  0  0  0  0  0  0  0  0  0  0  0  # atno 17342 bound_to 10162
  139.5229  144.7065  151.5339 LP  0  0  0  0  0  0  0  0  0  0  0  0  # atno 17343 bound_to 10162
  155.9919  130.3934  150.2963 LP  0  0  0  0  0  0  0  0  0  0  0  0  # atno 17370 bound_to 10713
  157.1122  131.0224  151.3043 LP  0  0  0  0  0  0  0  0  0  0  0  0  # atno 17371 bound_to 10713
  140.6107  134.0085  155.7575 LP  0  0  0  0  0  0  0  0  0  0  0  0  # atno 17394 bound_to 11000
  141.0955  133.9850  157.3167 LP  0  0  0  0  0  0  0  0  0  0  0  0  # atno 17395 bound_to 11000

$$$$
