#       Name:                AV-unprocessed.smi:101
#       Creating user name   scv26
#       Creation time:       Thu Mar 26 17:44:37 2020


#       File generated by GOLD software.
#

@<TRIPOS>MOLECULE
AV-unprocessed.smi:101
    56    58     1
SMALL
NO_CHARGES


@<TRIPOS>ATOM
      1 ****        -0.0264   3.1764  -0.2382 C.3            1 S1                 0.0000
      2 ****        -1.2867   2.3616  -0.0050 C.2            1 S1                 0.0000
      3 ****        -1.2618   1.1466   0.5869 C.2            1 S1                 0.0000
      4 ****        -2.4164   0.4149   0.8110 N.am           1 S1                 0.0000
      5 ****        -2.3775  -0.9394   1.4890 C.3            1 S1                 0.0000
      6 ****        -1.1235  -1.1251   2.0839 O.3            1 S1                 0.0000
      7 ****        -0.5244  -2.3267   1.6127 C.3            1 S1                 0.0000
      8 ****         1.0074  -2.2048   1.6165 C.3            1 S1                 0.0000
      9 ****         1.4283  -1.2621   0.6429 O.3            1 S1                 0.0000
     10 ****         2.7145  -0.8744   0.5773 C.2            1 S1                 0.0000
     11 ****         3.5892  -1.2720   1.3494 O.2            1 S1                 0.0000
     12 ****         2.9688   0.0894  -0.5321 C.ar           1 S1                 0.0000
     13 ****         4.2595   0.6473  -0.6844 C.ar           1 S1                 0.0000
     14 ****         4.5279   1.5611  -1.7219 C.ar           1 S1                 0.0000
     15 ****         3.5094   1.9269  -2.6212 C.ar           1 S1                 0.0000
     16 ****         2.2223   1.3756  -2.4830 C.ar           1 S1                 0.0000
     17 ****         1.9516   0.4621  -1.4457 C.ar           1 S1                 0.0000
     18 ****        -1.1692  -2.5795   0.2496 C.3            1 S1                 0.0000
     19 ****        -1.1139  -3.9361  -0.1492 O.3            1 S1                 0.0000
     20 ****        -2.5879  -2.0690   0.4613 C.3            1 S1                 0.0000
     21 ****        -3.4641  -3.0561   0.9734 O.3            1 S1                 0.0000
     22 ****        -3.6705   0.9472   0.4125 C.2            1 S1                 0.0000
     23 ****        -4.6785   0.2741   0.6305 O.2            1 S1                 0.0000
     24 ****        -3.7041   2.1676  -0.1939 N.pl3          1 S1                -1.0000
     25 ****        -2.5819   2.9061  -0.4289 C.2            1 S1                 0.0000
     26 ****        -2.6261   4.0044  -0.9823 O.2            1 S1                 0.0000
     27 ****         0.8530   2.6710   0.1616 H              1 S1                 0.0000
     28 ****        -0.1051   4.1481   0.2504 H              1 S1                 0.0000
     29 ****         0.1302   3.3386  -1.3049 H              1 S1                 0.0000
     30 ****        -0.3064   0.7512   0.8945 H              1 S1                 0.0000
     31 ****        -3.1453  -0.8913   2.2636 H              1 S1                 0.0000
     32 ****        -0.8229  -3.1159   2.3050 H              1 S1                 0.0000
     33 ****         1.3528  -1.9078   2.6077 H              1 S1                 0.0000
     34 ****         1.4572  -3.1721   1.3899 H              1 S1                 0.0000
     35 ****         5.0573   0.3822  -0.0054 H              1 S1                 0.0000
     36 ****         5.5168   1.9828  -1.8267 H              1 S1                 0.0000
     37 ****         3.7149   2.6295  -3.4154 H              1 S1                 0.0000
     38 ****         1.4387   1.6564  -3.1713 H              1 S1                 0.0000
     39 ****         0.9513   0.0615  -1.3671 H              1 S1                 0.0000
     40 ****        -0.6975  -1.9663  -0.5186 H              1 S1                 0.0000
     41 ****        -1.6383  -4.0382  -0.9285 H              1 S1                 0.0000
     42 ****        -3.0150  -1.6908  -0.4682 H              1 S1                 0.0000
     43 ****        -4.3068  -2.6540   1.1211 H              1 S1                 0.0000
     44 ****        -1.2343  -1.1792   3.0763 LP             1 S1                 0.0000
     45 ****        -0.5328  -0.3510   1.8562 LP             1 S1                 0.0000
     46 ****         3.3585  -1.9199   2.0754 LP             1 S1                 0.0000
     47 ****         4.5295  -0.9468   1.2498 LP             1 S1                 0.0000
     48 ****        -1.4749  -4.5178   0.5798 LP             1 S1                 0.0000
     49 ****        -0.1671  -4.1933  -0.3427 LP             1 S1                 0.0000
     50 ****        -3.1042  -3.4145   1.8348 LP             1 S1                 0.0000
     51 ****        -3.5558  -3.8025   0.3143 LP             1 S1                 0.0000
     52 ****        -4.5976  -0.6178   1.0755 LP             1 S1                 0.0000
     53 ****        -5.5779   0.6194   0.3626 LP             1 S1                 0.0000
     54 ****        -4.5888   2.5369  -0.4784 LP             1 S1                 0.0000
     55 ****        -1.7834   4.5190  -1.1402 LP             1 S1                 0.0000
     56 ****        -3.5048   4.3822  -1.2741 LP             1 S1                 0.0000
@<TRIPOS>BOND
    1    1    2 1     
    2    1   27 1     
    3    1   28 1     
    4    1   29 1     
    5    2   25 1     
    6    2    3 2     
    7    3    4 1     
    8    3   30 1     
    9    4    5 1     
   10    4   22 am    
   11    5   20 1     
   12    5    6 1     
   13    5   31 1     
   14    6    7 1     
   15    7    8 1     
   16    7   18 1     
   17    7   32 1     
   18    8    9 1     
   19    8   33 1     
   20    8   34 1     
   21    9   10 1     
   22   10   11 2     
   23   10   12 1     
   24   12   17 ar    
   25   12   13 ar    
   26   13   14 ar    
   27   13   35 1     
   28   14   15 ar    
   29   14   36 1     
   30   15   16 ar    
   31   15   37 1     
   32   16   17 ar    
   33   16   38 1     
   34   17   39 1     
   35   18   19 1     
   36   18   20 1     
   37   18   40 1     
   38   19   41 1     
   39   20   21 1     
   40   20   42 1     
   41   21   43 1     
   42   22   23 2     
   43   22   24 1     
   44   24   25 1     
   45   25   26 2     
   46    6   44 1     
   47    6   45 1     
   48   11   46 1     
   49   11   47 1     
   50   19   48 1     
   51   19   49 1     
   52   21   50 1     
   53   21   51 1     
   54   23   52 1     
   55   23   53 1     
   56   24   54 1     
   57   26   55 1     
   58   26   56 1     
@<TRIPOS>SUBSTRUCTURE
      1 S1             1
@<TRIPOS>SET
LONE_PAIRS      STATIC     ATOMS    <user>   **** ""
13 44 45 46 47 48 49 50 51 52 53 54 55 56
DONOR_HYDROGENS      STATIC     ATOMS    <user>   **** ""
2 41 43
ATOM$BLUE        STATIC     ATOMS    COLORGROUP SYSTEM
13 44 45 46 47 48 49 50 51 52 53 54 55 56
ATOM$RED        STATIC     ATOMS    COLORGROUP SYSTEM
2 41 43
