#       Name:                AV-unprocessed.smi:1838
#       Creating user name   scv26
#       Creation time:       Fri Mar 27 09:18:03 2020


#       File generated by GOLD software.
#

@<TRIPOS>MOLECULE
AV-unprocessed.smi:1838
    42    43     1
SMALL
NO_CHARGES


@<TRIPOS>ATOM
      1 ****        -1.9241   4.6420   0.7612 C.3            1 S1                 0.0000
      2 ****        -1.1353   3.4634   0.6394 O.3            1 S1                 0.0000
      3 ****         0.2048   3.5955   0.3286 C.ar           1 S1                 0.0000
      4 ****         0.7073   4.8442   0.1572 N.ar           1 S1                 0.0000
      5 ****         2.0162   4.9753  -0.1409 C.ar           1 S1                 0.0000
      6 ****         2.8889   3.8802  -0.2761 C.ar           1 S1                 0.0000
      7 ****         2.3701   2.5842  -0.0995 C.ar           1 S1                 0.0000
      8 ****         0.9945   2.4291   0.1986 C.ar           1 S1                 0.0000
      9 ****         0.3728   1.1685   0.4157 N.am           1 S1                 0.0000
     10 ****         0.7603  -0.0426  -0.0181 C.2            1 S1                 0.0000
     11 ****         1.7453  -0.2658  -0.7217 O.2            1 S1                 0.0000
     12 ****        -0.0841  -0.9971   0.3974 N.am           1 S1                 0.0000
     13 ****         0.0464  -2.4256   0.1174 C.3            1 S1                 0.0000
     14 ****        -0.5003  -2.7649  -1.2826 C.3            1 S1                 0.0000
     15 ****        -0.5459  -4.2822  -1.4830 C.3            1 S1                 0.0000
     16 ****        -1.4118  -4.9418  -0.3972 C.3            1 S1                 0.0000
     17 ****        -1.1265  -4.4456   0.9499 N.am           1 S1                 0.0000
     18 ****        -0.5354  -3.2781   1.2595 C.2            1 S1                 0.0000
     19 ****        -0.4208  -2.9093   2.4275 O.2            1 S1                 0.0000
     20 ****        -2.9499   4.3655   1.0042 H              1 S1                 0.0000
     21 ****        -1.9465   5.2061  -0.1725 H              1 S1                 0.0000
     22 ****        -1.5573   5.2870   1.5611 H              1 S1                 0.0000
     23 ****         2.3803   5.9838  -0.2689 H              1 S1                 0.0000
     24 ****         3.9336   4.0307  -0.5049 H              1 S1                 0.0000
     25 ****         3.0385   1.7412  -0.1810 H              1 S1                 0.0000
     26 ****        -0.5071   1.2026   0.9098 H              1 S1                 0.0000
     27 ****        -0.8667  -0.7217   0.9726 H              1 S1                 0.0000
     28 ****         1.1103  -2.6711   0.1181 H              1 S1                 0.0000
     29 ****        -1.5028  -2.3513  -1.4040 H              1 S1                 0.0000
     30 ****         0.1216  -2.3078  -2.0533 H              1 S1                 0.0000
     31 ****        -0.9334  -4.5249  -2.4729 H              1 S1                 0.0000
     32 ****         0.4674  -4.6839  -1.4386 H              1 S1                 0.0000
     33 ****        -2.4656  -4.7513  -0.6036 H              1 S1                 0.0000
     34 ****        -1.2799  -6.0240  -0.4159 H              1 S1                 0.0000
     35 ****        -1.4655  -5.0090   1.7164 H              1 S1                 0.0000
     36 ****        -1.5506   2.9030  -0.0772 LP             1 S1                 0.0000
     37 ****        -1.1893   2.9805   1.5134 LP             1 S1                 0.0000
     38 ****         0.1207   5.6487   0.2498 LP             1 S1                 0.0000
     39 ****         2.3310   0.4894  -1.0160 LP             1 S1                 0.0000
     40 ****         1.9598  -1.2024  -0.9990 LP             1 S1                 0.0000
     41 ****         0.0515  -2.0533   2.6375 LP             1 S1                 0.0000
     42 ****        -0.7999  -3.4656   3.1670 LP             1 S1                 0.0000
@<TRIPOS>BOND
    1    1    2 1     
    2    1   20 1     
    3    1   21 1     
    4    1   22 1     
    5    2    3 1     
    6    3    8 ar    
    7    3    4 ar    
    8    4    5 ar    
    9    5    6 ar    
   10    5   23 1     
   11    6    7 ar    
   12    6   24 1     
   13    7    8 ar    
   14    7   25 1     
   15    8    9 1     
   16    9   10 am    
   17    9   26 1     
   18   10   11 2     
   19   10   12 am    
   20   12   13 1     
   21   12   27 1     
   22   13   18 1     
   23   13   14 1     
   24   13   28 1     
   25   14   15 1     
   26   14   29 1     
   27   14   30 1     
   28   15   16 1     
   29   15   31 1     
   30   15   32 1     
   31   16   17 1     
   32   16   33 1     
   33   16   34 1     
   34   17   18 am    
   35   17   35 1     
   36   18   19 2     
   37    2   36 1     
   38    2   37 1     
   39    4   38 1     
   40   11   39 1     
   41   11   40 1     
   42   19   41 1     
   43   19   42 1     
@<TRIPOS>SUBSTRUCTURE
      1 S1             1
@<TRIPOS>SET
LONE_PAIRS      STATIC     ATOMS    <user>   **** ""
7 36 37 38 39 40 41 42
DONOR_HYDROGENS      STATIC     ATOMS    <user>   **** ""
3 26 27 35
ATOM$BLUE        STATIC     ATOMS    COLORGROUP SYSTEM
7 36 37 38 39 40 41 42
ATOM$RED        STATIC     ATOMS    COLORGROUP SYSTEM
3 26 27 35
