#       Name:                AV-unprocessed.smi:423
#       Creating user name   scv26
#       Creation time:       Thu Mar 26 22:50:01 2020


#       File generated by GOLD software.
#

@<TRIPOS>MOLECULE
AV-unprocessed.smi:423
    50    51     1
SMALL
NO_CHARGES


@<TRIPOS>ATOM
      1 ****        -0.5463   3.4744   1.1111 C.3            1 S1                 0.0000
      2 ****         0.4552   2.3793   0.8813 C.2            1 S1                 0.0000
      3 ****         1.7353   2.6873   0.7645 N.2            1 S1                 0.0000
      4 ****         2.3590   1.5091   0.5560 N.pl3          1 S1                 0.0000
      5 ****         3.8026   1.4972   0.3701 C.3            1 S1                 0.0000
      6 ****         4.2281   1.3579  -1.1079 C.3            1 S1                 0.0000
      7 ****         5.7587   1.3573  -1.2334 C.3            1 S1                 0.0000
      8 ****         3.6047   2.4302  -2.0186 C.3            1 S1                 0.0000
      9 ****         1.4674   0.4514   0.5564 C.2            1 S1                 0.0000
     10 ****         1.8941  -0.9664   0.3455 C.3            1 S1                 0.0000
     11 ****         0.2204   0.9784   0.7631 C.2            1 S1                 0.0000
     12 ****        -1.1050   0.2596   0.8444 C.3            1 S1                 0.0000
     13 ****        -1.6988  -0.0031  -0.5516 C.2            1 S1                 0.0000
     14 ****        -1.2005   0.5124  -1.5518 O.2            1 S1                 0.0000
     15 ****        -2.7736  -0.8021  -0.6600 N.am           1 S1                 0.0000
     16 ****        -3.4814  -1.1740  -1.8838 C.3            1 S1                 0.0000
     17 ****        -4.4976  -0.0916  -2.3076 C.3            1 S1                 0.0000
     18 ****        -5.8314  -0.8124  -2.5142 C.3            1 S1                 0.0000
     19 ****        -5.7612  -2.0157  -1.5803 C.3            1 S1                 0.0000
     20 ****        -4.3001  -2.4576  -1.6561 C.3            1 S1                 0.0000
     21 ****        -1.4797   3.2677   0.5871 H              1 S1                 0.0000
     22 ****        -0.1775   4.4374   0.7555 H              1 S1                 0.0000
     23 ****        -0.7751   3.5763   2.1717 H              1 S1                 0.0000
     24 ****         4.2160   2.4161   0.7900 H              1 S1                 0.0000
     25 ****         4.2183   0.6816   0.9623 H              1 S1                 0.0000
     26 ****         3.8777   0.3899  -1.4665 H              1 S1                 0.0000
     27 ****         6.1838   2.3024  -0.8940 H              1 S1                 0.0000
     28 ****         6.0694   1.2052  -2.2674 H              1 S1                 0.0000
     29 ****         6.2020   0.5593  -0.6370 H              1 S1                 0.0000
     30 ****         3.8777   3.4338  -1.6912 H              1 S1                 0.0000
     31 ****         2.5163   2.3663  -2.0281 H              1 S1                 0.0000
     32 ****         3.9414   2.3130  -3.0489 H              1 S1                 0.0000
     33 ****         1.0949  -1.6609   0.6037 H              1 S1                 0.0000
     34 ****         2.7578  -1.2151   0.9616 H              1 S1                 0.0000
     35 ****         2.1573  -1.1388  -0.6977 H              1 S1                 0.0000
     36 ****        -0.9891  -0.6866   1.3716 H              1 S1                 0.0000
     37 ****        -1.8260   0.8404   1.4201 H              1 S1                 0.0000
     38 ****        -3.1372  -1.1935   0.1969 H              1 S1                 0.0000
     39 ****        -2.7651  -1.3608  -2.6853 H              1 S1                 0.0000
     40 ****        -4.6146   0.6567  -1.5221 H              1 S1                 0.0000
     41 ****        -4.1829   0.4359  -3.2083 H              1 S1                 0.0000
     42 ****        -6.6904  -0.1721  -2.3117 H              1 S1                 0.0000
     43 ****        -5.9078  -1.1551  -3.5471 H              1 S1                 0.0000
     44 ****        -6.0011  -1.7059  -0.5621 H              1 S1                 0.0000
     45 ****        -6.4551  -2.8083  -1.8618 H              1 S1                 0.0000
     46 ****        -4.1730  -3.1202  -2.5136 H              1 S1                 0.0000
     47 ****        -3.9927  -3.0186  -0.7723 H              1 S1                 0.0000
     48 ****         2.1508   3.5953   0.8188 LP             1 S1                 0.0000
     49 ****        -0.4024   1.1083  -1.4622 LP             1 S1                 0.0000
     50 ****        -1.5937   0.3355  -2.4540 LP             1 S1                 0.0000
@<TRIPOS>BOND
    1    1    2 1     
    2    1   21 1     
    3    1   22 1     
    4    1   23 1     
    5    2   11 1     
    6    2    3 2     
    7    3    4 1     
    8    4    5 1     
    9    4    9 1     
   10    5    6 1     
   11    5   24 1     
   12    5   25 1     
   13    6    7 1     
   14    6    8 1     
   15    6   26 1     
   16    7   27 1     
   17    7   28 1     
   18    7   29 1     
   19    8   30 1     
   20    8   31 1     
   21    8   32 1     
   22    9   10 1     
   23    9   11 2     
   24   10   33 1     
   25   10   34 1     
   26   10   35 1     
   27   11   12 1     
   28   12   13 1     
   29   12   36 1     
   30   12   37 1     
   31   13   14 2     
   32   13   15 am    
   33   15   16 1     
   34   15   38 1     
   35   16   20 1     
   36   16   17 1     
   37   16   39 1     
   38   17   18 1     
   39   17   40 1     
   40   17   41 1     
   41   18   19 1     
   42   18   42 1     
   43   18   43 1     
   44   19   20 1     
   45   19   44 1     
   46   19   45 1     
   47   20   46 1     
   48   20   47 1     
   49    3   48 1     
   50   14   49 1     
   51   14   50 1     
@<TRIPOS>SUBSTRUCTURE
      1 S1             1
@<TRIPOS>SET
LONE_PAIRS      STATIC     ATOMS    <user>   **** ""
3 48 49 50
DONOR_HYDROGENS      STATIC     ATOMS    <user>   **** ""
1 38
ATOM$BLUE        STATIC     ATOMS    COLORGROUP SYSTEM
3 48 49 50
ATOM$RED        STATIC     ATOMS    COLORGROUP SYSTEM
1 38
