AV-unprocessed.smi:1|AV-procd|sdf|5|dock2
  -GOLD-   2262015 93D 1   1.00000     0.00000
 Structure written by MMmdl.
 57 62  0  0  0  0  0  0  0  0  1 V2000
  153.2835  140.8783  159.5294 O   0  0  0  0  0  0  0  0  0  0  0  0
  152.5434  141.6352  158.9000 C   0  0  0  0  0  0  0  0  0  0  0  0
  151.9757  141.2690  157.6143 N   0  0  0  0  0  0  0  0  0  0  0  0
  152.0798  140.0888  156.9593 C   0  0  0  0  0  0  0  0  0  0  0  0
  152.9902  139.8795  155.9723 N   0  0  0  0  0  0  0  0  0  0  0  0
  153.0531  138.6963  155.3551 C   0  0  0  0  0  0  0  0  0  0  0  0
  152.3121  137.6067  155.5649 N   0  0  0  0  0  0  0  0  0  0  0  0
  151.3972  137.8054  156.5570 C   0  0  0  0  0  0  0  0  0  0  0  0
  151.2214  139.0095  157.2952 C   0  0  0  0  0  0  0  0  0  0  0  0
  150.2007  138.8479  158.2223 N   0  0  0  0  0  0  0  0  0  0  0  0
  149.8008  137.6183  158.0405 C   0  0  0  0  0  0  0  0  0  0  0  0
  150.4621  136.9195  157.0545 N   0  0  0  0  0  0  0  0  0  0  0  0
  150.2260  135.5045  156.6350 C   0  0  2  0  0  0  0  0  0  0  0  0
  150.0719  135.4526  155.2473 O   0  0  0  0  0  0  0  0  0  0  0  0
  148.7766  134.9670  154.9021 C   0  0  1  0  0  0  0  0  0  0  0  0
  148.8131  134.1814  153.5863 C   0  0  0  0  0  0  0  0  0  0  0  0
  147.5623  134.3192  152.9331 O   0  0  0  0  0  0  0  0  0  0  0  0
  146.7682  133.2454  152.7609 C   0  0  0  0  0  0  0  0  0  0  0  0
  147.0263  132.1267  153.2100 O   0  0  0  0  0  0  0  0  0  0  0  0
  145.5402  133.5535  151.9726 C   0  0  0  0  0  0  0  0  0  0  0  0
  144.8609  132.5048  151.3097 C   0  0  0  0  0  0  0  0  0  0  0  0
  143.6973  132.7652  150.5596 C   0  0  0  0  0  0  0  0  0  0  0  0
  143.1994  134.0775  150.4627 C   0  0  0  0  0  0  0  0  0  0  0  0
  143.8668  135.1298  151.1159 C   0  0  0  0  0  0  0  0  0  0  0  0
  145.0303  134.8714  151.8672 C   0  0  0  0  0  0  0  0  0  0  0  0
  148.3451  134.1482  156.1169 C   0  0  1  0  0  0  0  0  0  0  0  0
  148.9188  132.8511  156.1000 O   0  0  0  0  0  0  0  0  0  0  0  0
  149.4550  132.4943  157.6414 S   0  0  0  0  0  0  0  0  0  0  0  0
  148.4760  131.5992  158.2762 O   0  0  0  0  0  0  0  0  0  0  0  0
  150.8895  132.1772  157.5673 O   0  0  0  0  0  0  0  0  0  0  0  0
  149.2865  134.0147  158.3153 O   0  0  0  0  0  0  0  0  0  0  0  0
  148.9591  134.9271  157.2824 C   0  0  1  0  0  0  0  0  0  0  0  0
  152.2437  143.0253  159.3808 C   0  0  0  0  0  0  0  0  0  0  0  0
  151.3841  143.8618  158.6335 C   0  0  0  0  0  0  0  0  0  0  0  0
  151.1104  145.1733  159.0677 C   0  0  0  0  0  0  0  0  0  0  0  0
  151.6991  145.6623  160.2491 C   0  0  0  0  0  0  0  0  0  0  0  0
  152.5657  144.8403  160.9937 C   0  0  0  0  0  0  0  0  0  0  0  0
  152.8409  143.5284  160.5603 C   0  0  0  0  0  0  0  0  0  0  0  0
  151.4191  141.9781  157.1597 H   0  0  0  0  0  0  0  0  0  0  0  0
  153.8040  138.6111  154.5836 H   0  0  0  0  0  0  0  0  0  0  0  0
  149.0030  137.1845  158.6258 H   0  0  0  0  0  0  0  0  0  0  0  0
  151.1371  134.9740  156.9148 H   0  0  0  0  0  0  0  0  0  0  0  0
  148.0968  135.8127  154.8019 H   0  0  0  0  0  0  0  0  0  0  0  0
  149.6238  134.5331  152.9467 H   0  0  0  0  0  0  0  0  0  0  0  0
  148.9892  133.1249  153.7936 H   0  0  0  0  0  0  0  0  0  0  0  0
  145.2239  131.4887  151.3701 H   0  0  0  0  0  0  0  0  0  0  0  0
  143.1867  131.9562  150.0585 H   0  0  0  0  0  0  0  0  0  0  0  0
  142.3072  134.2769  149.8878 H   0  0  0  0  0  0  0  0  0  0  0  0
  143.4863  136.1380  151.0419 H   0  0  0  0  0  0  0  0  0  0  0  0
  145.5178  135.7022  152.3560 H   0  0  0  0  0  0  0  0  0  0  0  0
  147.2613  134.0591  156.1982 H   0  0  0  0  0  0  0  0  0  0  0  0
  148.2942  135.7193  157.6278 H   0  0  0  0  0  0  0  0  0  0  0  0
  150.9252  143.5019  157.7238 H   0  0  0  0  0  0  0  0  0  0  0  0
  150.4490  145.8048  158.4929 H   0  0  0  0  0  0  0  0  0  0  0  0
  151.4893  146.6684  160.5813 H   0  0  0  0  0  0  0  0  0  0  0  0
  153.0226  145.2172  161.8971 H   0  0  0  0  0  0  0  0  0  0  0  0
  153.5167  142.9183  161.1417 H   0  0  0  0  0  0  0  0  0  0  0  0
  1  2  2  0  0  0  0
  2  3  1  0  0  0  0
  2 33  1  0  0  0  0
  3  4  1  0  0  0  0
  3 39  1  0  0  0  0
  4  9  1  0  0  0  0
  4  5  2  0  0  0  0
  5  6  1  0  0  0  0
  6  7  2  0  0  0  0
  6 40  1  0  0  0  0
  7  8  1  0  0  0  0
  8 12  1  0  0  0  0
  8  9  2  0  0  0  0
  9 10  1  0  0  0  0
 10 11  2  0  0  0  0
 11 12  1  0  0  0  0
 11 41  1  0  0  0  0
 12 13  1  0  0  0  0
 13 32  1  0  0  0  0
 13 14  1  0  0  0  0
 13 42  1  0  0  0  0
 14 15  1  0  0  0  0
 15 16  1  0  0  0  0
 15 26  1  0  0  0  0
 15 43  1  0  0  0  0
 16 17  1  0  0  0  0
 16 44  1  0  0  0  0
 16 45  1  0  0  0  0
 17 18  1  0  0  0  0
 18 19  2  0  0  0  0
 18 20  1  0  0  0  0
 20 25  1  0  0  0  0
 20 21  2  0  0  0  0
 21 22  1  0  0  0  0
 21 46  1  0  0  0  0
 22 23  2  0  0  0  0
 22 47  1  0  0  0  0
 23 24  1  0  0  0  0
 23 48  1  0  0  0  0
 24 25  2  0  0  0  0
 24 49  1  0  0  0  0
 25 50  1  0  0  0  0
 26 32  1  0  0  0  0
 26 27  1  0  0  0  0
 26 51  1  0  0  0  0
 27 28  1  0  0  0  0
 28 29  2  0  0  0  0
 28 30  2  0  0  0  0
 28 31  1  0  0  0  0
 31 32  1  0  0  0  0
 32 52  1  0  0  0  0
 33 38  1  0  0  0  0
 33 34  2  0  0  0  0
 34 35  1  0  0  0  0
 34 53  1  0  0  0  0
 35 36  2  0  0  0  0
 35 54  1  0  0  0  0
 36 37  1  0  0  0  0
 36 55  1  0  0  0  0
 37 38  2  0  0  0  0
 37 56  1  0  0  0  0
 38 57  1  0  0  0  0
M  END
> <s_m_source_file>
AV-unprocessed.smi

> <i_m_source_file_index>
1

> <i_lp_mmshare_version>
43012

> <i_f3d_flags>
0

> <s_epik_input>
W2NIXTFbY0hdW2NIXVtjSF1bY0hdYzFDKD1PKVtOSF1jKG5bY0hdbjIpYyhjMjMpbltjSF1uM1tDQEBIXShbQ0BIXShbQ0BIXTQ1KU9TKE81KSg9Tyk9TylPW0NASF00W0NIMl1PQyg9TyljNltjSF1bY0hdW2NIXVtjSF1bY0hdNg==

> <s_epik_cmdline>
J2VwaWtfcHl0aG9uJywgJy1waCcsICc3LjAnLCAnLXRuJywgJzgnLCAnLW1hJywgJzIwMCcsICctbWV0YWxfYmluZGluZycsICctaW1hZScsICc8aW5maWxlLm1hZT4nLCAnLW9tYWUnLCAnPG91dGZpbGUubWFlPic=

> <r_lp_tautomer_probability>
1

> <r_epik_Ionization_Penalty>
0.00195722

> <r_epik_Ionization_Penalty_Charging>
0

> <r_epik_Ionization_Penalty_Neutral>
0.00195722

> <r_epik_State_Penalty>
0.00633741

> <r_epik_Charging_Adjusted_Penalty>
0.00633741

> <i_epik_Tot_Q>
0

> <i_epik_Tot_abs_Q>
0

> <r_epik_Metal_State_Penalty>
0.341185

> <b_epik_Metal_Only>
0

> <s_epik_Chemistry_Notes>
This compound has an ester and may undergo hydrolysis at high or low pH. This compound contains an acetal/aminal-like group ( X-CH(R)-Y where X, Y are N, S, or O) that may be acid/base labile, releasing an aldehyde.

> <s_lp_Force_Field>
OPLS_2005

> <r_lp_Energy>
45.5474

> <b_lp_Chiralities_Consistent>
1

> <s_lp_Variant>
AV-unprocessed.smi:1-5

> <Gold.Version>
5.8.1

> <Gold.Id.Protein>
6NUR|6NUR_protein|mol2

> <Gold.PLP.Fitness>
62.0179

> <Gold.PLP.PLP>
-56.7300

> <Gold.PLP.part.hbond>
-3.7744

> <Gold.PLP.part.metal>
0.0000

> <Gold.PLP.part.buried>
-10.4692

> <Gold.PLP.part.nonpolar>
-45.5831

> <Gold.PLP.part.repulsive>
1.2636

> <Gold.PLP.ligand.clash>
0.0000

> <Gold.PLP.ligand.torsion>
1.8980

> <Gold.PLP.Chemscore.Hbond>
2.8385

> <Gold.PLP.Chemscore.CHOScore>
0.0000

> <Gold.PLP.Chemscore.Metal>
0.0000

> <Gold.Chemscore.Hbonds>
donor molecule, donor type, donor heavy atom, donor atom, acceptor molecule, acceptor atom, score
      P1  H  6896  6907       L1    30  0.61
      P1  H  7997  8008       L1     5  0.68
      P1  H 10752 10763       L1     7  0.15

> <Gold.PLP.Chemscore.Internal.Correction>
0.5684

> <Gold.Rescore>
     Score         DG    S(hbond)    S(metal)    S(lipo)     H(rot)  DE(clash)    DE(int)     intcor
     16.78     -19.76       1.63        0.00     122.16       2.13       1.00       1.98       ----

> <Gold.Chemscore.Fitness>
16.7802

> <Gold.Chemscore.DG>
-19.7632

> <Gold.Chemscore.ZeroCoef>
-5.4800

> <Gold.Chemscore.Hbond>
1.6321

> <Gold.Chemscore.Metal>
0.0000

> <Gold.Chemscore.Lipo>
122.1646

> <Gold.Chemscore.Internal_Hbond>
0.0000

> <Gold.Chemscore.DEClash>
0.9986

> <Gold.Chemscore.DEInternal>
1.9845

> <Gold.Chemscore.Rot>
2.1333

> <Gold.Chemscore.Internal.Correction>
   9.000000E+99

> <Gold.Chemscore.Hbonds>
donor molecule, donor type, donor heavy atom, donor atom, acceptor molecule, acceptor atom, score
      P1  H  6896  6907       L1    30  0.06
      P1  H  7997  8008       L1     5  0.20
      P1  H 10752 10763       L1     7  0.15

> <Gold.Chemscore.Hbond.Weighted>
-5.4513

> <Gold.Chemscore.Metal.Weighted>
-0.0000

> <Gold.Chemscore.Lipo.Weighted>
-14.2933

> <Gold.Chemscore.Internal_Hbond.Weighted>
0.0000

> <Gold.Chemscore.DEClash.Weighted>
0.9986

> <Gold.Chemscore.DEInternal.Weighted>
1.9845

> <Gold.Chemscore.Rot.Weighted>
5.4614

> <Gold.Chemscore.Internal.Correction.Weighted>
   9.000000E+99

> <Gold.Protein.RotatedTorsions>
[ 6907 6896 6895 6894 ] final -163.59 input  -60.11 | X-H torsion
[ 7974 7965 7964 7962 ] final  -53.41 input  175.53 | X-H torsion
[ 8008 7997 7996 7995 ] final  -33.26 input   59.86 | X-H torsion
[ 10167 10162 10161 10158 ] final  -97.54 input  -65.29 | X-H torsion
[ 10718 10713 10712 10709 ] final -107.80 input   66.30 | X-H torsion
[ 10763 10752 10751 10750 ] final   90.72 input  -60.55 | X-H torsion
[ 11005 11000 10999 10996 ] final   47.31 input  -57.11 | X-H torsion

> <Gold.Protein.ActiveResidues>
 VAL166  LYS551  ARG553  GLY616  TRP617  ASP618  TYR619  PRO620  LYS621  CYS622 
 ASP623  PHE694  ASN695  SER759  ASP760  ASP761  ALA762  ILE779  LEU786  VAL792 
 PHE793  MET794  SER795  GLU796  ALA797  LYS798  CYS799  TRP800  GLU811  SER814 

> <Gold.Protein.RotatedAtoms>
  151.3984  133.3765  159.2728 H   0  0  0  0  0  0  0  0  0  0  0  0  # atno 6907 bound_to 6896
  150.9452  134.8859  159.7648 H   0  0  0  0  0  0  0  0  0  0  0  0  # atno 6908 bound_to 6896
  152.5088  134.3937  159.9445 H   0  0  0  0  0  0  0  0  0  0  0  0  # atno 6909 bound_to 6896
  145.8972  140.8023  142.9762 H   0  0  0  0  0  0  0  0  0  0  0  0  # atno 7974 bound_to 7965
  154.4154  140.1715  156.1859 H   0  0  0  0  0  0  0  0  0  0  0  0  # atno 8008 bound_to 7997
  155.9643  140.3391  155.6495 H   0  0  0  0  0  0  0  0  0  0  0  0  # atno 8009 bound_to 7997
  155.6708  140.0711  157.2511 H   0  0  0  0  0  0  0  0  0  0  0  0  # atno 8010 bound_to 7997
  140.2823  143.3274  152.0429 H   0  0  0  0  0  0  0  0  0  0  0  0  # atno 10167 bound_to 10162
  156.0454  130.5681  150.7872 H   0  0  0  0  0  0  0  0  0  0  0  0  # atno 10718 bound_to 10713
  153.2006  135.4423  155.0261 H   0  0  0  0  0  0  0  0  0  0  0  0  # atno 10763 bound_to 10752
  154.8144  135.3309  154.7218 H   0  0  0  0  0  0  0  0  0  0  0  0  # atno 10764 bound_to 10752
  153.7664  135.6988  153.4970 H   0  0  0  0  0  0  0  0  0  0  0  0  # atno 10765 bound_to 10752
  140.1291  134.4729  155.8536 H   0  0  0  0  0  0  0  0  0  0  0  0  # atno 11005 bound_to 11000
  144.6733  140.1620  143.7421 LP  0  0  0  0  0  0  0  0  0  0  0  0  # atno 17320 bound_to 7965
  145.8836  139.2336  143.1591 LP  0  0  0  0  0  0  0  0  0  0  0  0  # atno 17321 bound_to 7965
  139.4959  144.6583  151.6523 LP  0  0  0  0  0  0  0  0  0  0  0  0  # atno 17342 bound_to 10162
  140.5801  143.9960  150.6263 LP  0  0  0  0  0  0  0  0  0  0  0  0  # atno 17343 bound_to 10162
  157.5323  131.0937  150.9939 LP  0  0  0  0  0  0  0  0  0  0  0  0  # atno 17370 bound_to 10713
  157.0242  130.5686  149.5335 LP  0  0  0  0  0  0  0  0  0  0  0  0  # atno 17371 bound_to 10713
  141.2167  133.6789  156.7035 LP  0  0  0  0  0  0  0  0  0  0  0  0  # atno 17394 bound_to 11000
  140.2865  134.8274  157.3980 LP  0  0  0  0  0  0  0  0  0  0  0  0  # atno 17395 bound_to 11000

$$$$
