AV-unprocessed.smi:550|AV-procd|sdf|2896|dock7
  -GOLD-   2262023393D 1   1.00000     0.00000
 Structure written by MMmdl.
 46 48  0  0  0  0  0  0  0  0  2 V2000
  151.1888  136.9111  156.4441 O   0  0  0  0  0  0  0  0  0  0  0  0
  150.5271  137.2455  155.4619 C   0  0  0  0  0  0  0  0  0  0  0  0
  150.0983  136.3797  154.5325 N   0  0  0  0  0  0  0  0  0  0  0  0
  150.3252  134.9379  154.5626 C   0  0  0  0  0  0  0  0  0  0  0  0
  149.3014  134.1892  155.4471 C   0  0  2  0  0  0  0  0  0  0  0  0
  149.6380  132.6895  155.6112 C   0  0  0  0  0  0  0  0  0  0  0  0
  149.2045  131.9302  154.3494 C   0  0  0  0  0  0  0  0  0  0  0  0
  147.7631  132.8452  153.6825 S   0  0  0  0  0  0  0  0  0  0  0  0
  148.0794  133.3029  152.3211 O   0  0  0  0  0  0  0  0  0  0  0  0
  146.5272  132.0987  153.9626 O   0  0  0  0  0  0  0  0  0  0  0  0
  147.8891  134.2576  154.8441 C   0  0  0  0  0  0  0  0  0  0  0  0
  150.1548  138.5032  155.1660 N   0  0  0  0  0  0  0  0  0  0  0  0
  150.3708  139.6940  155.9129 C   0  0  0  0  0  0  0  0  0  0  0  0
  151.0974  139.5892  157.1188 C   0  0  0  0  0  0  0  0  0  0  0  0
  151.3532  140.7437  157.8868 C   0  0  0  0  0  0  0  0  0  0  0  0
  150.8853  141.9979  157.4303 C   0  0  0  0  0  0  0  0  0  0  0  0
  151.0855  143.2045  158.1153 N   0  0  0  0  0  0  0  0  0  0  0  0
  151.6492  143.0537  159.4454 C   0  0  0  0  0  0  0  0  0  0  0  0
  152.1421  144.4480  159.8388 C   0  0  0  0  0  0  0  0  0  0  0  0
  152.3546  145.1796  158.5080 C   0  0  0  0  0  0  0  0  0  0  0  0
  151.9201  144.1797  157.4322 C   0  0  0  0  0  0  0  0  0  0  0  0
  150.2001  142.0587  156.2681 N   0  3  0  0  0  0  0  0  0  0  0  0
  149.9317  140.9776  155.5040 C   0  0  0  0  0  0  0  0  0  0  0  0
  149.5647  136.7386  153.7540 H   0  0  0  0  0  0  0  0  0  0  0  0
  150.2985  134.5468  153.5440 H   0  0  0  0  0  0  0  0  0  0  0  0
  151.3393  134.7659  154.9238 H   0  0  0  0  0  0  0  0  0  0  0  0
  149.2878  134.6665  156.4278 H   0  0  0  0  0  0  0  0  0  0  0  0
  150.6878  132.5137  155.8454 H   0  0  0  0  0  0  0  0  0  0  0  0
  149.0682  132.3024  156.4568 H   0  0  0  0  0  0  0  0  0  0  0  0
  149.9912  131.9423  153.5950 H   0  0  0  0  0  0  0  0  0  0  0  0
  148.9321  130.8940  154.5510 H   0  0  0  0  0  0  0  0  0  0  0  0
  147.1367  134.1159  155.6205 H   0  0  0  0  0  0  0  0  0  0  0  0
  147.6748  135.1937  154.3278 H   0  0  0  0  0  0  0  0  0  0  0  0
  149.6781  138.6264  154.2847 H   0  0  0  0  0  0  0  0  0  0  0  0
  151.4560  138.6287  157.4598 H   0  0  0  0  0  0  0  0  0  0  0  0
  151.9020  140.6601  158.8135 H   0  0  0  0  0  0  0  0  0  0  0  0
  150.9046  142.6786  160.1481 H   0  0  0  0  0  0  0  0  0  0  0  0
  152.4826  142.3500  159.4285 H   0  0  0  0  0  0  0  0  0  0  0  0
  151.3820  144.9639  160.4268 H   0  0  0  0  0  0  0  0  0  0  0  0
  153.0512  144.4010  160.4393 H   0  0  0  0  0  0  0  0  0  0  0  0
  151.7340  146.0758  158.4713 H   0  0  0  0  0  0  0  0  0  0  0  0
  153.3911  145.4879  158.3679 H   0  0  0  0  0  0  0  0  0  0  0  0
  152.7961  143.7027  156.9918 H   0  0  0  0  0  0  0  0  0  0  0  0
  151.3678  144.6709  156.6304 H   0  0  0  0  0  0  0  0  0  0  0  0
  149.3898  141.1927  154.5956 H   0  0  0  0  0  0  0  0  0  0  0  0
  149.8719  142.9702  155.9477 H   0  0  0  0  0  0  0  0  0  0  0  0
  1  2  2  0  0  0  0
  2  3  1  0  0  0  0
  2 12  1  0  0  0  0
  3  4  1  0  0  0  0
  3 24  1  0  0  0  0
  4  5  1  0  0  0  0
  4 25  1  0  0  0  0
  4 26  1  0  0  0  0
  5 11  1  0  0  0  0
  5  6  1  0  0  0  0
  5 27  1  0  0  0  0
  6  7  1  0  0  0  0
  6 28  1  0  0  0  0
  6 29  1  0  0  0  0
  7  8  1  0  0  0  0
  7 30  1  0  0  0  0
  7 31  1  0  0  0  0
  8  9  2  0  0  0  0
  8 10  2  0  0  0  0
  8 11  1  0  0  0  0
 11 32  1  0  0  0  0
 11 33  1  0  0  0  0
 12 13  1  0  0  0  0
 12 34  1  0  0  0  0
 13 23  1  0  0  0  0
 13 14  2  0  0  0  0
 14 15  1  0  0  0  0
 14 35  1  0  0  0  0
 15 16  2  0  0  0  0
 15 36  1  0  0  0  0
 16 17  1  0  0  0  0
 16 22  1  0  0  0  0
 17 21  1  0  0  0  0
 17 18  1  0  0  0  0
 18 19  1  0  0  0  0
 18 37  1  0  0  0  0
 18 38  1  0  0  0  0
 19 20  1  0  0  0  0
 19 39  1  0  0  0  0
 19 40  1  0  0  0  0
 20 21  1  0  0  0  0
 20 41  1  0  0  0  0
 20 42  1  0  0  0  0
 21 43  1  0  0  0  0
 21 44  1  0  0  0  0
 22 23  2  0  0  0  0
 22 46  1  0  0  0  0
 23 45  1  0  0  0  0
M  CHG  1  22   1
M  END
> <s_m_source_file>
AV-unprocessed.smi

> <i_m_source_file_index>
550

> <i_lp_mmshare_version>
43012

> <i_f3d_flags>
0

> <s_epik_input>
Tz1TMSg9TylbQ0gyXVtDSDJdW0NASF0oW0NIMl0xKVtDSDJdW05IXUMoPU8pW05IXWMyW2NIXVtjSF1jKG5bY0hdMilOM1tDSDJdW0NIMl1bQ0gyXVtDSDJdMw==

> <s_epik_cmdline>
J2VwaWtfcHl0aG9uJywgJy1waCcsICc3LjAnLCAnLXRuJywgJzgnLCAnLW1hJywgJzIwMCcsICctbWV0YWxfYmluZGluZycsICctaW1hZScsICc8aW5maWxlLm1hZT4nLCAnLW9tYWUnLCAnPG91dGZpbGUubWFlPic=

> <r_lp_tautomer_probability>
0.999994

> <r_epik_Ionization_Penalty>
1.12573

> <r_epik_Ionization_Penalty_Charging>
1.12571

> <r_epik_Ionization_Penalty_Neutral>
1.93198e-05

> <r_epik_State_Penalty>
1.18495

> <r_epik_Charging_Adjusted_Penalty>
2.31065

> <i_epik_Tot_Q>
1

> <i_epik_Tot_abs_Q>
1

> <r_epik_Metal_State_Penalty>
1.26884

> <b_epik_Metal_Only>
0

> <s_lp_Force_Field>
OPLS_2005

> <r_lp_Energy>
42.4783

> <b_lp_Chiralities_Consistent>
1

> <s_lp_Variant>
AV-unprocessed.smi:550-3

> <Gold.Version>
5.8.1

> <Gold.Id.Protein>
6NUR|6NUR_protein|mol2

> <Gold.PLP.Fitness>
45.0263

> <Gold.PLP.PLP>
-37.1267

> <Gold.PLP.part.hbond>
-2.4445

> <Gold.PLP.part.metal>
0.0000

> <Gold.PLP.part.buried>
-4.7500

> <Gold.PLP.part.nonpolar>
-30.8735

> <Gold.PLP.part.repulsive>
1.3195

> <Gold.PLP.ligand.clash>
0.0000

> <Gold.PLP.ligand.torsion>
0.2855

> <Gold.PLP.Chemscore.Hbond>
2.8160

> <Gold.PLP.Chemscore.CHOScore>
0.0000

> <Gold.PLP.Chemscore.Metal>
0.0000

> <Gold.Chemscore.Hbonds>
donor molecule, donor type, donor heavy atom, donor atom, acceptor molecule, acceptor atom, score
      L1  H     3    24       P1  7948  0.82
      L1  H    22    46       P1  8028  2.00

> <Gold.PLP.Chemscore.Internal.Correction>
0.0225

> <Gold.Rescore>
     Score         DG    S(hbond)    S(metal)    S(lipo)     H(rot)  DE(clash)    DE(int)     intcor
     16.14     -17.91       1.50        0.00      96.04       1.50       0.09       1.68       ----

> <Gold.Chemscore.Fitness>
16.1416

> <Gold.Chemscore.DG>
-17.9115

> <Gold.Chemscore.ZeroCoef>
-5.4800

> <Gold.Chemscore.Hbond>
1.5047

> <Gold.Chemscore.Metal>
0.0000

> <Gold.Chemscore.Lipo>
96.0351

> <Gold.Chemscore.Internal_Hbond>
0.0000

> <Gold.Chemscore.DEClash>
0.0871

> <Gold.Chemscore.DEInternal>
1.6827

> <Gold.Chemscore.Rot>
1.4962

> <Gold.Chemscore.Internal.Correction>
   9.000000E+99

> <Gold.Chemscore.Hbonds>
donor molecule, donor type, donor heavy atom, donor atom, acceptor molecule, acceptor atom, score
      L1  H     3    24       P1  7948  0.58
      L1  H    22    46       P1  8028  0.93

> <Gold.Chemscore.Hbond.Weighted>
-5.0257

> <Gold.Chemscore.Metal.Weighted>
-0.0000

> <Gold.Chemscore.Lipo.Weighted>
-11.2361

> <Gold.Chemscore.Internal_Hbond.Weighted>
0.0000

> <Gold.Chemscore.DEClash.Weighted>
0.0871

> <Gold.Chemscore.DEInternal.Weighted>
1.6827

> <Gold.Chemscore.Rot.Weighted>
3.8303

> <Gold.Chemscore.Internal.Correction.Weighted>
   9.000000E+99

> <Gold.Protein.RotatedTorsions>
[ 6907 6896 6895 6894 ] final  -77.99 input  -60.11 | X-H torsion
[ 7974 7965 7964 7962 ] final   75.76 input  175.53 | X-H torsion
[ 8008 7997 7996 7995 ] final  115.03 input   59.86 | X-H torsion
[ 10167 10162 10161 10158 ] final   97.79 input  -65.29 | X-H torsion
[ 10718 10713 10712 10709 ] final  108.66 input   66.30 | X-H torsion
[ 10763 10752 10751 10750 ] final -131.98 input  -60.55 | X-H torsion
[ 11005 11000 10999 10996 ] final   84.90 input  -57.11 | X-H torsion

> <Gold.Protein.ActiveResidues>
 VAL166  LYS551  ARG553  GLY616  TRP617  ASP618  TYR619  PRO620  LYS621  CYS622 
 ASP623  PHE694  ASN695  SER759  ASP760  ASP761  ALA762  ILE779  LEU786  VAL792 
 PHE793  MET794  SER795  GLU796  ALA797  LYS798  CYS799  TRP800  GLU811  SER814 

> <Gold.Protein.RotatedAtoms>
  150.6984  134.4339  159.5260 H   0  0  0  0  0  0  0  0  0  0  0  0  # atno 6907 bound_to 6896
  152.2061  134.8541  160.0512 H   0  0  0  0  0  0  0  0  0  0  0  0  # atno 6908 bound_to 6896
  151.9443  133.3612  159.4013 H   0  0  0  0  0  0  0  0  0  0  0  0  # atno 6909 bound_to 6896
  145.7115  139.2616  143.1648 H   0  0  0  0  0  0  0  0  0  0  0  0  # atno 7974 bound_to 7965
  156.2357  140.2947  156.0306 H   0  0  0  0  0  0  0  0  0  0  0  0  # atno 8008 bound_to 7997
  155.2098  140.0412  157.2948 H   0  0  0  0  0  0  0  0  0  0  0  0  # atno 8009 bound_to 7997
  154.6075  140.2443  155.7719 H   0  0  0  0  0  0  0  0  0  0  0  0  # atno 8010 bound_to 7997
  139.7768  144.6903  151.0078 H   0  0  0  0  0  0  0  0  0  0  0  0  # atno 10167 bound_to 10162
  157.6576  131.0898  150.6338 H   0  0  0  0  0  0  0  0  0  0  0  0  # atno 10718 bound_to 10713
  154.8747  135.3812  154.4335 H   0  0  0  0  0  0  0  0  0  0  0  0  # atno 10763 bound_to 10752
  153.5027  135.7030  153.5828 H   0  0  0  0  0  0  0  0  0  0  0  0  # atno 10764 bound_to 10752
  153.4153  135.3915  155.2043 H   0  0  0  0  0  0  0  0  0  0  0  0  # atno 10765 bound_to 10752
  139.8987  134.8249  156.2509 H   0  0  0  0  0  0  0  0  0  0  0  0  # atno 11005 bound_to 11000
  146.0708  140.7871  142.9689 LP  0  0  0  0  0  0  0  0  0  0  0  0  # atno 17320 bound_to 7965
  144.6940  140.3339  143.7211 LP  0  0  0  0  0  0  0  0  0  0  0  0  # atno 17321 bound_to 7965
  140.7817  143.4527  151.0390 LP  0  0  0  0  0  0  0  0  0  0  0  0  # atno 17342 bound_to 10162
  139.8209  143.7821  152.3177 LP  0  0  0  0  0  0  0  0  0  0  0  0  # atno 17343 bound_to 10162
  156.6643  130.4521  149.5677 LP  0  0  0  0  0  0  0  0  0  0  0  0  # atno 17370 bound_to 10713
  156.2044  130.6640  151.1202 LP  0  0  0  0  0  0  0  0  0  0  0  0  # atno 17371 bound_to 10713
  141.0225  133.7033  156.1291 LP  0  0  0  0  0  0  0  0  0  0  0  0  # atno 17394 bound_to 11000
  140.7214  134.4354  157.5574 LP  0  0  0  0  0  0  0  0  0  0  0  0  # atno 17395 bound_to 11000

$$$$
