AV-unprocessed.smi:153|AV-procd|sdf|1262|dock10
  -GOLD-   2262018513D 1   1.00000     0.00000
 Structure written by MMmdl.
 59 62  0  0  0  0  0  0  0  0  1 V2000
  146.3536  130.1759  152.5724 C   0  0  0  0  0  0  0  0  0  0  0  0
  145.5544  131.3423  151.9709 C   0  0  2  0  0  0  0  0  0  0  0  0
  145.9523  131.4810  150.6091 O   0  0  0  0  0  0  0  0  0  0  0  0
  145.8384  132.8425  150.2345 C   0  0  0  0  0  0  0  0  0  0  0  0
  146.3492  133.5647  151.4716 C   0  0  0  0  0  0  0  0  0  0  0  0
  145.7621  132.7425  152.6157 C   0  0  1  0  0  0  0  0  0  0  0  0
  144.4804  133.2710  152.9149 O   0  0  0  0  0  0  0  0  0  0  0  0
  146.6108  132.7884  153.9136 C   0  0  0  0  0  0  0  0  0  0  0  0
  147.2116  134.0901  154.1645 N   0  0  0  0  0  0  0  0  0  0  0  0
  146.5739  135.3104  154.1507 C   0  0  0  0  0  0  0  0  0  0  0  0
  147.3335  136.3390  154.4107 N   0  0  0  0  0  0  0  0  0  0  0  0
  148.5903  135.7865  154.6240 C   0  0  0  0  0  0  0  0  0  0  0  0
  149.8618  136.3239  154.9689 C   0  0  0  0  0  0  0  0  0  0  0  0
  150.0629  137.6522  155.1580 N   0  0  0  0  0  0  0  0  0  0  0  0
  148.8891  138.3582  155.6579 C   0  0  0  0  0  0  0  0  0  0  0  0
  150.9738  138.3752  154.2673 C   0  0  0  0  0  0  0  0  0  0  0  0
  151.6724  139.5773  154.9410 C   0  0  1  0  0  0  0  0  0  0  0  0
  152.6877  140.0088  154.0596 O   0  0  0  0  0  0  0  0  0  0  0  0
  150.7133  140.7660  155.1931 C   0  0  0  0  0  0  0  0  0  0  0  0
  151.1208  141.6860  156.2561 N   0  0  0  0  0  0  0  0  0  0  0  0
  151.3367  141.0026  157.5308 C   0  0  0  0  0  0  0  0  0  0  0  0
  151.7166  141.9780  158.6572 C   0  0  0  0  0  0  0  0  0  0  0  0
  150.7119  142.9787  158.7827 O   0  0  0  0  0  0  0  0  0  0  0  0
  150.5098  143.7047  157.5749 C   0  0  0  0  0  0  0  0  0  0  0  0
  150.1205  142.7311  156.4489 C   0  0  0  0  0  0  0  0  0  0  0  0
  150.8939  135.4507  155.1115 N   0  0  0  0  0  0  0  0  0  0  0  0
  150.6965  134.1404  154.9402 C   0  0  0  0  0  0  0  0  0  0  0  0
  149.5675  133.5004  154.6298 N   0  0  0  0  0  0  0  0  0  0  0  0
  148.5296  134.3721  154.4791 C   0  0  0  0  0  0  0  0  0  0  0  0
  146.0922  130.0099  153.6175 H   0  0  0  0  0  0  0  0  0  0  0  0
  147.4277  130.3524  152.5115 H   0  0  0  0  0  0  0  0  0  0  0  0
  146.1455  129.2508  152.0342 H   0  0  0  0  0  0  0  0  0  0  0  0
  144.4964  131.0730  151.9794 H   0  0  0  0  0  0  0  0  0  0  0  0
  146.4234  133.0660  149.3423 H   0  0  0  0  0  0  0  0  0  0  0  0
  144.7937  133.0868  150.0368 H   0  0  0  0  0  0  0  0  0  0  0  0
  147.4379  133.5030  151.4854 H   0  0  0  0  0  0  0  0  0  0  0  0
  146.0760  134.6205  151.4991 H   0  0  0  0  0  0  0  0  0  0  0  0
  144.0586  132.6992  153.5379 H   0  0  0  0  0  0  0  0  0  0  0  0
  146.0017  132.5228  154.7786 H   0  0  0  0  0  0  0  0  0  0  0  0
  147.4176  132.0566  153.8685 H   0  0  0  0  0  0  0  0  0  0  0  0
  145.5201  135.4149  153.9371 H   0  0  0  0  0  0  0  0  0  0  0  0
  147.9645  137.8975  155.3062 H   0  0  0  0  0  0  0  0  0  0  0  0
  148.8841  139.3988  155.3327 H   0  0  0  0  0  0  0  0  0  0  0  0
  148.8833  138.3506  156.7481 H   0  0  0  0  0  0  0  0  0  0  0  0
  151.7168  137.6771  153.8791 H   0  0  0  0  0  0  0  0  0  0  0  0
  150.4131  138.7309  153.4019 H   0  0  0  0  0  0  0  0  0  0  0  0
  152.1711  139.2652  155.8572 H   0  0  0  0  0  0  0  0  0  0  0  0
  152.7572  139.3819  153.3558 H   0  0  0  0  0  0  0  0  0  0  0  0
  150.5889  141.3221  154.2623 H   0  0  0  0  0  0  0  0  0  0  0  0
  149.7154  140.3895  155.4228 H   0  0  0  0  0  0  0  0  0  0  0  0
  150.4346  140.4594  157.8163 H   0  0  0  0  0  0  0  0  0  0  0  0
  152.1306  140.2637  157.4369 H   0  0  0  0  0  0  0  0  0  0  0  0
  151.8096  141.4436  159.6029 H   0  0  0  0  0  0  0  0  0  0  0  0
  152.6819  142.4443  158.4549 H   0  0  0  0  0  0  0  0  0  0  0  0
  149.7208  144.4408  157.7295 H   0  0  0  0  0  0  0  0  0  0  0  0
  151.4159  144.2544  157.3156 H   0  0  0  0  0  0  0  0  0  0  0  0
  149.9868  143.2902  155.5222 H   0  0  0  0  0  0  0  0  0  0  0  0
  149.1547  142.2803  156.6827 H   0  0  0  0  0  0  0  0  0  0  0  0
  151.5670  133.5153  155.0734 H   0  0  0  0  0  0  0  0  0  0  0  0
  1  2  1  0  0  0  0
  1 30  1  0  0  0  0
  1 31  1  0  0  0  0
  1 32  1  0  0  0  0
  2  6  1  0  0  0  0
  2  3  1  0  0  0  0
  2 33  1  0  0  0  0
  3  4  1  0  0  0  0
  4  5  1  0  0  0  0
  4 34  1  0  0  0  0
  4 35  1  0  0  0  0
  5  6  1  0  0  0  0
  5 36  1  0  0  0  0
  5 37  1  0  0  0  0
  6  7  1  0  0  0  0
  6  8  1  0  0  0  0
  7 38  1  0  0  0  0
  8  9  1  0  0  0  0
  8 39  1  0  0  0  0
  8 40  1  0  0  0  0
  9 29  1  0  0  0  0
  9 10  1  0  0  0  0
 10 11  2  0  0  0  0
 10 41  1  0  0  0  0
 11 12  1  0  0  0  0
 12 29  2  0  0  0  0
 12 13  1  0  0  0  0
 13 14  1  0  0  0  0
 13 26  2  0  0  0  0
 14 15  1  0  0  0  0
 14 16  1  0  0  0  0
 15 42  1  0  0  0  0
 15 43  1  0  0  0  0
 15 44  1  0  0  0  0
 16 17  1  0  0  0  0
 16 45  1  0  0  0  0
 16 46  1  0  0  0  0
 17 18  1  0  0  0  0
 17 19  1  0  0  0  0
 17 47  1  0  0  0  0
 18 48  1  0  0  0  0
 19 20  1  0  0  0  0
 19 49  1  0  0  0  0
 19 50  1  0  0  0  0
 20 25  1  0  0  0  0
 20 21  1  0  0  0  0
 21 22  1  0  0  0  0
 21 51  1  0  0  0  0
 21 52  1  0  0  0  0
 22 23  1  0  0  0  0
 22 53  1  0  0  0  0
 22 54  1  0  0  0  0
 23 24  1  0  0  0  0
 24 25  1  0  0  0  0
 24 55  1  0  0  0  0
 24 56  1  0  0  0  0
 25 57  1  0  0  0  0
 25 58  1  0  0  0  0
 26 27  1  0  0  0  0
 27 28  2  0  0  0  0
 27 59  1  0  0  0  0
 28 29  1  0  0  0  0
M  END
> <s_m_source_file>
AV-unprocessed.smi

> <i_m_source_file_index>
153

> <i_lp_mmshare_version>
43012

> <i_f3d_flags>
0

> <s_epik_input>
W0NIMl0xW0NIMl1PW0NAQEhdKFtDSDNdKVtDQEBdMShbT0hdKVtDSDJdbihbY0hdbjIpYyhjMjMpbltjSF1uYzNOKFtDSDNdKVtDSDJdW0NASF0oW09IXSlbQ0gyXU40W0NIMl1bQ0gyXU9bQ0gyXVtDSDJdNA==

> <s_epik_cmdline>
J2VwaWtfcHl0aG9uJywgJy1waCcsICc3LjAnLCAnLXRuJywgJzgnLCAnLW1hJywgJzIwMCcsICctbWV0YWxfYmluZGluZycsICctaW1hZScsICc8aW5maWxlLm1hZT4nLCAnLW9tYWUnLCAnPG91dGZpbGUubWFlPic=

> <r_lp_tautomer_probability>
1

> <r_epik_Ionization_Penalty>
0.424123

> <r_epik_Ionization_Penalty_Charging>
0

> <r_epik_Ionization_Penalty_Neutral>
0.424123

> <r_epik_State_Penalty>
0.421495

> <r_epik_Charging_Adjusted_Penalty>
0.421495

> <i_epik_Tot_Q>
0

> <i_epik_Tot_abs_Q>
0

> <r_epik_Metal_State_Penalty>
0.421223

> <b_epik_Metal_Only>
0

> <s_lp_Force_Field>
OPLS_2005

> <r_lp_Energy>
51.9128

> <b_lp_Chiralities_Consistent>
1

> <s_lp_Variant>
AV-unprocessed.smi:153-13

> <Gold.Version>
5.8.1

> <Gold.Id.Protein>
6NUR|6NUR_protein|mol2

> <Gold.PLP.Fitness>
45.5871

> <Gold.PLP.PLP>
-40.6397

> <Gold.PLP.part.hbond>
-4.5745

> <Gold.PLP.part.metal>
0.0000

> <Gold.PLP.part.buried>
-7.3929

> <Gold.PLP.part.nonpolar>
-28.6521

> <Gold.PLP.part.repulsive>
0.3645

> <Gold.PLP.ligand.clash>
0.0000

> <Gold.PLP.ligand.torsion>
1.7707

> <Gold.PLP.Chemscore.Hbond>
2.5851

> <Gold.PLP.Chemscore.CHOScore>
0.0000

> <Gold.PLP.Chemscore.Metal>
0.0000

> <Gold.Chemscore.Hbonds>
donor molecule, donor type, donor heavy atom, donor atom, acceptor molecule, acceptor atom, score
      L1  H     7    38       P1 10957  0.88
      P1  H  7989  7998       L1    18  0.06
      P1  H 10752 10765       L1    26  0.74

> <Gold.PLP.Chemscore.Internal.Correction>
0.7336

> <Gold.Rescore>
     Score         DG    S(hbond)    S(metal)    S(lipo)     H(rot)  DE(clash)    DE(int)     intcor
     10.39     -13.78       2.07        0.00      88.93       3.52       0.04       3.35       ----

> <Gold.Chemscore.Fitness>
10.3921

> <Gold.Chemscore.DG>
-13.7788

> <Gold.Chemscore.ZeroCoef>
-5.4800

> <Gold.Chemscore.Hbond>
2.0651

> <Gold.Chemscore.Metal>
0.0000

> <Gold.Chemscore.Lipo>
88.9315

> <Gold.Chemscore.Internal_Hbond>
0.0000

> <Gold.Chemscore.DEClash>
0.0402

> <Gold.Chemscore.DEInternal>
3.3464

> <Gold.Chemscore.Rot>
3.5170

> <Gold.Chemscore.Internal.Correction>
   9.000000E+99

> <Gold.Chemscore.Hbonds>
donor molecule, donor type, donor heavy atom, donor atom, acceptor molecule, acceptor atom, score
      L1  H     7    38       P1 10957  0.47
      P1  H 10752 10765       L1    26  0.16

> <Gold.Chemscore.Hbond.Weighted>
-6.8974

> <Gold.Chemscore.Metal.Weighted>
-0.0000

> <Gold.Chemscore.Lipo.Weighted>
-10.4050

> <Gold.Chemscore.Internal_Hbond.Weighted>
0.0000

> <Gold.Chemscore.DEClash.Weighted>
0.0402

> <Gold.Chemscore.DEInternal.Weighted>
3.3464

> <Gold.Chemscore.Rot.Weighted>
9.0036

> <Gold.Chemscore.Internal.Correction.Weighted>
   9.000000E+99

> <Gold.Protein.RotatedTorsions>
[ 6907 6896 6895 6894 ] final   41.37 input  -60.11 | X-H torsion
[ 7974 7965 7964 7962 ] final -154.89 input  175.53 | X-H torsion
[ 8008 7997 7996 7995 ] final   91.10 input   59.86 | X-H torsion
[ 10167 10162 10161 10158 ] final -155.81 input  -65.29 | X-H torsion
[ 10718 10713 10712 10709 ] final  115.46 input   66.30 | X-H torsion
[ 10763 10752 10751 10750 ] final -165.63 input  -60.55 | X-H torsion
[ 11005 11000 10999 10996 ] final -118.34 input  -57.11 | X-H torsion

> <Gold.Protein.ActiveResidues>
 VAL166  LYS551  ARG553  GLY616  TRP617  ASP618  TYR619  PRO620  LYS621  CYS622 
 ASP623  PHE694  ASN695  SER759  ASP760  ASP761  ALA762  ILE779  LEU786  VAL792 
 PHE793  MET794  SER795  GLU796  ALA797  LYS798  CYS799  TRP800  GLU811  SER814 

> <Gold.Protein.RotatedAtoms>
  152.1944  134.8643  160.0514 H   0  0  0  0  0  0  0  0  0  0  0  0  # atno 6907 bound_to 6896
  151.9520  133.3664  159.4012 H   0  0  0  0  0  0  0  0  0  0  0  0  # atno 6908 bound_to 6896
  150.6941  134.4254  159.5268 H   0  0  0  0  0  0  0  0  0  0  0  0  # atno 6909 bound_to 6896
  144.7667  140.4326  143.5937 H   0  0  0  0  0  0  0  0  0  0  0  0  # atno 7974 bound_to 7965
  156.0198  140.3341  155.7027 H   0  0  0  0  0  0  0  0  0  0  0  0  # atno 8008 bound_to 7997
  155.6039  140.0658  157.2743 H   0  0  0  0  0  0  0  0  0  0  0  0  # atno 8009 bound_to 7997
  154.4312  140.1805  156.1189 H   0  0  0  0  0  0  0  0  0  0  0  0  # atno 8010 bound_to 7997
  139.6901  143.9436  152.2380 H   0  0  0  0  0  0  0  0  0  0  0  0  # atno 10167 bound_to 10162
  157.6221  131.1012  150.7332 H   0  0  0  0  0  0  0  0  0  0  0  0  # atno 10718 bound_to 10713
  154.6913  135.2971  154.9475 H   0  0  0  0  0  0  0  0  0  0  0  0  # atno 10763 bound_to 10752
  154.0438  135.6654  153.4797 H   0  0  0  0  0  0  0  0  0  0  0  0  # atno 10764 bound_to 10752
  153.0614  135.5113  154.8007 H   0  0  0  0  0  0  0  0  0  0  0  0  # atno 10765 bound_to 10752
  141.0292  134.0007  157.3168 H   0  0  0  0  0  0  0  0  0  0  0  0  # atno 11005 bound_to 11000
  145.6449  139.1555  143.2895 LP  0  0  0  0  0  0  0  0  0  0  0  0  # atno 17320 bound_to 7965
  146.1780  140.6542  142.9202 LP  0  0  0  0  0  0  0  0  0  0  0  0  # atno 17321 bound_to 7965
  139.9249  144.6777  150.8423 LP  0  0  0  0  0  0  0  0  0  0  0  0  # atno 17342 bound_to 10162
  140.7680  143.3349  151.2331 LP  0  0  0  0  0  0  0  0  0  0  0  0  # atno 17343 bound_to 10162
  156.7688  130.4822  149.5422 LP  0  0  0  0  0  0  0  0  0  0  0  0  # atno 17370 bound_to 10713
  156.1372  130.6219  151.0416 LP  0  0  0  0  0  0  0  0  0  0  0  0  # atno 17371 bound_to 10713
  139.9196  135.0199  156.8015 LP  0  0  0  0  0  0  0  0  0  0  0  0  # atno 17394 bound_to 11000
  140.6437  133.9795  155.7720 LP  0  0  0  0  0  0  0  0  0  0  0  0  # atno 17395 bound_to 11000

$$$$
