AV-unprocessed.smi:672|AV-procd|sdf|3290|dock4
  -GOLD-   22720 0253D 1   1.00000     0.00000
 Structure written by MMmdl.
 36 37  0  0  0  0  0  0  0  0  1 V2000
  150.5609  141.4721  157.8222 C   0  0  0  0  0  0  0  0  0  0  0  0
  150.8420  141.6920  156.3320 C   0  0  0  0  0  0  0  0  0  0  0  0
  150.4010  140.5419  155.4894 C   0  0  0  0  0  0  0  0  0  0  0  0
  151.2545  139.8031  154.7695 N   0  0  0  0  0  0  0  0  0  0  0  0
  150.6172  138.7738  154.0912 N   0  0  0  0  0  0  0  0  0  0  0  0
  149.2990  138.7573  154.3323 C   0  0  0  0  0  0  0  0  0  0  0  0
  148.4055  137.8084  153.7690 N   0  0  0  0  0  0  0  0  0  0  0  0
  147.1356  137.5457  154.1246 C   0  0  0  0  0  0  0  0  0  0  0  0
  146.5167  138.1095  155.0276 O   0  0  0  0  0  0  0  0  0  0  0  0
  146.6087  136.5780  153.3607 N   0  0  0  0  0  0  0  0  0  0  0  0
  145.2501  136.0562  153.4856 C   0  0  1  0  0  0  0  0  0  0  0  0
  144.3294  136.6042  152.3769 C   0  0  0  0  0  0  0  0  0  0  0  0
  144.0528  135.4287  151.4397 C   0  0  0  0  0  0  0  0  0  0  0  0
  144.1033  134.2049  152.3526 C   0  0  1  0  0  0  0  0  0  0  0  0
  144.3770  132.6508  151.4534 S   0  0  0  0  0  0  0  0  0  0  0  0
  145.9420  133.0298  150.6216 C   0  0  0  0  0  0  0  0  0  0  0  0
  145.2359  134.5234  153.3330 C   0  0  0  0  0  0  0  0  0  0  0  0
  148.7247  140.0106  155.4185 S   0  0  0  0  0  0  0  0  0  0  0  0
  150.8913  142.3285  158.4101 H   0  0  0  0  0  0  0  0  0  0  0  0
  151.0832  140.5905  158.1950 H   0  0  0  0  0  0  0  0  0  0  0  0
  149.4950  141.3331  158.0050 H   0  0  0  0  0  0  0  0  0  0  0  0
  150.3336  142.5929  155.9874 H   0  0  0  0  0  0  0  0  0  0  0  0
  151.9086  141.8571  156.1748 H   0  0  0  0  0  0  0  0  0  0  0  0
  148.7774  137.2655  153.0036 H   0  0  0  0  0  0  0  0  0  0  0  0
  147.1868  136.1710  152.6402 H   0  0  0  0  0  0  0  0  0  0  0  0
  144.8427  136.3260  154.4619 H   0  0  0  0  0  0  0  0  0  0  0  0
  143.3910  136.9358  152.8233 H   0  0  0  0  0  0  0  0  0  0  0  0
  144.7481  137.4594  151.8445 H   0  0  0  0  0  0  0  0  0  0  0  0
  143.1003  135.5295  150.9192 H   0  0  0  0  0  0  0  0  0  0  0  0
  144.8407  135.3680  150.6875 H   0  0  0  0  0  0  0  0  0  0  0  0
  143.1675  134.1318  152.9086 H   0  0  0  0  0  0  0  0  0  0  0  0
  146.2422  132.1936  149.9902 H   0  0  0  0  0  0  0  0  0  0  0  0
  146.7315  133.2097  151.3510 H   0  0  0  0  0  0  0  0  0  0  0  0
  145.8364  133.9154  149.9950 H   0  0  0  0  0  0  0  0  0  0  0  0
  146.1839  134.1745  152.9195 H   0  0  0  0  0  0  0  0  0  0  0  0
  145.0993  134.0174  154.2893 H   0  0  0  0  0  0  0  0  0  0  0  0
  1  2  1  0  0  0  0
  1 19  1  0  0  0  0
  1 20  1  0  0  0  0
  1 21  1  0  0  0  0
  2  3  1  0  0  0  0
  2 22  1  0  0  0  0
  2 23  1  0  0  0  0
  3 18  1  0  0  0  0
  3  4  2  0  0  0  0
  4  5  1  0  0  0  0
  5  6  2  0  0  0  0
  6  7  1  0  0  0  0
  6 18  1  0  0  0  0
  7  8  1  0  0  0  0
  7 24  1  0  0  0  0
  8  9  2  0  0  0  0
  8 10  1  0  0  0  0
 10 11  1  0  0  0  0
 10 25  1  0  0  0  0
 11 17  1  0  0  0  0
 11 12  1  0  0  0  0
 11 26  1  0  0  0  0
 12 13  1  0  0  0  0
 12 27  1  0  0  0  0
 12 28  1  0  0  0  0
 13 14  1  0  0  0  0
 13 29  1  0  0  0  0
 13 30  1  0  0  0  0
 14 15  1  0  0  0  0
 14 17  1  0  0  0  0
 14 31  1  0  0  0  0
 15 16  1  0  0  0  0
 16 32  1  0  0  0  0
 16 33  1  0  0  0  0
 16 34  1  0  0  0  0
 17 35  1  0  0  0  0
 17 36  1  0  0  0  0
M  END
> <s_m_source_file>
AV-unprocessed.smi

> <i_m_source_file_index>
672

> <i_lp_mmshare_version>
43012

> <i_f3d_flags>
0

> <s_epik_input>
W0NIM11bQ0gyXWMxbm5jKHMxKVtOSF1DKD1PKVtOSF1bQ0BASF0yW0NIMl1bQ0gyXVtDQEhdKFtDSDJdMilTW0NIM10=

> <s_epik_cmdline>
J2VwaWtfcHl0aG9uJywgJy1waCcsICc3LjAnLCAnLXRuJywgJzgnLCAnLW1hJywgJzIwMCcsICctbWV0YWxfYmluZGluZycsICctaW1hZScsICc8aW5maWxlLm1hZT4nLCAnLW9tYWUnLCAnPG91dGZpbGUubWFlPic=

> <r_lp_tautomer_probability>
1

> <r_epik_Ionization_Penalty>
0.000422169

> <r_epik_Ionization_Penalty_Charging>
0

> <r_epik_Ionization_Penalty_Neutral>
0.000422169

> <r_epik_State_Penalty>
-0

> <r_epik_Charging_Adjusted_Penalty>
0

> <i_epik_Tot_Q>
0

> <i_epik_Tot_abs_Q>
0

> <r_epik_Metal_State_Penalty>
0.200061

> <b_epik_Metal_Only>
0

> <s_lp_Force_Field>
OPLS_2005

> <r_lp_Energy>
11.4796

> <b_lp_Chiralities_Consistent>
1

> <s_lp_Variant>
AV-unprocessed.smi:672-2

> <Gold.Version>
5.8.1

> <Gold.Id.Protein>
6NUR|6NUR_protein|mol2

> <Gold.PLP.Fitness>
34.2996

> <Gold.PLP.PLP>
-26.1662

> <Gold.PLP.part.hbond>
-3.0000

> <Gold.PLP.part.metal>
0.0000

> <Gold.PLP.part.buried>
-4.4338

> <Gold.PLP.part.nonpolar>
-18.8557

> <Gold.PLP.part.repulsive>
0.3475

> <Gold.PLP.ligand.clash>
0.0000

> <Gold.PLP.ligand.torsion>
0.2840

> <Gold.PLP.Chemscore.Hbond>
2.8960

> <Gold.PLP.Chemscore.CHOScore>
0.0000

> <Gold.PLP.Chemscore.Metal>
0.0000

> <Gold.Chemscore.Hbonds>
donor molecule, donor type, donor heavy atom, donor atom, acceptor molecule, acceptor atom, score
      L1  H     7    24       P1  7948  1.00
      L1  H    10    25       P1  7948  0.88
      P1  H  7989  7998       L1     4  1.00

> <Gold.PLP.Chemscore.Internal.Correction>
0.0133

> <Gold.Rescore>
     Score         DG    S(hbond)    S(metal)    S(lipo)     H(rot)  DE(clash)    DE(int)     intcor
     13.82     -15.29       2.06        0.00      54.97       1.37       0.06       1.41       ----

> <Gold.Chemscore.Fitness>
13.8218

> <Gold.Chemscore.DG>
-15.2860

> <Gold.Chemscore.ZeroCoef>
-5.4800

> <Gold.Chemscore.Hbond>
2.0580

> <Gold.Chemscore.Metal>
0.0000

> <Gold.Chemscore.Lipo>
54.9694

> <Gold.Chemscore.Internal_Hbond>
0.0000

> <Gold.Chemscore.DEClash>
0.0592

> <Gold.Chemscore.DEInternal>
1.4050

> <Gold.Chemscore.Rot>
1.3669

> <Gold.Chemscore.Internal.Correction>
   9.000000E+99

> <Gold.Chemscore.Hbonds>
donor molecule, donor type, donor heavy atom, donor atom, acceptor molecule, acceptor atom, score
      L1  H     7    24       P1  7948  0.93
      L1  H    10    25       P1  7948  0.86
      P1  H  7989  7998       L1     4  0.12

> <Gold.Chemscore.Hbond.Weighted>
-6.8739

> <Gold.Chemscore.Metal.Weighted>
-0.0000

> <Gold.Chemscore.Lipo.Weighted>
-6.4314

> <Gold.Chemscore.Internal_Hbond.Weighted>
0.0000

> <Gold.Chemscore.DEClash.Weighted>
0.0592

> <Gold.Chemscore.DEInternal.Weighted>
1.4050

> <Gold.Chemscore.Rot.Weighted>
3.4992

> <Gold.Chemscore.Internal.Correction.Weighted>
   9.000000E+99

> <Gold.Protein.RotatedTorsions>
[ 6907 6896 6895 6894 ] final   21.78 input  -60.11 | X-H torsion
[ 7974 7965 7964 7962 ] final  166.15 input  175.53 | X-H torsion
[ 8008 7997 7996 7995 ] final  -25.76 input   59.86 | X-H torsion
[ 10167 10162 10161 10158 ] final  135.73 input  -65.29 | X-H torsion
[ 10718 10713 10712 10709 ] final   66.08 input   66.30 | X-H torsion
[ 10763 10752 10751 10750 ] final   -2.28 input  -60.55 | X-H torsion
[ 11005 11000 10999 10996 ] final  -42.15 input  -57.11 | X-H torsion

> <Gold.Protein.ActiveResidues>
 VAL166  LYS551  ARG553  GLY616  TRP617  ASP618  TYR619  PRO620  LYS621  CYS622 
 ASP623  PHE694  ASN695  SER759  ASP760  ASP761  ALA762  ILE779  LEU786  VAL792 
 PHE793  MET794  SER795  GLU796  ALA797  LYS798  CYS799  TRP800  GLU811  SER814 

> <Gold.Protein.RotatedAtoms>
  151.9171  135.0314  160.0518 H   0  0  0  0  0  0  0  0  0  0  0  0  # atno 6907 bound_to 6896
  152.2231  133.4994  159.5182 H   0  0  0  0  0  0  0  0  0  0  0  0  # atno 6908 bound_to 6896
  150.7005  134.1233  159.4085 H   0  0  0  0  0  0  0  0  0  0  0  0  # atno 6909 bound_to 6896
  144.7474  139.8573  143.6377 H   0  0  0  0  0  0  0  0  0  0  0  0  # atno 7974 bound_to 7965
  154.4459  140.1918  156.0669 H   0  0  0  0  0  0  0  0  0  0  0  0  # atno 8008 bound_to 7997
  156.0540  140.3305  155.7357 H   0  0  0  0  0  0  0  0  0  0  0  0  # atno 8009 bound_to 7997
  155.5513  140.0595  157.2840 H   0  0  0  0  0  0  0  0  0  0  0  0  # atno 8010 bound_to 7997
  139.5206  144.6501  151.5325 H   0  0  0  0  0  0  0  0  0  0  0  0  # atno 10167 bound_to 10162
  157.6147  130.9249  150.0062 H   0  0  0  0  0  0  0  0  0  0  0  0  # atno 10718 bound_to 10713
  153.3559  135.6988  153.6751 H   0  0  0  0  0  0  0  0  0  0  0  0  # atno 10763 bound_to 10752
  153.5459  135.3563  155.2739 H   0  0  0  0  0  0  0  0  0  0  0  0  # atno 10764 bound_to 10752
  154.8661  135.4215  154.2805 H   0  0  0  0  0  0  0  0  0  0  0  0  # atno 10765 bound_to 10752
  141.0296  133.6826  156.2556 H   0  0  0  0  0  0  0  0  0  0  0  0  # atno 11005 bound_to 11000
  146.1373  139.4422  143.0131 LP  0  0  0  0  0  0  0  0  0  0  0  0  # atno 17320 bound_to 7965
  145.7072  141.0117  143.1473 LP  0  0  0  0  0  0  0  0  0  0  0  0  # atno 17321 bound_to 7965
  140.6303  143.9089  150.6600 LP  0  0  0  0  0  0  0  0  0  0  0  0  # atno 17342 bound_to 10162
  140.2391  143.3677  152.1502 LP  0  0  0  0  0  0  0  0  0  0  0  0  # atno 17343 bound_to 10162
  156.1264  130.3644  149.9803 LP  0  0  0  0  0  0  0  0  0  0  0  0  # atno 17370 bound_to 10713
  156.7873  130.9243  151.3646 LP  0  0  0  0  0  0  0  0  0  0  0  0  # atno 17371 bound_to 10713
  140.6430  134.5146  157.5571 LP  0  0  0  0  0  0  0  0  0  0  0  0  # atno 17394 bound_to 11000
  139.9199  134.8170  156.1246 LP  0  0  0  0  0  0  0  0  0  0  0  0  # atno 17395 bound_to 11000

$$$$
