AV-unprocessed.smi:1534|AV-procd|sdf|6169|dock9
  -GOLD-   22720 6313D 1   1.00000     0.00000
 Structure written by MMmdl.
 37 38  0  0  0  0  0  0  0  0  2 V2000
  145.4929  135.1367  155.0035 O   0  0  0  0  0  0  0  0  0  0  0  0
  146.1423  135.3048  153.9737 C   0  0  0  0  0  0  0  0  0  0  0  0
  145.5845  135.6032  152.7888 N   0  0  0  0  0  0  0  0  0  0  0  0
  144.1505  135.6710  152.5280 C   0  0  0  0  0  0  0  0  0  0  0  0
  143.5328  134.2893  152.2310 C   0  0  0  0  0  0  0  0  0  0  0  0
  144.2029  133.5558  151.0806 C   0  0  0  0  0  0  0  0  0  0  0  0
  145.5179  133.0513  151.1783 C   0  0  0  0  0  0  0  0  0  0  0  0
  146.0732  132.3580  150.0825 C   0  0  0  0  0  0  0  0  0  0  0  0
  145.3027  132.1812  148.9145 C   0  0  0  0  0  0  0  0  0  0  0  0
  143.9950  132.7059  148.8702 C   0  0  0  0  0  0  0  0  0  0  0  0
  143.4998  133.3662  149.9396 N   0  3  0  0  0  0  0  0  0  0  0  0
  147.4825  135.1975  153.9513 N   0  0  0  0  0  0  0  0  0  0  0  0
  148.3768  134.8855  155.0673 C   0  0  1  0  0  0  0  0  0  0  0  0
  149.3452  133.7308  154.7377 C   0  0  0  0  0  0  0  0  0  0  0  0
  150.4809  133.7203  155.7712 C   0  0  0  0  0  0  0  0  0  0  0  0
  150.6351  135.4398  156.3923 S   0  0  0  0  0  0  0  0  0  0  0  0
  150.2981  135.4552  157.8240 O   0  0  0  0  0  0  0  0  0  0  0  0
  151.8834  136.0410  155.8996 O   0  0  0  0  0  0  0  0  0  0  0  0
  149.2232  136.1077  155.4393 C   0  0  0  0  0  0  0  0  0  0  0  0
  146.1973  135.7501  152.0001 H   0  0  0  0  0  0  0  0  0  0  0  0
  143.6336  136.1486  153.3620 H   0  0  0  0  0  0  0  0  0  0  0  0
  144.0085  136.3227  151.6654 H   0  0  0  0  0  0  0  0  0  0  0  0
  143.5873  133.6638  153.1235 H   0  0  0  0  0  0  0  0  0  0  0  0
  142.4709  134.4032  152.0102 H   0  0  0  0  0  0  0  0  0  0  0  0
  146.0937  133.1894  152.0820 H   0  0  0  0  0  0  0  0  0  0  0  0
  147.0776  131.9640  150.1384 H   0  0  0  0  0  0  0  0  0  0  0  0
  145.7091  131.6511  148.0655 H   0  0  0  0  0  0  0  0  0  0  0  0
  143.3352  132.6175  148.0194 H   0  0  0  0  0  0  0  0  0  0  0  0
  147.9352  135.4251  153.0774 H   0  0  0  0  0  0  0  0  0  0  0  0
  147.7964  134.6143  155.9514 H   0  0  0  0  0  0  0  0  0  0  0  0
  148.8353  132.7677  154.6997 H   0  0  0  0  0  0  0  0  0  0  0  0
  149.7765  133.8984  153.7496 H   0  0  0  0  0  0  0  0  0  0  0  0
  150.2344  133.0784  156.6171 H   0  0  0  0  0  0  0  0  0  0  0  0
  151.4295  133.3880  155.3489 H   0  0  0  0  0  0  0  0  0  0  0  0
  149.6240  136.5973  154.5509 H   0  0  0  0  0  0  0  0  0  0  0  0
  148.6828  136.8453  156.0327 H   0  0  0  0  0  0  0  0  0  0  0  0
  142.5503  133.7364  149.8872 H   0  0  0  0  0  0  0  0  0  0  0  0
  1  2  2  0  0  0  0
  2  3  1  0  0  0  0
  2 12  1  0  0  0  0
  3  4  1  0  0  0  0
  3 20  1  0  0  0  0
  4  5  1  0  0  0  0
  4 21  1  0  0  0  0
  4 22  1  0  0  0  0
  5  6  1  0  0  0  0
  5 23  1  0  0  0  0
  5 24  1  0  0  0  0
  6 11  1  0  0  0  0
  6  7  2  0  0  0  0
  7  8  1  0  0  0  0
  7 25  1  0  0  0  0
  8  9  2  0  0  0  0
  8 26  1  0  0  0  0
  9 10  1  0  0  0  0
  9 27  1  0  0  0  0
 10 11  2  0  0  0  0
 10 28  1  0  0  0  0
 11 37  1  0  0  0  0
 12 13  1  0  0  0  0
 12 29  1  0  0  0  0
 13 19  1  0  0  0  0
 13 14  1  0  0  0  0
 13 30  1  0  0  0  0
 14 15  1  0  0  0  0
 14 31  1  0  0  0  0
 14 32  1  0  0  0  0
 15 16  1  0  0  0  0
 15 33  1  0  0  0  0
 15 34  1  0  0  0  0
 16 17  2  0  0  0  0
 16 18  2  0  0  0  0
 16 19  1  0  0  0  0
 19 35  1  0  0  0  0
 19 36  1  0  0  0  0
M  CHG  1  11   1
M  END
> <s_m_source_file>
AV-unprocessed.smi

> <i_m_source_file_index>
1534

> <i_lp_mmshare_version>
43012

> <i_f3d_flags>
0

> <s_epik_input>
Tz1TMSg9TylbQ0gyXVtDSDJdW0NASF0oW0NIMl0xKVtOSF1DKD1PKVtOSF1bQ0gyXVtDSDJdYzJbY0hdW2NIXVtjSF1bY0hdbjI=

> <s_epik_cmdline>
J2VwaWtfcHl0aG9uJywgJy1waCcsICc3LjAnLCAnLXRuJywgJzgnLCAnLW1hJywgJzIwMCcsICctbWV0YWxfYmluZGluZycsICctaW1hZScsICc8aW5maWxlLm1hZT4nLCAnLW9tYWUnLCAnPG91dGZpbGUubWFlPic=

> <r_epik_Ionization_Penalty>
1.58466

> <r_epik_Ionization_Penalty_Charging>
1.58462

> <r_epik_Ionization_Penalty_Neutral>
3.4911e-05

> <r_epik_State_Penalty>
1.6815

> <r_epik_Charging_Adjusted_Penalty>
3.26612

> <i_epik_Tot_Q>
1

> <i_epik_Tot_abs_Q>
1

> <r_epik_Metal_State_Penalty>
1.72144

> <b_epik_Metal_Only>
0

> <s_lp_Force_Field>
OPLS_2005

> <r_lp_Energy>
19.4727

> <b_lp_Chiralities_Consistent>
1

> <s_lp_Variant>
AV-unprocessed.smi:1534-4

> <Gold.Version>
5.8.1

> <Gold.Id.Protein>
6NUR|6NUR_protein|mol2

> <Gold.PLP.Fitness>
44.0578

> <Gold.PLP.PLP>
-30.4549

> <Gold.PLP.part.hbond>
-4.0000

> <Gold.PLP.part.metal>
0.0000

> <Gold.PLP.part.buried>
-4.7598

> <Gold.PLP.part.nonpolar>
-22.4909

> <Gold.PLP.part.repulsive>
0.1141

> <Gold.PLP.ligand.clash>
0.0000

> <Gold.PLP.ligand.torsion>
0.3099

> <Gold.PLP.Chemscore.Hbond>
4.7360

> <Gold.PLP.Chemscore.CHOScore>
0.0000

> <Gold.PLP.Chemscore.Metal>
0.0000

> <Gold.Chemscore.Hbonds>
donor molecule, donor type, donor heavy atom, donor atom, acceptor molecule, acceptor atom, score
      L1  H    11    37       P1 10186  2.00
      L1  H    12    29       P1  7948  1.00
      P1  H  6896  6909       L1    17  0.69
      P1  H 10752 10763       L1    18  1.00

> <Gold.PLP.Chemscore.Internal.Correction>
0.0148

> <Gold.Rescore>
     Score         DG    S(hbond)    S(metal)    S(lipo)     H(rot)  DE(clash)    DE(int)     intcor
     22.15     -22.52       3.87        0.00      74.95       1.82       0.00       0.38       ----

> <Gold.Chemscore.Fitness>
22.1463

> <Gold.Chemscore.DG>
-22.5249

> <Gold.Chemscore.ZeroCoef>
-5.4800

> <Gold.Chemscore.Hbond>
3.8741

> <Gold.Chemscore.Metal>
0.0000

> <Gold.Chemscore.Lipo>
74.9526

> <Gold.Chemscore.Internal_Hbond>
0.0000

> <Gold.Chemscore.DEClash>
0.0004

> <Gold.Chemscore.DEInternal>
0.3782

> <Gold.Chemscore.Rot>
1.8220

> <Gold.Chemscore.Internal.Correction>
   9.000000E+99

> <Gold.Chemscore.Hbonds>
donor molecule, donor type, donor heavy atom, donor atom, acceptor molecule, acceptor atom, score
      L1  H    11    37       P1 10186  1.00
      L1  H    12    29       P1  7948  1.00
      P1  H  6896  6909       L1    17  0.67
      P1  H 10752 10763       L1    18  0.96

> <Gold.Chemscore.Hbond.Weighted>
-12.9397

> <Gold.Chemscore.Metal.Weighted>
-0.0000

> <Gold.Chemscore.Lipo.Weighted>
-8.7695

> <Gold.Chemscore.Internal_Hbond.Weighted>
0.0000

> <Gold.Chemscore.DEClash.Weighted>
0.0004

> <Gold.Chemscore.DEInternal.Weighted>
0.3782

> <Gold.Chemscore.Rot.Weighted>
4.6642

> <Gold.Chemscore.Internal.Correction.Weighted>
   9.000000E+99

> <Gold.Protein.RotatedTorsions>
[ 6907 6896 6895 6894 ] final   50.21 input  -60.11 | X-H torsion
[ 7974 7965 7964 7962 ] final  -74.05 input  175.53 | X-H torsion
[ 8008 7997 7996 7995 ] final   47.82 input   59.86 | X-H torsion
[ 10167 10162 10161 10158 ] final -171.45 input  -65.29 | X-H torsion
[ 10718 10713 10712 10709 ] final  108.88 input   66.30 | X-H torsion
[ 10763 10752 10751 10750 ] final  101.92 input  -60.55 | X-H torsion
[ 11005 11000 10999 10996 ] final  -12.52 input  -57.11 | X-H torsion

> <Gold.Protein.ActiveResidues>
 VAL166  LYS551  ARG553  GLY616  TRP617  ASP618  TYR619  PRO620  LYS621  CYS622 
 ASP623  PHE694  ASN695  SER759  ASP760  ASP761  ALA762  ILE779  LEU786  VAL792 
 PHE793  MET794  SER795  GLU796  ALA797  LYS798  CYS799  TRP800  GLU811  SER814 

> <Gold.Protein.RotatedAtoms>
  152.2993  134.7630  160.0360 H   0  0  0  0  0  0  0  0  0  0  0  0  # atno 6907 bound_to 6896
  151.8148  133.3381  159.3574 H   0  0  0  0  0  0  0  0  0  0  0  0  # atno 6908 bound_to 6896
  150.7266  134.5559  159.5862 H   0  0  0  0  0  0  0  0  0  0  0  0  # atno 6909 bound_to 6896
  145.6442  140.9302  143.1019 H   0  0  0  0  0  0  0  0  0  0  0  0  # atno 7974 bound_to 7965
  155.3754  140.3426  155.4244 H   0  0  0  0  0  0  0  0  0  0  0  0  # atno 8008 bound_to 7997
  156.1640  140.1610  156.8597 H   0  0  0  0  0  0  0  0  0  0  0  0  # atno 8009 bound_to 7997
  154.5167  140.0777  156.8076 H   0  0  0  0  0  0  0  0  0  0  0  0  # atno 8010 bound_to 7997
  139.5802  144.1441  152.1504 H   0  0  0  0  0  0  0  0  0  0  0  0  # atno 10167 bound_to 10162
  157.6566  131.0902  150.6371 H   0  0  0  0  0  0  0  0  0  0  0  0  # atno 10718 bound_to 10713
  153.3329  135.4028  155.1510 H   0  0  0  0  0  0  0  0  0  0  0  0  # atno 10763 bound_to 10752
  154.8627  135.3615  154.5446 H   0  0  0  0  0  0  0  0  0  0  0  0  # atno 10764 bound_to 10752
  153.5886  135.7074  153.5492 H   0  0  0  0  0  0  0  0  0  0  0  0  # atno 10765 bound_to 10752
  140.7666  133.8472  155.9170 H   0  0  0  0  0  0  0  0  0  0  0  0  # atno 11005 bound_to 11000
  144.7146  139.8244  143.7403 LP  0  0  0  0  0  0  0  0  0  0  0  0  # atno 17320 bound_to 7965
  146.1256  139.4282  143.0201 LP  0  0  0  0  0  0  0  0  0  0  0  0  # atno 17321 bound_to 7965
  140.0993  144.5554  150.7000 LP  0  0  0  0  0  0  0  0  0  0  0  0  # atno 17342 bound_to 10162
  140.7081  143.2483  151.4666 LP  0  0  0  0  0  0  0  0  0  0  0  0  # atno 17343 bound_to 10162
  156.6677  130.4530  149.5667 LP  0  0  0  0  0  0  0  0  0  0  0  0  # atno 17370 bound_to 10713
  156.2020  130.6626  151.1178 LP  0  0  0  0  0  0  0  0  0  0  0  0  # atno 17371 bound_to 10713
  140.9613  134.1652  157.4651 LP  0  0  0  0  0  0  0  0  0  0  0  0  # atno 17394 bound_to 11000
  139.8762  134.9946  156.5700 LP  0  0  0  0  0  0  0  0  0  0  0  0  # atno 17395 bound_to 11000

$$$$
