AV-unprocessed.smi:273|AV-procd|sdf|2055|dock3
  -GOLD-   2262021293D 1   1.00000     0.00000
 Structure written by MMmdl.
 59 62  0  0  0  0  0  0  0  0  1 V2000
  152.2289  144.6499  157.8780 C   0  0  0  0  0  0  0  0  0  0  0  0
  150.9550  144.2286  158.6224 C   0  0  0  0  0  0  0  0  0  0  0  0
  150.0666  143.4553  157.7633 N   0  0  0  0  0  0  0  0  0  0  0  0
  149.8002  142.1477  157.9043 C   0  0  0  0  0  0  0  0  0  0  0  0
  150.3000  141.4482  158.7861 O   0  0  0  0  0  0  0  0  0  0  0  0
  148.8136  141.5401  156.8989 C   0  0  0  0  0  0  0  0  0  0  0  0
  148.3931  140.1165  157.3208 C   0  0  0  0  0  0  0  0  0  0  0  0
  147.4351  139.4972  156.2902 C   0  0  0  0  0  0  0  0  0  0  0  0
  148.0201  139.5334  154.9535 N   0  0  0  0  0  0  0  0  0  0  0  0
  147.3320  138.7877  154.0628 C   0  0  0  0  0  0  0  0  0  0  0  0
  146.9169  139.4088  152.9317 N   0  0  0  0  0  0  0  0  0  0  0  0
  146.2433  138.7249  152.0018 C   0  0  0  0  0  0  0  0  0  0  0  0
  145.8945  137.4364  152.0015 N   0  0  0  0  0  0  0  0  0  0  0  0
  146.3231  136.8065  153.1331 C   0  0  0  0  0  0  0  0  0  0  0  0
  147.0425  137.4010  154.2082 C   0  0  0  0  0  0  0  0  0  0  0  0
  147.3138  136.4451  155.1803 N   0  0  0  0  0  0  0  0  0  0  0  0
  146.7764  135.3518  154.7126 C   0  0  0  0  0  0  0  0  0  0  0  0
  146.1583  135.4794  153.4896 N   0  0  0  0  0  0  0  0  0  0  0  0
  145.4944  134.4247  152.7422 C   0  0  0  0  0  0  0  0  0  0  0  0
  146.4786  133.4751  152.0137 C   0  0  1  0  0  0  0  0  0  0  0  0
  147.0954  132.4513  153.0009 C   0  0  0  0  0  0  0  0  0  0  0  0
  148.3806  132.0340  152.5913 O   0  0  0  0  0  0  0  0  0  0  0  0
  145.7726  132.7859  150.8132 C   0  0  2  0  0  0  0  0  0  0  0  0
  144.7916  133.6497  150.0383 C   0  0  0  0  0  0  0  0  0  0  0  0
  143.9643  132.6135  149.2871 C   0  0  0  0  0  0  0  0  0  0  0  0
  143.9077  131.4789  150.1422 O   0  0  0  0  0  0  0  0  0  0  0  0
  144.8561  131.6164  151.1952 C   0  0  0  0  0  0  0  0  0  0  0  0
  148.4286  140.8568  154.4887 C   0  0  0  0  0  0  0  0  0  0  0  0
  149.4157  141.4965  155.4788 C   0  0  0  0  0  0  0  0  0  0  0  0
  152.9023  145.1936  158.5408 H   0  0  0  0  0  0  0  0  0  0  0  0
  151.9991  145.3008  157.0337 H   0  0  0  0  0  0  0  0  0  0  0  0
  152.7676  143.7824  157.4958 H   0  0  0  0  0  0  0  0  0  0  0  0
  151.2183  143.6119  159.4820 H   0  0  0  0  0  0  0  0  0  0  0  0
  150.4362  145.1043  159.0157 H   0  0  0  0  0  0  0  0  0  0  0  0
  149.6119  143.9533  157.0118 H   0  0  0  0  0  0  0  0  0  0  0  0
  147.9190  142.1653  156.8703 H   0  0  0  0  0  0  0  0  0  0  0  0
  149.2717  139.4769  157.4202 H   0  0  0  0  0  0  0  0  0  0  0  0
  147.9129  140.1369  158.3000 H   0  0  0  0  0  0  0  0  0  0  0  0
  147.2077  138.4679  156.5715 H   0  0  0  0  0  0  0  0  0  0  0  0
  146.4902  140.0429  156.2836 H   0  0  0  0  0  0  0  0  0  0  0  0
  145.9424  139.2915  151.1330 H   0  0  0  0  0  0  0  0  0  0  0  0
  146.8162  134.4153  155.2498 H   0  0  0  0  0  0  0  0  0  0  0  0
  144.8572  133.8577  153.4218 H   0  0  0  0  0  0  0  0  0  0  0  0
  144.8271  134.9126  152.0323 H   0  0  0  0  0  0  0  0  0  0  0  0
  147.2887  134.0927  151.6222 H   0  0  0  0  0  0  0  0  0  0  0  0
  147.2212  132.8775  153.9949 H   0  0  0  0  0  0  0  0  0  0  0  0
  146.4462  131.5825  153.1142 H   0  0  0  0  0  0  0  0  0  0  0  0
  148.3512  131.8351  151.6678 H   0  0  0  0  0  0  0  0  0  0  0  0
  146.5272  132.4177  150.1158 H   0  0  0  0  0  0  0  0  0  0  0  0
  144.1547  134.2120  150.7228 H   0  0  0  0  0  0  0  0  0  0  0  0
  145.2764  134.3544  149.3624 H   0  0  0  0  0  0  0  0  0  0  0  0
  142.9673  132.9762  149.0369 H   0  0  0  0  0  0  0  0  0  0  0  0
  144.4644  132.3262  148.3612 H   0  0  0  0  0  0  0  0  0  0  0  0
  145.4054  130.6859  151.3414 H   0  0  0  0  0  0  0  0  0  0  0  0
  144.3129  131.8350  152.1157 H   0  0  0  0  0  0  0  0  0  0  0  0
  148.8880  140.7773  153.5025 H   0  0  0  0  0  0  0  0  0  0  0  0
  147.5558  141.5018  154.3869 H   0  0  0  0  0  0  0  0  0  0  0  0
  149.6689  142.5029  155.1434 H   0  0  0  0  0  0  0  0  0  0  0  0
  150.3460  140.9258  155.4783 H   0  0  0  0  0  0  0  0  0  0  0  0
  1  2  1  0  0  0  0
  1 30  1  0  0  0  0
  1 31  1  0  0  0  0
  1 32  1  0  0  0  0
  2  3  1  0  0  0  0
  2 33  1  0  0  0  0
  2 34  1  0  0  0  0
  3  4  1  0  0  0  0
  3 35  1  0  0  0  0
  4  5  2  0  0  0  0
  4  6  1  0  0  0  0
  6 29  1  0  0  0  0
  6  7  1  0  0  0  0
  6 36  1  0  0  0  0
  7  8  1  0  0  0  0
  7 37  1  0  0  0  0
  7 38  1  0  0  0  0
  8  9  1  0  0  0  0
  8 39  1  0  0  0  0
  8 40  1  0  0  0  0
  9 10  1  0  0  0  0
  9 28  1  0  0  0  0
 10 15  1  0  0  0  0
 10 11  2  0  0  0  0
 11 12  1  0  0  0  0
 12 13  2  0  0  0  0
 12 41  1  0  0  0  0
 13 14  1  0  0  0  0
 14 18  1  0  0  0  0
 14 15  2  0  0  0  0
 15 16  1  0  0  0  0
 16 17  2  0  0  0  0
 17 18  1  0  0  0  0
 17 42  1  0  0  0  0
 18 19  1  0  0  0  0
 19 20  1  0  0  0  0
 19 43  1  0  0  0  0
 19 44  1  0  0  0  0
 20 21  1  0  0  0  0
 20 23  1  0  0  0  0
 20 45  1  0  0  0  0
 21 22  1  0  0  0  0
 21 46  1  0  0  0  0
 21 47  1  0  0  0  0
 22 48  1  0  0  0  0
 23 27  1  0  0  0  0
 23 24  1  0  0  0  0
 23 49  1  0  0  0  0
 24 25  1  0  0  0  0
 24 50  1  0  0  0  0
 24 51  1  0  0  0  0
 25 26  1  0  0  0  0
 25 52  1  0  0  0  0
 25 53  1  0  0  0  0
 26 27  1  0  0  0  0
 27 54  1  0  0  0  0
 27 55  1  0  0  0  0
 28 29  1  0  0  0  0
 28 56  1  0  0  0  0
 28 57  1  0  0  0  0
 29 58  1  0  0  0  0
 29 59  1  0  0  0  0
M  END
> <s_m_source_file>
AV-unprocessed.smi

> <i_m_source_file_index>
273

> <i_lp_mmshare_version>
43012

> <i_f3d_flags>
0

> <s_epik_input>
W0NIM11bQ0gyXVtOSF1DKD1PKVtDSF0xW0NIMl1bQ0gyXU4oW0NIMl1bQ0gyXTEpYyhuW2NIXW4yKWMoYzIzKW5bY0hdbjNbQ0gyXVtDQEhdKFtDSDJdW09IXSlbQ0BASF00W0NIMl1bQ0gyXU9bQ0gyXTQ=

> <s_epik_cmdline>
J2VwaWtfcHl0aG9uJywgJy1waCcsICc3LjAnLCAnLXRuJywgJzgnLCAnLW1hJywgJzIwMCcsICctbWV0YWxfYmluZGluZycsICctaW1hZScsICc8aW5maWxlLm1hZT4nLCAnLW9tYWUnLCAnPG91dGZpbGUubWFlPic=

> <r_lp_tautomer_probability>
1

> <r_epik_Ionization_Penalty>
0.00226556

> <r_epik_Ionization_Penalty_Charging>
0

> <r_epik_Ionization_Penalty_Neutral>
0.00226556

> <r_epik_State_Penalty>
0.00139883

> <r_epik_Charging_Adjusted_Penalty>
0.00139883

> <i_epik_Tot_Q>
0

> <i_epik_Tot_abs_Q>
0

> <r_epik_Metal_State_Penalty>
-0

> <b_epik_Metal_Only>
0

> <s_lp_Force_Field>
OPLS_2005

> <r_lp_Energy>
43.4567

> <b_lp_Chiralities_Consistent>
1

> <s_lp_Variant>
AV-unprocessed.smi:273-2

> <Gold.Version>
5.8.1

> <Gold.Id.Protein>
6NUR|6NUR_protein|mol2

> <Gold.PLP.Fitness>
48.2351

> <Gold.PLP.PLP>
-40.7078

> <Gold.PLP.part.hbond>
-3.0848

> <Gold.PLP.part.metal>
0.0000

> <Gold.PLP.part.buried>
-4.2345

> <Gold.PLP.part.nonpolar>
-35.9632

> <Gold.PLP.part.repulsive>
1.5124

> <Gold.PLP.ligand.clash>
0.0000

> <Gold.PLP.ligand.torsion>
1.4111

> <Gold.PLP.Chemscore.Hbond>
2.7849

> <Gold.PLP.Chemscore.CHOScore>
0.5017

> <Gold.PLP.Chemscore.Metal>
0.0000

> <Gold.Chemscore.Hbonds>
donor molecule, donor type, donor heavy atom, donor atom, acceptor molecule, acceptor atom, score
      L1  H     3    35       P1  8028  1.00
      L1  H    22    48       P1 10747  0.96
      P1  H 10785 10796       L1    26  0.62
      L1  C    12    41       P1 10171  0.82
      L1  C    12    41       P1 10175  0.06

> <Gold.PLP.Chemscore.Internal.Correction>
0.4897

> <Gold.Rescore>
     Score         DG    S(hbond)    S(metal)    S(lipo)     H(rot)  DE(clash)    DE(int)     intcor
     13.31     -14.91       1.94        0.00      95.85       3.22       0.23       1.38       ----

> <Gold.Chemscore.Fitness>
13.3058

> <Gold.Chemscore.DG>
-14.9123

> <Gold.Chemscore.ZeroCoef>
-5.4800

> <Gold.Chemscore.Hbond>
1.9379

> <Gold.Chemscore.Metal>
0.0000

> <Gold.Chemscore.Lipo>
95.8495

> <Gold.Chemscore.Internal_Hbond>
0.0000

> <Gold.Chemscore.DEClash>
0.2286

> <Gold.Chemscore.DEInternal>
1.3779

> <Gold.Chemscore.Rot>
3.2244

> <Gold.Chemscore.Internal.Correction>
   9.000000E+99

> <Gold.Chemscore.Hbonds>
donor molecule, donor type, donor heavy atom, donor atom, acceptor molecule, acceptor atom, score
      L1  H     3    35       P1  8028  0.78
      L1  H    22    48       P1 10747  0.92
      P1  H 10785 10796       L1    26  0.12

> <Gold.Chemscore.Hbond.Weighted>
-6.4724

> <Gold.Chemscore.Metal.Weighted>
-0.0000

> <Gold.Chemscore.Lipo.Weighted>
-11.2144

> <Gold.Chemscore.Internal_Hbond.Weighted>
0.0000

> <Gold.Chemscore.DEClash.Weighted>
0.2286

> <Gold.Chemscore.DEInternal.Weighted>
1.3779

> <Gold.Chemscore.Rot.Weighted>
8.2545

> <Gold.Chemscore.Internal.Correction.Weighted>
   9.000000E+99

> <Gold.Protein.RotatedTorsions>
[ 6907 6896 6895 6894 ] final  -79.52 input  -60.11 | X-H torsion
[ 7974 7965 7964 7962 ] final   97.15 input  175.53 | X-H torsion
[ 8008 7997 7996 7995 ] final -114.88 input   59.86 | X-H torsion
[ 10167 10162 10161 10158 ] final   -6.54 input  -65.29 | X-H torsion
[ 10718 10713 10712 10709 ] final -170.57 input   66.30 | X-H torsion
[ 10763 10752 10751 10750 ] final  -88.28 input  -60.55 | X-H torsion
[ 11005 11000 10999 10996 ] final  -43.10 input  -57.11 | X-H torsion

> <Gold.Protein.ActiveResidues>
 VAL166  LYS551  ARG553  GLY616  TRP617  ASP618  TYR619  PRO620  LYS621  CYS622 
 ASP623  PHE694  ASN695  SER759  ASP760  ASP761  ALA762  ILE779  LEU786  VAL792 
 PHE793  MET794  SER795  GLU796  ALA797  LYS798  CYS799  TRP800  GLU811  SER814 

> <Gold.Protein.RotatedAtoms>
  150.6948  134.4109  159.5161 H   0  0  0  0  0  0  0  0  0  0  0  0  # atno 6907 bound_to 6896
  152.1868  134.8704  160.0530 H   0  0  0  0  0  0  0  0  0  0  0  0  # atno 6908 bound_to 6896
  151.9674  133.3680  159.4095 H   0  0  0  0  0  0  0  0  0  0  0  0  # atno 6909 bound_to 6896
  145.4294  139.2312  143.3152 H   0  0  0  0  0  0  0  0  0  0  0  0  # atno 7974 bound_to 7965
  155.0432  140.0392  157.2517 H   0  0  0  0  0  0  0  0  0  0  0  0  # atno 8008 bound_to 7997
  154.7199  140.2709  155.6527 H   0  0  0  0  0  0  0  0  0  0  0  0  # atno 8009 bound_to 7997
  156.2813  140.2705  156.1867 H   0  0  0  0  0  0  0  0  0  0  0  0  # atno 8010 bound_to 7997
  140.7000  143.6182  150.8638 H   0  0  0  0  0  0  0  0  0  0  0  0  # atno 10167 bound_to 10162
  156.7281  130.9296  151.3102 H   0  0  0  0  0  0  0  0  0  0  0  0  # atno 10718 bound_to 10713
  154.6428  135.5383  153.7809 H   0  0  0  0  0  0  0  0  0  0  0  0  # atno 10763 bound_to 10752
  153.0343  135.6463  154.1134 H   0  0  0  0  0  0  0  0  0  0  0  0  # atno 10764 bound_to 10752
  154.1057  135.2930  155.3222 H   0  0  0  0  0  0  0  0  0  0  0  0  # atno 10765 bound_to 10752
  141.0361  133.6799  156.2686 H   0  0  0  0  0  0  0  0  0  0  0  0  # atno 11005 bound_to 11000
  146.2615  140.5028  142.8851 LP  0  0  0  0  0  0  0  0  0  0  0  0  # atno 17320 bound_to 7965
  144.8193  140.6522  143.6363 LP  0  0  0  0  0  0  0  0  0  0  0  0  # atno 17321 bound_to 7965
  139.9903  143.5854  152.2912 LP  0  0  0  0  0  0  0  0  0  0  0  0  # atno 17342 bound_to 10162
  139.6507  144.7660  151.2154 LP  0  0  0  0  0  0  0  0  0  0  0  0  # atno 17343 bound_to 10162
  157.6870  130.9195  150.0413 LP  0  0  0  0  0  0  0  0  0  0  0  0  # atno 17370 bound_to 10713
  156.1548  130.3643  149.9385 LP  0  0  0  0  0  0  0  0  0  0  0  0  # atno 17371 bound_to 10713
  140.6320  134.5254  157.5560 LP  0  0  0  0  0  0  0  0  0  0  0  0  # atno 17394 bound_to 11000
  139.9241  134.8090  156.1120 LP  0  0  0  0  0  0  0  0  0  0  0  0  # atno 17395 bound_to 11000

$$$$
