AV-unprocessed.smi:3031|AV-procd|sdf|11541|dock9
  -GOLD-   2272016493D 1   1.00000     0.00000
 Structure written by MMmdl.
 47 48  0  0  0  0  0  0  0  0  2 V2000
  145.7122  132.1396  150.5105 C   0  0  0  0  0  0  0  0  0  0  0  0
  145.4135  133.6004  150.6875 C   0  0  0  0  0  0  0  0  0  0  0  0
  144.2360  134.3059  150.3082 C   0  0  0  0  0  0  0  0  0  0  0  0
  144.2907  135.5940  150.6056 N   0  0  0  0  0  0  0  0  0  0  0  0
  145.4997  135.7555  151.1834 N   0  0  0  0  0  0  0  0  0  0  0  0
  145.9136  137.0713  151.6348 C   0  0  0  0  0  0  0  0  0  0  0  0
  145.2351  137.4930  152.9552 C   0  0  2  0  0  0  0  0  0  0  0  0
  143.7073  137.4524  152.8168 C   0  0  0  0  0  0  0  0  0  0  0  0
  145.6549  138.8532  153.3632 N   0  3  0  0  0  0  0  0  0  0  0  0
  146.9308  139.3187  152.7771 C   0  0  0  0  0  0  0  0  0  0  0  0
  147.9044  139.8063  153.8659 C   0  0  2  0  0  0  0  0  0  0  0  0
  148.6964  140.8298  153.2947 O   0  0  0  0  0  0  0  0  0  0  0  0
  148.8923  138.7448  154.4027 C   0  0  0  0  0  0  0  0  0  0  0  0
  150.1675  139.2502  154.9200 N   0  0  0  0  0  0  0  0  0  0  0  0
  150.0144  139.9950  156.1707 C   0  0  0  0  0  0  0  0  0  0  0  0
  151.3642  140.5026  156.7079 C   0  0  0  0  0  0  0  0  0  0  0  0
  152.2462  139.4016  156.8959 O   0  0  0  0  0  0  0  0  0  0  0  0
  152.4563  138.6583  155.7006 C   0  0  0  0  0  0  0  0  0  0  0  0
  151.1051  138.1556  155.1627 C   0  0  0  0  0  0  0  0  0  0  0  0
  146.1979  134.5686  151.2475 C   0  0  0  0  0  0  0  0  0  0  0  0
  144.8421  131.5873  150.1546 H   0  0  0  0  0  0  0  0  0  0  0  0
  146.0242  131.6766  151.4470 H   0  0  0  0  0  0  0  0  0  0  0  0
  146.5125  131.9779  149.7882 H   0  0  0  0  0  0  0  0  0  0  0  0
  143.3485  133.9220  149.8266 H   0  0  0  0  0  0  0  0  0  0  0  0
  147.0002  137.0885  151.7376 H   0  0  0  0  0  0  0  0  0  0  0  0
  145.6681  137.7833  150.8458 H   0  0  0  0  0  0  0  0  0  0  0  0
  145.5075  136.7824  153.7376 H   0  0  0  0  0  0  0  0  0  0  0  0
  143.3639  136.4531  152.5473 H   0  0  0  0  0  0  0  0  0  0  0  0
  143.3580  138.1421  152.0474 H   0  0  0  0  0  0  0  0  0  0  0  0
  143.2202  137.7234  153.7541 H   0  0  0  0  0  0  0  0  0  0  0  0
  144.9253  139.5048  153.1093 H   0  0  0  0  0  0  0  0  0  0  0  0
  147.3511  138.4687  152.2448 H   0  0  0  0  0  0  0  0  0  0  0  0
  146.7526  140.1086  152.0475 H   0  0  0  0  0  0  0  0  0  0  0  0
  147.3469  140.2385  154.6979 H   0  0  0  0  0  0  0  0  0  0  0  0
  149.0188  140.5300  152.4579 H   0  0  0  0  0  0  0  0  0  0  0  0
  148.4076  138.1050  155.1419 H   0  0  0  0  0  0  0  0  0  0  0  0
  149.1094  138.0857  153.5601 H   0  0  0  0  0  0  0  0  0  0  0  0
  149.3533  140.8466  156.0444 H   0  0  0  0  0  0  0  0  0  0  0  0
  149.5500  139.3577  156.9250 H   0  0  0  0  0  0  0  0  0  0  0  0
  151.8089  141.2224  156.0190 H   0  0  0  0  0  0  0  0  0  0  0  0
  151.2255  141.0137  157.6609 H   0  0  0  0  0  0  0  0  0  0  0  0
  152.9595  139.2814  154.9598 H   0  0  0  0  0  0  0  0  0  0  0  0
  153.1165  137.8176  155.9144 H   0  0  0  0  0  0  0  0  0  0  0  0
  150.6736  137.4481  155.8729 H   0  0  0  0  0  0  0  0  0  0  0  0
  151.2779  137.6032  154.2384 H   0  0  0  0  0  0  0  0  0  0  0  0
  147.1865  134.5123  151.6787 H   0  0  0  0  0  0  0  0  0  0  0  0
  145.7597  138.8659  154.3674 H   0  0  0  0  0  0  0  0  0  0  0  0
  1  2  1  0  0  0  0
  1 21  1  0  0  0  0
  1 22  1  0  0  0  0
  1 23  1  0  0  0  0
  2 20  2  0  0  0  0
  2  3  1  0  0  0  0
  3  4  2  0  0  0  0
  3 24  1  0  0  0  0
  4  5  1  0  0  0  0
  5  6  1  0  0  0  0
  5 20  1  0  0  0  0
  6  7  1  0  0  0  0
  6 25  1  0  0  0  0
  6 26  1  0  0  0  0
  7  8  1  0  0  0  0
  7  9  1  0  0  0  0
  7 27  1  0  0  0  0
  8 28  1  0  0  0  0
  8 29  1  0  0  0  0
  8 30  1  0  0  0  0
  9 10  1  0  0  0  0
  9 31  1  0  0  0  0
  9 47  1  0  0  0  0
 10 11  1  0  0  0  0
 10 32  1  0  0  0  0
 10 33  1  0  0  0  0
 11 12  1  0  0  0  0
 11 13  1  0  0  0  0
 11 34  1  0  0  0  0
 12 35  1  0  0  0  0
 13 14  1  0  0  0  0
 13 36  1  0  0  0  0
 13 37  1  0  0  0  0
 14 19  1  0  0  0  0
 14 15  1  0  0  0  0
 15 16  1  0  0  0  0
 15 38  1  0  0  0  0
 15 39  1  0  0  0  0
 16 17  1  0  0  0  0
 16 40  1  0  0  0  0
 16 41  1  0  0  0  0
 17 18  1  0  0  0  0
 18 19  1  0  0  0  0
 18 42  1  0  0  0  0
 18 43  1  0  0  0  0
 19 44  1  0  0  0  0
 19 45  1  0  0  0  0
 20 46  1  0  0  0  0
M  CHG  1   9   1
M  END
> <s_m_source_file>
AV-unprocessed.smi

> <i_m_source_file_index>
3031

> <i_lp_mmshare_version>
43012

> <i_f3d_flags>
0

> <s_epik_input>
W0NIM11jMVtjSF1ubihbY0hdMSlbQ0gyXVtDQEhdKFtDSDNdKVtOSF1bQ0gyXVtDQEhdKFtPSF0pW0NIMl1OMltDSDJdW0NIMl1PW0NIMl1bQ0gyXTI=

> <s_epik_cmdline>
J2VwaWtfcHl0aG9uJywgJy1waCcsICc3LjAnLCAnLXRuJywgJzgnLCAnLW1hJywgJzIwMCcsICctbWV0YWxfYmluZGluZycsICctaW1hZScsICc8aW5maWxlLm1hZT4nLCAnLW9tYWUnLCAnPG91dGZpbGUubWFlPic=

> <r_lp_tautomer_probability>
1

> <r_epik_Ionization_Penalty>
0.108564

> <r_epik_Ionization_Penalty_Charging>
0.01811

> <r_epik_Ionization_Penalty_Neutral>
0.0904541

> <r_epik_State_Penalty>
0.141043

> <r_epik_Charging_Adjusted_Penalty>
0.159153

> <i_epik_Tot_Q>
1

> <i_epik_Tot_abs_Q>
1

> <r_epik_Metal_State_Penalty>
0.141052

> <b_epik_Metal_Only>
0

> <s_lp_Force_Field>
OPLS_2005

> <r_lp_Energy>
31.5788

> <b_lp_Chiralities_Consistent>
1

> <s_lp_Variant>
AV-unprocessed.smi:3031-1

> <Gold.Version>
5.8.1

> <Gold.Id.Protein>
6NUR|6NUR_protein|mol2

> <Gold.PLP.Fitness>
52.0601

> <Gold.PLP.PLP>
-37.4671

> <Gold.PLP.part.hbond>
-4.3231

> <Gold.PLP.part.metal>
0.0000

> <Gold.PLP.part.buried>
-2.4039

> <Gold.PLP.part.nonpolar>
-31.0010

> <Gold.PLP.part.repulsive>
0.3741

> <Gold.PLP.ligand.clash>
1.1374

> <Gold.PLP.ligand.torsion>
1.8687

> <Gold.PLP.Chemscore.Hbond>
4.4192

> <Gold.PLP.Chemscore.CHOScore>
2.0000

> <Gold.PLP.Chemscore.Metal>
0.0000

> <Gold.Chemscore.Hbonds>
donor molecule, donor type, donor heavy atom, donor atom, acceptor molecule, acceptor atom, score
      L1  H     9    31       P1 10175  2.00
      L1  H    12    35       P1  7957  0.93
      P1  H  7997  8009       L1    17  0.05
      L1  C     3    24       P1 10186  1.00
      L1  C    20    46       P1  7948  1.00

> <Gold.PLP.Chemscore.Internal.Correction>
0.2100

> <Gold.Rescore>
     Score         DG    S(hbond)    S(metal)    S(lipo)     H(rot)  DE(clash)    DE(int)     intcor
     15.09     -18.21       2.57        0.00      93.06       2.63       0.18       2.94       ----

> <Gold.Chemscore.Fitness>
15.0932

> <Gold.Chemscore.DG>
-18.2135

> <Gold.Chemscore.ZeroCoef>
-5.4800

> <Gold.Chemscore.Hbond>
2.5659

> <Gold.Chemscore.Metal>
0.0000

> <Gold.Chemscore.Lipo>
93.0640

> <Gold.Chemscore.Internal_Hbond>
0.0000

> <Gold.Chemscore.DEClash>
0.1826

> <Gold.Chemscore.DEInternal>
2.9378

> <Gold.Chemscore.Rot>
2.6270

> <Gold.Chemscore.Internal.Correction>
   9.000000E+99

> <Gold.Chemscore.Hbonds>
donor molecule, donor type, donor heavy atom, donor atom, acceptor molecule, acceptor atom, score
      L1  H     9    31       P1 10175  1.00
      L1  H    12    35       P1  7957  0.89

> <Gold.Chemscore.Hbond.Weighted>
-8.5702

> <Gold.Chemscore.Metal.Weighted>
-0.0000

> <Gold.Chemscore.Lipo.Weighted>
-10.8885

> <Gold.Chemscore.Internal_Hbond.Weighted>
0.0000

> <Gold.Chemscore.DEClash.Weighted>
0.1826

> <Gold.Chemscore.DEInternal.Weighted>
2.9378

> <Gold.Chemscore.Rot.Weighted>
6.7251

> <Gold.Chemscore.Internal.Correction.Weighted>
   9.000000E+99

> <Gold.Protein.RotatedTorsions>
[ 6907 6896 6895 6894 ] final   58.30 input  -60.11 | X-H torsion
[ 7974 7965 7964 7962 ] final  -10.37 input  175.53 | X-H torsion
[ 8008 7997 7996 7995 ] final -169.51 input   59.86 | X-H torsion
[ 10167 10162 10161 10158 ] final -100.90 input  -65.29 | X-H torsion
[ 10718 10713 10712 10709 ] final   38.90 input   66.30 | X-H torsion
[ 10763 10752 10751 10750 ] final  103.74 input  -60.55 | X-H torsion
[ 11005 11000 10999 10996 ] final  -30.08 input  -57.11 | X-H torsion

> <Gold.Protein.ActiveResidues>
 VAL166  LYS551  ARG553  GLY616  TRP617  ASP618  TYR619  PRO620  LYS621  CYS622 
 ASP623  PHE694  ASN695  SER759  ASP760  ASP761  ALA762  ILE779  LEU786  VAL792 
 PHE793  MET794  SER795  GLU796  ALA797  LYS798  CYS799  TRP800  GLU811  SER814 

> <Gold.Protein.RotatedAtoms>
  152.3811  134.6589  160.0142 H   0  0  0  0  0  0  0  0  0  0  0  0  # atno 6907 bound_to 6896
  151.6852  133.3306  159.3237 H   0  0  0  0  0  0  0  0  0  0  0  0  # atno 6908 bound_to 6896
  150.7748  134.6682  159.6422 H   0  0  0  0  0  0  0  0  0  0  0  0  # atno 6909 bound_to 6896
  146.2223  140.2753  142.8359 H   0  0  0  0  0  0  0  0  0  0  0  0  # atno 7974 bound_to 7965
  155.9059  140.1049  157.1316 H   0  0  0  0  0  0  0  0  0  0  0  0  # atno 8008 bound_to 7997
  154.4032  140.1283  156.4559 H   0  0  0  0  0  0  0  0  0  0  0  0  # atno 8009 bound_to 7997
  155.7368  140.3467  155.5087 H   0  0  0  0  0  0  0  0  0  0  0  0  # atno 8010 bound_to 7997
  140.2470  143.3499  152.0749 H   0  0  0  0  0  0  0  0  0  0  0  0  # atno 10167 bound_to 10162
  157.3642  130.7666  149.7070 H   0  0  0  0  0  0  0  0  0  0  0  0  # atno 10718 bound_to 10713
  153.3566  135.3966  155.1687 H   0  0  0  0  0  0  0  0  0  0  0  0  # atno 10763 bound_to 10752
  154.8672  135.3669  154.5153 H   0  0  0  0  0  0  0  0  0  0  0  0  # atno 10764 bound_to 10752
  153.5609  135.7081  153.5608 H   0  0  0  0  0  0  0  0  0  0  0  0  # atno 10765 bound_to 10752
  140.9352  133.7313  156.0994 H   0  0  0  0  0  0  0  0  0  0  0  0  # atno 11005 bound_to 11000
  144.9237  140.7897  143.5732 LP  0  0  0  0  0  0  0  0  0  0  0  0  # atno 17320 bound_to 7965
  145.2692  139.1961  143.4851 LP  0  0  0  0  0  0  0  0  0  0  0  0  # atno 17321 bound_to 7965
  139.5058  144.6802  151.6027 LP  0  0  0  0  0  0  0  0  0  0  0  0  # atno 17342 bound_to 10162
  140.6070  143.9507  150.6425 LP  0  0  0  0  0  0  0  0  0  0  0  0  # atno 17343 bound_to 10162
  155.9743  130.4105  150.3934 LP  0  0  0  0  0  0  0  0  0  0  0  0  # atno 17370 bound_to 10713
  157.2016  131.0439  151.2647 LP  0  0  0  0  0  0  0  0  0  0  0  0  # atno 17371 bound_to 10713
  140.7809  134.3726  157.5487 LP  0  0  0  0  0  0  0  0  0  0  0  0  # atno 17394 bound_to 11000
  139.8806  134.9081  156.2960 LP  0  0  0  0  0  0  0  0  0  0  0  0  # atno 17395 bound_to 11000

$$$$
