AV-unprocessed.smi:1080|AV-procd|sdf|4707|dock3
  -GOLD-   22720 3233D 1   1.00000     0.00000
 Structure written by MMmdl.
 48 50  0  0  0  0  0  0  0  0  1 V2000
  144.5550  136.3037  152.6815 O   0  0  0  0  0  0  0  0  0  0  0  0
  145.7486  136.2116  152.3954 C   0  0  0  0  0  0  0  0  0  0  0  0
  146.3049  135.2107  151.6902 N   0  0  0  0  0  0  0  0  0  0  0  0
  145.6749  134.0955  151.0730 C   0  0  0  0  0  0  0  0  0  0  0  0
  146.5035  133.1178  150.4841 C   0  0  0  0  0  0  0  0  0  0  0  0
  145.9040  132.0120  149.8487 C   0  0  0  0  0  0  0  0  0  0  0  0
  144.5683  131.8395  149.7634 N   0  0  0  0  0  0  0  0  0  0  0  0
  143.7764  132.7829  150.3154 C   0  0  0  0  0  0  0  0  0  0  0  0
  144.2726  133.9256  150.9744 C   0  0  0  0  0  0  0  0  0  0  0  0
  146.6748  137.1055  152.7723 N   0  0  0  0  0  0  0  0  0  0  0  0
  146.4318  138.3221  153.5432 C   0  0  2  0  0  0  0  0  0  0  0  0
  146.9349  139.5418  152.7514 C   0  0  0  0  0  0  0  0  0  0  0  0
  146.8278  140.8467  153.5672 C   0  0  0  0  0  0  0  0  0  0  0  0
  147.4586  140.7720  154.9817 C   0  0  2  0  0  0  0  0  0  0  0  0
  149.0051  140.8676  154.9831 C   0  0  0  0  0  0  0  0  0  0  0  0
  149.6019  140.8157  153.9073 O   0  0  0  0  0  0  0  0  0  0  0  0
  149.6719  141.0403  156.1537 N   0  0  0  0  0  0  0  0  0  0  0  0
  149.0002  140.9555  157.4571 C   0  0  0  0  0  0  0  0  0  0  0  0
  149.2788  139.5738  158.0730 C   0  0  0  0  0  0  0  0  0  0  0  0
  151.0591  139.3355  158.3726 S   0  0  0  0  0  0  0  0  0  0  0  0
  151.7139  139.8290  156.7471 C   0  0  0  0  0  0  0  0  0  0  0  0
  151.1256  141.1797  156.3078 C   0  0  0  0  0  0  0  0  0  0  0  0
  146.9557  139.5128  155.7244 C   0  0  0  0  0  0  0  0  0  0  0  0
  147.1364  138.2222  154.9073 C   0  0  0  0  0  0  0  0  0  0  0  0
  147.3111  135.2322  151.6129 H   0  0  0  0  0  0  0  0  0  0  0  0
  147.5795  133.2065  150.5198 H   0  0  0  0  0  0  0  0  0  0  0  0
  146.5152  131.2465  149.3938 H   0  0  0  0  0  0  0  0  0  0  0  0
  142.7118  132.6262  150.2237 H   0  0  0  0  0  0  0  0  0  0  0  0
  143.5746  134.6448  151.3733 H   0  0  0  0  0  0  0  0  0  0  0  0
  147.6306  136.9371  152.4941 H   0  0  0  0  0  0  0  0  0  0  0  0
  145.3631  138.4535  153.7224 H   0  0  0  0  0  0  0  0  0  0  0  0
  147.9648  139.3771  152.4362 H   0  0  0  0  0  0  0  0  0  0  0  0
  146.3588  139.6453  151.8312 H   0  0  0  0  0  0  0  0  0  0  0  0
  147.2677  141.6686  153.0009 H   0  0  0  0  0  0  0  0  0  0  0  0
  145.7718  141.0981  153.6742 H   0  0  0  0  0  0  0  0  0  0  0  0
  147.0758  141.6514  155.4972 H   0  0  0  0  0  0  0  0  0  0  0  0
  149.3601  141.7428  158.1209 H   0  0  0  0  0  0  0  0  0  0  0  0
  147.9237  141.1154  157.3815 H   0  0  0  0  0  0  0  0  0  0  0  0
  148.7473  139.4635  159.0182 H   0  0  0  0  0  0  0  0  0  0  0  0
  148.9208  138.7842  157.4112 H   0  0  0  0  0  0  0  0  0  0  0  0
  152.8004  139.8897  156.8119 H   0  0  0  0  0  0  0  0  0  0  0  0
  151.4794  139.0531  156.0176 H   0  0  0  0  0  0  0  0  0  0  0  0
  151.6175  141.5365  155.4046 H   0  0  0  0  0  0  0  0  0  0  0  0
  151.3481  141.9401  157.0577 H   0  0  0  0  0  0  0  0  0  0  0  0
  147.4626  139.4054  156.6838 H   0  0  0  0  0  0  0  0  0  0  0  0
  145.8984  139.6387  155.9608 H   0  0  0  0  0  0  0  0  0  0  0  0
  146.7355  137.3779  155.4696 H   0  0  0  0  0  0  0  0  0  0  0  0
  148.1990  138.0192  154.7665 H   0  0  0  0  0  0  0  0  0  0  0  0
  1  2  2  0  0  0  0
  2  3  1  0  0  0  0
  2 10  1  0  0  0  0
  3  4  1  0  0  0  0
  3 25  1  0  0  0  0
  4  9  1  0  0  0  0
  4  5  2  0  0  0  0
  5  6  1  0  0  0  0
  5 26  1  0  0  0  0
  6  7  2  0  0  0  0
  6 27  1  0  0  0  0
  7  8  1  0  0  0  0
  8  9  2  0  0  0  0
  8 28  1  0  0  0  0
  9 29  1  0  0  0  0
 10 11  1  0  0  0  0
 10 30  1  0  0  0  0
 11 24  1  0  0  0  0
 11 12  1  0  0  0  0
 11 31  1  0  0  0  0
 12 13  1  0  0  0  0
 12 32  1  0  0  0  0
 12 33  1  0  0  0  0
 13 14  1  0  0  0  0
 13 34  1  0  0  0  0
 13 35  1  0  0  0  0
 14 15  1  0  0  0  0
 14 23  1  0  0  0  0
 14 36  1  0  0  0  0
 15 16  2  0  0  0  0
 15 17  1  0  0  0  0
 17 22  1  0  0  0  0
 17 18  1  0  0  0  0
 18 19  1  0  0  0  0
 18 37  1  0  0  0  0
 18 38  1  0  0  0  0
 19 20  1  0  0  0  0
 19 39  1  0  0  0  0
 19 40  1  0  0  0  0
 20 21  1  0  0  0  0
 21 22  1  0  0  0  0
 21 41  1  0  0  0  0
 21 42  1  0  0  0  0
 22 43  1  0  0  0  0
 22 44  1  0  0  0  0
 23 24  1  0  0  0  0
 23 45  1  0  0  0  0
 23 46  1  0  0  0  0
 24 47  1  0  0  0  0
 24 48  1  0  0  0  0
M  END
> <s_m_source_file>
AV-unprocessed.smi

> <i_m_source_file_index>
1080

> <i_lp_mmshare_version>
43012

> <i_f3d_flags>
0

> <s_epik_input>
W2NIXTFbY0hdbltjSF1bY0hdYzFbTkhdQyg9TylbTkhdW0NAQEhdMltDSDJdW0NIMl1bQ0BIXShbQ0gyXVtDSDJdMilDKD1PKU4zW0NIMl1bQ0gyXVNbQ0gyXVtDSDJdMw==

> <s_epik_cmdline>
J2VwaWtfcHl0aG9uJywgJy1waCcsICc3LjAnLCAnLXRuJywgJzgnLCAnLW1hJywgJzIwMCcsICctbWV0YWxfYmluZGluZycsICctaW1hZScsICc8aW5maWxlLm1hZT4nLCAnLW9tYWUnLCAnPG91dGZpbGUubWFlPic=

> <r_epik_Ionization_Penalty>
0.118325

> <r_epik_Ionization_Penalty_Charging>
0

> <r_epik_Ionization_Penalty_Neutral>
0.118325

> <r_epik_State_Penalty>
0.107868

> <r_epik_Charging_Adjusted_Penalty>
0.107868

> <i_epik_Tot_Q>
0

> <i_epik_Tot_abs_Q>
0

> <r_epik_Metal_State_Penalty>
0.0897632

> <b_epik_Metal_Only>
0

> <s_lp_Force_Field>
OPLS_2005

> <r_lp_Energy>
32.5604

> <b_lp_Chiralities_Consistent>
1

> <s_lp_Variant>
AV-unprocessed.smi:1080-2

> <Gold.Version>
5.8.1

> <Gold.Id.Protein>
6NUR|6NUR_protein|mol2

> <Gold.PLP.Fitness>
52.9936

> <Gold.PLP.PLP>
-37.6607

> <Gold.PLP.part.hbond>
-4.7823

> <Gold.PLP.part.metal>
0.0000

> <Gold.PLP.part.buried>
-5.3789

> <Gold.PLP.part.nonpolar>
-32.8791

> <Gold.PLP.part.repulsive>
3.8673

> <Gold.PLP.ligand.clash>
0.0000

> <Gold.PLP.ligand.torsion>
0.1561

> <Gold.PLP.Chemscore.Hbond>
3.3696

> <Gold.PLP.Chemscore.CHOScore>
1.8213

> <Gold.PLP.Chemscore.Metal>
0.0000

> <Gold.Chemscore.Hbonds>
donor molecule, donor type, donor heavy atom, donor atom, acceptor molecule, acceptor atom, score
      L1  H     3    25       P1  7948  0.99
      L1  H    10    30       P1  7948  1.00
      P1  H  7989  7998       L1    16  0.46
      P1  H  8011  8017       L1    16  0.44
      P1  H 10785 10796       L1     7  0.04
      L1  C     6    27       P1 10747  0.63
      L1  C     8    28       P1 10186  0.84

> <Gold.PLP.Chemscore.Internal.Correction>
0.0724

> <Gold.Rescore>
     Score         DG    S(hbond)    S(metal)    S(lipo)     H(rot)  DE(clash)    DE(int)     intcor
     20.89     -24.08       3.21        0.00      94.23       1.23       1.75       1.45       ----

> <Gold.Chemscore.Fitness>
20.8859

> <Gold.Chemscore.DG>
-24.0814

> <Gold.Chemscore.ZeroCoef>
-5.4800

> <Gold.Chemscore.Hbond>
3.2147

> <Gold.Chemscore.Metal>
0.0000

> <Gold.Chemscore.Lipo>
94.2263

> <Gold.Chemscore.Internal_Hbond>
0.0000

> <Gold.Chemscore.DEClash>
1.7492

> <Gold.Chemscore.DEInternal>
1.4462

> <Gold.Chemscore.Rot>
1.2344

> <Gold.Chemscore.Internal.Correction>
   9.000000E+99

> <Gold.Chemscore.Hbonds>
donor molecule, donor type, donor heavy atom, donor atom, acceptor molecule, acceptor atom, score
      L1  H     3    25       P1  7948  0.85
      L1  H    10    30       P1  7948  0.99
      P1  H  7989  7998       L1    16  0.44
      P1  H  8011  8017       L1    16  0.43
      P1  H 10785 10796       L1     7  0.05

> <Gold.Chemscore.Hbond.Weighted>
-10.7370

> <Gold.Chemscore.Metal.Weighted>
-0.0000

> <Gold.Chemscore.Lipo.Weighted>
-11.0245

> <Gold.Chemscore.Internal_Hbond.Weighted>
0.0000

> <Gold.Chemscore.DEClash.Weighted>
1.7492

> <Gold.Chemscore.DEInternal.Weighted>
1.4462

> <Gold.Chemscore.Rot.Weighted>
3.1600

> <Gold.Chemscore.Internal.Correction.Weighted>
   9.000000E+99

> <Gold.Protein.RotatedTorsions>
[ 6907 6896 6895 6894 ] final  -38.23 input  -60.11 | X-H torsion
[ 7974 7965 7964 7962 ] final -170.95 input  175.53 | X-H torsion
[ 8008 7997 7996 7995 ] final  166.68 input   59.86 | X-H torsion
[ 10167 10162 10161 10158 ] final -169.79 input  -65.29 | X-H torsion
[ 10718 10713 10712 10709 ] final  -25.45 input   66.30 | X-H torsion
[ 10763 10752 10751 10750 ] final  127.49 input  -60.55 | X-H torsion
[ 11005 11000 10999 10996 ] final  -75.82 input  -57.11 | X-H torsion

> <Gold.Protein.ActiveResidues>
 VAL166  LYS551  ARG553  GLY616  TRP617  ASP618  TYR619  PRO620  LYS621  CYS622 
 ASP623  PHE694  ASN695  SER759  ASP760  ASP761  ALA762  ILE779  LEU786  VAL792 
 PHE793  MET794  SER795  GLU796  ALA797  LYS798  CYS799  TRP800  GLU811  SER814 

> <Gold.Protein.RotatedAtoms>
  151.0050  134.9352  159.7974 H   0  0  0  0  0  0  0  0  0  0  0  0  # atno 6907 bound_to 6896
  152.5288  134.3104  159.9121 H   0  0  0  0  0  0  0  0  0  0  0  0  # atno 6908 bound_to 6896
  151.3110  133.4039  159.2681 H   0  0  0  0  0  0  0  0  0  0  0  0  # atno 6909 bound_to 6896
  144.7163  140.1995  143.6340 H   0  0  0  0  0  0  0  0  0  0  0  0  # atno 7974 bound_to 7965
  156.1698  140.1637  156.8468 H   0  0  0  0  0  0  0  0  0  0  0  0  # atno 8008 bound_to 7997
  154.5244  140.0771  156.8267 H   0  0  0  0  0  0  0  0  0  0  0  0  # atno 8009 bound_to 7997
  155.3537  140.3391  155.4242 H   0  0  0  0  0  0  0  0  0  0  0  0  # atno 8010 bound_to 7997
  139.5901  144.1231  152.1624 H   0  0  0  0  0  0  0  0  0  0  0  0  # atno 10167 bound_to 10162
  156.4642  130.4510  149.6909 H   0  0  0  0  0  0  0  0  0  0  0  0  # atno 10718 bound_to 10713
  153.7103  135.3269  155.3245 H   0  0  0  0  0  0  0  0  0  0  0  0  # atno 10763 bound_to 10752
  154.8387  135.4475  154.1320 H   0  0  0  0  0  0  0  0  0  0  0  0  # atno 10764 bound_to 10752
  153.2412  135.6971  153.7860 H   0  0  0  0  0  0  0  0  0  0  0  0  # atno 10765 bound_to 10752
  141.1649  133.6961  156.7576 H   0  0  0  0  0  0  0  0  0  0  0  0  # atno 11005 bound_to 11000
  145.8693  139.2263  143.1670 LP  0  0  0  0  0  0  0  0  0  0  0  0  # atno 17320 bound_to 7965
  146.0100  140.8444  142.9975 LP  0  0  0  0  0  0  0  0  0  0  0  0  # atno 17321 bound_to 7965
  140.0804  144.5705  150.7126 LP  0  0  0  0  0  0  0  0  0  0  0  0  # atno 17342 bound_to 10162
  140.7166  143.2550  151.4415 LP  0  0  0  0  0  0  0  0  0  0  0  0  # atno 17343 bound_to 10162
  156.3684  130.7518  151.2498 LP  0  0  0  0  0  0  0  0  0  0  0  0  # atno 17370 bound_to 10713
  157.7496  131.0330  150.4252 LP  0  0  0  0  0  0  0  0  0  0  0  0  # atno 17371 bound_to 10713
  140.2558  134.8505  157.3711 LP  0  0  0  0  0  0  0  0  0  0  0  0  # atno 17394 bound_to 11000
  140.1659  134.4670  155.7864 LP  0  0  0  0  0  0  0  0  0  0  0  0  # atno 17395 bound_to 11000

$$$$
