AV-unprocessed.smi:1568|AV-procd|sdf|6310|dock10
  -GOLD-   22720 6513D 1   1.00000     0.00000
 Structure written by MMmdl.
 43 44  0  0  0  0  0  0  0  0  1 V2000
  152.1129  144.2011  158.9409 C   0  0  0  0  0  0  0  0  0  0  0  0
  151.3280  144.0800  157.7674 O   0  0  0  0  0  0  0  0  0  0  0  0
  151.2942  142.7502  157.2786 C   0  0  0  0  0  0  0  0  0  0  0  0
  150.1484  141.9910  157.9523 C   0  0  0  0  0  0  0  0  0  0  0  0
  150.5824  140.6581  158.1987 O   0  0  0  0  0  0  0  0  0  0  0  0
  151.6237  140.4457  159.0809 C   0  0  0  0  0  0  0  0  0  0  0  0
  152.1201  141.5103  159.7605 N   0  0  0  0  0  0  0  0  0  0  0  0
  153.1121  141.3001  160.6509 C   0  0  0  0  0  0  0  0  0  0  0  0
  153.6549  140.0286  160.9159 C   0  0  0  0  0  0  0  0  0  0  0  0
  153.1437  138.9236  160.2102 C   0  0  0  0  0  0  0  0  0  0  0  0
  152.1208  139.1315  159.2616 C   0  0  0  0  0  0  0  0  0  0  0  0
  151.5542  137.9671  158.5031 C   0  0  0  0  0  0  0  0  0  0  0  0
  151.1528  136.9928  159.1398 O   0  0  0  0  0  0  0  0  0  0  0  0
  151.4918  138.0531  157.1503 N   0  0  0  0  0  0  0  0  0  0  0  0
  150.7940  137.0509  156.3346 C   0  0  0  0  0  0  0  0  0  0  0  0
  149.6862  137.7422  155.5207 C   0  0  0  0  0  0  0  0  0  0  0  0
  150.2702  138.8603  154.6301 C   0  0  0  0  0  0  0  0  0  0  0  0
  149.1604  139.6097  153.8807 C   0  0  0  0  0  0  0  0  0  0  0  0
  148.4446  138.9105  152.9967 N   0  0  0  0  0  0  0  0  0  0  0  0
  148.9479  140.8016  154.0958 O   0  0  0  0  0  0  0  0  0  0  0  0
  151.1250  139.8294  155.4754 C   0  0  0  0  0  0  0  0  0  0  0  0
  152.1622  139.0687  156.3218 C   0  0  0  0  0  0  0  0  0  0  0  0
  152.1089  145.2369  159.2798 H   0  0  0  0  0  0  0  0  0  0  0  0
  153.1479  143.9122  158.7541 H   0  0  0  0  0  0  0  0  0  0  0  0
  151.7169  143.5811  159.7466 H   0  0  0  0  0  0  0  0  0  0  0  0
  151.1550  142.7518  156.1964 H   0  0  0  0  0  0  0  0  0  0  0  0
  152.2418  142.2536  157.4877 H   0  0  0  0  0  0  0  0  0  0  0  0
  149.8791  142.4822  158.8888 H   0  0  0  0  0  0  0  0  0  0  0  0
  149.2724  141.9928  157.3017 H   0  0  0  0  0  0  0  0  0  0  0  0
  153.4805  142.1712  161.1723 H   0  0  0  0  0  0  0  0  0  0  0  0
  154.4439  139.9045  161.6426 H   0  0  0  0  0  0  0  0  0  0  0  0
  153.5394  137.9344  160.3900 H   0  0  0  0  0  0  0  0  0  0  0  0
  151.5089  136.5676  155.6671 H   0  0  0  0  0  0  0  0  0  0  0  0
  150.3519  136.2518  156.9312 H   0  0  0  0  0  0  0  0  0  0  0  0
  149.1685  137.0050  154.9057 H   0  0  0  0  0  0  0  0  0  0  0  0
  148.9419  138.1519  156.2061 H   0  0  0  0  0  0  0  0  0  0  0  0
  150.9263  138.3902  153.8952 H   0  0  0  0  0  0  0  0  0  0  0  0
  147.7030  139.3594  152.4793 H   0  0  0  0  0  0  0  0  0  0  0  0
  148.6483  137.9324  152.8496 H   0  0  0  0  0  0  0  0  0  0  0  0
  151.6361  140.5404  154.8250 H   0  0  0  0  0  0  0  0  0  0  0  0
  150.4882  140.4215  156.1310 H   0  0  0  0  0  0  0  0  0  0  0  0
  152.7563  139.7787  156.8955 H   0  0  0  0  0  0  0  0  0  0  0  0
  152.8722  138.5648  155.6645 H   0  0  0  0  0  0  0  0  0  0  0  0
  1  2  1  0  0  0  0
  1 23  1  0  0  0  0
  1 24  1  0  0  0  0
  1 25  1  0  0  0  0
  2  3  1  0  0  0  0
  3  4  1  0  0  0  0
  3 26  1  0  0  0  0
  3 27  1  0  0  0  0
  4  5  1  0  0  0  0
  4 28  1  0  0  0  0
  4 29  1  0  0  0  0
  5  6  1  0  0  0  0
  6 11  1  0  0  0  0
  6  7  2  0  0  0  0
  7  8  1  0  0  0  0
  8  9  2  0  0  0  0
  8 30  1  0  0  0  0
  9 10  1  0  0  0  0
  9 31  1  0  0  0  0
 10 11  2  0  0  0  0
 10 32  1  0  0  0  0
 11 12  1  0  0  0  0
 12 13  2  0  0  0  0
 12 14  1  0  0  0  0
 14 22  1  0  0  0  0
 14 15  1  0  0  0  0
 15 16  1  0  0  0  0
 15 33  1  0  0  0  0
 15 34  1  0  0  0  0
 16 17  1  0  0  0  0
 16 35  1  0  0  0  0
 16 36  1  0  0  0  0
 17 18  1  0  0  0  0
 17 21  1  0  0  0  0
 17 37  1  0  0  0  0
 18 19  1  0  0  0  0
 18 20  2  0  0  0  0
 19 38  1  0  0  0  0
 19 39  1  0  0  0  0
 21 22  1  0  0  0  0
 21 40  1  0  0  0  0
 21 41  1  0  0  0  0
 22 42  1  0  0  0  0
 22 43  1  0  0  0  0
M  END
> <s_m_source_file>
AV-unprocessed.smi

> <i_m_source_file_index>
1568

> <i_lp_mmshare_version>
43012

> <i_f3d_flags>
0

> <s_epik_input>
W0NIM11PW0NIMl1bQ0gyXU9jMW5bY0hdW2NIXVtjSF1jMUMoPU8pTjJbQ0gyXVtDSDJdW0NIXShDKD1PKVtOSDJdKVtDSDJdW0NIMl0y

> <s_epik_cmdline>
J2VwaWtfcHl0aG9uJywgJy1waCcsICc3LjAnLCAnLXRuJywgJzgnLCAnLW1hJywgJzIwMCcsICctbWV0YWxfYmluZGluZycsICctaW1hZScsICc8aW5maWxlLm1hZT4nLCAnLW9tYWUnLCAnPG91dGZpbGUubWFlPic=

> <r_lp_tautomer_probability>
1

> <r_epik_Ionization_Penalty>
2.36279e-06

> <r_epik_Ionization_Penalty_Charging>
0

> <r_epik_Ionization_Penalty_Neutral>
2.36279e-06

> <r_epik_State_Penalty>
-0

> <r_epik_Charging_Adjusted_Penalty>
0

> <i_epik_Tot_Q>
0

> <i_epik_Tot_abs_Q>
0

> <r_epik_Metal_State_Penalty>
-0

> <b_epik_Metal_Only>
0

> <s_lp_Force_Field>
OPLS_2005

> <r_lp_Energy>
28.0257

> <b_lp_Chiralities_Consistent>
1

> <s_lp_Variant>
AV-unprocessed.smi:1568-1

> <Gold.Version>
5.8.1

> <Gold.Id.Protein>
6NUR|6NUR_protein|mol2

> <Gold.PLP.Fitness>
41.8104

> <Gold.PLP.PLP>
-36.9832

> <Gold.PLP.part.hbond>
-3.0000

> <Gold.PLP.part.metal>
0.0000

> <Gold.PLP.part.buried>
-6.1148

> <Gold.PLP.part.nonpolar>
-28.9435

> <Gold.PLP.part.repulsive>
0.3405

> <Gold.PLP.ligand.clash>
0.0000

> <Gold.PLP.ligand.torsion>
1.5289

> <Gold.PLP.Chemscore.Hbond>
2.0000

> <Gold.PLP.Chemscore.CHOScore>
0.0000

> <Gold.PLP.Chemscore.Metal>
0.0000

> <Gold.Chemscore.Hbonds>
donor molecule, donor type, donor heavy atom, donor atom, acceptor molecule, acceptor atom, score
      L1  H    19    39       P1  7948  1.00
      P1  H  6896  6909       L1    13  0.96

> <Gold.PLP.Chemscore.Internal.Correction>
1.8849

> <Gold.Rescore>
     Score         DG    S(hbond)    S(metal)    S(lipo)     H(rot)  DE(clash)    DE(int)     intcor
     10.49     -16.10       1.92        0.00      84.53       2.21       0.19       5.41       ----

> <Gold.Chemscore.Fitness>
10.4938

> <Gold.Chemscore.DG>
-16.0977

> <Gold.Chemscore.ZeroCoef>
-5.4800

> <Gold.Chemscore.Hbond>
1.9153

> <Gold.Chemscore.Metal>
0.0000

> <Gold.Chemscore.Lipo>
84.5330

> <Gold.Chemscore.Internal_Hbond>
0.0000

> <Gold.Chemscore.DEClash>
0.1900

> <Gold.Chemscore.DEInternal>
5.4138

> <Gold.Chemscore.Rot>
2.2148

> <Gold.Chemscore.Internal.Correction>
   9.000000E+99

> <Gold.Chemscore.Hbonds>
donor molecule, donor type, donor heavy atom, donor atom, acceptor molecule, acceptor atom, score
      L1  H    19    39       P1  7948  0.97
      P1  H  6896  6909       L1    13  0.86

> <Gold.Chemscore.Hbond.Weighted>
-6.3971

> <Gold.Chemscore.Metal.Weighted>
-0.0000

> <Gold.Chemscore.Lipo.Weighted>
-9.8904

> <Gold.Chemscore.Internal_Hbond.Weighted>
0.0000

> <Gold.Chemscore.DEClash.Weighted>
0.1900

> <Gold.Chemscore.DEInternal.Weighted>
5.4138

> <Gold.Chemscore.Rot.Weighted>
5.6698

> <Gold.Chemscore.Internal.Correction.Weighted>
   9.000000E+99

> <Gold.Protein.RotatedTorsions>
[ 6907 6896 6895 6894 ] final  120.08 input  -60.11 | X-H torsion
[ 7974 7965 7964 7962 ] final    2.70 input  175.53 | X-H torsion
[ 8008 7997 7996 7995 ] final  127.37 input   59.86 | X-H torsion
[ 10167 10162 10161 10158 ] final  154.53 input  -65.29 | X-H torsion
[ 10718 10713 10712 10709 ] final  121.68 input   66.30 | X-H torsion
[ 10763 10752 10751 10750 ] final -105.42 input  -60.55 | X-H torsion
[ 11005 11000 10999 10996 ] final  -10.58 input  -57.11 | X-H torsion

> <Gold.Protein.ActiveResidues>
 VAL166  LYS551  ARG553  GLY616  TRP617  ASP618  TYR619  PRO620  LYS621  CYS622 
 ASP623  PHE694  ASN695  SER759  ASP760  ASP761  ALA762  ILE779  LEU786  VAL792 
 PHE793  MET794  SER795  GLU796  ALA797  LYS798  CYS799  TRP800  GLU811  SER814 

> <Gold.Protein.RotatedAtoms>
  152.4425  133.7474  159.6674 H   0  0  0  0  0  0  0  0  0  0  0  0  # atno 6907 bound_to 6896
  150.8318  133.8068  159.3101 H   0  0  0  0  0  0  0  0  0  0  0  0  # atno 6908 bound_to 6896
  151.5719  135.1064  160.0049 H   0  0  0  0  0  0  0  0  0  0  0  0  # atno 6909 bound_to 6896
  146.2444  140.0797  142.8357 H   0  0  0  0  0  0  0  0  0  0  0  0  # atno 7974 bound_to 7965
  156.2889  140.2670  156.2262 H   0  0  0  0  0  0  0  0  0  0  0  0  # atno 8008 bound_to 7997
  155.0118  140.0387  157.2420 H   0  0  0  0  0  0  0  0  0  0  0  0  # atno 8009 bound_to 7997
  154.7511  140.2743  155.6297 H   0  0  0  0  0  0  0  0  0  0  0  0  # atno 8010 bound_to 7997
  139.4823  144.5178  151.7923 H   0  0  0  0  0  0  0  0  0  0  0  0  # atno 10167 bound_to 10162
  157.5799  131.1076  150.8206 H   0  0  0  0  0  0  0  0  0  0  0  0  # atno 10718 bound_to 10713
  154.7945  135.4750  154.0129 H   0  0  0  0  0  0  0  0  0  0  0  0  # atno 10763 bound_to 10752
  153.1682  135.6820  153.8652 H   0  0  0  0  0  0  0  0  0  0  0  0  # atno 10764 bound_to 10752
  153.8243  135.3200  155.3391 H   0  0  0  0  0  0  0  0  0  0  0  0  # atno 10765 bound_to 10752
  140.7462  133.8629  155.9008 H   0  0  0  0  0  0  0  0  0  0  0  0  # atno 11005 bound_to 11000
  145.0744  140.9177  143.4863 LP  0  0  0  0  0  0  0  0  0  0  0  0  # atno 17320 bound_to 7965
  145.0937  139.2871  143.5721 LP  0  0  0  0  0  0  0  0  0  0  0  0  # atno 17321 bound_to 7965
  140.4689  144.1616  150.5915 LP  0  0  0  0  0  0  0  0  0  0  0  0  # atno 17342 bound_to 10162
  140.4404  143.2529  151.9480 LP  0  0  0  0  0  0  0  0  0  0  0  0  # atno 17343 bound_to 10162
  156.8655  130.5128  149.5300 LP  0  0  0  0  0  0  0  0  0  0  0  0  # atno 17370 bound_to 10713
  156.0845  130.5847  150.9623 LP  0  0  0  0  0  0  0  0  0  0  0  0  # atno 17371 bound_to 10713
  140.9792  134.1428  157.4509 LP  0  0  0  0  0  0  0  0  0  0  0  0  # atno 17394 bound_to 11000
  139.8796  135.0005  156.6012 LP  0  0  0  0  0  0  0  0  0  0  0  0  # atno 17395 bound_to 11000

$$$$
