#       Name:                AV-unprocessed.smi:1929
#       Creating user name   scv26
#       Creation time:       Fri Mar 27 09:54:19 2020


#       File generated by GOLD software.
#

@<TRIPOS>MOLECULE
AV-unprocessed.smi:1929
    48    49     1
SMALL
NO_CHARGES


@<TRIPOS>ATOM
      1 ****        -6.3331   3.7354   0.6457 C.3            1 S1                 0.0000
      2 ****        -5.6954   2.4420   0.4516 N.am           1 S1                 0.0000
      3 ****        -4.4313   2.1655   0.8007 C.2            1 S1                 0.0000
      4 ****        -3.6835   2.9865   1.3330 O.2            1 S1                 0.0000
      5 ****        -3.9468   0.7394   0.5195 C.3            1 S1                 0.0000
      6 ****        -2.4663   0.6273   0.4698 N.4            1 S1                 1.0000
      7 ****        -1.8836   1.1459  -0.7969 C.3            1 S1                 0.0000
      8 ****        -0.3472   1.1418  -0.7408 C.3            1 S1                 0.0000
      9 ****         0.1903  -0.2672  -0.4448 C.3            1 S1                 0.0000
     10 ****         1.6446  -0.2302  -0.3199 N.am           1 S1                 0.0000
     11 ****         2.4597  -1.2791  -0.5047 C.2            1 S1                 0.0000
     12 ****         2.0568  -2.4035  -0.8020 O.2            1 S1                 0.0000
     13 ****         3.7443  -0.9399  -0.2998 N.am           1 S1                 0.0000
     14 ****         4.9035  -1.7551  -0.4081 C.ar           1 S1                 0.0000
     15 ****         6.0664  -1.3379   0.2716 C.ar           1 S1                 0.0000
     16 ****         7.2333  -2.1208   0.1641 C.ar           1 S1                 0.0000
     17 ****         7.3026  -3.2522  -0.5684 N.ar           1 S1                 0.0000
     18 ****         6.1927  -3.6417  -1.2306 C.ar           1 S1                 0.0000
     19 ****         4.9750  -2.9334  -1.1896 C.ar           1 S1                 0.0000
     20 ****        -0.4575  -0.8047   0.8448 C.3            1 S1                 0.0000
     21 ****        -1.9923  -0.7492   0.7642 C.3            1 S1                 0.0000
     22 ****        -7.3559   3.7063   0.2697 H              1 S1                 0.0000
     23 ****        -5.7954   4.5185   0.1093 H              1 S1                 0.0000
     24 ****        -6.3670   3.9977   1.7040 H              1 S1                 0.0000
     25 ****        -6.2511   1.7136   0.0266 H              1 S1                 0.0000
     26 ****        -4.3354   0.1156   1.3254 H              1 S1                 0.0000
     27 ****        -4.3818   0.3613  -0.4072 H              1 S1                 0.0000
     28 ****        -2.2292   0.5373  -1.6342 H              1 S1                 0.0000
     29 ****        -2.2305   2.1625  -0.9838 H              1 S1                 0.0000
     30 ****         0.0563   1.5056  -1.6866 H              1 S1                 0.0000
     31 ****        -0.0114   1.8394   0.0282 H              1 S1                 0.0000
     32 ****        -0.0802  -0.9178  -1.2792 H              1 S1                 0.0000
     33 ****         2.0599   0.6569  -0.0743 H              1 S1                 0.0000
     34 ****         3.9092   0.0014   0.0253 H              1 S1                 0.0000
     35 ****         6.0690  -0.4385   0.8702 H              1 S1                 0.0000
     36 ****         8.1365  -1.8279   0.6787 H              1 S1                 0.0000
     37 ****         6.2788  -4.5430  -1.8192 H              1 S1                 0.0000
     38 ****         4.1364  -3.2975  -1.7626 H              1 S1                 0.0000
     39 ****        -0.1393  -1.8320   1.0274 H              1 S1                 0.0000
     40 ****        -0.1187  -0.2202   1.7017 H              1 S1                 0.0000
     41 ****        -2.4105  -1.0883   1.7128 H              1 S1                 0.0000
     42 ****        -2.3549  -1.4329  -0.0052 H              1 S1                 0.0000
     43 ****        -2.1177   1.2134   1.2154 H              1 S1                 0.0000
     44 ****        -4.0119   3.9114   1.5245 LP             1 S1                 0.0000
     45 ****        -2.7479   2.7283   1.5736 LP             1 S1                 0.0000
     46 ****         1.0774  -2.5694  -0.9174 LP             1 S1                 0.0000
     47 ****         2.7089  -3.1511  -0.9282 LP             1 S1                 0.0000
     48 ****         8.1479  -3.7842  -0.6189 LP             1 S1                 0.0000
@<TRIPOS>BOND
    1    1    2 1     
    2    1   22 1     
    3    1   23 1     
    4    1   24 1     
    5    2    3 am    
    6    2   25 1     
    7    3    4 2     
    8    3    5 1     
    9    5    6 1     
   10    5   26 1     
   11    5   27 1     
   12    6   21 1     
   13    6    7 1     
   14    6   43 1     
   15    7    8 1     
   16    7   28 1     
   17    7   29 1     
   18    8    9 1     
   19    8   30 1     
   20    8   31 1     
   21    9   10 1     
   22    9   20 1     
   23    9   32 1     
   24   10   11 am    
   25   10   33 1     
   26   11   12 2     
   27   11   13 am    
   28   13   14 1     
   29   13   34 1     
   30   14   19 ar    
   31   14   15 ar    
   32   15   16 ar    
   33   15   35 1     
   34   16   17 ar    
   35   16   36 1     
   36   17   18 ar    
   37   18   19 ar    
   38   18   37 1     
   39   19   38 1     
   40   20   21 1     
   41   20   39 1     
   42   20   40 1     
   43   21   41 1     
   44   21   42 1     
   45    4   44 1     
   46    4   45 1     
   47   12   46 1     
   48   12   47 1     
   49   17   48 1     
@<TRIPOS>SUBSTRUCTURE
      1 S1             1
@<TRIPOS>SET
LONE_PAIRS      STATIC     ATOMS    <user>   **** ""
5 44 45 46 47 48
DONOR_HYDROGENS      STATIC     ATOMS    <user>   **** ""
4 25 43 33 34
ATOM$BLUE        STATIC     ATOMS    COLORGROUP SYSTEM
5 44 45 46 47 48
ATOM$RED        STATIC     ATOMS    COLORGROUP SYSTEM
4 25 43 33 34
