#       Name:                AV-unprocessed.smi:69
#       Creating user name   scv26
#       Creation time:       Thu Mar 26 16:55:25 2020


#       File generated by GOLD software.
#

@<TRIPOS>MOLECULE
AV-unprocessed.smi:69
    43    45     1
SMALL
NO_CHARGES


@<TRIPOS>ATOM
      1 ****        -5.1160  -0.1343  -0.4487 N.pl3          1 S1                 0.0000
      2 ****        -3.8305   0.2448  -0.4561 C.ar           1 S1                 0.0000
      3 ****        -3.5514   1.5689  -0.4680 N.ar           1 S1                 0.0000
      4 ****        -2.2771   1.9717  -0.4774 C.ar           1 S1                 0.0000
      5 ****        -1.1671   1.2294  -0.4771 N.ar           1 S1                 0.0000
      6 ****        -1.4466  -0.1069  -0.4657 C.ar           1 S1                 0.0000
      7 ****        -2.7516  -0.6754  -0.4536 C.ar           1 S1                 0.0000
      8 ****        -2.6664  -2.0602  -0.4417 N.2            1 S1                 0.0000
      9 ****        -1.3820  -2.2934  -0.4479 C.2            1 S1                 0.0000
     10 ****        -0.5726  -1.1784  -0.4669 N.pl3          1 S1                 0.0000
     11 ****         0.9247  -1.1676  -0.4749 C.3            1 S1                 0.0000
     12 ****         1.3806   0.0204  -1.0438 O.3            1 S1                 0.0000
     13 ****         2.4802   0.5635  -0.3083 C.3            1 S1                 0.0000
     14 ****         2.0541   1.9425   0.2388 C.3            1 S1                 0.0000
     15 ****         2.0199   2.8862  -0.8107 O.3            1 S1                 0.0000
     16 ****         2.7947  -0.4987   0.7645 C.3            1 S1                 0.0000
     17 ****         3.2598   0.0415   1.9870 O.3            1 S1                 0.0000
     18 ****         1.4746  -1.2299   0.9484 C.3            1 S1                 0.0000
     19 ****         1.7291  -2.5594   1.3595 O.3            1 S1                 0.0000
     20 ****         1.2209  -2.0097  -1.1032 H              1 S1                 0.0000
     21 ****         3.3436   0.6826  -0.9646 H              1 S1                 0.0000
     22 ****         3.5479  -1.1817   0.3672 H              1 S1                 0.0000
     23 ****         0.8087  -0.7015   1.6332 H              1 S1                 0.0000
     24 ****        -5.3503  -1.1166  -0.4409 H              1 S1                 0.0000
     25 ****        -5.8468   0.5621  -0.4534 H              1 S1                 0.0000
     26 ****        -2.1243   3.0407  -0.4871 H              1 S1                 0.0000
     27 ****        -0.9832  -3.2974  -0.4365 H              1 S1                 0.0000
     28 ****         1.0942   1.8975   0.7515 H              1 S1                 0.0000
     29 ****         2.7810   2.3172   0.9592 H              1 S1                 0.0000
     30 ****         1.7412   3.7174  -0.4580 H              1 S1                 0.0000
     31 ****         4.0828   0.4787   1.8295 H              1 S1                 0.0000
     32 ****         2.3282  -2.9550   0.7454 H              1 S1                 0.0000
     33 ****        -4.2924   2.2404  -0.4697 LP             1 S1                 0.0000
     34 ****        -0.2413   1.6074  -0.4844 LP             1 S1                 0.0000
     35 ****        -3.4140  -2.7242  -0.4309 LP             1 S1                 0.0000
     36 ****         0.6337   0.6854  -1.0506 LP             1 S1                 0.0000
     37 ****         1.6746  -0.1602  -1.9824 LP             1 S1                 0.0000
     38 ****         1.3758   2.5853  -1.5140 LP             1 S1                 0.0000
     39 ****         2.9316   2.9784  -1.2111 LP             1 S1                 0.0000
     40 ****         3.3907  -0.6936   2.6521 LP             1 S1                 0.0000
     41 ****         2.5926   0.6967   2.3414 LP             1 S1                 0.0000
     42 ****         0.8734  -3.0766   1.3763 LP             1 S1                 0.0000
     43 ****         2.1355  -2.5576   2.2732 LP             1 S1                 0.0000
@<TRIPOS>BOND
    1    1    2 1     
    2    1   24 1     
    3    1   25 1     
    4    2    7 ar    
    5    2    3 ar    
    6    3    4 ar    
    7    4    5 ar    
    8    4   26 1     
    9    5    6 ar    
   10    6   10 1     
   11    6    7 ar    
   12    7    8 1     
   13    8    9 2     
   14    9   10 1     
   15    9   27 1     
   16   10   11 1     
   17   11   20 1     
   18   11   18 1     
   19   11   12 1     
   20   12   13 1     
   21   13   21 1     
   22   13   14 1     
   23   13   16 1     
   24   14   15 1     
   25   14   28 1     
   26   14   29 1     
   27   15   30 1     
   28   16   22 1     
   29   16   17 1     
   30   16   18 1     
   31   17   31 1     
   32   18   23 1     
   33   18   19 1     
   34   19   32 1     
   35    3   33 1     
   36    5   34 1     
   37    8   35 1     
   38   12   36 1     
   39   12   37 1     
   40   15   38 1     
   41   15   39 1     
   42   17   40 1     
   43   17   41 1     
   44   19   42 1     
   45   19   43 1     
@<TRIPOS>SUBSTRUCTURE
      1 S1             1
@<TRIPOS>SET
LONE_PAIRS      STATIC     ATOMS    <user>   **** ""
11 33 34 35 36 37 38 39 40 41 42 43
DONOR_HYDROGENS      STATIC     ATOMS    <user>   **** ""
5 24 25 30 31 32
ATOM$BLUE        STATIC     ATOMS    COLORGROUP SYSTEM
11 33 34 35 36 37 38 39 40 41 42 43
ATOM$RED        STATIC     ATOMS    COLORGROUP SYSTEM
5 24 25 30 31 32
