AV-unprocessed.smi:1165|AV-procd|sdf|4931|dock8
  -GOLD-   22720 3513D 1   1.00000     0.00000
 Structure written by MMmdl.
 40 41  0  0  0  0  0  0  0  0  2 V2000
  153.3227  142.6184  161.4565 C   0  0  0  0  0  0  0  0  0  0  0  0
  153.8374  141.3933  160.6924 C   0  0  2  0  0  0  0  0  0  0  0  0
  152.7593  140.7975  159.7696 C   0  0  0  0  0  0  0  0  0  0  0  0
  153.2272  139.5456  159.1569 N   0  0  0  0  0  0  0  0  0  0  0  0
  152.3290  138.9317  157.7957 S   0  0  0  0  0  0  0  0  0  0  0  0
  153.0546  137.7257  157.3681 O   0  0  0  0  0  0  0  0  0  0  0  0
  150.9375  138.7594  158.2476 O   0  0  0  0  0  0  0  0  0  0  0  0
  152.5380  140.1796  156.7695 N   0  5  0  0  0  0  0  0  0  0  0  0
  151.5294  140.5227  155.7719 C   0  0  0  0  0  0  0  0  0  0  0  0
  150.2816  141.1235  156.4541 C   0  0  0  0  0  0  0  0  0  0  0  0
  149.0546  141.2303  155.5542 C   0  0  0  0  0  0  0  0  0  0  0  0
  147.8398  141.7606  156.0412 C   0  0  0  0  0  0  0  0  0  0  0  0
  146.7319  141.8315  155.1751 C   0  0  0  0  0  0  0  0  0  0  0  0
  146.8828  141.3648  153.8545 C   0  0  0  0  0  0  0  0  0  0  0  0
  148.0349  140.8476  153.3768 N   0  0  0  0  0  0  0  0  0  0  0  0
  149.0933  140.7853  154.2137 C   0  0  0  0  0  0  0  0  0  0  0  0
  153.7255  138.5773  160.1515 C   0  0  0  0  0  0  0  0  0  0  0  0
  154.7671  139.2197  161.0854 C   0  0  1  0  0  0  0  0  0  0  0  0
  156.1385  139.4213  160.4156 C   0  0  0  0  0  0  0  0  0  0  0  0
  154.2559  140.4256  161.6486 O   0  0  0  0  0  0  0  0  0  0  0  0
  152.9957  143.4001  160.7706 H   0  0  0  0  0  0  0  0  0  0  0  0
  154.1036  143.0388  162.0906 H   0  0  0  0  0  0  0  0  0  0  0  0
  152.4785  142.3589  162.0959 H   0  0  0  0  0  0  0  0  0  0  0  0
  154.6914  141.7094  160.0931 H   0  0  0  0  0  0  0  0  0  0  0  0
  151.8430  140.5954  160.3255 H   0  0  0  0  0  0  0  0  0  0  0  0
  152.5103  141.5202  158.9931 H   0  0  0  0  0  0  0  0  0  0  0  0
  151.9053  141.2326  155.0345 H   0  0  0  0  0  0  0  0  0  0  0  0
  151.2254  139.6414  155.2064 H   0  0  0  0  0  0  0  0  0  0  0  0
  150.0165  140.5067  157.3132 H   0  0  0  0  0  0  0  0  0  0  0  0
  150.5157  142.1092  156.8591 H   0  0  0  0  0  0  0  0  0  0  0  0
  147.7603  142.1119  157.0596 H   0  0  0  0  0  0  0  0  0  0  0  0
  145.7905  142.2366  155.5151 H   0  0  0  0  0  0  0  0  0  0  0  0
  146.0541  141.4054  153.1634 H   0  0  0  0  0  0  0  0  0  0  0  0
  149.9995  140.3676  153.8005 H   0  0  0  0  0  0  0  0  0  0  0  0
  152.8779  138.2163  160.7352 H   0  0  0  0  0  0  0  0  0  0  0  0
  154.1554  137.7051  159.6597 H   0  0  0  0  0  0  0  0  0  0  0  0
  154.9236  138.5397  161.9230 H   0  0  0  0  0  0  0  0  0  0  0  0
  156.5689  138.4629  160.1244 H   0  0  0  0  0  0  0  0  0  0  0  0
  156.8388  139.9046  161.0969 H   0  0  0  0  0  0  0  0  0  0  0  0
  156.0720  140.0286  159.5132 H   0  0  0  0  0  0  0  0  0  0  0  0
  1  2  1  0  0  0  0
  1 21  1  0  0  0  0
  1 22  1  0  0  0  0
  1 23  1  0  0  0  0
  2 20  1  0  0  0  0
  2  3  1  0  0  0  0
  2 24  1  0  0  0  0
  3  4  1  0  0  0  0
  3 25  1  0  0  0  0
  3 26  1  0  0  0  0
  4  5  1  0  0  0  0
  4 17  1  0  0  0  0
  5  6  2  0  0  0  0
  5  7  2  0  0  0  0
  5  8  1  0  0  0  0
  8  9  1  0  0  0  0
  9 10  1  0  0  0  0
  9 27  1  0  0  0  0
  9 28  1  0  0  0  0
 10 11  1  0  0  0  0
 10 29  1  0  0  0  0
 10 30  1  0  0  0  0
 11 16  1  0  0  0  0
 11 12  2  0  0  0  0
 12 13  1  0  0  0  0
 12 31  1  0  0  0  0
 13 14  2  0  0  0  0
 13 32  1  0  0  0  0
 14 15  1  0  0  0  0
 14 33  1  0  0  0  0
 15 16  2  0  0  0  0
 16 34  1  0  0  0  0
 17 18  1  0  0  0  0
 17 35  1  0  0  0  0
 17 36  1  0  0  0  0
 18 19  1  0  0  0  0
 18 20  1  0  0  0  0
 18 37  1  0  0  0  0
 19 38  1  0  0  0  0
 19 39  1  0  0  0  0
 19 40  1  0  0  0  0
M  CHG  1   8  -1
M  END
> <s_m_source_file>
AV-unprocessed.smi

> <i_m_source_file_index>
1165

> <i_lp_mmshare_version>
43012

> <i_f3d_flags>
0

> <s_epik_input>
W0NIM11bQ0BASF0xW0NIMl1OKFtDSDJdW0NASF0oTzEpW0NIM10pUyg9TykoPU8pW05IXVtDSDJdW0NIMl1jMltjSF1bY0hdW2NIXW5bY0hdMg==

> <s_epik_cmdline>
J2VwaWtfcHl0aG9uJywgJy1waCcsICc3LjAnLCAnLXRuJywgJzgnLCAnLW1hJywgJzIwMCcsICctbWV0YWxfYmluZGluZycsICctaW1hZScsICc8aW5maWxlLm1hZT4nLCAnLW9tYWUnLCAnPG91dGZpbGUubWFlPic=

> <r_epik_Ionization_Penalty>
1.23471

> <r_epik_Ionization_Penalty_Charging>
1.20871

> <r_epik_Ionization_Penalty_Neutral>
0.025996

> <r_epik_State_Penalty>
1.46261

> <r_epik_Charging_Adjusted_Penalty>
2.67132

> <i_epik_Tot_Q>
-1

> <i_epik_Tot_abs_Q>
1

> <r_epik_Metal_State_Penalty>
0.521406

> <b_epik_Metal_Only>
0

> <s_lp_Force_Field>
OPLS_2005

> <r_lp_Energy>
7.90597

> <b_lp_Chiralities_Consistent>
1

> <s_lp_Variant>
AV-unprocessed.smi:1165-4

> <Gold.Version>
5.8.1

> <Gold.Id.Protein>
6NUR|6NUR_protein|mol2

> <Gold.PLP.Fitness>
38.9271

> <Gold.PLP.PLP>
-29.8818

> <Gold.PLP.part.hbond>
-1.0000

> <Gold.PLP.part.metal>
0.0000

> <Gold.PLP.part.buried>
-3.5650

> <Gold.PLP.part.nonpolar>
-24.8254

> <Gold.PLP.part.repulsive>
1.1016

> <Gold.PLP.ligand.clash>
0.0000

> <Gold.PLP.ligand.torsion>
1.1333

> <Gold.PLP.Chemscore.Hbond>
2.0000

> <Gold.PLP.Chemscore.CHOScore>
1.2421

> <Gold.PLP.Chemscore.Metal>
0.0000

> <Gold.Chemscore.Hbonds>
donor molecule, donor type, donor heavy atom, donor atom, acceptor molecule, acceptor atom, score
      P1  H  7997  8010       L1     8  1.90
      L1  C    14    33       P1 10175  0.63
      L1  C    16    34       P1  7957  0.34

> <Gold.PLP.Chemscore.Internal.Correction>
1.5856

> <Gold.Rescore>
     Score         DG    S(hbond)    S(metal)    S(lipo)     H(rot)  DE(clash)    DE(int)     intcor
     12.15     -14.47       0.86        0.00      84.58       1.47       0.14       2.18       ----

> <Gold.Chemscore.Fitness>
12.1480

> <Gold.Chemscore.DG>
-14.4678

> <Gold.Chemscore.ZeroCoef>
-5.4800

> <Gold.Chemscore.Hbond>
0.8571

> <Gold.Chemscore.Metal>
0.0000

> <Gold.Chemscore.Lipo>
84.5835

> <Gold.Chemscore.Internal_Hbond>
0.0000

> <Gold.Chemscore.DEClash>
0.1399

> <Gold.Chemscore.DEInternal>
2.1799

> <Gold.Chemscore.Rot>
1.4731

> <Gold.Chemscore.Internal.Correction>
   9.000000E+99

> <Gold.Chemscore.Hbonds>
donor molecule, donor type, donor heavy atom, donor atom, acceptor molecule, acceptor atom, score
      P1  H  7997  8010       L1     8  0.21

> <Gold.Chemscore.Hbond.Weighted>
-2.8627

> <Gold.Chemscore.Metal.Weighted>
-0.0000

> <Gold.Chemscore.Lipo.Weighted>
-9.8963

> <Gold.Chemscore.Internal_Hbond.Weighted>
0.0000

> <Gold.Chemscore.DEClash.Weighted>
0.1399

> <Gold.Chemscore.DEInternal.Weighted>
2.1799

> <Gold.Chemscore.Rot.Weighted>
3.7712

> <Gold.Chemscore.Internal.Correction.Weighted>
   9.000000E+99

> <Gold.Protein.RotatedTorsions>
[ 6907 6896 6895 6894 ] final -112.76 input  -60.11 | X-H torsion
[ 7974 7965 7964 7962 ] final   54.63 input  175.53 | X-H torsion
[ 8008 7997 7996 7995 ] final   62.52 input   59.86 | X-H torsion
[ 10167 10162 10161 10158 ] final -116.36 input  -65.29 | X-H torsion
[ 10718 10713 10712 10709 ] final   72.82 input   66.30 | X-H torsion
[ 10763 10752 10751 10750 ] final  -88.91 input  -60.55 | X-H torsion
[ 11005 11000 10999 10996 ] final  162.85 input  -57.11 | X-H torsion

> <Gold.Protein.ActiveResidues>
 VAL166  LYS551  ARG553  GLY616  TRP617  ASP618  TYR619  PRO620  LYS621  CYS622 
 ASP623  PHE694  ASN695  SER759  ASP760  ASP761  ALA762  ILE779  LEU786  VAL792 
 PHE793  MET794  SER795  GLU796  ALA797  LYS798  CYS799  TRP800  GLU811  SER814 

> <Gold.Protein.RotatedAtoms>
  150.7781  133.9042  159.3350 H   0  0  0  0  0  0  0  0  0  0  0  0  # atno 6907 bound_to 6896
  151.6912  135.0944  160.0243 H   0  0  0  0  0  0  0  0  0  0  0  0  # atno 6908 bound_to 6896
  152.3824  133.6526  159.6207 H   0  0  0  0  0  0  0  0  0  0  0  0  # atno 6909 bound_to 6896
  145.9588  139.4040  143.0261 H   0  0  0  0  0  0  0  0  0  0  0  0  # atno 7974 bound_to 7965
  155.6157  140.3495  155.4636 H   0  0  0  0  0  0  0  0  0  0  0  0  # atno 8008 bound_to 7997
  156.0119  140.1235  157.0469 H   0  0  0  0  0  0  0  0  0  0  0  0  # atno 8009 bound_to 7997
  154.4284  140.1080  156.5827 H   0  0  0  0  0  0  0  0  0  0  0  0  # atno 8010 bound_to 7997
  140.0800  143.4796  152.1931 H   0  0  0  0  0  0  0  0  0  0  0  0  # atno 10167 bound_to 10162
  157.6519  130.9598  150.0982 H   0  0  0  0  0  0  0  0  0  0  0  0  # atno 10718 bound_to 10713
  154.6496  135.5360  153.7886 H   0  0  0  0  0  0  0  0  0  0  0  0  # atno 10763 bound_to 10752
  153.0379  135.6479  154.1036 H   0  0  0  0  0  0  0  0  0  0  0  0  # atno 10764 bound_to 10752
  154.0954  135.2937  155.3242 H   0  0  0  0  0  0  0  0  0  0  0  0  # atno 10765 bound_to 10752
  140.2299  134.8132  157.3306 H   0  0  0  0  0  0  0  0  0  0  0  0  # atno 11005 bound_to 11000
  145.8069  140.9744  143.0969 LP  0  0  0  0  0  0  0  0  0  0  0  0  # atno 17320 bound_to 7965
  144.6810  139.9872  143.7484 LP  0  0  0  0  0  0  0  0  0  0  0  0  # atno 17321 bound_to 7965
  139.5785  144.7499  151.3702 LP  0  0  0  0  0  0  0  0  0  0  0  0  # atno 17342 bound_to 10162
  140.7082  143.7458  150.7520 LP  0  0  0  0  0  0  0  0  0  0  0  0  # atno 17343 bound_to 10162
  156.1912  130.3655  149.8907 LP  0  0  0  0  0  0  0  0  0  0  0  0  # atno 17370 bound_to 10713
  156.6835  130.8867  151.3579 LP  0  0  0  0  0  0  0  0  0  0  0  0  # atno 17371 bound_to 10713
  140.1761  134.4548  155.7801 LP  0  0  0  0  0  0  0  0  0  0  0  0  # atno 17394 bound_to 11000
  141.2218  133.6963  156.7790 LP  0  0  0  0  0  0  0  0  0  0  0  0  # atno 17395 bound_to 11000

$$$$
