AV-unprocessed.smi:675|AV-procd|sdf|3305|dock8
  -GOLD-   22720 0263D 1   1.00000     0.00000
 Structure written by MMmdl.
 28 29  0  0  0  0  0  0  0  0  2 V2000
  149.1399  141.2368  153.9995 O   0  0  0  0  0  0  0  0  0  0  0  0
  149.7092  141.0021  155.0644 C   0  0  0  0  0  0  0  0  0  0  0  0
  150.9744  140.4935  155.1270 N   0  5  0  0  0  0  0  0  0  0  0  0
  151.6229  140.2218  156.3011 C   0  0  0  0  0  0  0  0  0  0  0  0
  152.7625  139.7573  156.3272 O   0  0  0  0  0  0  0  0  0  0  0  0
  150.9786  140.4693  157.4811 N   0  0  0  0  0  0  0  0  0  0  0  0
  151.5749  140.1891  158.7972 C   0  0  0  0  0  0  0  0  0  0  0  0
  152.7872  141.0972  159.1049 C   0  0  2  0  0  0  0  0  0  0  0  0
  153.4615  140.5594  160.2252 O   0  0  0  0  0  0  0  0  0  0  0  0
  152.4019  142.5626  159.3097 C   0  0  0  0  0  0  0  0  0  0  0  0
  151.8946  143.2973  158.2135 C   0  0  0  0  0  0  0  0  0  0  0  0
  151.5522  144.6551  158.3535 C   0  0  0  0  0  0  0  0  0  0  0  0
  151.7143  145.2955  159.5947 C   0  0  0  0  0  0  0  0  0  0  0  0
  152.2205  144.5760  160.6923 C   0  0  0  0  0  0  0  0  0  0  0  0
  152.5665  143.2163  160.5587 C   0  0  0  0  0  0  0  0  0  0  0  0
  153.1971  142.3972  161.9453 Cl  0  0  0  0  0  0  0  0  0  0  0  0
  149.6779  141.0003  157.4715 C   0  0  0  0  0  0  0  0  0  0  0  0
  149.0230  141.2714  156.3262 C   0  0  0  0  0  0  0  0  0  0  0  0
  147.4184  141.9110  156.3474 Cl  0  0  0  0  0  0  0  0  0  0  0  0
  150.8343  140.2757  159.5938 H   0  0  0  0  0  0  0  0  0  0  0  0
  151.8877  139.1438  158.8219 H   0  0  0  0  0  0  0  0  0  0  0  0
  153.4976  141.0143  158.2841 H   0  0  0  0  0  0  0  0  0  0  0  0
  153.7132  139.6713  160.0239 H   0  0  0  0  0  0  0  0  0  0  0  0
  151.7778  142.8217  157.2506 H   0  0  0  0  0  0  0  0  0  0  0  0
  151.1708  145.2060  157.5067 H   0  0  0  0  0  0  0  0  0  0  0  0
  151.4553  146.3383  159.7041 H   0  0  0  0  0  0  0  0  0  0  0  0
  152.3492  145.0727  161.6427 H   0  0  0  0  0  0  0  0  0  0  0  0
  149.2457  141.1612  158.4485 H   0  0  0  0  0  0  0  0  0  0  0  0
  1  2  2  0  0  0  0
  2 18  1  0  0  0  0
  2  3  1  0  0  0  0
  3  4  1  0  0  0  0
  4  5  2  0  0  0  0
  4  6  1  0  0  0  0
  6  7  1  0  0  0  0
  6 17  1  0  0  0  0
  7  8  1  0  0  0  0
  7 20  1  0  0  0  0
  7 21  1  0  0  0  0
  8  9  1  0  0  0  0
  8 10  1  0  0  0  0
  8 22  1  0  0  0  0
  9 23  1  0  0  0  0
 10 15  1  0  0  0  0
 10 11  2  0  0  0  0
 11 12  1  0  0  0  0
 11 24  1  0  0  0  0
 12 13  2  0  0  0  0
 12 25  1  0  0  0  0
 13 14  1  0  0  0  0
 13 26  1  0  0  0  0
 14 15  2  0  0  0  0
 14 27  1  0  0  0  0
 15 16  1  0  0  0  0
 17 18  2  0  0  0  0
 17 28  1  0  0  0  0
 18 19  1  0  0  0  0
M  CHG  1   3  -1
M  END
> <s_m_source_file>
AV-unprocessed.smi

> <i_m_source_file_index>
675

> <i_lp_mmshare_version>
43012

> <i_f3d_flags>
0

> <s_epik_input>
Tz1jMVtuSF1jKD1PKW4oW2NIXWMxQ2wpW0NIMl1bQ0BIXShbT0hdKWMyW2NIXVtjSF1bY0hdW2NIXWMyQ2w=

> <s_epik_cmdline>
J2VwaWtfcHl0aG9uJywgJy1waCcsICc3LjAnLCAnLXRuJywgJzgnLCAnLW1hJywgJzIwMCcsICctbWV0YWxfYmluZGluZycsICctaW1hZScsICc8aW5maWxlLm1hZT4nLCAnLW9tYWUnLCAnPG91dGZpbGUubWFlPic=

> <r_epik_Ionization_Penalty>
1.79791

> <r_epik_Ionization_Penalty_Charging>
3.23819e-08

> <r_epik_Ionization_Penalty_Neutral>
1.79791

> <r_epik_State_Penalty>
1.91135

> <r_epik_Charging_Adjusted_Penalty>
1.91135

> <i_epik_Tot_Q>
-1

> <i_epik_Tot_abs_Q>
1

> <r_epik_Metal_State_Penalty>
0.014155

> <b_epik_Metal_Only>
0

> <s_lp_Force_Field>
OPLS_2005

> <r_lp_Energy>
20.012

> <b_lp_Chiralities_Consistent>
1

> <s_lp_Variant>
AV-unprocessed.smi:675-3

> <Gold.Version>
5.8.1

> <Gold.Id.Protein>
6NUR|6NUR_protein|mol2

> <Gold.PLP.Fitness>
53.2044

> <Gold.PLP.PLP>
-45.3347

> <Gold.PLP.part.hbond>
-4.0000

> <Gold.PLP.part.metal>
0.0000

> <Gold.PLP.part.buried>
-4.2347

> <Gold.PLP.part.nonpolar>
-36.5321

> <Gold.PLP.part.repulsive>
0.4643

> <Gold.PLP.ligand.clash>
0.0000

> <Gold.PLP.ligand.torsion>
0.2032

> <Gold.PLP.Chemscore.Hbond>
2.7531

> <Gold.PLP.Chemscore.CHOScore>
0.0000

> <Gold.PLP.Chemscore.Metal>
0.0000

> <Gold.Chemscore.Hbonds>
donor molecule, donor type, donor heavy atom, donor atom, acceptor molecule, acceptor atom, score
      P1  H  7989  7998       L1     3  1.00
      P1  H  7997  8009       L1     5  1.00
      P1  H  8011  8017       L1     1  0.57

> <Gold.PLP.Chemscore.Internal.Correction>
0.0168

> <Gold.Rescore>
     Score         DG    S(hbond)    S(metal)    S(lipo)     H(rot)  DE(clash)    DE(int)     intcor
     18.22     -20.42       2.39        0.00     106.11       2.13       0.14       2.05       ----

> <Gold.Chemscore.Fitness>
18.2244

> <Gold.Chemscore.DG>
-20.4160

> <Gold.Chemscore.ZeroCoef>
-5.4800

> <Gold.Chemscore.Hbond>
2.3857

> <Gold.Chemscore.Metal>
0.0000

> <Gold.Chemscore.Lipo>
106.1104

> <Gold.Chemscore.Internal_Hbond>
0.0000

> <Gold.Chemscore.DEClash>
0.1432

> <Gold.Chemscore.DEInternal>
2.0484

> <Gold.Chemscore.Rot>
2.1278

> <Gold.Chemscore.Internal.Correction>
   9.000000E+99

> <Gold.Chemscore.Hbonds>
donor molecule, donor type, donor heavy atom, donor atom, acceptor molecule, acceptor atom, score
      P1  H  7989  7998       L1     3  0.37
      P1  H  7997  8009       L1     5  0.99
      P1  H  8011  8017       L1     1  0.56

> <Gold.Chemscore.Hbond.Weighted>
-7.9681

> <Gold.Chemscore.Metal.Weighted>
-0.0000

> <Gold.Chemscore.Lipo.Weighted>
-12.4149

> <Gold.Chemscore.Internal_Hbond.Weighted>
0.0000

> <Gold.Chemscore.DEClash.Weighted>
0.1432

> <Gold.Chemscore.DEInternal.Weighted>
2.0484

> <Gold.Chemscore.Rot.Weighted>
5.4470

> <Gold.Chemscore.Internal.Correction.Weighted>
   9.000000E+99

> <Gold.Protein.RotatedTorsions>
[ 6907 6896 6895 6894 ] final  -31.95 input  -60.11 | X-H torsion
[ 7974 7965 7964 7962 ] final -113.72 input  175.53 | X-H torsion
[ 8008 7997 7996 7995 ] final -167.16 input   59.86 | X-H torsion
[ 10167 10162 10161 10158 ] final -152.20 input  -65.29 | X-H torsion
[ 10718 10713 10712 10709 ] final  167.34 input   66.30 | X-H torsion
[ 10763 10752 10751 10750 ] final  -26.38 input  -60.55 | X-H torsion
[ 11005 11000 10999 10996 ] final  144.06 input  -57.11 | X-H torsion

> <Gold.Protein.ActiveResidues>
 VAL166  LYS551  ARG553  GLY616  TRP617  ASP618  TYR619  PRO620  LYS621  CYS622 
 ASP623  PHE694  ASN695  SER759  ASP760  ASP761  ALA762  ILE779  LEU786  VAL792 
 PHE793  MET794  SER795  GLU796  ALA797  LYS798  CYS799  TRP800  GLU811  SER814 

> <Gold.Protein.RotatedAtoms>
  151.0853  134.9883  159.8375 H   0  0  0  0  0  0  0  0  0  0  0  0  # atno 6907 bound_to 6896
  152.5424  134.2132  159.8768 H   0  0  0  0  0  0  0  0  0  0  0  0  # atno 6908 bound_to 6896
  151.2164  133.4483  159.2633 H   0  0  0  0  0  0  0  0  0  0  0  0  # atno 6909 bound_to 6896
  145.1286  140.8711  143.3771 H   0  0  0  0  0  0  0  0  0  0  0  0  # atno 7974 bound_to 7965
  155.8739  140.0998  157.1531 H   0  0  0  0  0  0  0  0  0  0  0  0  # atno 8008 bound_to 7997
  154.3999  140.1342  156.4175 H   0  0  0  0  0  0  0  0  0  0  0  0  # atno 8009 bound_to 7997
  155.7719  140.3460  155.5254 H   0  0  0  0  0  0  0  0  0  0  0  0  # atno 8010 bound_to 7997
  139.7201  143.8970  152.2500 H   0  0  0  0  0  0  0  0  0  0  0  0  # atno 10167 bound_to 10162
  157.0529  131.0318  151.2674 H   0  0  0  0  0  0  0  0  0  0  0  0  # atno 10718 bound_to 10713
  153.7150  135.6948  153.5027 H   0  0  0  0  0  0  0  0  0  0  0  0  # atno 10763 bound_to 10752
  153.2245  135.4358  155.0526 H   0  0  0  0  0  0  0  0  0  0  0  0  # atno 10764 bound_to 10752
  154.8303  135.3469  154.6685 H   0  0  0  0  0  0  0  0  0  0  0  0  # atno 10765 bound_to 10752
  140.0603  134.9208  157.1172 H   0  0  0  0  0  0  0  0  0  0  0  0  # atno 11005 bound_to 11000
  145.0660  139.3068  143.5856 LP  0  0  0  0  0  0  0  0  0  0  0  0  # atno 17320 bound_to 7965
  146.3515  140.0118  142.8666 LP  0  0  0  0  0  0  0  0  0  0  0  0  # atno 17321 bound_to 7965
  139.8864  144.6990  150.8820 LP  0  0  0  0  0  0  0  0  0  0  0  0  # atno 17342 bound_to 10162
  140.7752  143.3621  151.1809 LP  0  0  0  0  0  0  0  0  0  0  0  0  # atno 17343 bound_to 10162
  157.5016  130.7883  149.7610 LP  0  0  0  0  0  0  0  0  0  0  0  0  # atno 17370 bound_to 10713
  156.0002  130.3884  150.2636 LP  0  0  0  0  0  0  0  0  0  0  0  0  # atno 17371 bound_to 10713
  140.3781  134.2317  155.7173 LP  0  0  0  0  0  0  0  0  0  0  0  0  # atno 17394 bound_to 11000
  141.1970  133.8069  157.0647 LP  0  0  0  0  0  0  0  0  0  0  0  0  # atno 17395 bound_to 11000

$$$$
