AV-unprocessed.smi:297|AV-procd|sdf|2259|dock10
  -GOLD-   2262022143D 1   1.00000     0.00000
 Structure written by MMmdl.
 29 30  0  0  0  0  0  0  0  0  1 V2000
  154.8787  140.2523  160.9543 N   0  0  0  0  0  0  0  0  0  0  0  0
  154.0675  140.6579  160.2355 C   0  0  0  0  0  0  0  0  0  0  0  0
  153.0473  141.1680  159.3323 C   0  0  0  0  0  0  0  0  0  0  0  0
  152.8511  140.4745  158.1889 N   0  0  0  0  0  0  0  0  0  0  0  0
  151.9102  140.9040  157.3150 C   0  0  0  0  0  0  0  0  0  0  0  0
  151.7127  140.1722  156.1357 N   0  0  0  0  0  0  0  0  0  0  0  0
  152.5660  138.9961  156.0300 C   0  0  0  0  0  0  0  0  0  0  0  0
  152.3704  138.3305  154.6586 C   0  0  0  0  0  0  0  0  0  0  0  0
  150.9935  138.0145  154.4759 O   0  0  0  0  0  0  0  0  0  0  0  0
  150.1570  139.1731  154.5034 C   0  0  1  0  0  0  0  0  0  0  0  0
  148.7067  138.7504  154.2258 C   0  0  0  0  0  0  0  0  0  0  0  0
  148.1460  139.1835  153.0929 N   0  0  0  0  0  0  0  0  0  0  0  0
  148.0873  138.0550  155.0291 O   0  0  0  0  0  0  0  0  0  0  0  0
  150.3102  139.8723  155.8733 C   0  0  0  0  0  0  0  0  0  0  0  0
  151.1247  142.0501  157.5500 C   0  0  0  0  0  0  0  0  0  0  0  0
  151.3289  142.7748  158.7387 C   0  0  0  0  0  0  0  0  0  0  0  0
  152.3058  142.3323  159.6517 C   0  0  0  0  0  0  0  0  0  0  0  0
  152.5608  143.2187  161.1164 Cl  0  0  0  0  0  0  0  0  0  0  0  0
  153.6097  139.2837  156.1620 H   0  0  0  0  0  0  0  0  0  0  0  0
  152.3220  138.2875  156.8229 H   0  0  0  0  0  0  0  0  0  0  0  0
  152.7155  138.9829  153.8548 H   0  0  0  0  0  0  0  0  0  0  0  0
  152.9563  137.4133  154.5991 H   0  0  0  0  0  0  0  0  0  0  0  0
  150.4605  139.8523  153.7048 H   0  0  0  0  0  0  0  0  0  0  0  0
  147.1921  138.9314  152.8777 H   0  0  0  0  0  0  0  0  0  0  0  0
  148.6760  139.7650  152.4602 H   0  0  0  0  0  0  0  0  0  0  0  0
  149.9168  139.2338  156.6662 H   0  0  0  0  0  0  0  0  0  0  0  0
  149.7359  140.8000  155.8913 H   0  0  0  0  0  0  0  0  0  0  0  0
  150.3799  142.3690  156.8354 H   0  0  0  0  0  0  0  0  0  0  0  0
  150.7428  143.6580  158.9465 H   0  0  0  0  0  0  0  0  0  0  0  0
  1  2  3  0  0  0  0
  2  3  1  0  0  0  0
  3 17  1  0  0  0  0
  3  4  2  0  0  0  0
  4  5  1  0  0  0  0
  5  6  1  0  0  0  0
  5 15  2  0  0  0  0
  6 14  1  0  0  0  0
  6  7  1  0  0  0  0
  7  8  1  0  0  0  0
  7 19  1  0  0  0  0
  7 20  1  0  0  0  0
  8  9  1  0  0  0  0
  8 21  1  0  0  0  0
  8 22  1  0  0  0  0
  9 10  1  0  0  0  0
 10 11  1  0  0  0  0
 10 14  1  0  0  0  0
 10 23  1  0  0  0  0
 11 12  1  0  0  0  0
 11 13  2  0  0  0  0
 12 24  1  0  0  0  0
 12 25  1  0  0  0  0
 14 26  1  0  0  0  0
 14 27  1  0  0  0  0
 15 16  1  0  0  0  0
 15 28  1  0  0  0  0
 16 17  2  0  0  0  0
 16 29  1  0  0  0  0
 17 18  1  0  0  0  0
M  END
> <s_m_source_file>
AV-unprocessed.smi

> <i_m_source_file_index>
297

> <i_lp_mmshare_version>
43012

> <i_f3d_flags>
0

> <s_epik_input>
TiNDYzFuYyhbY0hdW2NIXWMxQ2wpTjJbQ0gyXVtDSDJdT1tDQEhdKFtDSDJdMilDKD1PKVtOSDJd

> <s_epik_cmdline>
J2VwaWtfcHl0aG9uJywgJy1waCcsICc3LjAnLCAnLXRuJywgJzgnLCAnLW1hJywgJzIwMCcsICctbWV0YWxfYmluZGluZycsICctaW1hZScsICc8aW5maWxlLm1hZT4nLCAnLW9tYWUnLCAnPG91dGZpbGUubWFlPic=

> <r_lp_tautomer_probability>
1

> <r_epik_Ionization_Penalty>
8.82403e-08

> <r_epik_Ionization_Penalty_Charging>
0

> <r_epik_Ionization_Penalty_Neutral>
8.82403e-08

> <r_epik_State_Penalty>
-0

> <r_epik_Charging_Adjusted_Penalty>
0

> <i_epik_Tot_Q>
0

> <i_epik_Tot_abs_Q>
0

> <r_epik_Metal_State_Penalty>
-0

> <b_epik_Metal_Only>
0

> <s_lp_Force_Field>
OPLS_2005

> <r_lp_Energy>
18.8034

> <b_lp_Chiralities_Consistent>
1

> <s_lp_Variant>
AV-unprocessed.smi:297-1

> <Gold.Version>
5.8.1

> <Gold.Id.Protein>
6NUR|6NUR_protein|mol2

> <Gold.PLP.Fitness>
38.4915

> <Gold.PLP.PLP>
-33.5781

> <Gold.PLP.part.hbond>
-2.3839

> <Gold.PLP.part.metal>
0.0000

> <Gold.PLP.part.buried>
-4.6424

> <Gold.PLP.part.nonpolar>
-26.2790

> <Gold.PLP.part.repulsive>
0.3749

> <Gold.PLP.ligand.clash>
0.0000

> <Gold.PLP.ligand.torsion>
0.1901

> <Gold.PLP.Chemscore.Hbond>
1.7301

> <Gold.PLP.Chemscore.CHOScore>
0.0000

> <Gold.PLP.Chemscore.Metal>
0.0000

> <Gold.Chemscore.Hbonds>
donor molecule, donor type, donor heavy atom, donor atom, acceptor molecule, acceptor atom, score
      L1  H    12    25       P1  7957  1.00
      P1  H  7997  8009       L1     4  0.65

> <Gold.PLP.Chemscore.Internal.Correction>
0.1034

> <Gold.Rescore>
     Score         DG    S(hbond)    S(metal)    S(lipo)     H(rot)  DE(clash)    DE(int)     intcor
     15.42     -15.60       1.51        0.00      76.09       1.50       0.01       0.17       ----

> <Gold.Chemscore.Fitness>
15.4170

> <Gold.Chemscore.DG>
-15.5978

> <Gold.Chemscore.ZeroCoef>
-5.4800

> <Gold.Chemscore.Hbond>
1.5141

> <Gold.Chemscore.Metal>
0.0000

> <Gold.Chemscore.Lipo>
76.0885

> <Gold.Chemscore.Internal_Hbond>
0.0000

> <Gold.Chemscore.DEClash>
0.0082

> <Gold.Chemscore.DEInternal>
0.1725

> <Gold.Chemscore.Rot>
1.5006

> <Gold.Chemscore.Internal.Correction>
   9.000000E+99

> <Gold.Chemscore.Hbonds>
donor molecule, donor type, donor heavy atom, donor atom, acceptor molecule, acceptor atom, score
      L1  H    12    25       P1  7957  0.97
      P1  H  7997  8009       L1     4  0.19

> <Gold.Chemscore.Hbond.Weighted>
-5.0570

> <Gold.Chemscore.Metal.Weighted>
-0.0000

> <Gold.Chemscore.Lipo.Weighted>
-8.9024

> <Gold.Chemscore.Internal_Hbond.Weighted>
0.0000

> <Gold.Chemscore.DEClash.Weighted>
0.0082

> <Gold.Chemscore.DEInternal.Weighted>
0.1725

> <Gold.Chemscore.Rot.Weighted>
3.8416

> <Gold.Chemscore.Internal.Correction.Weighted>
   9.000000E+99

> <Gold.Protein.RotatedTorsions>
[ 6907 6896 6895 6894 ] final  174.61 input  -60.11 | X-H torsion
[ 7974 7965 7964 7962 ] final   25.65 input  175.53 | X-H torsion
[ 8008 7997 7996 7995 ] final  165.14 input   59.86 | X-H torsion
[ 10167 10162 10161 10158 ] final   97.77 input  -65.29 | X-H torsion
[ 10718 10713 10712 10709 ] final   72.56 input   66.30 | X-H torsion
[ 10763 10752 10751 10750 ] final  -21.56 input  -60.55 | X-H torsion
[ 11005 11000 10999 10996 ] final -143.36 input  -57.11 | X-H torsion

> <Gold.Protein.ActiveResidues>
 VAL166  LYS551  ARG553  GLY616  TRP617  ASP618  TYR619  PRO620  LYS621  CYS622 
 ASP623  PHE694  ASN695  SER759  ASP760  ASP761  ALA762  ILE779  LEU786  VAL792 
 PHE793  MET794  SER795  GLU796  ALA797  LYS798  CYS799  TRP800  GLU811  SER814 

> <Gold.Protein.RotatedAtoms>
  151.7495  133.3326  159.3387 H   0  0  0  0  0  0  0  0  0  0  0  0  # atno 6907 bound_to 6896
  150.7541  134.6205  159.6143 H   0  0  0  0  0  0  0  0  0  0  0  0  # atno 6908 bound_to 6896
  152.3478  134.7049  160.0297 H   0  0  0  0  0  0  0  0  0  0  0  0  # atno 6909 bound_to 6896
  146.1878  139.7436  142.8854 H   0  0  0  0  0  0  0  0  0  0  0  0  # atno 7974 bound_to 7965
  156.1824  140.1678  156.8248 H   0  0  0  0  0  0  0  0  0  0  0  0  # atno 8008 bound_to 7997
  154.5375  140.0743  156.8486 H   0  0  0  0  0  0  0  0  0  0  0  0  # atno 8009 bound_to 7997
  155.3280  140.3377  155.4242 H   0  0  0  0  0  0  0  0  0  0  0  0  # atno 8010 bound_to 7997
  139.7770  144.6902  151.0076 H   0  0  0  0  0  0  0  0  0  0  0  0  # atno 10167 bound_to 10162
  157.6506  130.9584  150.0945 H   0  0  0  0  0  0  0  0  0  0  0  0  # atno 10718 bound_to 10713
  153.6380  135.6986  153.5251 H   0  0  0  0  0  0  0  0  0  0  0  0  # atno 10763 bound_to 10752
  153.2805  135.4187  155.1073 H   0  0  0  0  0  0  0  0  0  0  0  0  # atno 10764 bound_to 10752
  154.8506  135.3601  154.5924 H   0  0  0  0  0  0  0  0  0  0  0  0  # atno 10765 bound_to 10752
  140.8133  134.2718  157.4931 H   0  0  0  0  0  0  0  0  0  0  0  0  # atno 11005 bound_to 11000
  145.3886  141.0369  143.3136 LP  0  0  0  0  0  0  0  0  0  0  0  0  # atno 17320 bound_to 7965
  144.8429  139.5443  143.6892 LP  0  0  0  0  0  0  0  0  0  0  0  0  # atno 17321 bound_to 7965
  140.7817  143.4525  151.0392 LP  0  0  0  0  0  0  0  0  0  0  0  0  # atno 17342 bound_to 10162
  139.8207  143.7824  152.3176 LP  0  0  0  0  0  0  0  0  0  0  0  0  # atno 17343 bound_to 10162
  156.1885  130.3653  149.8941 LP  0  0  0  0  0  0  0  0  0  0  0  0  # atno 17370 bound_to 10713
  156.6875  130.8882  151.3584 LP  0  0  0  0  0  0  0  0  0  0  0  0  # atno 17371 bound_to 10713
  139.8712  134.9495  156.4028 LP  0  0  0  0  0  0  0  0  0  0  0  0  # atno 17394 bound_to 11000
  140.9175  133.7668  155.9866 LP  0  0  0  0  0  0  0  0  0  0  0  0  # atno 17395 bound_to 11000

$$$$
