AV-unprocessed.smi:19|AV-procd|sdf|110|dock7
  -GOLD-   2262015273D 1   1.00000     0.00000
 Structure written by MMmdl.
 57 60  0  0  0  0  0  0  0  0  1 V2000
  148.0216  127.7962  152.3969 C   0  0  0  0  0  0  0  0  0  0  0  0
  147.1447  128.5553  151.5833 O   0  0  0  0  0  0  0  0  0  0  0  0
  145.9030  128.8135  152.2175 C   0  0  0  0  0  0  0  0  0  0  0  0
  145.7332  130.3277  152.3941 C   0  0  1  0  0  0  0  0  0  0  0  0
  146.9341  130.9553  153.1270 C   0  0  0  0  0  0  0  0  0  0  0  0
  146.7921  132.4068  153.1791 N   0  0  0  0  0  0  0  0  0  0  0  0
  147.6386  133.0340  154.0355 C   0  0  0  0  0  0  0  0  0  0  0  0
  148.8440  132.4762  154.3299 N   0  0  0  0  0  0  0  0  0  0  0  0
  149.6776  133.0788  155.1824 C   0  0  0  0  0  0  0  0  0  0  0  0
  149.5120  134.2283  155.8384 N   0  0  0  0  0  0  0  0  0  0  0  0
  148.3123  134.8025  155.5382 C   0  0  0  0  0  0  0  0  0  0  0  0
  147.3242  134.2755  154.6583 C   0  0  0  0  0  0  0  0  0  0  0  0
  146.2360  135.1381  154.6013 N   0  0  0  0  0  0  0  0  0  0  0  0
  146.5560  136.1099  155.4106 C   0  0  0  0  0  0  0  0  0  0  0  0
  147.7939  135.9997  156.0039 N   0  0  0  0  0  0  0  0  0  0  0  0
  148.3956  136.9373  156.9433 C   0  0  0  0  0  0  0  0  0  0  0  0
  149.7131  137.6087  156.4518 C   0  0  0  0  0  0  0  0  0  0  0  0
  150.9308  137.0868  157.2667 C   0  0  0  0  0  0  0  0  0  0  0  0
  151.1929  135.7199  157.0213 O   0  0  0  0  0  0  0  0  0  0  0  0
  149.9318  137.3085  154.9465 C   0  0  0  0  0  0  0  0  0  0  0  0
  151.0187  138.1905  154.3031 C   0  0  0  0  0  0  0  0  0  0  0  0
  150.7189  139.5652  154.5031 O   0  0  0  0  0  0  0  0  0  0  0  0
  150.6787  139.9255  155.8773 C   0  0  0  0  0  0  0  0  0  0  0  0
  149.5587  139.1448  156.5869 C   0  0  0  0  0  0  0  0  0  0  0  0
  146.5765  133.0064  151.8648 C   0  0  0  0  0  0  0  0  0  0  0  0
  145.3924  132.3231  151.1572 C   0  0  1  0  0  0  0  0  0  0  0  0
  145.2025  132.8364  149.7260 C   0  0  0  0  0  0  0  0  0  0  0  0
  145.6343  130.9201  151.1008 O   0  0  0  0  0  0  0  0  0  0  0  0
  148.9565  127.6220  151.8644 H   0  0  0  0  0  0  0  0  0  0  0  0
  147.5894  126.8260  152.6453 H   0  0  0  0  0  0  0  0  0  0  0  0
  148.2548  128.3231  153.3230 H   0  0  0  0  0  0  0  0  0  0  0  0
  145.0989  128.4224  151.5919 H   0  0  0  0  0  0  0  0  0  0  0  0
  145.8440  128.3071  153.1823 H   0  0  0  0  0  0  0  0  0  0  0  0
  144.8212  130.5200  152.9621 H   0  0  0  0  0  0  0  0  0  0  0  0
  147.0126  130.5271  154.1254 H   0  0  0  0  0  0  0  0  0  0  0  0
  147.8607  130.7113  152.6054 H   0  0  0  0  0  0  0  0  0  0  0  0
  150.6102  132.5660  155.3659 H   0  0  0  0  0  0  0  0  0  0  0  0
  145.8950  136.9449  155.5917 H   0  0  0  0  0  0  0  0  0  0  0  0
  147.6481  137.7007  157.1633 H   0  0  0  0  0  0  0  0  0  0  0  0
  148.5630  136.4153  157.8862 H   0  0  0  0  0  0  0  0  0  0  0  0
  151.8286  137.6590  157.0326 H   0  0  0  0  0  0  0  0  0  0  0  0
  150.7768  137.1991  158.3383 H   0  0  0  0  0  0  0  0  0  0  0  0
  150.3692  135.2586  156.9791 H   0  0  0  0  0  0  0  0  0  0  0  0
  150.1884  136.2597  154.7964 H   0  0  0  0  0  0  0  0  0  0  0  0
  148.9994  137.4746  154.4053 H   0  0  0  0  0  0  0  0  0  0  0  0
  152.0092  137.9603  154.6959 H   0  0  0  0  0  0  0  0  0  0  0  0
  151.0606  137.9983  153.2309 H   0  0  0  0  0  0  0  0  0  0  0  0
  151.6486  139.7529  156.3450 H   0  0  0  0  0  0  0  0  0  0  0  0
  150.4850  140.9958  155.9489 H   0  0  0  0  0  0  0  0  0  0  0  0
  148.6086  139.4529  156.1486 H   0  0  0  0  0  0  0  0  0  0  0  0
  149.5083  139.4400  157.6352 H   0  0  0  0  0  0  0  0  0  0  0  0
  146.3762  134.0737  151.9692 H   0  0  0  0  0  0  0  0  0  0  0  0
  147.4819  132.9003  151.2653 H   0  0  0  0  0  0  0  0  0  0  0  0
  144.4736  132.5059  151.7175 H   0  0  0  0  0  0  0  0  0  0  0  0
  145.0034  133.9082  149.7169 H   0  0  0  0  0  0  0  0  0  0  0  0
  144.3627  132.3375  149.2419 H   0  0  0  0  0  0  0  0  0  0  0  0
  146.0913  132.6557  149.1209 H   0  0  0  0  0  0  0  0  0  0  0  0
  1  2  1  0  0  0  0
  1 29  1  0  0  0  0
  1 30  1  0  0  0  0
  1 31  1  0  0  0  0
  2  3  1  0  0  0  0
  3  4  1  0  0  0  0
  3 32  1  0  0  0  0
  3 33  1  0  0  0  0
  4 28  1  0  0  0  0
  4  5  1  0  0  0  0
  4 34  1  0  0  0  0
  5  6  1  0  0  0  0
  5 35  1  0  0  0  0
  5 36  1  0  0  0  0
  6  7  1  0  0  0  0
  6 25  1  0  0  0  0
  7 12  1  0  0  0  0
  7  8  2  0  0  0  0
  8  9  1  0  0  0  0
  9 10  2  0  0  0  0
  9 37  1  0  0  0  0
 10 11  1  0  0  0  0
 11 15  1  0  0  0  0
 11 12  2  0  0  0  0
 12 13  1  0  0  0  0
 13 14  2  0  0  0  0
 14 15  1  0  0  0  0
 14 38  1  0  0  0  0
 15 16  1  0  0  0  0
 16 17  1  0  0  0  0
 16 39  1  0  0  0  0
 16 40  1  0  0  0  0
 17 24  1  0  0  0  0
 17 18  1  0  0  0  0
 17 20  1  0  0  0  0
 18 19  1  0  0  0  0
 18 41  1  0  0  0  0
 18 42  1  0  0  0  0
 19 43  1  0  0  0  0
 20 21  1  0  0  0  0
 20 44  1  0  0  0  0
 20 45  1  0  0  0  0
 21 22  1  0  0  0  0
 21 46  1  0  0  0  0
 21 47  1  0  0  0  0
 22 23  1  0  0  0  0
 23 24  1  0  0  0  0
 23 48  1  0  0  0  0
 23 49  1  0  0  0  0
 24 50  1  0  0  0  0
 24 51  1  0  0  0  0
 25 26  1  0  0  0  0
 25 52  1  0  0  0  0
 25 53  1  0  0  0  0
 26 27  1  0  0  0  0
 26 28  1  0  0  0  0
 26 54  1  0  0  0  0
 27 55  1  0  0  0  0
 27 56  1  0  0  0  0
 27 57  1  0  0  0  0
M  END
> <s_m_source_file>
AV-unprocessed.smi

> <i_m_source_file_index>
19

> <i_lp_mmshare_version>
43012

> <i_f3d_flags>
0

> <s_epik_input>
W0NIM11PW0NIMl1bQ0BASF0xW0NIMl1OKFtDSDJdW0NASF0oTzEpW0NIM10pYyhuW2NIXW4yKWMoYzIzKW5bY0hdbjNbQ0gyXUM0KFtDSDJdW09IXSlbQ0gyXVtDSDJdT1tDSDJdW0NIMl00

> <s_epik_cmdline>
J2VwaWtfcHl0aG9uJywgJy1waCcsICc3LjAnLCAnLXRuJywgJzgnLCAnLW1hJywgJzIwMCcsICctbWV0YWxfYmluZGluZycsICctaW1hZScsICc8aW5maWxlLm1hZT4nLCAnLW9tYWUnLCAnPG91dGZpbGUubWFlPic=

> <r_lp_tautomer_probability>
1

> <r_epik_Ionization_Penalty>
6.20357e-05

> <r_epik_Ionization_Penalty_Charging>
0

> <r_epik_Ionization_Penalty_Neutral>
6.20357e-05

> <r_epik_State_Penalty>
-0

> <r_epik_Charging_Adjusted_Penalty>
0

> <i_epik_Tot_Q>
0

> <i_epik_Tot_abs_Q>
0

> <r_epik_Metal_State_Penalty>
-0

> <b_epik_Metal_Only>
0

> <s_lp_Force_Field>
OPLS_2005

> <r_lp_Energy>
35.6446

> <b_lp_Chiralities_Consistent>
1

> <s_lp_Variant>
AV-unprocessed.smi:19-2

> <Gold.Version>
5.8.1

> <Gold.Id.Protein>
6NUR|6NUR_protein|mol2

> <Gold.PLP.Fitness>
39.0656

> <Gold.PLP.PLP>
-36.5731

> <Gold.PLP.part.hbond>
-2.0000

> <Gold.PLP.part.metal>
0.0000

> <Gold.PLP.part.buried>
-8.2729

> <Gold.PLP.part.nonpolar>
-26.7317

> <Gold.PLP.part.repulsive>
1.4526

> <Gold.PLP.ligand.clash>
0.0000

> <Gold.PLP.ligand.torsion>
1.9664

> <Gold.PLP.Chemscore.Hbond>
2.0000

> <Gold.PLP.Chemscore.CHOScore>
0.0000

> <Gold.PLP.Chemscore.Metal>
0.0000

> <Gold.Chemscore.Hbonds>
donor molecule, donor type, donor heavy atom, donor atom, acceptor molecule, acceptor atom, score
      P1  H  7989  7998       L1    22  1.00

> <Gold.PLP.Chemscore.Internal.Correction>
0.4252

> <Gold.Rescore>
     Score         DG    S(hbond)    S(metal)    S(lipo)     H(rot)  DE(clash)    DE(int)     intcor
     11.95     -14.12       1.63        0.00      90.14       2.87       0.03       2.15       ----

> <Gold.Chemscore.Fitness>
11.9460

> <Gold.Chemscore.DG>
-14.1228

> <Gold.Chemscore.ZeroCoef>
-5.4800

> <Gold.Chemscore.Hbond>
1.6319

> <Gold.Chemscore.Metal>
0.0000

> <Gold.Chemscore.Lipo>
90.1443

> <Gold.Chemscore.Internal_Hbond>
0.0000

> <Gold.Chemscore.DEClash>
0.0279

> <Gold.Chemscore.DEInternal>
2.1489

> <Gold.Chemscore.Rot>
2.8729

> <Gold.Chemscore.Internal.Correction>
   9.000000E+99

> <Gold.Chemscore.Hbonds>
donor molecule, donor type, donor heavy atom, donor atom, acceptor molecule, acceptor atom, score
      P1  H  7989  7998       L1    22  0.76

> <Gold.Chemscore.Hbond.Weighted>
-5.4505

> <Gold.Chemscore.Metal.Weighted>
-0.0000

> <Gold.Chemscore.Lipo.Weighted>
-10.5469

> <Gold.Chemscore.Internal_Hbond.Weighted>
0.0000

> <Gold.Chemscore.DEClash.Weighted>
0.0279

> <Gold.Chemscore.DEInternal.Weighted>
2.1489

> <Gold.Chemscore.Rot.Weighted>
7.3546

> <Gold.Chemscore.Internal.Correction.Weighted>
   9.000000E+99

> <Gold.Protein.RotatedTorsions>
[ 6907 6896 6895 6894 ] final  -83.31 input  -60.11 | X-H torsion
[ 7974 7965 7964 7962 ] final -136.64 input  175.53 | X-H torsion
[ 8008 7997 7996 7995 ] final -119.23 input   59.86 | X-H torsion
[ 10167 10162 10161 10158 ] final  -48.52 input  -65.29 | X-H torsion
[ 10718 10713 10712 10709 ] final  -71.92 input   66.30 | X-H torsion
[ 10763 10752 10751 10750 ] final   84.67 input  -60.55 | X-H torsion
[ 11005 11000 10999 10996 ] final  148.98 input  -57.11 | X-H torsion

> <Gold.Protein.ActiveResidues>
 VAL166  LYS551  ARG553  GLY616  TRP617  ASP618  TYR619  PRO620  LYS621  CYS622 
 ASP623  PHE694  ASN695  SER759  ASP760  ASP761  ALA762  ILE779  LEU786  VAL792 
 PHE793  MET794  SER795  GLU796  ALA797  LYS798  CYS799  TRP800  GLU811  SER814 

> <Gold.Protein.RotatedAtoms>
  150.6887  134.3532  159.4917 H   0  0  0  0  0  0  0  0  0  0  0  0  # atno 6907 bound_to 6896
  152.1370  134.9089  160.0565 H   0  0  0  0  0  0  0  0  0  0  0  0  # atno 6908 bound_to 6896
  152.0237  133.3874  159.4305 H   0  0  0  0  0  0  0  0  0  0  0  0  # atno 6909 bound_to 6896
  144.8909  140.6641  143.5146 H   0  0  0  0  0  0  0  0  0  0  0  0  # atno 7974 bound_to 7965
  155.1123  140.0397  157.2727 H   0  0  0  0  0  0  0  0  0  0  0  0  # atno 8008 bound_to 7997
  154.6676  140.2605  155.7016 H   0  0  0  0  0  0  0  0  0  0  0  0  # atno 8009 bound_to 7997
  156.2645  140.2804  156.1172 H   0  0  0  0  0  0  0  0  0  0  0  0  # atno 8010 bound_to 7997
  140.6727  143.2737  151.4082 H   0  0  0  0  0  0  0  0  0  0  0  0  # atno 10167 bound_to 10162
  156.0342  130.4361  150.2516 H   0  0  0  0  0  0  0  0  0  0  0  0  # atno 10718 bound_to 10713
  153.1403  135.4645  154.9486 H   0  0  0  0  0  0  0  0  0  0  0  0  # atno 10763 bound_to 10752
  154.7741  135.3168  154.8130 H   0  0  0  0  0  0  0  0  0  0  0  0  # atno 10764 bound_to 10752
  153.8654  135.6908  153.4833 H   0  0  0  0  0  0  0  0  0  0  0  0  # atno 10765 bound_to 10752
  140.1005  134.8986  157.1789 H   0  0  0  0  0  0  0  0  0  0  0  0  # atno 11005 bound_to 11000
  145.3784  139.1642  143.4294 LP  0  0  0  0  0  0  0  0  0  0  0  0  # atno 17320 bound_to 7965
  146.3053  140.3863  142.8689 LP  0  0  0  0  0  0  0  0  0  0  0  0  # atno 17321 bound_to 7965
  139.6004  144.1308  152.2191 LP  0  0  0  0  0  0  0  0  0  0  0  0  # atno 17342 bound_to 10162
  140.0691  144.5794  150.7205 LP  0  0  0  0  0  0  0  0  0  0  0  0  # atno 17343 bound_to 10162
  157.0617  131.0091  151.3220 LP  0  0  0  0  0  0  0  0  0  0  0  0  # atno 17370 bound_to 10713
  157.5066  130.7912  149.7660 LP  0  0  0  0  0  0  0  0  0  0  0  0  # atno 17371 bound_to 10713
  140.3226  134.2899  155.7243 LP  0  0  0  0  0  0  0  0  0  0  0  0  # atno 17394 bound_to 11000
  141.2104  133.7719  156.9932 LP  0  0  0  0  0  0  0  0  0  0  0  0  # atno 17395 bound_to 11000

$$$$
