#       Name:                AV-unprocessed.smi:970
#       Creating user name   scv26
#       Creation time:       Fri Mar 27 02:19:58 2020


#       File generated by GOLD software.
#

@<TRIPOS>MOLECULE
AV-unprocessed.smi:970
    37    37     1
SMALL
NO_CHARGES


@<TRIPOS>ATOM
      1 ****        -3.7948   1.8846  -0.7999 C.3            1 S1                 0.0000
      2 ****        -3.1847   0.6837  -0.2509 N.am           1 S1                 0.0000
      3 ****        -2.0131   0.6635   0.4003 C.2            1 S1                 0.0000
      4 ****        -1.3407   1.6755   0.6071 O.2            1 S1                 0.0000
      5 ****        -1.5399  -0.7089   0.9078 C.3            1 S1                 0.0000
      6 ****        -1.8715  -0.8030   2.4062 C.3            1 S1                 0.0000
      7 ****        -0.0915  -0.8317   0.7575 N.am           1 S1                 0.0000
      8 ****         0.5447  -1.1872  -0.3708 C.2            1 S1                 0.0000
      9 ****        -0.0461  -1.5084  -1.4027 O.2            1 S1                 0.0000
     10 ****         2.0796  -1.1592  -0.3188 C.3            1 S1                 0.0000
     11 ****         2.7294  -2.1145  -1.3409 C.3            1 S1                 0.0000
     12 ****         2.5545   0.2123  -0.4592 N.pl3          1 S1                 0.0000
     13 ****         2.8543   1.1148   0.4777 C.2            1 S1                 0.0000
     14 ****         3.2058   2.2979  -0.0057 N.2            1 S1                 0.0000
     15 ****         3.0782   2.0446  -1.3418 C.2            1 S1                 0.0000
     16 ****         2.6813   0.8148  -1.6679 N.2            1 S1                 0.0000
     17 ****        -4.7335   1.6326  -1.2936 H              1 S1                 0.0000
     18 ****        -3.1384   2.3530  -1.5345 H              1 S1                 0.0000
     19 ****        -4.0073   2.6073  -0.0110 H              1 S1                 0.0000
     20 ****        -3.6790  -0.1874  -0.3790 H              1 S1                 0.0000
     21 ****        -2.0460  -1.5114   0.3675 H              1 S1                 0.0000
     22 ****        -2.9448  -0.7180   2.5806 H              1 S1                 0.0000
     23 ****        -1.3776  -0.0192   2.9828 H              1 S1                 0.0000
     24 ****        -1.5525  -1.7621   2.8150 H              1 S1                 0.0000
     25 ****         0.4694  -0.5797   1.5582 H              1 S1                 0.0000
     26 ****         2.3782  -1.5000   0.6741 H              1 S1                 0.0000
     27 ****         2.4017  -3.1422  -1.1805 H              1 S1                 0.0000
     28 ****         3.8157  -2.1010  -1.2482 H              1 S1                 0.0000
     29 ****         2.4829  -1.8468  -2.3691 H              1 S1                 0.0000
     30 ****         2.8081   0.9039   1.5361 H              1 S1                 0.0000
     31 ****         3.2778   2.7909  -2.0966 H              1 S1                 0.0000
     32 ****        -1.6634   2.5650   0.2836 LP             1 S1                 0.0000
     33 ****        -0.4724   1.6072   1.0984 LP             1 S1                 0.0000
     34 ****        -1.0458  -1.5123  -1.4259 LP             1 S1                 0.0000
     35 ****         0.4739  -1.7652  -2.2173 LP             1 S1                 0.0000
     36 ****         3.4835   3.1329   0.4695 LP             1 S1                 0.0000
     37 ****         2.5177   0.4318  -2.5770 LP             1 S1                 0.0000
@<TRIPOS>BOND
    1    1    2 1     
    2    1   17 1     
    3    1   18 1     
    4    1   19 1     
    5    2    3 am    
    6    2   20 1     
    7    3    4 2     
    8    3    5 1     
    9    5    6 1     
   10    5    7 1     
   11    5   21 1     
   12    6   22 1     
   13    6   23 1     
   14    6   24 1     
   15    7    8 am    
   16    7   25 1     
   17    8    9 2     
   18    8   10 1     
   19   10   11 1     
   20   10   12 1     
   21   10   26 1     
   22   11   27 1     
   23   11   28 1     
   24   11   29 1     
   25   12   16 1     
   26   12   13 1     
   27   13   14 2     
   28   13   30 1     
   29   14   15 1     
   30   15   16 2     
   31   15   31 1     
   32    4   32 1     
   33    4   33 1     
   34    9   34 1     
   35    9   35 1     
   36   14   36 1     
   37   16   37 1     
@<TRIPOS>SUBSTRUCTURE
      1 S1             1
@<TRIPOS>SET
LONE_PAIRS      STATIC     ATOMS    <user>   **** ""
6 32 33 34 35 36 37
DONOR_HYDROGENS      STATIC     ATOMS    <user>   **** ""
2 20 25
ATOM$BLUE        STATIC     ATOMS    COLORGROUP SYSTEM
6 32 33 34 35 36 37
ATOM$RED        STATIC     ATOMS    COLORGROUP SYSTEM
2 20 25
