#       Name:                AV-unprocessed.smi:2250
#       Creating user name   scv26
#       Creation time:       Fri Mar 27 12:29:58 2020


#       File generated by GOLD software.
#

@<TRIPOS>MOLECULE
AV-unprocessed.smi:2250
    48    49     1
SMALL
NO_CHARGES


@<TRIPOS>ATOM
      1 ****        -6.9026   4.7347   1.0192 C.3            1 S1                 0.0000
      2 ****        -5.7151   3.7966   1.0701 C.ar           1 S1                 0.0000
      3 ****        -5.8858   2.4150   1.2790 C.ar           1 S1                 0.0000
      4 ****        -4.7464   1.5885   1.3155 C.ar           1 S1                 0.0000
      5 ****        -3.4657   2.1607   1.1443 C.ar           1 S1                 0.0000
      6 ****        -2.3854   1.2405   1.1975 N.am           1 S1                 0.0000
      7 ****        -1.0682   1.4966   1.1114 C.2            1 S1                 0.0000
      8 ****        -0.5659   2.6144   0.9904 O.2            1 S1                 0.0000
      9 ****        -0.3529   0.3654   1.1790 N.am           1 S1                 0.0000
     10 ****         1.1013   0.2839   1.1144 C.3            1 S1                 0.0000
     11 ****         1.5296  -1.0489   0.4738 C.3            1 S1                 0.0000
     12 ****         3.0541  -1.2448   0.3967 C.2            1 S1                 0.0000
     13 ****         3.7902  -0.4156   0.9341 O.2            1 S1                 0.0000
     14 ****         3.5438  -2.3213  -0.2662 N.am           1 S1                 0.0000
     15 ****         2.7395  -3.3259  -0.9758 C.3            1 S1                 0.0000
     16 ****         2.9295  -3.1286  -2.4907 C.3            1 S1                 0.0000
     17 ****         4.4206  -3.2105  -2.8706 C.3            1 S1                 0.0000
     18 ****         5.2881  -2.2995  -1.9805 C.3            1 S1                 0.0000
     19 ****         4.9808  -2.5285  -0.4888 C.3            1 S1                 0.0000
     20 ****        -3.3115   3.4929   0.9416 N.ar           1 S1                 0.0000
     21 ****        -4.4041   4.2842   0.9059 C.ar           1 S1                 0.0000
     22 ****        -7.8100   4.2426   1.3707 H              1 S1                 0.0000
     23 ****        -7.0705   5.0742  -0.0030 H              1 S1                 0.0000
     24 ****        -6.7252   5.6081   1.6472 H              1 S1                 0.0000
     25 ****        -6.8709   1.9915   1.4098 H              1 S1                 0.0000
     26 ****        -4.8596   0.5261   1.4752 H              1 S1                 0.0000
     27 ****        -2.6466   0.2724   1.3121 H              1 S1                 0.0000
     28 ****        -0.8514  -0.5060   1.2845 H              1 S1                 0.0000
     29 ****         1.5083   1.1178   0.5390 H              1 S1                 0.0000
     30 ****         1.4941   0.3691   2.1286 H              1 S1                 0.0000
     31 ****         1.1030  -1.8778   1.0403 H              1 S1                 0.0000
     32 ****         1.1172  -1.0967  -0.5351 H              1 S1                 0.0000
     33 ****         3.0768  -4.3223  -0.6864 H              1 S1                 0.0000
     34 ****         1.6805  -3.2994  -0.7245 H              1 S1                 0.0000
     35 ****         2.3620  -3.8786  -3.0425 H              1 S1                 0.0000
     36 ****         2.5287  -2.1576  -2.7849 H              1 S1                 0.0000
     37 ****         4.7591  -4.2414  -2.7595 H              1 S1                 0.0000
     38 ****         4.5571  -2.9536  -3.9214 H              1 S1                 0.0000
     39 ****         6.3449  -2.4800  -2.1788 H              1 S1                 0.0000
     40 ****         5.0998  -1.2551  -2.2334 H              1 S1                 0.0000
     41 ****         5.6041  -1.8751   0.1230 H              1 S1                 0.0000
     42 ****         5.2489  -3.5461  -0.2011 H              1 S1                 0.0000
     43 ****        -4.2253   5.3367   0.7411 H              1 S1                 0.0000
     44 ****        -1.1515   3.4239   0.9489 LP             1 S1                 0.0000
     45 ****         0.4277   2.7127   0.9336 LP             1 S1                 0.0000
     46 ****         3.3948   0.3695   1.4108 LP             1 S1                 0.0000
     47 ****         4.7831  -0.5277   0.8935 LP             1 S1                 0.0000
     48 ****        -2.3992   3.8841   0.8200 LP             1 S1                 0.0000
@<TRIPOS>BOND
    1    1    2 1     
    2    1   22 1     
    3    1   23 1     
    4    1   24 1     
    5    2   21 ar    
    6    2    3 ar    
    7    3    4 ar    
    8    3   25 1     
    9    4    5 ar    
   10    4   26 1     
   11    5    6 1     
   12    5   20 ar    
   13    6    7 am    
   14    6   27 1     
   15    7    8 2     
   16    7    9 am    
   17    9   10 1     
   18    9   28 1     
   19   10   11 1     
   20   10   29 1     
   21   10   30 1     
   22   11   12 1     
   23   11   31 1     
   24   11   32 1     
   25   12   13 2     
   26   12   14 am    
   27   14   19 1     
   28   14   15 1     
   29   15   16 1     
   30   15   33 1     
   31   15   34 1     
   32   16   17 1     
   33   16   35 1     
   34   16   36 1     
   35   17   18 1     
   36   17   37 1     
   37   17   38 1     
   38   18   19 1     
   39   18   39 1     
   40   18   40 1     
   41   19   41 1     
   42   19   42 1     
   43   20   21 ar    
   44   21   43 1     
   45    8   44 1     
   46    8   45 1     
   47   13   46 1     
   48   13   47 1     
   49   20   48 1     
@<TRIPOS>SUBSTRUCTURE
      1 S1             1
@<TRIPOS>SET
LONE_PAIRS      STATIC     ATOMS    <user>   **** ""
5 44 45 46 47 48
DONOR_HYDROGENS      STATIC     ATOMS    <user>   **** ""
2 27 28
ATOM$BLUE        STATIC     ATOMS    COLORGROUP SYSTEM
5 44 45 46 47 48
ATOM$RED        STATIC     ATOMS    COLORGROUP SYSTEM
2 27 28
