AV-unprocessed.smi:844|AV-procd|sdf|3925|dock2
  -GOLD-   22720 1383D 1   1.00000     0.00000
 Structure written by MMmdl.
 33 35  0  0  0  0  0  0  0  0  2 V2000
  153.0478  139.3362  156.9802 O   0  0  0  0  0  0  0  0  0  0  0  0
  151.8762  140.0912  157.2111 C   0  0  2  0  0  0  0  0  0  0  0  0
  151.4662  140.7546  155.8807 C   0  0  0  0  0  0  0  0  0  0  0  0
  150.5878  139.9004  155.0716 N   0  0  0  0  0  0  0  0  0  0  0  0
  150.7710  138.6264  154.6297 C   0  0  0  0  0  0  0  0  0  0  0  0
  149.6742  138.2838  153.8986 N   0  3  0  0  0  0  0  0  0  0  0  0
  148.7755  139.3526  153.8770 C   0  0  0  0  0  0  0  0  0  0  0  0
  147.5311  139.4863  153.2690 C   0  0  0  0  0  0  0  0  0  0  0  0
  146.8702  140.7200  153.4448 C   0  0  0  0  0  0  0  0  0  0  0  0
  147.4470  141.7621  154.1999 C   0  0  0  0  0  0  0  0  0  0  0  0
  148.7096  141.6159  154.8112 C   0  0  0  0  0  0  0  0  0  0  0  0
  149.3555  140.3935  154.6320 C   0  0  0  0  0  0  0  0  0  0  0  0
  152.0530  141.1103  158.3314 C   0  0  0  0  0  0  0  0  0  0  0  0
  151.5591  142.4257  158.1826 C   0  0  0  0  0  0  0  0  0  0  0  0
  151.7039  143.3632  159.2232 C   0  0  0  0  0  0  0  0  0  0  0  0
  152.3411  142.9916  160.4221 C   0  0  0  0  0  0  0  0  0  0  0  0
  152.4774  143.8915  161.4244 F   0  0  0  0  0  0  0  0  0  0  0  0
  152.8322  141.6818  160.5796 C   0  0  0  0  0  0  0  0  0  0  0  0
  152.6884  140.7424  159.5401 C   0  0  0  0  0  0  0  0  0  0  0  0
  153.1546  139.4822  159.7153 F   0  0  0  0  0  0  0  0  0  0  0  0
  152.7999  138.5031  156.6091 H   0  0  0  0  0  0  0  0  0  0  0  0
  151.1116  139.3719  157.5043 H   0  0  0  0  0  0  0  0  0  0  0  0
  150.9391  141.6921  156.0647 H   0  0  0  0  0  0  0  0  0  0  0  0
  152.3423  141.0041  155.2804 H   0  0  0  0  0  0  0  0  0  0  0  0
  151.6348  138.0045  154.8161 H   0  0  0  0  0  0  0  0  0  0  0  0
  147.0869  138.6903  152.6895 H   0  0  0  0  0  0  0  0  0  0  0  0
  145.9011  140.8703  152.9912 H   0  0  0  0  0  0  0  0  0  0  0  0
  146.9105  142.6931  154.3126 H   0  0  0  0  0  0  0  0  0  0  0  0
  149.1448  142.4199  155.3866 H   0  0  0  0  0  0  0  0  0  0  0  0
  151.0620  142.7202  157.2697 H   0  0  0  0  0  0  0  0  0  0  0  0
  151.3241  144.3669  159.1022 H   0  0  0  0  0  0  0  0  0  0  0  0
  153.3180  141.3959  161.5010 H   0  0  0  0  0  0  0  0  0  0  0  0
  149.5511  137.3859  153.4482 H   0  0  0  0  0  0  0  0  0  0  0  0
  1  2  1  0  0  0  0
  1 21  1  0  0  0  0
  2  3  1  0  0  0  0
  2 13  1  0  0  0  0
  2 22  1  0  0  0  0
  3  4  1  0  0  0  0
  3 23  1  0  0  0  0
  3 24  1  0  0  0  0
  4 12  1  0  0  0  0
  4  5  1  0  0  0  0
  5  6  2  0  0  0  0
  5 25  1  0  0  0  0
  6  7  1  0  0  0  0
  6 33  1  0  0  0  0
  7 12  2  0  0  0  0
  7  8  1  0  0  0  0
  8  9  2  0  0  0  0
  8 26  1  0  0  0  0
  9 10  1  0  0  0  0
  9 27  1  0  0  0  0
 10 11  2  0  0  0  0
 10 28  1  0  0  0  0
 11 12  1  0  0  0  0
 11 29  1  0  0  0  0
 13 19  1  0  0  0  0
 13 14  2  0  0  0  0
 14 15  1  0  0  0  0
 14 30  1  0  0  0  0
 15 16  2  0  0  0  0
 15 31  1  0  0  0  0
 16 17  1  0  0  0  0
 16 18  1  0  0  0  0
 18 19  2  0  0  0  0
 18 32  1  0  0  0  0
 19 20  1  0  0  0  0
M  CHG  1   6   1
M  END
> <s_m_source_file>
AV-unprocessed.smi

> <i_m_source_file_index>
844

> <i_lp_mmshare_version>
43012

> <i_f3d_flags>
0

> <s_epik_input>
RmMxW2NIXWMoRilbY0hdW2NIXWMxW0NASF0oW09IXSlbQ0gyXW4oW2NIXW4yKWMoYzIzKVtjSF1bY0hdW2NIXVtjSF0z

> <s_epik_cmdline>
J2VwaWtfcHl0aG9uJywgJy1waCcsICc3LjAnLCAnLXRuJywgJzgnLCAnLW1hJywgJzIwMCcsICctbWV0YWxfYmluZGluZycsICctaW1hZScsICc8aW5maWxlLm1hZT4nLCAnLW9tYWUnLCAnPG91dGZpbGUubWFlPic=

> <r_epik_Ionization_Penalty>
1.3029

> <r_epik_Ionization_Penalty_Charging>
1.3029

> <r_epik_Ionization_Penalty_Neutral>
1.79538e-06

> <r_epik_State_Penalty>
1.377

> <r_epik_Charging_Adjusted_Penalty>
2.6799

> <i_epik_Tot_Q>
1

> <i_epik_Tot_abs_Q>
1

> <r_epik_Metal_State_Penalty>
5.40879

> <b_epik_Metal_Only>
0

> <s_lp_Force_Field>
OPLS_2005

> <r_lp_Energy>
17.7817

> <b_lp_Chiralities_Consistent>
1

> <s_lp_Variant>
AV-unprocessed.smi:844-3

> <Gold.Version>
5.8.1

> <Gold.Id.Protein>
6NUR|6NUR_protein|mol2

> <Gold.PLP.Fitness>
53.7770

> <Gold.PLP.PLP>
-46.3088

> <Gold.PLP.part.hbond>
-2.2216

> <Gold.PLP.part.metal>
0.0000

> <Gold.PLP.part.buried>
0.4080

> <Gold.PLP.part.nonpolar>
-43.5659

> <Gold.PLP.part.repulsive>
0.0447

> <Gold.PLP.ligand.clash>
0.0000

> <Gold.PLP.ligand.torsion>
0.7808

> <Gold.PLP.Chemscore.Hbond>
3.0000

> <Gold.PLP.Chemscore.CHOScore>
0.0000

> <Gold.PLP.Chemscore.Metal>
0.0000

> <Gold.Chemscore.Hbonds>
donor molecule, donor type, donor heavy atom, donor atom, acceptor molecule, acceptor atom, score
      L1  H     6    33       P1  7948  2.00
      P1  H  7997  8009       L1     1  1.00

> <Gold.PLP.Chemscore.Internal.Correction>
0.0298

> <Gold.Rescore>
     Score         DG    S(hbond)    S(metal)    S(lipo)     H(rot)  DE(clash)    DE(int)     intcor
     16.90     -19.36       1.85        0.00     110.76       2.06       0.28       2.18       ----

> <Gold.Chemscore.Fitness>
16.9047

> <Gold.Chemscore.DG>
-19.3607

> <Gold.Chemscore.ZeroCoef>
-5.4800

> <Gold.Chemscore.Hbond>
1.8547

> <Gold.Chemscore.Metal>
0.0000

> <Gold.Chemscore.Lipo>
110.7592

> <Gold.Chemscore.Internal_Hbond>
0.0000

> <Gold.Chemscore.DEClash>
0.2764

> <Gold.Chemscore.DEInternal>
2.1796

> <Gold.Chemscore.Rot>
2.0597

> <Gold.Chemscore.Internal.Correction>
   9.000000E+99

> <Gold.Chemscore.Hbonds>
donor molecule, donor type, donor heavy atom, donor atom, acceptor molecule, acceptor atom, score
      L1  H     6    33       P1  7948  0.79
      P1  H  7997  8009       L1     1  0.93

> <Gold.Chemscore.Hbond.Weighted>
-6.1946

> <Gold.Chemscore.Metal.Weighted>
-0.0000

> <Gold.Chemscore.Lipo.Weighted>
-12.9588

> <Gold.Chemscore.Internal_Hbond.Weighted>
0.0000

> <Gold.Chemscore.DEClash.Weighted>
0.2764

> <Gold.Chemscore.DEInternal.Weighted>
2.1796

> <Gold.Chemscore.Rot.Weighted>
5.2728

> <Gold.Chemscore.Internal.Correction.Weighted>
   9.000000E+99

> <Gold.Protein.RotatedTorsions>
[ 6907 6896 6895 6894 ] final  -41.39 input  -60.11 | X-H torsion
[ 7974 7965 7964 7962 ] final  132.17 input  175.53 | X-H torsion
[ 8008 7997 7996 7995 ] final  179.63 input   59.86 | X-H torsion
[ 10167 10162 10161 10158 ] final   69.72 input  -65.29 | X-H torsion
[ 10718 10713 10712 10709 ] final  -32.77 input   66.30 | X-H torsion
[ 10763 10752 10751 10750 ] final  -17.51 input  -60.55 | X-H torsion
[ 11005 11000 10999 10996 ] final -133.48 input  -57.11 | X-H torsion

> <Gold.Protein.ActiveResidues>
 VAL166  LYS551  ARG553  GLY616  TRP617  ASP618  TYR619  PRO620  LYS621  CYS622 
 ASP623  PHE694  ASN695  SER759  ASP760  ASP761  ALA762  ILE779  LEU786  VAL792 
 PHE793  MET794  SER795  GLU796  ALA797  LYS798  CYS799  TRP800  GLU811  SER814 

> <Gold.Protein.RotatedAtoms>
  150.9673  134.9051  159.7766 H   0  0  0  0  0  0  0  0  0  0  0  0  # atno 6907 bound_to 6896
  152.5178  134.3590  159.9288 H   0  0  0  0  0  0  0  0  0  0  0  0  # atno 6908 bound_to 6896
  151.3600  133.3852  159.2723 H   0  0  0  0  0  0  0  0  0  0  0  0  # atno 6909 bound_to 6896
  144.9997  139.4324  143.5298 H   0  0  0  0  0  0  0  0  0  0  0  0  # atno 7974 bound_to 7965
  156.0413  140.1304  157.0153 H   0  0  0  0  0  0  0  0  0  0  0  0  # atno 8008 bound_to 7997
  154.4392  140.1030  156.6311 H   0  0  0  0  0  0  0  0  0  0  0  0  # atno 8009 bound_to 7997
  155.5663  140.3465  155.4506 H   0  0  0  0  0  0  0  0  0  0  0  0  # atno 8010 bound_to 7997
  140.0648  144.5203  150.7269 H   0  0  0  0  0  0  0  0  0  0  0  0  # atno 10167 bound_to 10162
  156.3708  130.4339  149.7547 H   0  0  0  0  0  0  0  0  0  0  0  0  # atno 10718 bound_to 10713
  153.5749  135.7006  153.5488 H   0  0  0  0  0  0  0  0  0  0  0  0  # atno 10763 bound_to 10752
  153.3311  135.4047  155.1496 H   0  0  0  0  0  0  0  0  0  0  0  0  # atno 10764 bound_to 10752
  154.8627  135.3719  154.5274 H   0  0  0  0  0  0  0  0  0  0  0  0  # atno 10765 bound_to 10752
  140.9077  134.1608  157.4413 H   0  0  0  0  0  0  0  0  0  0  0  0  # atno 11005 bound_to 11000
  146.3449  139.9378  142.8745 LP  0  0  0  0  0  0  0  0  0  0  0  0  # atno 17320 bound_to 7965
  145.2171  140.9919  143.4067 LP  0  0  0  0  0  0  0  0  0  0  0  0  # atno 17321 bound_to 7965
  140.7154  143.2540  151.4449 LP  0  0  0  0  0  0  0  0  0  0  0  0  # atno 17342 bound_to 10162
  139.5872  144.1579  152.2043 LP  0  0  0  0  0  0  0  0  0  0  0  0  # atno 17343 bound_to 10162
  156.4675  130.7981  151.2999 LP  0  0  0  0  0  0  0  0  0  0  0  0  # atno 17370 bound_to 10713
  157.7483  131.0046  150.3083 LP  0  0  0  0  0  0  0  0  0  0  0  0  # atno 17371 bound_to 10713
  139.8752  134.9923  156.5591 LP  0  0  0  0  0  0  0  0  0  0  0  0  # atno 17394 bound_to 11000
  140.8150  133.8399  155.8844 LP  0  0  0  0  0  0  0  0  0  0  0  0  # atno 17395 bound_to 11000

$$$$
