AV-unprocessed.smi:218|AV-procd|sdf|1675|dock10
  -GOLD-   2262020103D 1   1.00000     0.00000
 Structure written by MMmdl.
 54 57  0  0  0  0  0  0  0  0  1 V2000
  151.4022  143.8985  158.1482 C   0  0  0  0  0  0  0  0  0  0  0  0
  150.8445  142.4936  157.8896 C   0  0  0  0  0  0  0  0  0  0  0  0
  151.3072  141.5039  158.9728 C   0  0  0  0  0  0  0  0  0  0  0  0
  151.3234  142.0867  156.6060 O   0  0  0  0  0  0  0  0  0  0  0  0
  150.6509  141.1150  155.8901 C   0  0  0  0  0  0  0  0  0  0  0  0
  149.2582  141.2546  155.7206 C   0  0  0  0  0  0  0  0  0  0  0  0
  148.5563  140.2714  154.9907 C   0  0  0  0  0  0  0  0  0  0  0  0
  147.0570  140.3669  154.7808 C   0  0  0  0  0  0  0  0  0  0  0  0
  146.3427  139.1293  155.0669 N   0  0  0  0  0  0  0  0  0  0  0  0
  146.2120  138.1864  154.1097 C   0  0  0  0  0  0  0  0  0  0  0  0
  145.9720  138.5305  152.8180 N   0  0  0  0  0  0  0  0  0  0  0  0
  145.8364  137.5793  151.8902 C   0  0  0  0  0  0  0  0  0  0  0  0
  145.9080  136.2551  152.0380 N   0  0  0  0  0  0  0  0  0  0  0  0
  146.1586  135.8994  153.3326 C   0  0  0  0  0  0  0  0  0  0  0  0
  146.3152  136.8055  154.4197 C   0  0  0  0  0  0  0  0  0  0  0  0
  146.5375  136.1008  155.5938 N   0  0  0  0  0  0  0  0  0  0  0  0
  146.5071  134.8509  155.2200 C   0  0  0  0  0  0  0  0  0  0  0  0
  146.3136  134.6330  153.8715 N   0  0  0  0  0  0  0  0  0  0  0  0
  146.2011  133.3030  153.1741 C   0  0  1  0  0  0  0  0  0  0  0  0
  145.0066  133.2602  152.4545 O   0  0  0  0  0  0  0  0  0  0  0  0
  145.2496  133.6726  151.1169 C   0  0  2  0  0  0  0  0  0  0  0  0
  144.0578  133.3316  150.2049 C   0  0  0  0  0  0  0  0  0  0  0  0
  143.9893  134.2385  149.1249 O   0  0  0  0  0  0  0  0  0  0  0  0
  146.5872  132.9869  150.8140 C   0  0  2  0  0  0  0  0  0  0  0  0
  146.3876  131.6298  150.4528 O   0  0  0  0  0  0  0  0  0  0  0  0
  147.3374  133.1428  152.1389 C   0  0  2  0  0  0  0  0  0  0  0  0
  148.1996  132.0546  152.4164 O   0  0  0  0  0  0  0  0  0  0  0  0
  149.2779  139.1790  154.4695 C   0  0  0  0  0  0  0  0  0  0  0  0
  150.6670  139.1236  154.6935 C   0  0  0  0  0  0  0  0  0  0  0  0
  151.3440  140.0644  155.3848 N   0  0  0  0  0  0  0  0  0  0  0  0
  146.2073  132.5700  153.9816 H   0  0  0  0  0  0  0  0  0  0  0  0
  145.3953  134.7550  151.1222 H   0  0  0  0  0  0  0  0  0  0  0  0
  147.1154  133.4790  149.9966 H   0  0  0  0  0  0  0  0  0  0  0  0
  147.9320  134.0560  152.0960 H   0  0  0  0  0  0  0  0  0  0  0  0
  151.0691  144.2823  159.1129 H   0  0  0  0  0  0  0  0  0  0  0  0
  151.0685  144.5974  157.3808 H   0  0  0  0  0  0  0  0  0  0  0  0
  152.4926  143.8979  158.1462 H   0  0  0  0  0  0  0  0  0  0  0  0
  149.7564  142.5728  157.8966 H   0  0  0  0  0  0  0  0  0  0  0  0
  150.9788  141.8268  159.9609 H   0  0  0  0  0  0  0  0  0  0  0  0
  152.3943  141.4239  158.9934 H   0  0  0  0  0  0  0  0  0  0  0  0
  150.9058  140.5046  158.8074 H   0  0  0  0  0  0  0  0  0  0  0  0
  148.7439  142.1028  156.1478 H   0  0  0  0  0  0  0  0  0  0  0  0
  146.6599  141.1626  155.4129 H   0  0  0  0  0  0  0  0  0  0  0  0
  146.8758  140.6572  153.7451 H   0  0  0  0  0  0  0  0  0  0  0  0
  145.9852  139.0272  156.0060 H   0  0  0  0  0  0  0  0  0  0  0  0
  145.6435  137.9278  150.8863 H   0  0  0  0  0  0  0  0  0  0  0  0
  146.6297  134.0438  155.9277 H   0  0  0  0  0  0  0  0  0  0  0  0
  144.1191  132.3118  149.8243 H   0  0  0  0  0  0  0  0  0  0  0  0
  143.1288  133.4017  150.7710 H   0  0  0  0  0  0  0  0  0  0  0  0
  144.7644  134.1302  148.5950 H   0  0  0  0  0  0  0  0  0  0  0  0
  147.2316  131.2427  150.2756 H   0  0  0  0  0  0  0  0  0  0  0  0
  148.5970  131.7714  151.6070 H   0  0  0  0  0  0  0  0  0  0  0  0
  148.7819  138.3996  153.9099 H   0  0  0  0  0  0  0  0  0  0  0  0
  151.2501  138.3006  154.3077 H   0  0  0  0  0  0  0  0  0  0  0  0
  1  2  1  0  0  0  0
  1 35  1  0  0  0  0
  1 36  1  0  0  0  0
  1 37  1  0  0  0  0
  2  3  1  0  0  0  0
  2  4  1  0  0  0  0
  2 38  1  0  0  0  0
  3 39  1  0  0  0  0
  3 40  1  0  0  0  0
  3 41  1  0  0  0  0
  4  5  1  0  0  0  0
  5 30  1  0  0  0  0
  5  6  2  0  0  0  0
  6  7  1  0  0  0  0
  6 42  1  0  0  0  0
  7  8  1  0  0  0  0
  7 28  2  0  0  0  0
  8  9  1  0  0  0  0
  8 43  1  0  0  0  0
  8 44  1  0  0  0  0
  9 10  1  0  0  0  0
  9 45  1  0  0  0  0
 10 15  1  0  0  0  0
 10 11  2  0  0  0  0
 11 12  1  0  0  0  0
 12 13  2  0  0  0  0
 12 46  1  0  0  0  0
 13 14  1  0  0  0  0
 14 18  1  0  0  0  0
 14 15  2  0  0  0  0
 15 16  1  0  0  0  0
 16 17  2  0  0  0  0
 17 18  1  0  0  0  0
 17 47  1  0  0  0  0
 18 19  1  0  0  0  0
 19 31  1  0  0  0  0
 19 26  1  0  0  0  0
 19 20  1  0  0  0  0
 20 21  1  0  0  0  0
 21 32  1  0  0  0  0
 21 22  1  0  0  0  0
 21 24  1  0  0  0  0
 22 23  1  0  0  0  0
 22 48  1  0  0  0  0
 22 49  1  0  0  0  0
 23 50  1  0  0  0  0
 24 33  1  0  0  0  0
 24 25  1  0  0  0  0
 24 26  1  0  0  0  0
 25 51  1  0  0  0  0
 26 34  1  0  0  0  0
 26 27  1  0  0  0  0
 27 52  1  0  0  0  0
 28 29  1  0  0  0  0
 28 53  1  0  0  0  0
 29 30  2  0  0  0  0
 29 54  1  0  0  0  0
M  END
> <s_m_source_file>
AV-unprocessed.smi

> <i_m_source_file_index>
218

> <i_lp_mmshare_version>
43012

> <i_f3d_flags>
0

> <s_epik_input>
W0NIM11bQ0hdKFtDSDNdKU9jMVtjSF1jKFtjSF1bY0hdbjEpW0NIMl1bTkhdYyhuW2NIXW4yKWMoYzIzKW5bY0hdbjNbQ0BASF00T1tDQEhdKFtDSDJdW09IXSlbQ0BASF0oW09IXSlbQ0BIXTRbT0hd

> <s_epik_cmdline>
J2VwaWtfcHl0aG9uJywgJy1waCcsICc3LjAnLCAnLXRuJywgJzgnLCAnLW1hJywgJzIwMCcsICctbWV0YWxfYmluZGluZycsICctaW1hZScsICc8aW5maWxlLm1hZT4nLCAnLW9tYWUnLCAnPG91dGZpbGUubWFlPic=

> <r_lp_tautomer_probability>
1

> <r_epik_Ionization_Penalty>
0.00457014

> <r_epik_Ionization_Penalty_Charging>
0

> <r_epik_Ionization_Penalty_Neutral>
0.00457014

> <r_epik_State_Penalty>
-0

> <r_epik_Charging_Adjusted_Penalty>
0

> <i_epik_Tot_Q>
0

> <i_epik_Tot_abs_Q>
0

> <r_epik_Metal_State_Penalty>
-0

> <b_epik_Metal_Only>
0

> <s_epik_Chemistry_Notes>
This compound contains an acetal/aminal-like group ( X-CH(R)-Y where X, Y are N, S, or O) that may be acid/base labile, releasing an aldehyde.

> <s_lp_Force_Field>
OPLS_2005

> <r_lp_Energy>
43.0364

> <b_lp_Chiralities_Consistent>
1

> <s_lp_Variant>
AV-unprocessed.smi:218-14

> <Gold.Version>
5.8.1

> <Gold.Id.Protein>
6NUR|6NUR_protein|mol2

> <Gold.PLP.Fitness>
49.5753

> <Gold.PLP.PLP>
-39.7853

> <Gold.PLP.part.hbond>
-4.9342

> <Gold.PLP.part.metal>
0.0000

> <Gold.PLP.part.buried>
-4.2459

> <Gold.PLP.part.nonpolar>
-33.6051

> <Gold.PLP.part.repulsive>
2.3548

> <Gold.PLP.ligand.clash>
0.0000

> <Gold.PLP.ligand.torsion>
1.3743

> <Gold.PLP.Chemscore.Hbond>
3.1350

> <Gold.PLP.Chemscore.CHOScore>
1.0000

> <Gold.PLP.Chemscore.Metal>
0.0000

> <Gold.Chemscore.Hbonds>
donor molecule, donor type, donor heavy atom, donor atom, acceptor molecule, acceptor atom, score
      L1  H    23    50       P1  7921  1.00
      L1  H    25    51       P1 10747  1.00
      L1  H    27    52       P1 10747  1.00
      P1  H  7989  7998       L1    30  0.11
      L1  C    12    46       P1 10171  1.00

> <Gold.PLP.Chemscore.Internal.Correction>
0.1337

> <Gold.Rescore>
     Score         DG    S(hbond)    S(metal)    S(lipo)     H(rot)  DE(clash)    DE(int)     intcor
      8.27     -12.13       2.96        0.00      79.73       4.90       1.25       2.62       ----

> <Gold.Chemscore.Fitness>
8.2669

> <Gold.Chemscore.DG>
-12.1333

> <Gold.Chemscore.ZeroCoef>
-5.4800

> <Gold.Chemscore.Hbond>
2.9571

> <Gold.Chemscore.Metal>
0.0000

> <Gold.Chemscore.Lipo>
79.7281

> <Gold.Chemscore.Internal_Hbond>
0.0000

> <Gold.Chemscore.DEClash>
1.2461

> <Gold.Chemscore.DEInternal>
2.6203

> <Gold.Chemscore.Rot>
4.9029

> <Gold.Chemscore.Internal.Correction>
   9.000000E+99

> <Gold.Chemscore.Hbonds>
donor molecule, donor type, donor heavy atom, donor atom, acceptor molecule, acceptor atom, score
      L1  H    23    50       P1  7921  0.96
      L1  H    25    51       P1 10747  1.00
      L1  H    27    52       P1 10747  0.99

> <Gold.Chemscore.Hbond.Weighted>
-9.8766

> <Gold.Chemscore.Metal.Weighted>
-0.0000

> <Gold.Chemscore.Lipo.Weighted>
-9.3282

> <Gold.Chemscore.Internal_Hbond.Weighted>
0.0000

> <Gold.Chemscore.DEClash.Weighted>
1.2461

> <Gold.Chemscore.DEInternal.Weighted>
2.6203

> <Gold.Chemscore.Rot.Weighted>
12.5515

> <Gold.Chemscore.Internal.Correction.Weighted>
   9.000000E+99

> <Gold.Protein.RotatedTorsions>
[ 6907 6896 6895 6894 ] final  100.29 input  -60.11 | X-H torsion
[ 7974 7965 7964 7962 ] final   33.24 input  175.53 | X-H torsion
[ 8008 7997 7996 7995 ] final  160.83 input   59.86 | X-H torsion
[ 10167 10162 10161 10158 ] final  -88.15 input  -65.29 | X-H torsion
[ 10718 10713 10712 10709 ] final   33.80 input   66.30 | X-H torsion
[ 10763 10752 10751 10750 ] final  -52.77 input  -60.55 | X-H torsion
[ 11005 11000 10999 10996 ] final   56.47 input  -57.11 | X-H torsion

> <Gold.Protein.ActiveResidues>
 VAL166  LYS551  ARG553  GLY616  TRP617  ASP618  TYR619  PRO620  LYS621  CYS622 
 ASP623  PHE694  ASN695  SER759  ASP760  ASP761  ALA762  ILE779  LEU786  VAL792 
 PHE793  MET794  SER795  GLU796  ALA797  LYS798  CYS799  TRP800  GLU811  SER814 

> <Gold.Protein.RotatedAtoms>
  152.5375  134.0299  159.8019 H   0  0  0  0  0  0  0  0  0  0  0  0  # atno 6907 bound_to 6896
  151.0472  133.5647  159.2653 H   0  0  0  0  0  0  0  0  0  0  0  0  # atno 6908 bound_to 6896
  151.2595  135.0657  159.9146 H   0  0  0  0  0  0  0  0  0  0  0  0  # atno 6909 bound_to 6896
  146.1434  139.6423  142.9148 H   0  0  0  0  0  0  0  0  0  0  0  0  # atno 7974 bound_to 7965
  156.2145  140.1793  156.7620 H   0  0  0  0  0  0  0  0  0  0  0  0  # atno 8008 bound_to 7997
  154.5771  140.0672  156.9079 H   0  0  0  0  0  0  0  0  0  0  0  0  # atno 8009 bound_to 7997
  155.2568  140.3333  155.4279 H   0  0  0  0  0  0  0  0  0  0  0  0  # atno 8010 bound_to 7997
  140.3775  143.2764  151.9424 H   0  0  0  0  0  0  0  0  0  0  0  0  # atno 10167 bound_to 10162
  157.3024  130.7357  149.6675 H   0  0  0  0  0  0  0  0  0  0  0  0  # atno 10718 bound_to 10713
  154.1481  135.6494  153.4957 H   0  0  0  0  0  0  0  0  0  0  0  0  # atno 10763 bound_to 10752
  153.0146  135.5331  154.6836 H   0  0  0  0  0  0  0  0  0  0  0  0  # atno 10764 bound_to 10752
  154.6116  135.2954  155.0397 H   0  0  0  0  0  0  0  0  0  0  0  0  # atno 10765 bound_to 10752
  140.0527  134.5714  155.9245 H   0  0  0  0  0  0  0  0  0  0  0  0  # atno 11005 bound_to 11000
  145.4994  141.0438  143.2549 LP  0  0  0  0  0  0  0  0  0  0  0  0  # atno 17320 bound_to 7965
  144.7818  139.6510  143.7151 LP  0  0  0  0  0  0  0  0  0  0  0  0  # atno 17321 bound_to 7965
  139.4798  144.5849  151.7870 LP  0  0  0  0  0  0  0  0  0  0  0  0  # atno 17342 bound_to 10162
  140.4971  144.1224  150.5962 LP  0  0  0  0  0  0  0  0  0  0  0  0  # atno 17343 bound_to 10162
  155.9672  130.4276  150.4750 LP  0  0  0  0  0  0  0  0  0  0  0  0  # atno 17370 bound_to 10713
  157.2734  131.0592  151.2245 LP  0  0  0  0  0  0  0  0  0  0  0  0  # atno 17371 bound_to 10713
  141.1938  133.6580  156.5563 LP  0  0  0  0  0  0  0  0  0  0  0  0  # atno 17394 bound_to 11000
  140.3893  134.7455  157.4711 LP  0  0  0  0  0  0  0  0  0  0  0  0  # atno 17395 bound_to 11000

$$$$
