AV-unprocessed.smi:2822|AV-procd|sdf|10879|dock3
  -GOLD-   2272015323D 1   1.00000     0.00000
 Structure written by MMmdl.
 40 42  0  0  0  0  0  0  0  0  2 V2000
  146.8677  141.4167  157.6120 Cl  0  0  0  0  0  0  0  0  0  0  0  0
  147.0586  141.0918  155.9244 C   0  0  0  0  0  0  0  0  0  0  0  0
  145.9772  141.3294  155.0511 C   0  0  0  0  0  0  0  0  0  0  0  0
  146.1078  141.0824  153.7305 N   0  3  0  0  0  0  0  0  0  0  0  0
  147.2483  140.6066  153.1875 C   0  0  0  0  0  0  0  0  0  0  0  0
  148.3642  140.3487  154.0092 C   0  0  0  0  0  0  0  0  0  0  0  0
  148.2782  140.5930  155.4029 C   0  0  0  0  0  0  0  0  0  0  0  0
  149.3527  140.3553  156.2735 N   0  0  0  0  0  0  0  0  0  0  0  0
  150.7303  140.4745  155.8202 C   0  0  0  0  0  0  0  0  0  0  0  0
  151.5955  141.2234  156.8426 C   0  0  1  0  0  0  0  0  0  0  0  0
  151.0388  142.6276  157.1418 C   0  0  0  0  0  0  0  0  0  0  0  0
  151.8184  143.3136  158.1640 N   0  0  0  0  0  0  0  0  0  0  0  0
  151.2791  144.6438  158.4411 C   0  0  0  0  0  0  0  0  0  0  0  0
  152.1049  145.4037  159.4910 C   0  0  0  0  0  0  0  0  0  0  0  0
  152.2010  144.5870  160.7876 C   0  0  0  0  0  0  0  0  0  0  0  0
  152.7155  143.1711  160.4840 C   0  0  0  0  0  0  0  0  0  0  0  0
  151.8688  142.4999  159.3826 C   0  0  2  0  0  0  0  0  0  0  0  0
  152.3977  141.0837  159.0757 C   0  0  0  0  0  0  0  0  0  0  0  0
  151.6059  140.4790  158.0580 O   0  0  0  0  0  0  0  0  0  0  0  0
  145.0164  141.7079  155.3686 H   0  0  0  0  0  0  0  0  0  0  0  0
  147.2349  140.4464  152.1192 H   0  0  0  0  0  0  0  0  0  0  0  0
  149.2668  139.9655  153.5571 H   0  0  0  0  0  0  0  0  0  0  0  0
  149.1805  140.3010  157.2680 H   0  0  0  0  0  0  0  0  0  0  0  0
  151.1328  139.4715  155.6735 H   0  0  0  0  0  0  0  0  0  0  0  0
  150.7625  140.9836  154.8560 H   0  0  0  0  0  0  0  0  0  0  0  0
  152.6143  141.3132  156.4602 H   0  0  0  0  0  0  0  0  0  0  0  0
  151.0344  143.2195  156.2258 H   0  0  0  0  0  0  0  0  0  0  0  0
  149.9995  142.5450  157.4643 H   0  0  0  0  0  0  0  0  0  0  0  0
  151.2533  145.2267  157.5197 H   0  0  0  0  0  0  0  0  0  0  0  0
  150.2463  144.5610  158.7830 H   0  0  0  0  0  0  0  0  0  0  0  0
  153.1053  145.5967  159.1011 H   0  0  0  0  0  0  0  0  0  0  0  0
  151.6545  146.3761  159.6918 H   0  0  0  0  0  0  0  0  0  0  0  0
  152.8574  145.0845  161.5022 H   0  0  0  0  0  0  0  0  0  0  0  0
  151.2174  144.5260  161.2549 H   0  0  0  0  0  0  0  0  0  0  0  0
  153.7583  143.2231  160.1675 H   0  0  0  0  0  0  0  0  0  0  0  0
  152.6964  142.5702  161.3938 H   0  0  0  0  0  0  0  0  0  0  0  0
  150.8528  142.3920  159.7670 H   0  0  0  0  0  0  0  0  0  0  0  0
  153.4407  141.1172  158.7568 H   0  0  0  0  0  0  0  0  0  0  0  0
  152.3567  140.4592  159.9684 H   0  0  0  0  0  0  0  0  0  0  0  0
  145.3116  141.2623  153.1181 H   0  0  0  0  0  0  0  0  0  0  0  0
  1  2  1  0  0  0  0
  2  7  1  0  0  0  0
  2  3  2  0  0  0  0
  3  4  1  0  0  0  0
  3 20  1  0  0  0  0
  4  5  2  0  0  0  0
  4 40  1  0  0  0  0
  5  6  1  0  0  0  0
  5 21  1  0  0  0  0
  6  7  2  0  0  0  0
  6 22  1  0  0  0  0
  7  8  1  0  0  0  0
  8  9  1  0  0  0  0
  8 23  1  0  0  0  0
  9 10  1  0  0  0  0
  9 24  1  0  0  0  0
  9 25  1  0  0  0  0
 10 19  1  0  0  0  0
 10 11  1  0  0  0  0
 10 26  1  0  0  0  0
 11 12  1  0  0  0  0
 11 27  1  0  0  0  0
 11 28  1  0  0  0  0
 12 17  1  0  0  0  0
 12 13  1  0  0  0  0
 13 14  1  0  0  0  0
 13 29  1  0  0  0  0
 13 30  1  0  0  0  0
 14 15  1  0  0  0  0
 14 31  1  0  0  0  0
 14 32  1  0  0  0  0
 15 16  1  0  0  0  0
 15 33  1  0  0  0  0
 15 34  1  0  0  0  0
 16 17  1  0  0  0  0
 16 35  1  0  0  0  0
 16 36  1  0  0  0  0
 17 18  1  0  0  0  0
 17 37  1  0  0  0  0
 18 19  1  0  0  0  0
 18 38  1  0  0  0  0
 18 39  1  0  0  0  0
M  CHG  1   4   1
M  END
> <s_m_source_file>
AV-unprocessed.smi

> <i_m_source_file_index>
2822

> <i_lp_mmshare_version>
43012

> <i_f3d_flags>
0

> <s_epik_input>
Q2xjMVtjSF1uW2NIXVtjSF1jMVtOSF1bQ0gyXVtDQEhdKFtDSDJdMilPW0NIMl1bQ0BASF0oTjIzKVtDSDJdW0NIMl1bQ0gyXVtDSDJdMw==

> <s_epik_cmdline>
J2VwaWtfcHl0aG9uJywgJy1waCcsICc3LjAnLCAnLXRuJywgJzgnLCAnLW1hJywgJzIwMCcsICctbWV0YWxfYmluZGluZycsICctaW1hZScsICc8aW5maWxlLm1hZT4nLCAnLW9tYWUnLCAnPG91dGZpbGUubWFlPic=

> <r_epik_Ionization_Penalty>
1.37653

> <r_epik_Ionization_Penalty_Charging>
0.152973

> <r_epik_Ionization_Penalty_Neutral>
1.22356

> <r_epik_State_Penalty>
1.42693

> <r_epik_Charging_Adjusted_Penalty>
1.5799

> <i_epik_Tot_Q>
1

> <i_epik_Tot_abs_Q>
1

> <r_epik_Metal_State_Penalty>
4.59822

> <b_epik_Metal_Only>
0

> <s_lp_Force_Field>
OPLS_2005

> <r_lp_Energy>
43.1838

> <b_lp_Chiralities_Consistent>
1

> <s_lp_Variant>
AV-unprocessed.smi:2822-20

> <Gold.Version>
5.8.1

> <Gold.Id.Protein>
6NUR|6NUR_protein|mol2

> <Gold.PLP.Fitness>
41.9533

> <Gold.PLP.PLP>
-36.5898

> <Gold.PLP.part.hbond>
-1.0000

> <Gold.PLP.part.metal>
0.0000

> <Gold.PLP.part.buried>
-5.4112

> <Gold.PLP.part.nonpolar>
-29.9562

> <Gold.PLP.part.repulsive>
0.0758

> <Gold.PLP.ligand.clash>
0.0000

> <Gold.PLP.ligand.torsion>
0.2946

> <Gold.PLP.Chemscore.Hbond>
1.9840

> <Gold.PLP.Chemscore.CHOScore>
0.0000

> <Gold.PLP.Chemscore.Metal>
0.0000

> <Gold.Chemscore.Hbonds>
donor molecule, donor type, donor heavy atom, donor atom, acceptor molecule, acceptor atom, score
      L1  H     4    40       P1 10175  1.41

> <Gold.PLP.Chemscore.Internal.Correction>
0.0006

> <Gold.Rescore>
     Score         DG    S(hbond)    S(metal)    S(lipo)     H(rot)  DE(clash)    DE(int)     intcor
     18.23     -18.93       0.99        0.00     112.51       1.18       0.50       0.20       ----

> <Gold.Chemscore.Fitness>
18.2292

> <Gold.Chemscore.DG>
-18.9293

> <Gold.Chemscore.ZeroCoef>
-5.4800

> <Gold.Chemscore.Hbond>
0.9891

> <Gold.Chemscore.Metal>
0.0000

> <Gold.Chemscore.Lipo>
112.5062

> <Gold.Chemscore.Internal_Hbond>
0.0000

> <Gold.Chemscore.DEClash>
0.5041

> <Gold.Chemscore.DEInternal>
0.1960

> <Gold.Chemscore.Rot>
1.1788

> <Gold.Chemscore.Internal.Correction>
   9.000000E+99

> <Gold.Chemscore.Hbonds>
donor molecule, donor type, donor heavy atom, donor atom, acceptor molecule, acceptor atom, score
      L1  H     4    40       P1 10175  0.10

> <Gold.Chemscore.Hbond.Weighted>
-3.3037

> <Gold.Chemscore.Metal.Weighted>
-0.0000

> <Gold.Chemscore.Lipo.Weighted>
-13.1632

> <Gold.Chemscore.Internal_Hbond.Weighted>
0.0000

> <Gold.Chemscore.DEClash.Weighted>
0.5041

> <Gold.Chemscore.DEInternal.Weighted>
0.1960

> <Gold.Chemscore.Rot.Weighted>
3.0177

> <Gold.Chemscore.Internal.Correction.Weighted>
   9.000000E+99

> <Gold.Protein.RotatedTorsions>
[ 6907 6896 6895 6894 ] final -161.58 input  -60.11 | X-H torsion
[ 7974 7965 7964 7962 ] final  138.63 input  175.53 | X-H torsion
[ 8008 7997 7996 7995 ] final  -22.56 input   59.86 | X-H torsion
[ 10167 10162 10161 10158 ] final  143.72 input  -65.29 | X-H torsion
[ 10718 10713 10712 10709 ] final -101.06 input   66.30 | X-H torsion
[ 10763 10752 10751 10750 ] final  120.54 input  -60.55 | X-H torsion
[ 11005 11000 10999 10996 ] final   -6.39 input  -57.11 | X-H torsion

> <Gold.Protein.ActiveResidues>
 VAL166  LYS551  ARG553  GLY616  TRP617  ASP618  TYR619  PRO620  LYS621  CYS622 
 ASP623  PHE694  ASN695  SER759  ASP760  ASP761  ALA762  ILE779  LEU786  VAL792 
 PHE793  MET794  SER795  GLU796  ALA797  LYS798  CYS799  TRP800  GLU811  SER814 

> <Gold.Protein.RotatedAtoms>
  151.3669  133.3869  159.2695 H   0  0  0  0  0  0  0  0  0  0  0  0  # atno 6907 bound_to 6896
  150.9681  134.9059  159.7782 H   0  0  0  0  0  0  0  0  0  0  0  0  # atno 6908 bound_to 6896
  152.5174  134.3631  159.9344 H   0  0  0  0  0  0  0  0  0  0  0  0  # atno 6909 bound_to 6896
  144.9354  139.4995  143.5597 H   0  0  0  0  0  0  0  0  0  0  0  0  # atno 7974 bound_to 7965
  154.4637  140.2004  156.0176 H   0  0  0  0  0  0  0  0  0  0  0  0  # atno 8008 bound_to 7997
  156.0887  140.3261  155.7759 H   0  0  0  0  0  0  0  0  0  0  0  0  # atno 8009 bound_to 7997
  155.4992  140.0552  157.2932 H   0  0  0  0  0  0  0  0  0  0  0  0  # atno 8010 bound_to 7997
  139.4963  144.6021  151.6458 H   0  0  0  0  0  0  0  0  0  0  0  0  # atno 10167 bound_to 10162
  156.0182  130.5356  150.6908 H   0  0  0  0  0  0  0  0  0  0  0  0  # atno 10718 bound_to 10713
  153.6001  135.3449  155.2942 H   0  0  0  0  0  0  0  0  0  0  0  0  # atno 10763 bound_to 10752
  154.8637  135.4225  154.2422 H   0  0  0  0  0  0  0  0  0  0  0  0  # atno 10764 bound_to 10752
  153.3248  135.7040  153.7070 H   0  0  0  0  0  0  0  0  0  0  0  0  # atno 10765 bound_to 10752
  140.7015  133.8986  155.8686 H   0  0  0  0  0  0  0  0  0  0  0  0  # atno 11005 bound_to 11000
  146.3264  139.8336  142.8904 LP  0  0  0  0  0  0  0  0  0  0  0  0  # atno 17320 bound_to 7965
  145.3074  141.0211  143.3574 LP  0  0  0  0  0  0  0  0  0  0  0  0  # atno 17321 bound_to 7965
  140.5673  144.0168  150.6199 LP  0  0  0  0  0  0  0  0  0  0  0  0  # atno 17342 bound_to 10162
  140.3273  143.3099  152.0723 LP  0  0  0  0  0  0  0  0  0  0  0  0  # atno 17343 bound_to 10162
  157.4590  131.0881  151.0766 LP  0  0  0  0  0  0  0  0  0  0  0  0  # atno 17370 bound_to 10713
  157.1259  130.6081  149.5517 LP  0  0  0  0  0  0  0  0  0  0  0  0  # atno 17371 bound_to 10713
  141.0160  134.0955  157.4171 LP  0  0  0  0  0  0  0  0  0  0  0  0  # atno 17394 bound_to 11000
  139.8895  135.0106  156.6686 LP  0  0  0  0  0  0  0  0  0  0  0  0  # atno 17395 bound_to 11000

$$$$
