AV-unprocessed.smi:899|AV-procd|sdf|4087|dock10
  -GOLD-   22720 1573D 1   1.00000     0.00000
 Structure written by MMmdl.
 33 34  0  0  0  0  0  0  0  0  1 V2000
  151.9002  145.8358  159.0277 N   0  0  0  0  0  0  0  0  0  0  0  0
  151.8052  145.1770  159.9740 C   0  0  0  0  0  0  0  0  0  0  0  0
  151.6846  144.3393  161.1769 C   0  0  0  0  0  0  0  0  0  0  0  0
  152.5471  143.0968  161.0951 C   0  0  0  0  0  0  0  0  0  0  0  0
  153.3577  142.7272  162.1861 C   0  0  0  0  0  0  0  0  0  0  0  0
  154.1577  141.5710  162.1114 C   0  0  0  0  0  0  0  0  0  0  0  0
  154.1602  140.7673  160.9528 C   0  0  0  0  0  0  0  0  0  0  0  0
  154.9684  139.6508  160.9683 O   0  0  0  0  0  0  0  0  0  0  0  0
  154.8914  138.7501  159.8725 C   0  0  0  0  0  0  0  0  0  0  0  0
  153.8727  137.6518  160.2147 C   0  0  0  0  0  0  0  0  0  0  0  0
  154.2110  136.9264  161.4140 N   0  0  0  0  0  0  0  0  0  0  0  0
  154.3571  137.5489  162.6442 C   0  0  0  0  0  0  0  0  0  0  0  0
  154.6910  136.8849  163.7772 C   0  0  0  0  0  0  0  0  0  0  0  0
  154.8546  137.7315  165.2740 Cl  0  0  0  0  0  0  0  0  0  0  0  0
  154.9194  135.4407  163.7389 C   0  0  0  0  0  0  0  0  0  0  0  0
  155.2232  134.7417  164.7035 O   0  0  0  0  0  0  0  0  0  0  0  0
  154.7688  134.8575  162.4770 N   0  0  0  0  0  0  0  0  0  0  0  0
  154.4275  135.5335  161.3051 C   0  0  0  0  0  0  0  0  0  0  0  0
  154.3311  134.9148  160.2451 O   0  0  0  0  0  0  0  0  0  0  0  0
  153.3443  141.1473  159.8569 C   0  0  0  0  0  0  0  0  0  0  0  0
  152.5444  142.3043  159.9305 C   0  0  0  0  0  0  0  0  0  0  0  0
  154.9226  133.8619  162.4073 H   0  0  0  0  0  0  0  0  0  0  0  0
  151.9751  144.9346  162.0429 H   0  0  0  0  0  0  0  0  0  0  0  0
  150.6365  144.0667  161.3028 H   0  0  0  0  0  0  0  0  0  0  0  0
  153.3679  143.3301  163.0825 H   0  0  0  0  0  0  0  0  0  0  0  0
  154.7750  141.2970  162.9544 H   0  0  0  0  0  0  0  0  0  0  0  0
  154.5835  139.2823  158.9712 H   0  0  0  0  0  0  0  0  0  0  0  0
  155.8684  138.3007  159.6870 H   0  0  0  0  0  0  0  0  0  0  0  0
  152.8853  138.0828  160.3870 H   0  0  0  0  0  0  0  0  0  0  0  0
  153.7529  136.9246  159.4086 H   0  0  0  0  0  0  0  0  0  0  0  0
  154.2001  138.6165  162.7074 H   0  0  0  0  0  0  0  0  0  0  0  0
  153.3131  140.5675  158.9470 H   0  0  0  0  0  0  0  0  0  0  0  0
  151.9274  142.5808  159.0880 H   0  0  0  0  0  0  0  0  0  0  0  0
  1  2  3  0  0  0  0
  2  3  1  0  0  0  0
  3  4  1  0  0  0  0
  3 23  1  0  0  0  0
  3 24  1  0  0  0  0
  4 21  1  0  0  0  0
  4  5  2  0  0  0  0
  5  6  1  0  0  0  0
  5 25  1  0  0  0  0
  6  7  2  0  0  0  0
  6 26  1  0  0  0  0
  7  8  1  0  0  0  0
  7 20  1  0  0  0  0
  8  9  1  0  0  0  0
  9 10  1  0  0  0  0
  9 27  1  0  0  0  0
  9 28  1  0  0  0  0
 10 11  1  0  0  0  0
 10 29  1  0  0  0  0
 10 30  1  0  0  0  0
 11 18  1  0  0  0  0
 11 12  1  0  0  0  0
 12 13  2  0  0  0  0
 12 31  1  0  0  0  0
 13 14  1  0  0  0  0
 13 15  1  0  0  0  0
 15 16  2  0  0  0  0
 15 17  1  0  0  0  0
 17 22  1  0  0  0  0
 17 18  1  0  0  0  0
 18 19  2  0  0  0  0
 20 21  2  0  0  0  0
 20 32  1  0  0  0  0
 21 33  1  0  0  0  0
M  END
> <s_m_source_file>
AV-unprocessed.smi

> <i_m_source_file_index>
899

> <i_lp_mmshare_version>
43012

> <i_f3d_flags>
0

> <s_epik_input>
TiNDW0NIMl1jMVtjSF1bY0hdYyhbY0hdW2NIXTEpT1tDSDJdW0NIMl1uMltjSF1jKENsKWMoPU8pW25IXWMyPU8=

> <s_epik_cmdline>
J2VwaWtfcHl0aG9uJywgJy1waCcsICc3LjAnLCAnLXRuJywgJzgnLCAnLW1hJywgJzIwMCcsICctbWV0YWxfYmluZGluZycsICctaW1hZScsICc8aW5maWxlLm1hZT4nLCAnLW9tYWUnLCAnPG91dGZpbGUubWFlPic=

> <r_lp_tautomer_probability>
0.999537

> <r_epik_Ionization_Penalty>
0.0457407

> <r_epik_Ionization_Penalty_Charging>
0.0457407

> <r_epik_Ionization_Penalty_Neutral>
1.03254e-10

> <r_epik_State_Penalty>
0.0388483

> <r_epik_Charging_Adjusted_Penalty>
0.0845889

> <i_epik_Tot_Q>
0

> <i_epik_Tot_abs_Q>
0

> <r_epik_Metal_State_Penalty>
2.50663

> <b_epik_Metal_Only>
0

> <s_lp_Force_Field>
OPLS_2005

> <r_lp_Energy>
13.2906

> <b_lp_Chiralities_Consistent>
1

> <s_lp_Variant>
AV-unprocessed.smi:899-1

> <Gold.Version>
5.8.1

> <Gold.Id.Protein>
6NUR|6NUR_protein|mol2

> <Gold.PLP.Fitness>
48.3072

> <Gold.PLP.PLP>
-46.1007

> <Gold.PLP.part.hbond>
-2.0000

> <Gold.PLP.part.metal>
0.0000

> <Gold.PLP.part.buried>
-3.1368

> <Gold.PLP.part.nonpolar>
-41.2495

> <Gold.PLP.part.repulsive>
0.2625

> <Gold.PLP.ligand.clash>
0.0000

> <Gold.PLP.ligand.torsion>
0.4042

> <Gold.PLP.Chemscore.Hbond>
1.0000

> <Gold.PLP.Chemscore.CHOScore>
0.0000

> <Gold.PLP.Chemscore.Metal>
0.0000

> <Gold.Chemscore.Hbonds>
donor molecule, donor type, donor heavy atom, donor atom, acceptor molecule, acceptor atom, score
      P1  H  6896  6907       L1    19  1.00

> <Gold.PLP.Chemscore.Internal.Correction>
0.0149

> <Gold.Rescore>
     Score         DG    S(hbond)    S(metal)    S(lipo)     H(rot)  DE(clash)    DE(int)     intcor
     12.69     -14.68       0.97        0.00     101.72       2.32       0.04       1.95       ----

> <Gold.Chemscore.Fitness>
12.6874

> <Gold.Chemscore.DG>
-14.6762

> <Gold.Chemscore.ZeroCoef>
-5.4800

> <Gold.Chemscore.Hbond>
0.9663

> <Gold.Chemscore.Metal>
0.0000

> <Gold.Chemscore.Lipo>
101.7201

> <Gold.Chemscore.Internal_Hbond>
0.0000

> <Gold.Chemscore.DEClash>
0.0363

> <Gold.Chemscore.DEInternal>
1.9526

> <Gold.Chemscore.Rot>
2.3174

> <Gold.Chemscore.Internal.Correction>
   9.000000E+99

> <Gold.Chemscore.Hbonds>
donor molecule, donor type, donor heavy atom, donor atom, acceptor molecule, acceptor atom, score
      P1  H  6896  6907       L1    19  0.87

> <Gold.Chemscore.Hbond.Weighted>
-3.2274

> <Gold.Chemscore.Metal.Weighted>
-0.0000

> <Gold.Chemscore.Lipo.Weighted>
-11.9013

> <Gold.Chemscore.Internal_Hbond.Weighted>
0.0000

> <Gold.Chemscore.DEClash.Weighted>
0.0363

> <Gold.Chemscore.DEInternal.Weighted>
1.9526

> <Gold.Chemscore.Rot.Weighted>
5.9324

> <Gold.Chemscore.Internal.Correction.Weighted>
   9.000000E+99

> <Gold.Protein.RotatedTorsions>
[ 6907 6896 6895 6894 ] final   88.41 input  -60.11 | X-H torsion
[ 7974 7965 7964 7962 ] final -149.38 input  175.53 | X-H torsion
[ 8008 7997 7996 7995 ] final  -72.59 input   59.86 | X-H torsion
[ 10167 10162 10161 10158 ] final -105.36 input  -65.29 | X-H torsion
[ 10718 10713 10712 10709 ] final  -69.50 input   66.30 | X-H torsion
[ 10763 10752 10751 10750 ] final -124.24 input  -60.55 | X-H torsion
[ 11005 11000 10999 10996 ] final -155.52 input  -57.11 | X-H torsion

> <Gold.Protein.ActiveResidues>
 VAL166  LYS551  ARG553  GLY616  TRP617  ASP618  TYR619  PRO620  LYS621  CYS622 
 ASP623  PHE694  ASN695  SER759  ASP760  ASP761  ALA762  ILE779  LEU786  VAL792 
 PHE793  MET794  SER795  GLU796  ALA797  LYS798  CYS799  TRP800  GLU811  SER814 

> <Gold.Protein.RotatedAtoms>
  152.5424  134.2126  159.8755 H   0  0  0  0  0  0  0  0  0  0  0  0  # atno 6907 bound_to 6896
  151.2107  133.4550  159.2605 H   0  0  0  0  0  0  0  0  0  0  0  0  # atno 6908 bound_to 6896
  151.0899  134.9922  159.8453 H   0  0  0  0  0  0  0  0  0  0  0  0  # atno 6909 bound_to 6896
  144.7971  140.5073  143.5732 H   0  0  0  0  0  0  0  0  0  0  0  0  # atno 7974 bound_to 7965
  154.5179  140.0794  156.8115 H   0  0  0  0  0  0  0  0  0  0  0  0  # atno 8008 bound_to 7997
  155.3641  140.3419  155.4223 H   0  0  0  0  0  0  0  0  0  0  0  0  # atno 8009 bound_to 7997
  156.1648  140.1600  156.8538 H   0  0  0  0  0  0  0  0  0  0  0  0  # atno 8010 bound_to 7997
  140.1993  143.3831  152.1142 H   0  0  0  0  0  0  0  0  0  0  0  0  # atno 10167 bound_to 10162
  156.0452  130.4314  150.2157 H   0  0  0  0  0  0  0  0  0  0  0  0  # atno 10718 bound_to 10713
  154.8720  135.4070  154.3074 H   0  0  0  0  0  0  0  0  0  0  0  0  # atno 10763 bound_to 10752
  153.3923  135.7015  153.6491 H   0  0  0  0  0  0  0  0  0  0  0  0  # atno 10764 bound_to 10752
  153.5268  135.3676  155.2629 H   0  0  0  0  0  0  0  0  0  0  0  0  # atno 10765 bound_to 10752
  140.6856  134.4097  157.5223 H   0  0  0  0  0  0  0  0  0  0  0  0  # atno 11005 bound_to 11000
  145.5646  139.1481  143.3322 LP  0  0  0  0  0  0  0  0  0  0  0  0  # atno 17320 bound_to 7965
  146.2242  140.5781  142.9003 LP  0  0  0  0  0  0  0  0  0  0  0  0  # atno 17321 bound_to 7965
  139.5223  144.7058  151.5359 LP  0  0  0  0  0  0  0  0  0  0  0  0  # atno 17342 bound_to 10162
  140.6401  143.8905  150.6684 LP  0  0  0  0  0  0  0  0  0  0  0  0  # atno 17343 bound_to 10162
  157.0247  130.9990  151.3329 LP  0  0  0  0  0  0  0  0  0  0  0  0  # atno 17370 bound_to 10713
  157.5319  130.8064  149.7927 LP  0  0  0  0  0  0  0  0  0  0  0  0  # atno 17371 bound_to 10713
  139.8938  134.8721  156.2204 LP  0  0  0  0  0  0  0  0  0  0  0  0  # atno 17394 bound_to 11000
  141.0282  133.7003  156.1385 LP  0  0  0  0  0  0  0  0  0  0  0  0  # atno 17395 bound_to 11000

$$$$
