AV-unprocessed.smi:189|AV-procd|sdf|1489|dock10
  -GOLD-   2262019313D 1   1.00000     0.00000
 Structure written by MMmdl.
 53 57  0  0  0  0  0  0  0  0  1 V2000
  150.9036  143.3264  159.2418 C   0  0  0  0  0  0  0  0  0  0  0  0
  150.9050  142.5042  157.9382 C   0  0  2  0  0  0  0  0  0  0  0  0
  149.8267  142.8926  156.9194 C   0  0  0  0  0  0  0  0  0  0  0  0
  149.7916  141.6825  155.9744 C   0  0  2  0  0  0  0  0  0  0  0  0
  148.3852  141.2446  155.5294 C   0  0  0  0  0  0  0  0  0  0  0  0
  148.4225  139.9557  154.6793 C   0  0  0  0  0  0  0  0  0  0  0  0
  149.4918  138.9347  155.1330 C   0  0  0  0  0  0  0  0  0  0  0  0
  149.9307  139.1556  156.5879 C   0  0  0  0  0  0  0  0  0  0  0  0
  150.5460  140.5703  156.7385 C   0  0  2  0  0  0  0  0  0  0  0  0
  150.7887  141.0541  158.1012 N   0  0  0  0  0  0  0  0  0  0  0  0
  149.9718  140.6022  159.0862 C   0  0  0  0  0  0  0  0  0  0  0  0
  148.6202  140.7171  158.9883 N   0  0  0  0  0  0  0  0  0  0  0  0
  147.8375  140.2676  159.9736 C   0  0  0  0  0  0  0  0  0  0  0  0
  148.1916  139.6877  161.1225 N   0  0  0  0  0  0  0  0  0  0  0  0
  149.5473  139.5744  161.2229 C   0  0  0  0  0  0  0  0  0  0  0  0
  150.5003  139.9954  160.2545 C   0  0  0  0  0  0  0  0  0  0  0  0
  151.7866  139.7085  160.6916 N   0  0  0  0  0  0  0  0  0  0  0  0
  151.6053  139.1538  161.8590 C   0  0  0  0  0  0  0  0  0  0  0  0
  150.2928  139.0476  162.2632 N   0  0  0  0  0  0  0  0  0  0  0  0
  149.8111  138.4932  163.5186 C   0  0  0  0  0  0  0  0  0  0  0  0
  150.1215  139.3883  164.7415 C   0  0  2  0  0  0  0  0  0  0  0  0
  151.5232  139.5765  164.8314 O   0  0  0  0  0  0  0  0  0  0  0  0
  149.6254  138.8259  166.0712 C   0  0  0  0  0  0  0  0  0  0  0  0
  149.2867  140.0792  166.8656 C   0  0  0  0  0  0  0  0  0  0  0  0
  148.7062  140.9173  165.8813 O   0  0  0  0  0  0  0  0  0  0  0  0
  149.4470  140.7731  164.6735 C   0  0  0  0  0  0  0  0  0  0  0  0
  151.1131  144.3757  159.0338 H   0  0  0  0  0  0  0  0  0  0  0  0
  151.6688  142.9683  159.9312 H   0  0  0  0  0  0  0  0  0  0  0  0
  149.9430  143.2846  159.7555 H   0  0  0  0  0  0  0  0  0  0  0  0
  151.8768  142.6665  157.4689 H   0  0  0  0  0  0  0  0  0  0  0  0
  148.8638  143.0275  157.4128 H   0  0  0  0  0  0  0  0  0  0  0  0
  150.0621  143.8217  156.3998 H   0  0  0  0  0  0  0  0  0  0  0  0
  150.3690  141.9241  155.0807 H   0  0  0  0  0  0  0  0  0  0  0  0
  147.7703  141.0666  156.4124 H   0  0  0  0  0  0  0  0  0  0  0  0
  147.8929  142.0444  154.9759 H   0  0  0  0  0  0  0  0  0  0  0  0
  147.4360  139.4920  154.7078 H   0  0  0  0  0  0  0  0  0  0  0  0
  148.6022  140.2098  153.6341 H   0  0  0  0  0  0  0  0  0  0  0  0
  149.1175  137.9195  154.9978 H   0  0  0  0  0  0  0  0  0  0  0  0
  150.3679  139.0212  154.4889 H   0  0  0  0  0  0  0  0  0  0  0  0
  149.0559  139.0171  157.2228 H   0  0  0  0  0  0  0  0  0  0  0  0
  150.6549  138.3990  156.8905 H   0  0  0  0  0  0  0  0  0  0  0  0
  151.5394  140.5101  156.2909 H   0  0  0  0  0  0  0  0  0  0  0  0
  146.7758  140.3930  159.8206 H   0  0  0  0  0  0  0  0  0  0  0  0
  152.4315  138.8127  162.4656 H   0  0  0  0  0  0  0  0  0  0  0  0
  148.7371  138.3223  163.4345 H   0  0  0  0  0  0  0  0  0  0  0  0
  150.2678  137.5110  163.6490 H   0  0  0  0  0  0  0  0  0  0  0  0
  151.7180  140.4808  164.6387 H   0  0  0  0  0  0  0  0  0  0  0  0
  148.7107  138.2511  165.9206 H   0  0  0  0  0  0  0  0  0  0  0  0
  150.3458  138.1783  166.5731 H   0  0  0  0  0  0  0  0  0  0  0  0
  148.5985  139.8848  167.6885 H   0  0  0  0  0  0  0  0  0  0  0  0
  150.1872  140.5473  167.2667 H   0  0  0  0  0  0  0  0  0  0  0  0
  150.1759  141.5814  164.5949 H   0  0  0  0  0  0  0  0  0  0  0  0
  148.7680  140.8642  163.8251 H   0  0  0  0  0  0  0  0  0  0  0  0
  1  2  1  0  0  0  0
  1 27  1  0  0  0  0
  1 28  1  0  0  0  0
  1 29  1  0  0  0  0
  2 10  1  0  0  0  0
  2  3  1  0  0  0  0
  2 30  1  0  0  0  0
  3  4  1  0  0  0  0
  3 31  1  0  0  0  0
  3 32  1  0  0  0  0
  4  9  1  0  0  0  0
  4  5  1  0  0  0  0
  4 33  1  0  0  0  0
  5  6  1  0  0  0  0
  5 34  1  0  0  0  0
  5 35  1  0  0  0  0
  6  7  1  0  0  0  0
  6 36  1  0  0  0  0
  6 37  1  0  0  0  0
  7  8  1  0  0  0  0
  7 38  1  0  0  0  0
  7 39  1  0  0  0  0
  8  9  1  0  0  0  0
  8 40  1  0  0  0  0
  8 41  1  0  0  0  0
  9 10  1  0  0  0  0
  9 42  1  0  0  0  0
 10 11  1  0  0  0  0
 11 16  1  0  0  0  0
 11 12  2  0  0  0  0
 12 13  1  0  0  0  0
 13 14  2  0  0  0  0
 13 43  1  0  0  0  0
 14 15  1  0  0  0  0
 15 19  1  0  0  0  0
 15 16  2  0  0  0  0
 16 17  1  0  0  0  0
 17 18  2  0  0  0  0
 18 19  1  0  0  0  0
 18 44  1  0  0  0  0
 19 20  1  0  0  0  0
 20 21  1  0  0  0  0
 20 45  1  0  0  0  0
 20 46  1  0  0  0  0
 21 26  1  0  0  0  0
 21 22  1  0  0  0  0
 21 23  1  0  0  0  0
 22 47  1  0  0  0  0
 23 24  1  0  0  0  0
 23 48  1  0  0  0  0
 23 49  1  0  0  0  0
 24 25  1  0  0  0  0
 24 50  1  0  0  0  0
 24 51  1  0  0  0  0
 25 26  1  0  0  0  0
 26 52  1  0  0  0  0
 26 53  1  0  0  0  0
M  END
> <s_m_source_file>
AV-unprocessed.smi

> <i_m_source_file_index>
189

> <i_lp_mmshare_version>
43012

> <i_f3d_flags>
0

> <s_epik_input>
W0NIMl0xW0NIMl1bQ0gyXVtDSDJdW0NASF0oW0NASF0xMilOKFtDQEhdKFtDSDNdKVtDSDJdMiljKG5bY0hdbjMpYyhjMzQpbltjSF1uNFtDSDJdW0NAQF01KFtPSF0pW0NIMl1bQ0gyXU9bQ0gyXTU=

> <s_epik_cmdline>
J2VwaWtfcHl0aG9uJywgJy1waCcsICc3LjAnLCAnLXRuJywgJzgnLCAnLW1hJywgJzIwMCcsICctbWV0YWxfYmluZGluZycsICctaW1hZScsICc8aW5maWxlLm1hZT4nLCAnLW9tYWUnLCAnPG91dGZpbGUubWFlPic=

> <r_lp_tautomer_probability>
1

> <r_epik_Ionization_Penalty>
0.00594261

> <r_epik_Ionization_Penalty_Charging>
0

> <r_epik_Ionization_Penalty_Neutral>
0.00594261

> <r_epik_State_Penalty>
0.00429776

> <r_epik_Charging_Adjusted_Penalty>
0.00429776

> <i_epik_Tot_Q>
0

> <i_epik_Tot_abs_Q>
0

> <r_epik_Metal_State_Penalty>
-0

> <b_epik_Metal_Only>
0

> <s_lp_Force_Field>
OPLS_2005

> <r_lp_Energy>
67.2452

> <b_lp_Chiralities_Consistent>
1

> <s_lp_Variant>
AV-unprocessed.smi:189-15

> <Gold.Version>
5.8.1

> <Gold.Id.Protein>
6NUR|6NUR_protein|mol2

> <Gold.PLP.Fitness>
42.7734

> <Gold.PLP.PLP>
-38.1907

> <Gold.PLP.part.hbond>
-2.0000

> <Gold.PLP.part.metal>
0.0000

> <Gold.PLP.part.buried>
-3.5486

> <Gold.PLP.part.nonpolar>
-32.5419

> <Gold.PLP.part.repulsive>
0.0612

> <Gold.PLP.ligand.clash>
0.0000

> <Gold.PLP.ligand.torsion>
0.2539

> <Gold.PLP.Chemscore.Hbond>
1.6880

> <Gold.PLP.Chemscore.CHOScore>
0.0000

> <Gold.PLP.Chemscore.Metal>
0.0000

> <Gold.PLP.Chemscore.Internal.Correction>
0.0264

> <Gold.Rescore>
     Score         DG    S(hbond)    S(metal)    S(lipo)     H(rot)  DE(clash)    DE(int)     intcor
     15.10     -16.41       1.82        0.00      85.95       2.03       0.20       1.10       ----

> <Gold.Chemscore.Fitness>
15.0997

> <Gold.Chemscore.DG>
-16.4054

> <Gold.Chemscore.ZeroCoef>
-5.4800

> <Gold.Chemscore.Hbond>
1.8159

> <Gold.Chemscore.Metal>
0.0000

> <Gold.Chemscore.Lipo>
85.9509

> <Gold.Chemscore.Internal_Hbond>
0.0000

> <Gold.Chemscore.DEClash>
0.2016

> <Gold.Chemscore.DEInternal>
1.1041

> <Gold.Chemscore.Rot>
2.0297

> <Gold.Chemscore.Internal.Correction>
   9.000000E+99

> <Gold.Chemscore.Hbond.Weighted>
-6.0651

> <Gold.Chemscore.Metal.Weighted>
-0.0000

> <Gold.Chemscore.Lipo.Weighted>
-10.0563

> <Gold.Chemscore.Internal_Hbond.Weighted>
0.0000

> <Gold.Chemscore.DEClash.Weighted>
0.2016

> <Gold.Chemscore.DEInternal.Weighted>
1.1041

> <Gold.Chemscore.Rot.Weighted>
5.1960

> <Gold.Chemscore.Internal.Correction.Weighted>
   9.000000E+99

> <Gold.Protein.RotatedTorsions>
[ 6907 6896 6895 6894 ] final -123.94 input  -60.11 | X-H torsion
[ 7974 7965 7964 7962 ] final -116.75 input  175.53 | X-H torsion
[ 8008 7997 7996 7995 ] final  -76.86 input   59.86 | X-H torsion
[ 10167 10162 10161 10158 ] final  157.99 input  -65.29 | X-H torsion
[ 10718 10713 10712 10709 ] final -104.07 input   66.30 | X-H torsion
[ 10763 10752 10751 10750 ] final    5.42 input  -60.55 | X-H torsion
[ 11005 11000 10999 10996 ] final  -78.48 input  -57.11 | X-H torsion

> <Gold.Protein.ActiveResidues>
 VAL166  LYS551  ARG553  GLY616  TRP617  ASP618  TYR619  PRO620  LYS621  CYS622 
 ASP623  PHE694  ASN695  SER759  ASP760  ASP761  ALA762  ILE779  LEU786  VAL792 
 PHE793  MET794  SER795  GLU796  ALA797  LYS798  CYS799  TRP800  GLU811  SER814 

> <Gold.Protein.RotatedAtoms>
  150.8720  133.7492  159.2958 H   0  0  0  0  0  0  0  0  0  0  0  0  # atno 6907 bound_to 6896
  151.5101  135.1063  159.9861 H   0  0  0  0  0  0  0  0  0  0  0  0  # atno 6908 bound_to 6896
  152.4701  133.7966  159.6986 H   0  0  0  0  0  0  0  0  0  0  0  0  # atno 6909 bound_to 6896
  145.0931  140.8503  143.3970 H   0  0  0  0  0  0  0  0  0  0  0  0  # atno 7974 bound_to 7965
  154.5543  140.0720  156.8718 H   0  0  0  0  0  0  0  0  0  0  0  0  # atno 8008 bound_to 7997
  155.2933  140.3379  155.4233 H   0  0  0  0  0  0  0  0  0  0  0  0  # atno 8009 bound_to 7997
  156.1988  140.1714  156.7928 H   0  0  0  0  0  0  0  0  0  0  0  0  # atno 8010 bound_to 7997
  139.4825  144.4866  151.8368 H   0  0  0  0  0  0  0  0  0  0  0  0  # atno 10167 bound_to 10162
  156.0290  130.5497  150.7344 H   0  0  0  0  0  0  0  0  0  0  0  0  # atno 10718 bound_to 10713
  153.2597  135.6922  153.7592 H   0  0  0  0  0  0  0  0  0  0  0  0  # atno 10763 bound_to 10752
  153.6656  135.3353  155.3140 H   0  0  0  0  0  0  0  0  0  0  0  0  # atno 10764 bound_to 10752
  154.8425  135.4487  154.1582 H   0  0  0  0  0  0  0  0  0  0  0  0  # atno 10765 bound_to 10752
  141.1665  133.7065  156.7977 H   0  0  0  0  0  0  0  0  0  0  0  0  # atno 11005 bound_to 11000
  145.1042  139.2801  143.5670 LP  0  0  0  0  0  0  0  0  0  0  0  0  # atno 17320 bound_to 7965
  146.3531  140.0618  142.8629 LP  0  0  0  0  0  0  0  0  0  0  0  0  # atno 17321 bound_to 7965
  140.4347  144.2068  150.5889 LP  0  0  0  0  0  0  0  0  0  0  0  0  # atno 17342 bound_to 10162
  140.4744  143.2401  151.9043 LP  0  0  0  0  0  0  0  0  0  0  0  0  # atno 17343 bound_to 10162
  157.4928  131.0912  151.0406 LP  0  0  0  0  0  0  0  0  0  0  0  0  # atno 17370 bound_to 10713
  157.0809  130.5902  149.5420 LP  0  0  0  0  0  0  0  0  0  0  0  0  # atno 17371 bound_to 10713
  140.2279  134.8708  157.3445 LP  0  0  0  0  0  0  0  0  0  0  0  0  # atno 17394 bound_to 11000
  140.1921  134.4359  155.7710 LP  0  0  0  0  0  0  0  0  0  0  0  0  # atno 17395 bound_to 11000

$$$$
