#       Name:                AV-unprocessed.smi:244
#       Creating user name   scv26
#       Creation time:       Thu Mar 26 20:50:31 2020


#       File generated by GOLD software.
#

@<TRIPOS>MOLECULE
AV-unprocessed.smi:244
    67    71     1
SMALL
NO_CHARGES


@<TRIPOS>ATOM
      1 ****        -3.0343   2.2712   2.3764 C.3            1 S1                 0.0000
      2 ****        -3.4033   1.4480   1.2052 N.4            1 S1                 1.0000
      3 ****        -4.8567   1.1543   1.1531 C.3            1 S1                 0.0000
      4 ****        -5.2206   0.4410  -0.1579 C.3            1 S1                 0.0000
      5 ****        -4.3762  -0.8382  -0.3477 C.3            1 S1                 0.0000
      6 ****        -4.6619  -1.5098  -1.5765 O.3            1 S1                 0.0000
      7 ****        -4.2143  -0.8292  -2.7474 C.3            1 S1                 0.0000
      8 ****        -2.7074  -0.5507  -2.6523 C.3            1 S1                 0.0000
      9 ****        -2.4031   0.1694  -1.4214 N.3            1 S1                 0.0000
     10 ****        -1.1279   0.6124  -1.3850 C.ar           1 S1                 0.0000
     11 ****        -0.9467   1.9550  -1.3500 N.ar           1 S1                 0.0000
     12 ****         0.2902   2.4583  -1.2949 C.ar           1 S1                 0.0000
     13 ****         1.4553   1.8080  -1.2615 N.ar           1 S1                 0.0000
     14 ****         1.2728   0.4564  -1.2897 C.ar           1 S1                 0.0000
     15 ****         0.0242  -0.2224  -1.3521 C.ar           1 S1                 0.0000
     16 ****         0.2296  -1.5964  -1.3615 N.2            1 S1                 0.0000
     17 ****         1.5280  -1.7230  -1.3185 C.2            1 S1                 0.0000
     18 ****         2.2316  -0.5408  -1.2603 N.pl3          1 S1                 0.0000
     19 ****         3.6770  -0.3876  -1.1951 C.3            1 S1                 0.0000
     20 ****         4.2443  -0.3590   0.2463 C.3            1 S1                 0.0000
     21 ****         3.6932   0.7658   0.9094 O.3            1 S1                 0.0000
     22 ****         3.8808  -1.6251   1.0530 C.3            1 S1                 0.0000
     23 ****         4.6245  -1.6885   2.3991 C.3            1 S1                 0.0000
     24 ****         6.0275  -1.5870   2.1897 O.3            1 S1                 0.0000
     25 ****         6.4077  -0.3448   1.6107 C.3            1 S1                 0.0000
     26 ****         5.7780  -0.2021   0.2137 C.3            1 S1                 0.0000
     27 ****        -2.8632  -0.5416  -0.2247 C.3            1 S1                 0.0000
     28 ****        -2.5888   0.2114   1.1021 C.3            1 S1                 0.0000
     29 ****        -3.2320   1.7385   3.3075 H              1 S1                 0.0000
     30 ****        -3.6018   3.2023   2.3866 H              1 S1                 0.0000
     31 ****        -1.9753   2.5297   2.3462 H              1 S1                 0.0000
     32 ****        -5.1392   0.5405   2.0099 H              1 S1                 0.0000
     33 ****        -5.4220   2.0841   1.2290 H              1 S1                 0.0000
     34 ****        -6.2817   0.1909  -0.1646 H              1 S1                 0.0000
     35 ****        -5.0633   1.1396  -0.9790 H              1 S1                 0.0000
     36 ****        -4.6502  -1.5320   0.4481 H              1 S1                 0.0000
     37 ****        -4.4211  -1.4561  -3.6149 H              1 S1                 0.0000
     38 ****        -4.7728   0.0942  -2.8981 H              1 S1                 0.0000
     39 ****        -2.1622  -1.4950  -2.6745 H              1 S1                 0.0000
     40 ****        -2.3811   0.0289  -3.5170 H              1 S1                 0.0000
     41 ****         0.3573   3.5362  -1.2713 H              1 S1                 0.0000
     42 ****         2.0118  -2.6892  -1.3176 H              1 S1                 0.0000
     43 ****         4.1258  -1.2084  -1.7563 H              1 S1                 0.0000
     44 ****         3.9490   0.5253  -1.7272 H              1 S1                 0.0000
     45 ****         4.0626   0.8137   1.7780 H              1 S1                 0.0000
     46 ****         2.8060  -1.6804   1.2286 H              1 S1                 0.0000
     47 ****         4.1422  -2.5092   0.4699 H              1 S1                 0.0000
     48 ****         4.2877  -0.8986   3.0720 H              1 S1                 0.0000
     49 ****         4.4126  -2.6353   2.8959 H              1 S1                 0.0000
     50 ****         6.1146   0.4797   2.2624 H              1 S1                 0.0000
     51 ****         7.4946  -0.3134   1.5334 H              1 S1                 0.0000
     52 ****         6.2042  -0.9695  -0.4338 H              1 S1                 0.0000
     53 ****         6.0560   0.7565  -0.2265 H              1 S1                 0.0000
     54 ****        -2.3330  -1.4945  -0.1889 H              1 S1                 0.0000
     55 ****        -1.5296   0.4501   1.2056 H              1 S1                 0.0000
     56 ****        -2.8290  -0.4386   1.9451 H              1 S1                 0.0000
     57 ****        -3.1882   2.0028   0.3884 H              1 S1                 0.0000
     58 ****        -5.6528  -1.6268  -1.6441 LP             1 S1                 0.0000
     59 ****        -4.2213  -2.4071  -1.5505 LP             1 S1                 0.0000
     60 ****        -2.9470   1.0086  -1.4202 LP             1 S1                 0.0000
     61 ****        -1.7368   2.5678  -1.3654 LP             1 S1                 0.0000
     62 ****         2.3489   2.2550  -1.2209 LP             1 S1                 0.0000
     63 ****        -0.4586  -2.3212  -1.3938 LP             1 S1                 0.0000
     64 ****         2.6998   0.6679   0.9705 LP             1 S1                 0.0000
     65 ****         3.9154   1.5985   0.4022 LP             1 S1                 0.0000
     66 ****         6.3141  -2.3254   1.5794 LP             1 S1                 0.0000
     67 ****         6.4903  -1.6842   3.0708 LP             1 S1                 0.0000
@<TRIPOS>BOND
    1    1    2 1     
    2    1   29 1     
    3    1   30 1     
    4    1   31 1     
    5    2   28 1     
    6    2    3 1     
    7    2   57 1     
    8    3    4 1     
    9    3   32 1     
   10    3   33 1     
   11    4    5 1     
   12    4   34 1     
   13    4   35 1     
   14    5   27 1     
   15    5    6 1     
   16    5   36 1     
   17    6    7 1     
   18    7    8 1     
   19    7   37 1     
   20    7   38 1     
   21    8    9 1     
   22    8   39 1     
   23    8   40 1     
   24    9   10 1     
   25    9   27 1     
   26   10   15 ar    
   27   10   11 ar    
   28   11   12 ar    
   29   12   13 ar    
   30   12   41 1     
   31   13   14 ar    
   32   14   18 1     
   33   14   15 ar    
   34   15   16 1     
   35   16   17 2     
   36   17   18 1     
   37   17   42 1     
   38   18   19 1     
   39   19   20 1     
   40   19   43 1     
   41   19   44 1     
   42   20   26 1     
   43   20   21 1     
   44   20   22 1     
   45   21   45 1     
   46   22   23 1     
   47   22   46 1     
   48   22   47 1     
   49   23   24 1     
   50   23   48 1     
   51   23   49 1     
   52   24   25 1     
   53   25   26 1     
   54   25   50 1     
   55   25   51 1     
   56   26   52 1     
   57   26   53 1     
   58   27   28 1     
   59   27   54 1     
   60   28   55 1     
   61   28   56 1     
   62    6   58 1     
   63    6   59 1     
   64    9   60 1     
   65   11   61 1     
   66   13   62 1     
   67   16   63 1     
   68   21   64 1     
   69   21   65 1     
   70   24   66 1     
   71   24   67 1     
@<TRIPOS>SUBSTRUCTURE
      1 S1             1
@<TRIPOS>SET
LONE_PAIRS      STATIC     ATOMS    <user>   **** ""
10 58 59 60 61 62 63 64 65 66 67
DONOR_HYDROGENS      STATIC     ATOMS    <user>   **** ""
2 57 45
ATOM$BLUE        STATIC     ATOMS    COLORGROUP SYSTEM
10 58 59 60 61 62 63 64 65 66 67
ATOM$RED        STATIC     ATOMS    COLORGROUP SYSTEM
2 57 45
