#       Name:                AV-unprocessed.smi:1723
#       Creating user name   scv26
#       Creation time:       Fri Mar 27 08:15:45 2020


#       File generated by GOLD software.
#

@<TRIPOS>MOLECULE
AV-unprocessed.smi:1723
    44    44     1
SMALL
NO_CHARGES


@<TRIPOS>ATOM
      1 ****        -5.2569  -0.8866  -0.5457 C.3            1 S1                 0.0000
      2 ****        -3.7317  -0.7359  -0.5506 C.3            1 S1                 0.0000
      3 ****        -3.2075  -0.0862  -1.8405 C.3            1 S1                 0.0000
      4 ****        -1.6851   0.0984  -1.8390 C.3            1 S1                 0.0000
      5 ****        -1.0610  -1.1808  -1.8536 O.3            1 S1                 0.0000
      6 ****         0.3640  -1.1653  -1.8653 C.3            1 S1                 0.0000
      7 ****         0.8385  -2.5785  -2.2341 C.3            1 S1                 0.0000
      8 ****         0.9025  -0.7376  -0.4903 C.2            1 S1                 0.0000
      9 ****         0.6960  -1.4564   0.4871 O.2            1 S1                 0.0000
     10 ****         1.5511   0.4436  -0.4690 N.am           1 S1                 0.0000
     11 ****         2.1576   1.1223   0.6023 C.2            1 S1                 0.0000
     12 ****         2.4010   0.5878   1.8316 C.2            1 S1                 0.0000
     13 ****         3.0409   1.3453   2.8997 C.2            1 S1                 0.0000
     14 ****         3.3940   0.7556   4.2539 C.3            1 S1                 0.0000
     15 ****         4.5074   1.3030   4.7423 F              1 S1                 0.0000
     16 ****         2.4057   0.9820   5.1180 F              1 S1                 0.0000
     17 ****         3.5762  -0.5622   4.1676 F              1 S1                 0.0000
     18 ****         3.3843   2.6231   2.5030 C.2            1 S1                 0.0000
     19 ****         3.1730   3.2304   1.3149 N.pl3          1 S1                -1.0000
     20 ****         2.5658   2.5156   0.3262 C.2            1 S1                 0.0000
     21 ****         2.3524   3.0051  -0.7837 O.2            1 S1                 0.0000
     22 ****        -5.5984  -1.3503   0.3798 H              1 S1                 0.0000
     23 ****        -5.5936  -1.5103  -1.3741 H              1 S1                 0.0000
     24 ****        -5.7492   0.0822  -0.6333 H              1 S1                 0.0000
     25 ****        -3.4271  -0.1390   0.3098 H              1 S1                 0.0000
     26 ****        -3.2746  -1.7176  -0.4209 H              1 S1                 0.0000
     27 ****        -3.5011  -0.6838  -2.7043 H              1 S1                 0.0000
     28 ****        -3.6804   0.8884  -1.9664 H              1 S1                 0.0000
     29 ****        -1.3833   0.6595  -2.7244 H              1 S1                 0.0000
     30 ****        -1.3871   0.6827  -0.9677 H              1 S1                 0.0000
     31 ****         0.7129  -0.4748  -2.6357 H              1 S1                 0.0000
     32 ****         1.9273  -2.6417  -2.2406 H              1 S1                 0.0000
     33 ****         0.4867  -2.8565  -3.2278 H              1 S1                 0.0000
     34 ****         0.4627  -3.3244  -1.5325 H              1 S1                 0.0000
     35 ****         1.5900   0.9431  -1.3459 H              1 S1                 0.0000
     36 ****         2.1354  -0.4307   2.0587 H              1 S1                 0.0000
     37 ****         3.9116   3.2518   3.2519 H              1 S1                 0.0000
     38 ****        -1.3710  -1.6661  -2.6712 LP             1 S1                 0.0000
     39 ****        -1.3575  -1.6781  -1.0383 LP             1 S1                 0.0000
     40 ****         0.1829  -2.3083   0.3818 LP             1 S1                 0.0000
     41 ****         1.0413  -1.1887   1.3865 LP             1 S1                 0.0000
     42 ****         3.4544   4.1782   1.1651 LP             1 S1                 0.0000
     43 ****         1.9049   2.4602  -1.4929 LP             1 S1                 0.0000
     44 ****         2.6266   3.9474  -0.9757 LP             1 S1                 0.0000
@<TRIPOS>BOND
    1    1    2 1     
    2    1   22 1     
    3    1   23 1     
    4    1   24 1     
    5    2    3 1     
    6    2   25 1     
    7    2   26 1     
    8    3    4 1     
    9    3   27 1     
   10    3   28 1     
   11    4    5 1     
   12    4   29 1     
   13    4   30 1     
   14    5    6 1     
   15    6    7 1     
   16    6    8 1     
   17    6   31 1     
   18    7   32 1     
   19    7   33 1     
   20    7   34 1     
   21    8    9 2     
   22    8   10 am    
   23   10   11 1     
   24   10   35 1     
   25   11   20 1     
   26   11   12 2     
   27   12   13 1     
   28   12   36 1     
   29   13   14 1     
   30   13   18 2     
   31   14   15 1     
   32   14   16 1     
   33   14   17 1     
   34   18   19 1     
   35   18   37 1     
   36   19   20 1     
   37   20   21 2     
   38    5   38 1     
   39    5   39 1     
   40    9   40 1     
   41    9   41 1     
   42   19   42 1     
   43   21   43 1     
   44   21   44 1     
@<TRIPOS>SUBSTRUCTURE
      1 S1             1
@<TRIPOS>SET
LONE_PAIRS      STATIC     ATOMS    <user>   **** ""
7 38 39 40 41 42 43 44
DONOR_HYDROGENS      STATIC     ATOMS    <user>   **** ""
1 35
ATOM$BLUE        STATIC     ATOMS    COLORGROUP SYSTEM
7 38 39 40 41 42 43 44
ATOM$RED        STATIC     ATOMS    COLORGROUP SYSTEM
1 35
