AV-unprocessed.smi:955|AV-procd|sdf|4262|dock9
  -GOLD-   22720 2173D 1   1.00000     0.00000
 Structure written by MMmdl.
 29 29  0  0  0  0  0  0  0  0  1 V2000
  146.5249  138.7426  154.6009 C   0  0  0  0  0  0  0  0  0  0  0  0
  147.3224  138.9738  153.3068 C   0  0  1  0  0  0  0  0  0  0  0  0
  148.6195  138.3160  153.4539 N   0  0  0  0  0  0  0  0  0  0  0  0
  149.6056  138.7181  154.2726 C   0  0  0  0  0  0  0  0  0  0  0  0
  149.5086  139.7027  155.0063 O   0  0  0  0  0  0  0  0  0  0  0  0
  150.8914  137.8766  154.2521 C   0  0  1  0  0  0  0  0  0  0  0  0
  152.1231  138.6619  154.7480 C   0  0  0  0  0  0  0  0  0  0  0  0
  150.6940  136.6334  154.9892 N   0  0  0  0  0  0  0  0  0  0  0  0
  149.6557  135.7318  154.8682 C   0  0  0  0  0  0  0  0  0  0  0  0
  149.8644  134.7383  155.7814 C   0  0  0  0  0  0  0  0  0  0  0  0
  151.0656  135.1285  156.4357 C   0  0  0  0  0  0  0  0  0  0  0  0
  151.5541  136.2652  155.9677 N   0  0  0  0  0  0  0  0  0  0  0  0
  146.5298  138.3558  152.1430 C   0  0  0  0  0  0  0  0  0  0  0  0
  145.2680  138.7649  151.9898 N   0  0  0  0  0  0  0  0  0  0  0  0
  147.0378  137.5128  151.4044 O   0  0  0  0  0  0  0  0  0  0  0  0
  145.5424  139.2140  154.5509 H   0  0  0  0  0  0  0  0  0  0  0  0
  147.0449  139.1705  155.4586 H   0  0  0  0  0  0  0  0  0  0  0  0
  146.3748  137.6808  154.8030 H   0  0  0  0  0  0  0  0  0  0  0  0
  147.4598  140.0451  153.1464 H   0  0  0  0  0  0  0  0  0  0  0  0
  148.7836  137.5033  152.8780 H   0  0  0  0  0  0  0  0  0  0  0  0
  151.0846  137.6045  153.2129 H   0  0  0  0  0  0  0  0  0  0  0  0
  152.2935  139.5493  154.1376 H   0  0  0  0  0  0  0  0  0  0  0  0
  153.0232  138.0493  154.6906 H   0  0  0  0  0  0  0  0  0  0  0  0
  152.0134  138.9897  155.7825 H   0  0  0  0  0  0  0  0  0  0  0  0
  148.8622  135.8704  154.1487 H   0  0  0  0  0  0  0  0  0  0  0  0
  149.2500  133.8681  155.9586 H   0  0  0  0  0  0  0  0  0  0  0  0
  151.5912  134.6259  157.2342 H   0  0  0  0  0  0  0  0  0  0  0  0
  144.7012  138.3843  151.2461 H   0  0  0  0  0  0  0  0  0  0  0  0
  144.8826  139.4487  152.6250 H   0  0  0  0  0  0  0  0  0  0  0  0
  1  2  1  0  0  0  0
  1 16  1  0  0  0  0
  1 17  1  0  0  0  0
  1 18  1  0  0  0  0
  2  3  1  0  0  0  0
  2 13  1  0  0  0  0
  2 19  1  0  0  0  0
  3  4  1  0  0  0  0
  3 20  1  0  0  0  0
  4  5  2  0  0  0  0
  4  6  1  0  0  0  0
  6  7  1  0  0  0  0
  6  8  1  0  0  0  0
  6 21  1  0  0  0  0
  7 22  1  0  0  0  0
  7 23  1  0  0  0  0
  7 24  1  0  0  0  0
  8 12  1  0  0  0  0
  8  9  1  0  0  0  0
  9 10  2  0  0  0  0
  9 25  1  0  0  0  0
 10 11  1  0  0  0  0
 10 26  1  0  0  0  0
 11 12  2  0  0  0  0
 11 27  1  0  0  0  0
 13 14  1  0  0  0  0
 13 15  2  0  0  0  0
 14 28  1  0  0  0  0
 14 29  1  0  0  0  0
M  END
> <s_m_source_file>
AV-unprocessed.smi

> <i_m_source_file_index>
955

> <i_lp_mmshare_version>
43012

> <i_f3d_flags>
0

> <s_epik_input>
W05IMl1DKD1PKVtDQEhdKFtDSDNdKVtOSF1DKD1PKVtDQEhdKFtDSDNdKW4xW2NIXVtjSF1bY0hdbjE=

> <s_epik_cmdline>
J2VwaWtfcHl0aG9uJywgJy1waCcsICc3LjAnLCAnLXRuJywgJzgnLCAnLW1hJywgJzIwMCcsICctbWV0YWxfYmluZGluZycsICctaW1hZScsICc8aW5maWxlLm1hZT4nLCAnLW9tYWUnLCAnPG91dGZpbGUubWFlPic=

> <r_lp_tautomer_probability>
1

> <r_epik_Ionization_Penalty>
2.8146e-05

> <r_epik_Ionization_Penalty_Charging>
0

> <r_epik_Ionization_Penalty_Neutral>
2.8146e-05

> <r_epik_State_Penalty>
-0

> <r_epik_Charging_Adjusted_Penalty>
0

> <i_epik_Tot_Q>
0

> <i_epik_Tot_abs_Q>
0

> <r_epik_Metal_State_Penalty>
-0

> <b_epik_Metal_Only>
0

> <s_lp_Force_Field>
OPLS_2005

> <r_lp_Energy>
4.82195

> <b_lp_Chiralities_Consistent>
1

> <s_lp_Variant>
AV-unprocessed.smi:955-4

> <Gold.Version>
5.8.1

> <Gold.Id.Protein>
6NUR|6NUR_protein|mol2

> <Gold.PLP.Fitness>
36.1527

> <Gold.PLP.PLP>
-20.8146

> <Gold.PLP.part.hbond>
-5.4362

> <Gold.PLP.part.metal>
0.0000

> <Gold.PLP.part.buried>
-2.2089

> <Gold.PLP.part.nonpolar>
-20.2756

> <Gold.PLP.part.repulsive>
5.6871

> <Gold.PLP.ligand.clash>
0.0000

> <Gold.PLP.ligand.torsion>
0.7701

> <Gold.PLP.Chemscore.Hbond>
4.5920

> <Gold.PLP.Chemscore.CHOScore>
0.9971

> <Gold.PLP.Chemscore.Metal>
0.0000

> <Gold.Chemscore.Hbonds>
donor molecule, donor type, donor heavy atom, donor atom, acceptor molecule, acceptor atom, score
      L1  H     3    20       P1  7948  1.00
      L1  H    14    28       P1 10171  0.98
      L1  H    14    29       P1 10175  0.61
      P1  H  7954  7966       L1    15  1.00
      P1  H 10752 10763       L1    12  0.90
      L1  C     9    25       P1  7948  0.99

> <Gold.PLP.Chemscore.Internal.Correction>
0.1111

> <Gold.Rescore>
     Score         DG    S(hbond)    S(metal)    S(lipo)     H(rot)  DE(clash)    DE(int)     intcor
     13.75     -16.50       3.70        0.00      38.96       2.30       2.01       0.74       ----

> <Gold.Chemscore.Fitness>
13.7498

> <Gold.Chemscore.DG>
-16.4988

> <Gold.Chemscore.ZeroCoef>
-5.4800

> <Gold.Chemscore.Hbond>
3.6951

> <Gold.Chemscore.Metal>
0.0000

> <Gold.Chemscore.Lipo>
38.9574

> <Gold.Chemscore.Internal_Hbond>
0.0000

> <Gold.Chemscore.DEClash>
2.0127

> <Gold.Chemscore.DEInternal>
0.7363

> <Gold.Chemscore.Rot>
2.2972

> <Gold.Chemscore.Internal.Correction>
   9.000000E+99

> <Gold.Chemscore.Hbonds>
donor molecule, donor type, donor heavy atom, donor atom, acceptor molecule, acceptor atom, score
      L1  H     3    20       P1  7948  0.99
      L1  H    14    28       P1 10171  0.93
      L1  H    14    29       P1 10175  0.60
      P1  H  7954  7966       L1    15  1.00
      P1  H 10752 10763       L1    12  0.06

> <Gold.Chemscore.Hbond.Weighted>
-12.3417

> <Gold.Chemscore.Metal.Weighted>
-0.0000

> <Gold.Chemscore.Lipo.Weighted>
-4.5580

> <Gold.Chemscore.Internal_Hbond.Weighted>
0.0000

> <Gold.Chemscore.DEClash.Weighted>
2.0127

> <Gold.Chemscore.DEInternal.Weighted>
0.7363

> <Gold.Chemscore.Rot.Weighted>
5.8809

> <Gold.Chemscore.Internal.Correction.Weighted>
   9.000000E+99

> <Gold.Protein.RotatedTorsions>
[ 6907 6896 6895 6894 ] final  132.29 input  -60.11 | X-H torsion
[ 7974 7965 7964 7962 ] final -114.94 input  175.53 | X-H torsion
[ 8008 7997 7996 7995 ] final -137.81 input   59.86 | X-H torsion
[ 10167 10162 10161 10158 ] final  -97.32 input  -65.29 | X-H torsion
[ 10718 10713 10712 10709 ] final  155.40 input   66.30 | X-H torsion
[ 10763 10752 10751 10750 ] final   80.66 input  -60.55 | X-H torsion
[ 11005 11000 10999 10996 ] final  143.02 input  -57.11 | X-H torsion

> <Gold.Protein.ActiveResidues>
 VAL166  LYS551  ARG553  GLY616  TRP617  ASP618  TYR619  PRO620  LYS621  CYS622 
 ASP623  PHE694  ASN695  SER759  ASP760  ASP761  ALA762  ILE779  LEU786  VAL792 
 PHE793  MET794  SER795  GLU796  ALA797  LYS798  CYS799  TRP800  GLU811  SER814 

> <Gold.Protein.RotatedAtoms>
  152.3339  133.5989  159.5828 H   0  0  0  0  0  0  0  0  0  0  0  0  # atno 6907 bound_to 6896
  150.7439  133.9825  159.3590 H   0  0  0  0  0  0  0  0  0  0  0  0  # atno 6908 bound_to 6896
  151.7697  135.0790  160.0409 H   0  0  0  0  0  0  0  0  0  0  0  0  # atno 6909 bound_to 6896
  145.1143  140.8630  143.3851 H   0  0  0  0  0  0  0  0  0  0  0  0  # atno 7974 bound_to 7965
  155.4180  140.0516  157.3027 H   0  0  0  0  0  0  0  0  0  0  0  0  # atno 8008 bound_to 7997
  154.4915  140.2122  155.9496 H   0  0  0  0  0  0  0  0  0  0  0  0  # atno 8009 bound_to 7997
  156.1349  140.3165  155.8410 H   0  0  0  0  0  0  0  0  0  0  0  0  # atno 8010 bound_to 7997
  140.2846  143.3260  152.0407 H   0  0  0  0  0  0  0  0  0  0  0  0  # atno 10167 bound_to 10162
  157.2188  131.0714  151.1924 H   0  0  0  0  0  0  0  0  0  0  0  0  # atno 10718 bound_to 10713
  153.1052  135.4794  154.8938 H   0  0  0  0  0  0  0  0  0  0  0  0  # atno 10763 bound_to 10752
  154.7422  135.3085  154.8710 H   0  0  0  0  0  0  0  0  0  0  0  0  # atno 10764 bound_to 10752
  153.9315  135.6844  153.4799 H   0  0  0  0  0  0  0  0  0  0  0  0  # atno 10765 bound_to 10752
  140.0521  134.9250  157.1036 H   0  0  0  0  0  0  0  0  0  0  0  0  # atno 11005 bound_to 11000
  145.0812  139.2958  143.5782 LP  0  0  0  0  0  0  0  0  0  0  0  0  # atno 17320 bound_to 7965
  146.3524  140.0319  142.8650 LP  0  0  0  0  0  0  0  0  0  0  0  0  # atno 17321 bound_to 7965
  139.4953  144.6567  151.6555 LP  0  0  0  0  0  0  0  0  0  0  0  0  # atno 17342 bound_to 10162
  140.5783  143.9990  150.6254 LP  0  0  0  0  0  0  0  0  0  0  0  0  # atno 17343 bound_to 10162
  157.3597  130.7125  149.6493 LP  0  0  0  0  0  0  0  0  0  0  0  0  # atno 17370 bound_to 10713
  155.9684  130.4229  150.4538 LP  0  0  0  0  0  0  0  0  0  0  0  0  # atno 17371 bound_to 10713
  140.3901  134.2194  155.7166 LP  0  0  0  0  0  0  0  0  0  0  0  0  # atno 17394 bound_to 11000
  141.1935  133.8149  157.0795 LP  0  0  0  0  0  0  0  0  0  0  0  0  # atno 17395 bound_to 11000

$$$$
