AV-unprocessed.smi:1346|AV-procd|sdf|5514|dock1
  -GOLD-   22720 5 93D 1   1.00000     0.00000
 Structure written by MMmdl.
 47 48  0  0  0  0  0  0  0  0  1 V2000
  152.7186  138.7408  154.4977 C   0  0  0  0  0  0  0  0  0  0  0  0
  151.5713  137.7881  154.6754 C   0  0  0  0  0  0  0  0  0  0  0  0
  151.8139  136.5090  154.9077 N   0  0  0  0  0  0  0  0  0  0  0  0
  150.5624  135.8964  155.0217 O   0  0  0  0  0  0  0  0  0  0  0  0
  149.6037  136.8419  154.8511 C   0  0  0  0  0  0  0  0  0  0  0  0
  148.1886  136.3791  154.9368 C   0  0  0  0  0  0  0  0  0  0  0  0
  150.1747  138.0646  154.6254 C   0  0  0  0  0  0  0  0  0  0  0  0
  149.5017  139.3904  154.3801 C   0  0  0  0  0  0  0  0  0  0  0  0
  149.8394  140.3580  155.5142 C   0  0  0  0  0  0  0  0  0  0  0  0
  150.2608  141.4854  155.2568 O   0  0  0  0  0  0  0  0  0  0  0  0
  149.6485  139.9067  156.7631 N   0  0  0  0  0  0  0  0  0  0  0  0
  149.8967  140.6688  157.9818 C   0  0  0  0  0  0  0  0  0  0  0  0
  151.3295  141.2179  158.0266 C   0  0  0  0  0  0  0  0  0  0  0  0
  151.5362  141.8736  159.2687 O   0  0  0  0  0  0  0  0  0  0  0  0
  152.7744  142.5690  159.3655 C   0  0  2  0  0  0  0  0  0  0  0  0
  153.4894  142.0877  160.6420 C   0  0  0  0  0  0  0  0  0  0  0  0
  152.7381  142.5063  161.9172 C   0  0  0  0  0  0  0  0  0  0  0  0
  152.4961  144.0226  161.9506 C   0  0  0  0  0  0  0  0  0  0  0  0
  151.7616  144.4972  160.6867 C   0  0  0  0  0  0  0  0  0  0  0  0
  152.5224  144.0949  159.4076 C   0  0  2  0  0  0  0  0  0  0  0  0
  151.8227  144.6150  158.1426 C   0  0  0  0  0  0  0  0  0  0  0  0
  152.5548  139.6588  155.0618 H   0  0  0  0  0  0  0  0  0  0  0  0
  152.8390  139.0124  153.4489 H   0  0  0  0  0  0  0  0  0  0  0  0
  153.6598  138.3088  154.8396 H   0  0  0  0  0  0  0  0  0  0  0  0
  147.5326  137.1864  155.2615 H   0  0  0  0  0  0  0  0  0  0  0  0
  148.0894  135.5601  155.6492 H   0  0  0  0  0  0  0  0  0  0  0  0
  147.8386  136.0282  153.9661 H   0  0  0  0  0  0  0  0  0  0  0  0
  149.8266  139.8323  153.4375 H   0  0  0  0  0  0  0  0  0  0  0  0
  148.4194  139.2789  154.3012 H   0  0  0  0  0  0  0  0  0  0  0  0
  149.2925  138.9689  156.8789 H   0  0  0  0  0  0  0  0  0  0  0  0
  149.1822  141.4911  158.0265 H   0  0  0  0  0  0  0  0  0  0  0  0
  149.7056  140.0429  158.8550 H   0  0  0  0  0  0  0  0  0  0  0  0
  152.0438  140.3997  157.9258 H   0  0  0  0  0  0  0  0  0  0  0  0
  151.5009  141.9012  157.1938 H   0  0  0  0  0  0  0  0  0  0  0  0
  153.4184  142.3369  158.5145 H   0  0  0  0  0  0  0  0  0  0  0  0
  153.6064  141.0038  160.6174 H   0  0  0  0  0  0  0  0  0  0  0  0
  154.4975  142.5031  160.6678 H   0  0  0  0  0  0  0  0  0  0  0  0
  151.7825  141.9828  161.9696 H   0  0  0  0  0  0  0  0  0  0  0  0
  153.3042  142.2014  162.7978 H   0  0  0  0  0  0  0  0  0  0  0  0
  151.9203  144.2878  162.8376 H   0  0  0  0  0  0  0  0  0  0  0  0
  153.4507  144.5434  162.0350 H   0  0  0  0  0  0  0  0  0  0  0  0
  150.7555  144.0757  160.6682 H   0  0  0  0  0  0  0  0  0  0  0  0
  151.6399  145.5803  160.7231 H   0  0  0  0  0  0  0  0  0  0  0  0
  153.4988  144.5801  159.4458 H   0  0  0  0  0  0  0  0  0  0  0  0
  150.8137  144.2132  158.0513 H   0  0  0  0  0  0  0  0  0  0  0  0
  152.3756  144.3382  157.2447 H   0  0  0  0  0  0  0  0  0  0  0  0
  151.7433  145.7022  158.1581 H   0  0  0  0  0  0  0  0  0  0  0  0
  1  2  1  0  0  0  0
  1 22  1  0  0  0  0
  1 23  1  0  0  0  0
  1 24  1  0  0  0  0
  2  7  1  0  0  0  0
  2  3  2  0  0  0  0
  3  4  1  0  0  0  0
  4  5  1  0  0  0  0
  5  6  1  0  0  0  0
  5  7  2  0  0  0  0
  6 25  1  0  0  0  0
  6 26  1  0  0  0  0
  6 27  1  0  0  0  0
  7  8  1  0  0  0  0
  8  9  1  0  0  0  0
  8 28  1  0  0  0  0
  8 29  1  0  0  0  0
  9 10  2  0  0  0  0
  9 11  1  0  0  0  0
 11 12  1  0  0  0  0
 11 30  1  0  0  0  0
 12 13  1  0  0  0  0
 12 31  1  0  0  0  0
 12 32  1  0  0  0  0
 13 14  1  0  0  0  0
 13 33  1  0  0  0  0
 13 34  1  0  0  0  0
 14 15  1  0  0  0  0
 15 20  1  0  0  0  0
 15 16  1  0  0  0  0
 15 35  1  0  0  0  0
 16 17  1  0  0  0  0
 16 36  1  0  0  0  0
 16 37  1  0  0  0  0
 17 18  1  0  0  0  0
 17 38  1  0  0  0  0
 17 39  1  0  0  0  0
 18 19  1  0  0  0  0
 18 40  1  0  0  0  0
 18 41  1  0  0  0  0
 19 20  1  0  0  0  0
 19 42  1  0  0  0  0
 19 43  1  0  0  0  0
 20 21  1  0  0  0  0
 20 44  1  0  0  0  0
 21 45  1  0  0  0  0
 21 46  1  0  0  0  0
 21 47  1  0  0  0  0
M  END
> <s_m_source_file>
AV-unprocessed.smi

> <i_m_source_file_index>
1346

> <i_lp_mmshare_version>
43012

> <i_f3d_flags>
0

> <s_epik_input>
W0NIM11jMW5vYyhbQ0gzXSljMVtDSDJdQyg9TylbTkhdW0NIMl1bQ0gyXU9bQ0BASF0yW0NIMl1bQ0gyXVtDSDJdW0NIMl1bQ0BIXTJbQ0gzXQ==

> <s_epik_cmdline>
J2VwaWtfcHl0aG9uJywgJy1waCcsICc3LjAnLCAnLXRuJywgJzgnLCAnLW1hJywgJzIwMCcsICctbWV0YWxfYmluZGluZycsICctaW1hZScsICc8aW5maWxlLm1hZT4nLCAnLW9tYWUnLCAnPG91dGZpbGUubWFlPic=

> <r_lp_tautomer_probability>
1

> <r_epik_Ionization_Penalty>
3.26154e-08

> <r_epik_Ionization_Penalty_Charging>
0

> <r_epik_Ionization_Penalty_Neutral>
3.26154e-08

> <r_epik_State_Penalty>
-0

> <r_epik_Charging_Adjusted_Penalty>
0

> <i_epik_Tot_Q>
0

> <i_epik_Tot_abs_Q>
0

> <r_epik_Metal_State_Penalty>
-0

> <b_epik_Metal_Only>
0

> <s_lp_Force_Field>
OPLS_2005

> <r_lp_Energy>
6.35262

> <b_lp_Chiralities_Consistent>
1

> <s_lp_Variant>
AV-unprocessed.smi:1346-3

> <Gold.Version>
5.8.1

> <Gold.Id.Protein>
6NUR|6NUR_protein|mol2

> <Gold.PLP.Fitness>
50.3582

> <Gold.PLP.PLP>
-47.5864

> <Gold.PLP.part.hbond>
-1.9659

> <Gold.PLP.part.metal>
0.0000

> <Gold.PLP.part.buried>
-4.8185

> <Gold.PLP.part.nonpolar>
-40.7305

> <Gold.PLP.part.repulsive>
0.3550

> <Gold.PLP.ligand.clash>
0.0000

> <Gold.PLP.ligand.torsion>
0.8509

> <Gold.PLP.Chemscore.Hbond>
1.3890

> <Gold.PLP.Chemscore.CHOScore>
0.0000

> <Gold.PLP.Chemscore.Metal>
0.0000

> <Gold.Chemscore.Hbonds>
donor molecule, donor type, donor heavy atom, donor atom, acceptor molecule, acceptor atom, score
      P1  H  7989  7998       L1    10  0.15
      P1  H 10752 10764       L1     3  0.88

> <Gold.PLP.Chemscore.Internal.Correction>
0.3066

> <Gold.Rescore>
     Score         DG    S(hbond)    S(metal)    S(lipo)     H(rot)  DE(clash)    DE(int)     intcor
     17.85     -19.82       1.10        0.00     129.18       1.74       0.08       1.89       ----

> <Gold.Chemscore.Fitness>
17.8515

> <Gold.Chemscore.DG>
-19.8172

> <Gold.Chemscore.ZeroCoef>
-5.4800

> <Gold.Chemscore.Hbond>
1.0974

> <Gold.Chemscore.Metal>
0.0000

> <Gold.Chemscore.Lipo>
129.1787

> <Gold.Chemscore.Internal_Hbond>
0.0000

> <Gold.Chemscore.DEClash>
0.0799

> <Gold.Chemscore.DEInternal>
1.8857

> <Gold.Chemscore.Rot>
1.7352

> <Gold.Chemscore.Internal.Correction>
   9.000000E+99

> <Gold.Chemscore.Hbonds>
donor molecule, donor type, donor heavy atom, donor atom, acceptor molecule, acceptor atom, score
      P1  H  7989  7998       L1    10  0.03
      P1  H 10752 10764       L1     3  0.79

> <Gold.Chemscore.Hbond.Weighted>
-3.6654

> <Gold.Chemscore.Metal.Weighted>
-0.0000

> <Gold.Chemscore.Lipo.Weighted>
-15.1139

> <Gold.Chemscore.Internal_Hbond.Weighted>
0.0000

> <Gold.Chemscore.DEClash.Weighted>
0.0799

> <Gold.Chemscore.DEInternal.Weighted>
1.8857

> <Gold.Chemscore.Rot.Weighted>
4.4420

> <Gold.Chemscore.Internal.Correction.Weighted>
   9.000000E+99

> <Gold.Protein.RotatedTorsions>
[ 6907 6896 6895 6894 ] final  -97.66 input  -60.11 | X-H torsion
[ 7974 7965 7964 7962 ] final  178.81 input  175.53 | X-H torsion
[ 8008 7997 7996 7995 ] final    8.05 input   59.86 | X-H torsion
[ 10167 10162 10161 10158 ] final -163.61 input  -65.29 | X-H torsion
[ 10718 10713 10712 10709 ] final  102.54 input   66.30 | X-H torsion
[ 10763 10752 10751 10750 ] final  -64.62 input  -60.55 | X-H torsion
[ 11005 11000 10999 10996 ] final   71.98 input  -57.11 | X-H torsion

> <Gold.Protein.ActiveResidues>
 VAL166  LYS551  ARG553  GLY616  TRP617  ASP618  TYR619  PRO620  LYS621  CYS622 
 ASP623  PHE694  ASN695  SER759  ASP760  ASP761  ALA762  ILE779  LEU786  VAL792 
 PHE793  MET794  SER795  GLU796  ALA797  LYS798  CYS799  TRP800  GLU811  SER814 

> <Gold.Protein.RotatedAtoms>
  150.7023  134.1315  159.4071 H   0  0  0  0  0  0  0  0  0  0  0  0  # atno 6907 bound_to 6896
  151.9300  135.0258  160.0538 H   0  0  0  0  0  0  0  0  0  0  0  0  # atno 6908 bound_to 6896
  152.2183  133.4929  159.5185 H   0  0  0  0  0  0  0  0  0  0  0  0  # atno 6909 bound_to 6896
  144.7152  140.0454  143.6436 H   0  0  0  0  0  0  0  0  0  0  0  0  # atno 7974 bound_to 7965
  154.7618  140.2786  155.6208 H   0  0  0  0  0  0  0  0  0  0  0  0  # atno 8008 bound_to 7997
  156.2917  140.2658  156.2326 H   0  0  0  0  0  0  0  0  0  0  0  0  # atno 8009 bound_to 7997
  155.0008  140.0373  157.2349 H   0  0  0  0  0  0  0  0  0  0  0  0  # atno 8010 bound_to 7997
  139.6308  144.0443  152.2014 H   0  0  0  0  0  0  0  0  0  0  0  0  # atno 10167 bound_to 10162
  157.6799  131.0756  150.5420 H   0  0  0  0  0  0  0  0  0  0  0  0  # atno 10718 bound_to 10713
  154.3328  135.6173  153.5559 H   0  0  0  0  0  0  0  0  0  0  0  0  # atno 10763 bound_to 10752
  152.9810  135.5751  154.4942 H   0  0  0  0  0  0  0  0  0  0  0  0  # atno 10764 bound_to 10752
  154.4632  135.2856  155.1674 H   0  0  0  0  0  0  0  0  0  0  0  0  # atno 10765 bound_to 10752
  139.9515  134.7219  156.0852 H   0  0  0  0  0  0  0  0  0  0  0  0  # atno 11005 bound_to 11000
  145.9989  139.3074  143.0940 LP  0  0  0  0  0  0  0  0  0  0  0  0  # atno 17320 bound_to 7965
  145.8817  140.9359  143.0598 LP  0  0  0  0  0  0  0  0  0  0  0  0  # atno 17321 bound_to 7965
  140.0108  144.6225  150.7649 LP  0  0  0  0  0  0  0  0  0  0  0  0  # atno 17342 bound_to 10162
  140.7438  143.2851  151.3486 LP  0  0  0  0  0  0  0  0  0  0  0  0  # atno 17343 bound_to 10162
  156.5727  130.4284  149.6012 LP  0  0  0  0  0  0  0  0  0  0  0  0  # atno 17370 bound_to 10713
  156.2727  130.7026  151.1828 LP  0  0  0  0  0  0  0  0  0  0  0  0  # atno 17371 bound_to 10713
  141.1178  133.6622  156.3139 LP  0  0  0  0  0  0  0  0  0  0  0  0  # atno 17394 bound_to 11000
  140.5709  134.5842  157.5457 LP  0  0  0  0  0  0  0  0  0  0  0  0  # atno 17395 bound_to 11000

$$$$
