AV-unprocessed.smi:1226|AV-procd|sdf|5144|dock5
  -GOLD-   22720 4213D 1   1.00000     0.00000
 Structure written by MMmdl.
 37 38  0  0  0  0  0  0  0  0  1 V2000
  145.4120  137.0858  154.9348 C   0  0  0  0  0  0  0  0  0  0  0  0
  146.0756  138.1795  154.1701 C   0  0  0  0  0  0  0  0  0  0  0  0
  146.6352  139.2477  154.7438 N   0  0  0  0  0  0  0  0  0  0  0  0
  147.1922  140.1300  153.8129 C   0  0  0  0  0  0  0  0  0  0  0  0
  147.8691  141.3817  154.2825 C   0  0  0  0  0  0  0  0  0  0  0  0
  149.1037  141.0835  155.1496 C   0  0  0  0  0  0  0  0  0  0  0  0
  149.6020  142.2847  155.8095 N   0  0  0  0  0  0  0  0  0  0  0  0
  150.6782  142.3309  156.6066 C   0  0  0  0  0  0  0  0  0  0  0  0
  151.3811  141.3566  156.8751 O   0  0  0  0  0  0  0  0  0  0  0  0
  150.8919  143.5649  157.0825 N   0  0  0  0  0  0  0  0  0  0  0  0
  151.9688  143.9332  157.9950 C   0  0  0  0  0  0  0  0  0  0  0  0
  152.0934  142.9484  159.1711 C   0  0  2  0  0  0  0  0  0  0  0  0
  152.6646  143.5504  160.4562 C   0  0  0  0  0  0  0  0  0  0  0  0
  153.3205  142.3657  161.1502 C   0  0  0  0  0  0  0  0  0  0  0  0
  153.3393  141.2666  160.0843 C   0  0  0  0  0  0  0  0  0  0  0  0
  153.0302  141.9288  158.8665 O   0  0  0  0  0  0  0  0  0  0  0  0
  147.0425  139.7112  152.5141 C   0  0  0  0  0  0  0  0  0  0  0  0
  146.1962  138.1914  152.4150 S   0  0  0  0  0  0  0  0  0  0  0  0
  145.6230  137.1798  156.0005 H   0  0  0  0  0  0  0  0  0  0  0  0
  145.7751  136.1170  154.5916 H   0  0  0  0  0  0  0  0  0  0  0  0
  144.3332  137.1296  154.7862 H   0  0  0  0  0  0  0  0  0  0  0  0
  148.1665  141.9864  153.4249 H   0  0  0  0  0  0  0  0  0  0  0  0
  147.1614  141.9915  154.8456 H   0  0  0  0  0  0  0  0  0  0  0  0
  148.8752  140.3176  155.8928 H   0  0  0  0  0  0  0  0  0  0  0  0
  149.9048  140.6833  154.5276 H   0  0  0  0  0  0  0  0  0  0  0  0
  149.0886  143.1391  155.6501 H   0  0  0  0  0  0  0  0  0  0  0  0
  150.2599  144.3009  156.8035 H   0  0  0  0  0  0  0  0  0  0  0  0
  152.9138  143.9951  157.4528 H   0  0  0  0  0  0  0  0  0  0  0  0
  151.7633  144.9358  158.3709 H   0  0  0  0  0  0  0  0  0  0  0  0
  151.1292  142.4800  159.3787 H   0  0  0  0  0  0  0  0  0  0  0  0
  153.4221  144.2989  160.2201 H   0  0  0  0  0  0  0  0  0  0  0  0
  151.8989  144.0288  161.0677 H   0  0  0  0  0  0  0  0  0  0  0  0
  154.3290  142.6222  161.4768 H   0  0  0  0  0  0  0  0  0  0  0  0
  152.7555  142.0463  162.0265 H   0  0  0  0  0  0  0  0  0  0  0  0
  154.3010  140.7566  160.0238 H   0  0  0  0  0  0  0  0  0  0  0  0
  152.5706  140.5202  160.2903 H   0  0  0  0  0  0  0  0  0  0  0  0
  147.3782  140.2020  151.6126 H   0  0  0  0  0  0  0  0  0  0  0  0
  1  2  1  0  0  0  0
  1 19  1  0  0  0  0
  1 20  1  0  0  0  0
  1 21  1  0  0  0  0
  2 18  1  0  0  0  0
  2  3  2  0  0  0  0
  3  4  1  0  0  0  0
  4  5  1  0  0  0  0
  4 17  2  0  0  0  0
  5  6  1  0  0  0  0
  5 22  1  0  0  0  0
  5 23  1  0  0  0  0
  6  7  1  0  0  0  0
  6 24  1  0  0  0  0
  6 25  1  0  0  0  0
  7  8  1  0  0  0  0
  7 26  1  0  0  0  0
  8  9  2  0  0  0  0
  8 10  1  0  0  0  0
 10 11  1  0  0  0  0
 10 27  1  0  0  0  0
 11 12  1  0  0  0  0
 11 28  1  0  0  0  0
 11 29  1  0  0  0  0
 12 16  1  0  0  0  0
 12 13  1  0  0  0  0
 12 30  1  0  0  0  0
 13 14  1  0  0  0  0
 13 31  1  0  0  0  0
 13 32  1  0  0  0  0
 14 15  1  0  0  0  0
 14 33  1  0  0  0  0
 14 34  1  0  0  0  0
 15 16  1  0  0  0  0
 15 35  1  0  0  0  0
 15 36  1  0  0  0  0
 17 18  1  0  0  0  0
 17 37  1  0  0  0  0
M  END
> <s_m_source_file>
AV-unprocessed.smi

> <i_m_source_file_index>
1226

> <i_lp_mmshare_version>
43012

> <i_f3d_flags>
0

> <s_epik_input>
W0NIM11jMW5jKFtjSF1zMSlbQ0gyXVtDSDJdW05IXUMoPU8pW05IXVtDSDJdW0NAQEhdMltDSDJdW0NIMl1bQ0gyXU8y

> <s_epik_cmdline>
J2VwaWtfcHl0aG9uJywgJy1waCcsICc3LjAnLCAnLXRuJywgJzgnLCAnLW1hJywgJzIwMCcsICctbWV0YWxfYmluZGluZycsICctaW1hZScsICc8aW5maWxlLm1hZT4nLCAnLW9tYWUnLCAnPG91dGZpbGUubWFlPic=

> <r_epik_Ionization_Penalty>
0.00199722

> <r_epik_Ionization_Penalty_Charging>
0

> <r_epik_Ionization_Penalty_Neutral>
0.00199722

> <r_epik_State_Penalty>
0.00132705

> <r_epik_Charging_Adjusted_Penalty>
0.00132705

> <i_epik_Tot_Q>
0

> <i_epik_Tot_abs_Q>
0

> <r_epik_Metal_State_Penalty>
-0

> <b_epik_Metal_Only>
0

> <s_lp_Force_Field>
OPLS_2005

> <r_lp_Energy>
9.02747

> <b_lp_Chiralities_Consistent>
1

> <s_lp_Variant>
AV-unprocessed.smi:1226-1

> <Gold.Version>
5.8.1

> <Gold.Id.Protein>
6NUR|6NUR_protein|mol2

> <Gold.PLP.Fitness>
43.7356

> <Gold.PLP.PLP>
-36.0914

> <Gold.PLP.part.hbond>
-2.0000

> <Gold.PLP.part.metal>
0.0000

> <Gold.PLP.part.buried>
-3.5168

> <Gold.PLP.part.nonpolar>
-32.2218

> <Gold.PLP.part.repulsive>
0.2622

> <Gold.PLP.ligand.clash>
0.0000

> <Gold.PLP.ligand.torsion>
0.4980

> <Gold.PLP.Chemscore.Hbond>
1.9120

> <Gold.PLP.Chemscore.CHOScore>
0.9553

> <Gold.PLP.Chemscore.Metal>
0.0000

> <Gold.Chemscore.Hbonds>
donor molecule, donor type, donor heavy atom, donor atom, acceptor molecule, acceptor atom, score
      L1  H     7    26       P1  8028  1.00
      L1  H    10    27       P1  8028  0.91
      L1  C    17    37       P1  7957  0.75

> <Gold.PLP.Chemscore.Internal.Correction>
0.0383

> <Gold.Rescore>
     Score         DG    S(hbond)    S(metal)    S(lipo)     H(rot)  DE(clash)    DE(int)     intcor
     14.54     -18.11       1.91        0.00      91.55       1.75       0.08       3.48       ----

> <Gold.Chemscore.Fitness>
14.5429

> <Gold.Chemscore.DG>
-18.1091

> <Gold.Chemscore.ZeroCoef>
-5.4800

> <Gold.Chemscore.Hbond>
1.9145

> <Gold.Chemscore.Metal>
0.0000

> <Gold.Chemscore.Lipo>
91.5515

> <Gold.Chemscore.Internal_Hbond>
0.0000

> <Gold.Chemscore.DEClash>
0.0840

> <Gold.Chemscore.DEInternal>
3.4823

> <Gold.Chemscore.Rot>
1.7487

> <Gold.Chemscore.Internal.Correction>
   9.000000E+99

> <Gold.Chemscore.Hbonds>
donor molecule, donor type, donor heavy atom, donor atom, acceptor molecule, acceptor atom, score
      L1  H     7    26       P1  8028  0.96
      L1  H    10    27       P1  8028  0.84

> <Gold.Chemscore.Hbond.Weighted>
-6.3943

> <Gold.Chemscore.Metal.Weighted>
-0.0000

> <Gold.Chemscore.Lipo.Weighted>
-10.7115

> <Gold.Chemscore.Internal_Hbond.Weighted>
0.0000

> <Gold.Chemscore.DEClash.Weighted>
0.0840

> <Gold.Chemscore.DEInternal.Weighted>
3.4823

> <Gold.Chemscore.Rot.Weighted>
4.4768

> <Gold.Chemscore.Internal.Correction.Weighted>
   9.000000E+99

> <Gold.Protein.RotatedTorsions>
[ 6907 6896 6895 6894 ] final -172.71 input  -60.11 | X-H torsion
[ 7974 7965 7964 7962 ] final   50.53 input  175.53 | X-H torsion
[ 8008 7997 7996 7995 ] final  -15.09 input   59.86 | X-H torsion
[ 10167 10162 10161 10158 ] final   26.07 input  -65.29 | X-H torsion
[ 10718 10713 10712 10709 ] final -151.23 input   66.30 | X-H torsion
[ 10763 10752 10751 10750 ] final   92.88 input  -60.55 | X-H torsion
[ 11005 11000 10999 10996 ] final   91.90 input  -57.11 | X-H torsion

> <Gold.Protein.ActiveResidues>
 VAL166  LYS551  ARG553  GLY616  TRP617  ASP618  TYR619  PRO620  LYS621  CYS622 
 ASP623  PHE694  ASN695  SER759  ASP760  ASP761  ALA762  ILE779  LEU786  VAL792 
 PHE793  MET794  SER795  GLU796  ALA797  LYS798  CYS799  TRP800  GLU811  SER814 

> <Gold.Protein.RotatedAtoms>
  151.5445  133.3427  159.2941 H   0  0  0  0  0  0  0  0  0  0  0  0  # atno 6907 bound_to 6896
  150.8516  134.7845  159.7024 H   0  0  0  0  0  0  0  0  0  0  0  0  # atno 6908 bound_to 6896
  152.4560  134.5298  159.9859 H   0  0  0  0  0  0  0  0  0  0  0  0  # atno 6909 bound_to 6896
  146.0003  139.4432  143.0019 H   0  0  0  0  0  0  0  0  0  0  0  0  # atno 7974 bound_to 7965
  154.5158  140.2206  155.9068 H   0  0  0  0  0  0  0  0  0  0  0  0  # atno 8008 bound_to 7997
  156.1606  140.3143  155.8766 H   0  0  0  0  0  0  0  0  0  0  0  0  # atno 8009 bound_to 7997
  155.3759  140.0469  157.3035 H   0  0  0  0  0  0  0  0  0  0  0  0  # atno 8010 bound_to 7997
  140.5054  144.0247  150.6350 H   0  0  0  0  0  0  0  0  0  0  0  0  # atno 10167 bound_to 10162
  156.4565  130.8192  151.2423 H   0  0  0  0  0  0  0  0  0  0  0  0  # atno 10718 bound_to 10713
  153.2241  135.4345  155.0522 H   0  0  0  0  0  0  0  0  0  0  0  0  # atno 10763 bound_to 10752
  154.8264  135.3363  154.6884 H   0  0  0  0  0  0  0  0  0  0  0  0  # atno 10764 bound_to 10752
  153.7315  135.7010  153.5044 H   0  0  0  0  0  0  0  0  0  0  0  0  # atno 10765 bound_to 10752
  139.8831  134.8701  156.3494 H   0  0  0  0  0  0  0  0  0  0  0  0  # atno 11005 bound_to 11000
  145.7498  140.9977  143.1256 LP  0  0  0  0  0  0  0  0  0  0  0  0  # atno 17320 bound_to 7965
  144.6917  139.9200  143.7467 LP  0  0  0  0  0  0  0  0  0  0  0  0  # atno 17321 bound_to 7965
  140.3555  143.2938  152.0441 LP  0  0  0  0  0  0  0  0  0  0  0  0  # atno 17342 bound_to 10162
  139.4882  144.6342  151.7009 LP  0  0  0  0  0  0  0  0  0  0  0  0  # atno 17343 bound_to 10162
  157.7500  131.0121  150.3371 LP  0  0  0  0  0  0  0  0  0  0  0  0  # atno 17370 bound_to 10713
  156.3762  130.3872  149.7137 LP  0  0  0  0  0  0  0  0  0  0  0  0  # atno 17371 bound_to 10713
  140.9604  133.7392  156.0394 LP  0  0  0  0  0  0  0  0  0  0  0  0  # atno 17394 bound_to 11000
  140.7996  134.3524  157.5443 LP  0  0  0  0  0  0  0  0  0  0  0  0  # atno 17395 bound_to 11000

$$$$
