AV-unprocessed.smi:711|AV-procd|sdf|3464|dock5
  -GOLD-   22720 0453D 1   1.00000     0.00000
 Structure written by MMmdl.
 29 30  0  0  0  0  0  0  0  0  1 V2000
  146.9432  140.4889  153.2615 O   0  0  0  0  0  0  0  0  0  0  0  0
  147.7810  140.7659  154.1176 C   0  0  0  0  0  0  0  0  0  0  0  0
  149.1036  140.3417  153.9595 N   0  0  0  0  0  0  0  0  0  0  0  0
  150.1481  140.5858  154.8517 C   0  0  0  0  0  0  0  0  0  0  0  0
  151.2711  140.1440  154.6091 O   0  0  0  0  0  0  0  0  0  0  0  0
  149.8333  141.3340  156.0118 N   0  0  0  0  0  0  0  0  0  0  0  0
  150.8714  141.5885  156.9849 C   0  0  0  0  0  0  0  0  0  0  0  0
  150.6598  142.8919  157.7874 C   0  0  2  0  0  0  0  0  0  0  0  0
  151.0000  143.9836  156.9567 O   0  0  0  0  0  0  0  0  0  0  0  0
  151.4126  142.9112  159.1136 C   0  0  0  0  0  0  0  0  0  0  0  0
  152.2606  141.8373  159.4655 C   0  0  0  0  0  0  0  0  0  0  0  0
  152.9396  141.8405  160.6992 C   0  0  0  0  0  0  0  0  0  0  0  0
  152.7749  142.9172  161.5906 C   0  0  0  0  0  0  0  0  0  0  0  0
  153.4265  142.9202  162.7774 F   0  0  0  0  0  0  0  0  0  0  0  0
  151.9296  143.9895  161.2483 C   0  0  0  0  0  0  0  0  0  0  0  0
  151.2485  143.9880  160.0156 C   0  0  0  0  0  0  0  0  0  0  0  0
  150.4269  145.0212  159.7098 F   0  0  0  0  0  0  0  0  0  0  0  0
  148.5328  141.7701  156.2104 C   0  0  0  0  0  0  0  0  0  0  0  0
  147.5239  141.5258  155.3400 C   0  0  0  0  0  0  0  0  0  0  0  0
  145.9277  142.1011  155.6634 Cl  0  0  0  0  0  0  0  0  0  0  0  0
  149.3207  139.8087  153.1301 H   0  0  0  0  0  0  0  0  0  0  0  0
  150.9802  140.7142  157.6297 H   0  0  0  0  0  0  0  0  0  0  0  0
  151.7947  141.6416  156.4048 H   0  0  0  0  0  0  0  0  0  0  0  0
  149.5946  143.0005  157.9936 H   0  0  0  0  0  0  0  0  0  0  0  0
  150.2023  144.3862  156.6491 H   0  0  0  0  0  0  0  0  0  0  0  0
  152.3869  141.0012  158.7933 H   0  0  0  0  0  0  0  0  0  0  0  0
  153.5844  141.0147  160.9622 H   0  0  0  0  0  0  0  0  0  0  0  0
  151.8000  144.8135  161.9343 H   0  0  0  0  0  0  0  0  0  0  0  0
  148.3105  142.3300  157.1080 H   0  0  0  0  0  0  0  0  0  0  0  0
  1  2  2  0  0  0  0
  2 19  1  0  0  0  0
  2  3  1  0  0  0  0
  3 21  1  0  0  0  0
  3  4  1  0  0  0  0
  4  5  2  0  0  0  0
  4  6  1  0  0  0  0
  6  7  1  0  0  0  0
  6 18  1  0  0  0  0
  7  8  1  0  0  0  0
  7 22  1  0  0  0  0
  7 23  1  0  0  0  0
  8  9  1  0  0  0  0
  8 10  1  0  0  0  0
  8 24  1  0  0  0  0
  9 25  1  0  0  0  0
 10 16  1  0  0  0  0
 10 11  2  0  0  0  0
 11 12  1  0  0  0  0
 11 26  1  0  0  0  0
 12 13  2  0  0  0  0
 12 27  1  0  0  0  0
 13 14  1  0  0  0  0
 13 15  1  0  0  0  0
 15 16  2  0  0  0  0
 15 28  1  0  0  0  0
 16 17  1  0  0  0  0
 18 19  2  0  0  0  0
 18 29  1  0  0  0  0
 19 20  1  0  0  0  0
M  END
> <s_m_source_file>
AV-unprocessed.smi

> <i_m_source_file_index>
711

> <i_lp_mmshare_version>
43012

> <i_f3d_flags>
0

> <s_epik_input>
Tz1jMVtuSF1jKD1PKW4oW2NIXWMxQ2wpW0NIMl1bQ0BIXShbT0hdKWMyW2NIXVtjSF1jKEYpW2NIXWMyRg==

> <s_epik_cmdline>
J2VwaWtfcHl0aG9uJywgJy1waCcsICc3LjAnLCAnLXRuJywgJzgnLCAnLW1hJywgJzIwMCcsICctbWV0YWxfYmluZGluZycsICctaW1hZScsICc8aW5maWxlLm1hZT4nLCAnLW9tYWUnLCAnPG91dGZpbGUubWFlPic=

> <r_lp_tautomer_probability>
0.999537

> <r_epik_Ionization_Penalty>
0.0292058

> <r_epik_Ionization_Penalty_Charging>
0.0292057

> <r_epik_Ionization_Penalty_Neutral>
9.07348e-08

> <r_epik_State_Penalty>
0.0240115

> <r_epik_Charging_Adjusted_Penalty>
0.0532172

> <i_epik_Tot_Q>
0

> <i_epik_Tot_abs_Q>
0

> <r_epik_Metal_State_Penalty>
2.21956

> <b_epik_Metal_Only>
0

> <s_lp_Force_Field>
OPLS_2005

> <r_lp_Energy>
11.2971

> <b_lp_Chiralities_Consistent>
1

> <s_lp_Variant>
AV-unprocessed.smi:711-1

> <Gold.Version>
5.8.1

> <Gold.Id.Protein>
6NUR|6NUR_protein|mol2

> <Gold.PLP.Fitness>
53.0675

> <Gold.PLP.PLP>
-45.7494

> <Gold.PLP.part.hbond>
-2.9929

> <Gold.PLP.part.metal>
0.0000

> <Gold.PLP.part.buried>
-2.8834

> <Gold.PLP.part.nonpolar>
-40.2180

> <Gold.PLP.part.repulsive>
0.4257

> <Gold.PLP.ligand.clash>
0.0000

> <Gold.PLP.ligand.torsion>
0.5573

> <Gold.PLP.Chemscore.Hbond>
2.5520

> <Gold.PLP.Chemscore.CHOScore>
0.2511

> <Gold.PLP.Chemscore.Metal>
0.0000

> <Gold.Chemscore.Hbonds>
donor molecule, donor type, donor heavy atom, donor atom, acceptor molecule, acceptor atom, score
      L1  H     3    21       P1  7957  0.83
      L1  H     9    25       P1  8028  1.00
      P1  H  7989  7998       L1     5  0.60
      L1  C    18    29       P1  8028  0.04

> <Gold.PLP.Chemscore.Internal.Correction>
0.0236

> <Gold.Rescore>
     Score         DG    S(hbond)    S(metal)    S(lipo)     H(rot)  DE(clash)    DE(int)     intcor
     15.32     -17.52       2.24        0.00      90.73       2.37       1.40       0.80       ----

> <Gold.Chemscore.Fitness>
15.3203

> <Gold.Chemscore.DG>
-17.5196

> <Gold.Chemscore.ZeroCoef>
-5.4800

> <Gold.Chemscore.Hbond>
2.2391

> <Gold.Chemscore.Metal>
0.0000

> <Gold.Chemscore.Lipo>
90.7322

> <Gold.Chemscore.Internal_Hbond>
0.0000

> <Gold.Chemscore.DEClash>
1.3995

> <Gold.Chemscore.DEInternal>
0.7998

> <Gold.Chemscore.Rot>
2.3652

> <Gold.Chemscore.Internal.Correction>
   9.000000E+99

> <Gold.Chemscore.Hbonds>
donor molecule, donor type, donor heavy atom, donor atom, acceptor molecule, acceptor atom, score
      L1  H     3    21       P1  7957  0.78
      L1  H     9    25       P1  8028  0.96
      P1  H  7989  7998       L1     5  0.24

> <Gold.Chemscore.Hbond.Weighted>
-7.4787

> <Gold.Chemscore.Metal.Weighted>
-0.0000

> <Gold.Chemscore.Lipo.Weighted>
-10.6157

> <Gold.Chemscore.Internal_Hbond.Weighted>
0.0000

> <Gold.Chemscore.DEClash.Weighted>
1.3995

> <Gold.Chemscore.DEInternal.Weighted>
0.7998

> <Gold.Chemscore.Rot.Weighted>
6.0548

> <Gold.Chemscore.Internal.Correction.Weighted>
   9.000000E+99

> <Gold.Protein.RotatedTorsions>
[ 6907 6896 6895 6894 ] final  166.74 input  -60.11 | X-H torsion
[ 7974 7965 7964 7962 ] final  -77.95 input  175.53 | X-H torsion
[ 8008 7997 7996 7995 ] final   92.39 input   59.86 | X-H torsion
[ 10167 10162 10161 10158 ] final  172.72 input  -65.29 | X-H torsion
[ 10718 10713 10712 10709 ] final -176.96 input   66.30 | X-H torsion
[ 10763 10752 10751 10750 ] final  165.52 input  -60.55 | X-H torsion
[ 11005 11000 10999 10996 ] final   56.02 input  -57.11 | X-H torsion

> <Gold.Protein.ActiveResidues>
 VAL166  LYS551  ARG553  GLY616  TRP617  ASP618  TYR619  PRO620  LYS621  CYS622 
 ASP623  PHE694  ASN695  SER759  ASP760  ASP761  ALA762  ILE779  LEU786  VAL792 
 PHE793  MET794  SER795  GLU796  ALA797  LYS798  CYS799  TRP800  GLU811  SER814 

> <Gold.Protein.RotatedAtoms>
  151.8743  133.3482  159.3744 H   0  0  0  0  0  0  0  0  0  0  0  0  # atno 6907 bound_to 6896
  150.7144  134.5082  159.5604 H   0  0  0  0  0  0  0  0  0  0  0  0  # atno 6908 bound_to 6896
  152.2621  134.8023  160.0480 H   0  0  0  0  0  0  0  0  0  0  0  0  # atno 6909 bound_to 6896
  145.5930  140.9425  143.1282 H   0  0  0  0  0  0  0  0  0  0  0  0  # atno 7974 bound_to 7965
  156.0348  140.3326  155.7179 H   0  0  0  0  0  0  0  0  0  0  0  0  # atno 8008 bound_to 7997
  155.5832  140.0639  157.2795 H   0  0  0  0  0  0  0  0  0  0  0  0  # atno 8009 bound_to 7997
  154.4368  140.1840  156.0986 H   0  0  0  0  0  0  0  0  0  0  0  0  # atno 8010 bound_to 7997
  139.5085  144.3342  152.0081 H   0  0  0  0  0  0  0  0  0  0  0  0  # atno 10167 bound_to 10162
  156.8224  130.9624  151.3111 H   0  0  0  0  0  0  0  0  0  0  0  0  # atno 10718 bound_to 10713
  154.3252  135.2755  155.2499 H   0  0  0  0  0  0  0  0  0  0  0  0  # atno 10763 bound_to 10752
  154.4835  135.5852  153.6410 H   0  0  0  0  0  0  0  0  0  0  0  0  # atno 10764 bound_to 10752
  152.9872  135.6117  154.3440 H   0  0  0  0  0  0  0  0  0  0  0  0  # atno 10765 bound_to 10752
  140.0561  134.5668  155.9206 H   0  0  0  0  0  0  0  0  0  0  0  0  # atno 11005 bound_to 11000
  144.7343  139.7632  143.7335 LP  0  0  0  0  0  0  0  0  0  0  0  0  # atno 17320 bound_to 7965
  146.1633  139.4755  142.9974 LP  0  0  0  0  0  0  0  0  0  0  0  0  # atno 17321 bound_to 7965
  140.2781  144.3889  150.6128 LP  0  0  0  0  0  0  0  0  0  0  0  0  # atno 17342 bound_to 10162
  140.6038  143.2167  151.7020 LP  0  0  0  0  0  0  0  0  0  0  0  0  # atno 17343 bound_to 10162
  157.6450  130.8836  149.9520 LP  0  0  0  0  0  0  0  0  0  0  0  0  # atno 17370 bound_to 10713
  156.0981  130.3658  150.0269 LP  0  0  0  0  0  0  0  0  0  0  0  0  # atno 17371 bound_to 10713
  141.1952  133.6586  156.5634 LP  0  0  0  0  0  0  0  0  0  0  0  0  # atno 17394 bound_to 11000
  140.3842  134.7497  157.4680 LP  0  0  0  0  0  0  0  0  0  0  0  0  # atno 17395 bound_to 11000

$$$$
