#       Name:                AV-unprocessed.smi:249
#       Creating user name   scv26
#       Creation time:       Thu Mar 26 21:02:56 2020


#       File generated by GOLD software.
#

@<TRIPOS>MOLECULE
AV-unprocessed.smi:249
    72    75     1
SMALL
NO_CHARGES


@<TRIPOS>ATOM
      1 ****        -2.7407  -4.3940   1.8941 C.3            1 S1                 0.0000
      2 ****        -3.3774  -3.5099   0.8124 C.3            1 S1                 0.0000
      3 ****        -2.8941  -2.1063   0.8738 N.4            1 S1                 1.0000
      4 ****        -3.4915  -1.3170   1.9849 C.3            1 S1                 0.0000
      5 ****        -2.8043   0.0506   2.1267 C.3            1 S1                 0.0000
      6 ****        -2.8585   0.8452   0.8054 C.3            1 S1                 0.0000
      7 ****        -2.2631   2.1855   0.9078 N.3            1 S1                 0.0000
      8 ****        -2.9673   3.1660   1.7268 C.3            1 S1                 0.0000
      9 ****        -0.9139   2.2577   1.0104 C.ar           1 S1                 0.0000
     10 ****        -0.3245   2.2145   2.2345 N.ar           1 S1                 0.0000
     11 ****         1.0075   2.2547   2.3375 C.ar           1 S1                 0.0000
     12 ****         1.9178   2.3282   1.3642 N.ar           1 S1                 0.0000
     13 ****         1.3273   2.3828   0.1361 C.ar           1 S1                 0.0000
     14 ****        -0.0703   2.3678  -0.1271 C.ar           1 S1                 0.0000
     15 ****        -0.2996   2.4561  -1.4944 N.2            1 S1                 0.0000
     16 ****         0.8969   2.5005  -2.0134 C.2            1 S1                 0.0000
     17 ****         1.9318   2.4279  -1.1077 N.pl3          1 S1                 0.0000
     18 ****         3.3510   2.4313  -1.4113 C.3            1 S1                 0.0000
     19 ****         4.1076   1.1329  -1.0103 C.3            1 S1                 0.0000
     20 ****         5.6129   1.3096  -1.3263 C.3            1 S1                 0.0000
     21 ****         6.1771   2.3654  -0.5759 O.3            1 S1                 0.0000
     22 ****         3.5289  -0.1531  -1.6776 C.3            1 S1                 0.0000
     23 ****         4.3577  -1.4139  -1.4770 C.3            1 S1                 0.0000
     24 ****         3.3610  -2.5159  -1.8023 C.3            1 S1                 0.0000
     25 ****         2.1369  -2.0555  -1.2536 O.3            1 S1                 0.0000
     26 ****         2.1682  -0.6359  -1.1407 C.3            1 S1                 0.0000
     27 ****        -2.2613  -0.0190  -0.3281 C.3            1 S1                 0.0000
     28 ****        -2.9479  -1.3952  -0.4379 C.3            1 S1                 0.0000
     29 ****        -4.3713  -1.2992  -1.0299 C.3            1 S1                 0.0000
     30 ****        -3.0541  -5.4313   1.7733 H              1 S1                 0.0000
     31 ****        -3.0280  -4.0853   2.8987 H              1 S1                 0.0000
     32 ****        -1.6523  -4.3696   1.8320 H              1 S1                 0.0000
     33 ****        -3.1206  -3.9377  -0.1577 H              1 S1                 0.0000
     34 ****        -4.4654  -3.5381   0.8864 H              1 S1                 0.0000
     35 ****        -4.5624  -1.1899   1.8240 H              1 S1                 0.0000
     36 ****        -3.3855  -1.8556   2.9260 H              1 S1                 0.0000
     37 ****        -3.2844   0.6100   2.9299 H              1 S1                 0.0000
     38 ****        -1.7694  -0.1049   2.4329 H              1 S1                 0.0000
     39 ****        -3.9089   1.0137   0.5668 H              1 S1                 0.0000
     40 ****        -2.5556   4.1639   1.5708 H              1 S1                 0.0000
     41 ****        -2.8931   2.9275   2.7881 H              1 S1                 0.0000
     42 ****        -4.0234   3.1967   1.4586 H              1 S1                 0.0000
     43 ****         1.4007   2.2144   3.3426 H              1 S1                 0.0000
     44 ****         1.0579   2.5652  -3.0798 H              1 S1                 0.0000
     45 ****         3.4731   2.6134  -2.4799 H              1 S1                 0.0000
     46 ****         3.7796   3.2967  -0.9050 H              1 S1                 0.0000
     47 ****         4.0250   1.0051   0.0698 H              1 S1                 0.0000
     48 ****         6.1831   0.4165  -1.0742 H              1 S1                 0.0000
     49 ****         5.7664   1.4990  -2.3890 H              1 S1                 0.0000
     50 ****         7.0960   2.4282  -0.7879 H              1 S1                 0.0000
     51 ****         3.4381   0.0146  -2.7521 H              1 S1                 0.0000
     52 ****         5.2386  -1.4583  -2.1180 H              1 S1                 0.0000
     53 ****         4.6816  -1.4992  -0.4384 H              1 S1                 0.0000
     54 ****         3.2491  -2.6237  -2.8821 H              1 S1                 0.0000
     55 ****         3.6493  -3.4823  -1.3885 H              1 S1                 0.0000
     56 ****         2.0443  -0.3837  -0.0873 H              1 S1                 0.0000
     57 ****         1.3322  -0.2076  -1.6920 H              1 S1                 0.0000
     58 ****        -2.3362   0.5064  -1.2808 H              1 S1                 0.0000
     59 ****        -1.1978  -0.1854  -0.1512 H              1 S1                 0.0000
     60 ****        -2.3536  -1.9816  -1.1403 H              1 S1                 0.0000
     61 ****        -4.3527  -0.7862  -1.9918 H              1 S1                 0.0000
     62 ****        -5.0561  -0.7497  -0.3851 H              1 S1                 0.0000
     63 ****        -4.8027  -2.2844  -1.2061 H              1 S1                 0.0000
     64 ****        -1.9093  -2.1754   1.0879 H              1 S1                 0.0000
     65 ****        -2.4410   2.4923  -0.0272 LP             1 S1                 0.0000
     66 ****        -0.8878   2.1526   3.0584 LP             1 S1                 0.0000
     67 ****         2.9061   2.3415   1.5160 LP             1 S1                 0.0000
     68 ****        -1.1785   2.4800  -1.9709 LP             1 S1                 0.0000
     69 ****         6.0685   2.1801   0.4008 LP             1 S1                 0.0000
     70 ****         5.7189   3.2241  -0.8053 LP             1 S1                 0.0000
     71 ****         2.0056  -2.4587  -0.3480 LP             1 S1                 0.0000
     72 ****         1.3819  -2.3254  -1.8512 LP             1 S1                 0.0000
@<TRIPOS>BOND
    1    1    2 1     
    2    1   30 1     
    3    1   31 1     
    4    1   32 1     
    5    2    3 1     
    6    2   33 1     
    7    2   34 1     
    8    3   28 1     
    9    3    4 1     
   10    3   64 1     
   11    4    5 1     
   12    4   35 1     
   13    4   36 1     
   14    5    6 1     
   15    5   37 1     
   16    5   38 1     
   17    6    7 1     
   18    6   27 1     
   19    6   39 1     
   20    7    8 1     
   21    7    9 1     
   22    8   40 1     
   23    8   41 1     
   24    8   42 1     
   25    9   14 ar    
   26    9   10 ar    
   27   10   11 ar    
   28   11   12 ar    
   29   11   43 1     
   30   12   13 ar    
   31   13   17 1     
   32   13   14 ar    
   33   14   15 1     
   34   15   16 2     
   35   16   17 1     
   36   16   44 1     
   37   17   18 1     
   38   18   19 1     
   39   18   45 1     
   40   18   46 1     
   41   19   20 1     
   42   19   22 1     
   43   19   47 1     
   44   20   21 1     
   45   20   48 1     
   46   20   49 1     
   47   21   50 1     
   48   22   26 1     
   49   22   23 1     
   50   22   51 1     
   51   23   24 1     
   52   23   52 1     
   53   23   53 1     
   54   24   25 1     
   55   24   54 1     
   56   24   55 1     
   57   25   26 1     
   58   26   56 1     
   59   26   57 1     
   60   27   28 1     
   61   27   58 1     
   62   27   59 1     
   63   28   29 1     
   64   28   60 1     
   65   29   61 1     
   66   29   62 1     
   67   29   63 1     
   68    7   65 1     
   69   10   66 1     
   70   12   67 1     
   71   15   68 1     
   72   21   69 1     
   73   21   70 1     
   74   25   71 1     
   75   25   72 1     
@<TRIPOS>SUBSTRUCTURE
      1 S1             1
@<TRIPOS>SET
LONE_PAIRS      STATIC     ATOMS    <user>   **** ""
8 65 66 67 68 69 70 71 72
DONOR_HYDROGENS      STATIC     ATOMS    <user>   **** ""
2 64 50
ATOM$BLUE        STATIC     ATOMS    COLORGROUP SYSTEM
8 65 66 67 68 69 70 71 72
ATOM$RED        STATIC     ATOMS    COLORGROUP SYSTEM
2 64 50
