AV-unprocessed.smi:518|AV-procd|sdf|2793|dock1
  -GOLD-   2262023263D 1   1.00000     0.00000
 Structure written by MMmdl.
 40 42  0  0  0  0  0  0  0  0  1 V2000
  150.2516  137.6078  159.3951 O   0  0  0  0  0  0  0  0  0  0  0  0
  150.2476  138.5292  158.3269 C   0  0  0  0  0  0  0  0  0  0  0  0
  151.5867  139.2772  158.2831 C   0  0  0  0  0  0  0  0  0  0  0  0
  151.4084  140.6688  157.8992 N   0  0  0  0  0  0  0  0  0  0  0  0
  151.0033  141.1674  156.7042 C   0  0  0  0  0  0  0  0  0  0  0  0
  150.6602  140.2810  155.5426 C   0  0  0  0  0  0  0  0  0  0  0  0
  149.2656  140.3711  155.1119 N   0  0  0  0  0  0  0  0  0  0  0  0
  148.9878  139.2755  154.1800 C   0  0  0  0  0  0  0  0  0  0  0  0
  147.5026  139.2767  153.7771 C   0  0  0  0  0  0  0  0  0  0  0  0
  147.1152  140.6124  153.1328 C   0  0  0  0  0  0  0  0  0  0  0  0
  147.5155  141.7618  154.0644 C   0  0  0  0  0  0  0  0  0  0  0  0
  149.0000  141.6572  154.4571 C   0  0  0  0  0  0  0  0  0  0  0  0
  150.9369  142.4970  156.6225 N   0  0  0  0  0  0  0  0  0  0  0  0
  151.3320  142.8985  157.8836 C   0  0  0  0  0  0  0  0  0  0  0  0
  151.4695  144.1926  158.4341 C   0  0  0  0  0  0  0  0  0  0  0  0
  151.9017  144.3590  159.7663 C   0  0  0  0  0  0  0  0  0  0  0  0
  152.2024  143.2364  160.5654 C   0  0  0  0  0  0  0  0  0  0  0  0
  152.7319  143.4528  162.1929 Cl  0  0  0  0  0  0  0  0  0  0  0  0
  152.0712  141.9380  160.0361 C   0  0  0  0  0  0  0  0  0  0  0  0
  151.6375  141.7777  158.7067 C   0  0  0  0  0  0  0  0  0  0  0  0
  149.7582  136.8446  159.1360 H   0  0  0  0  0  0  0  0  0  0  0  0
  150.0766  137.9903  157.3944 H   0  0  0  0  0  0  0  0  0  0  0  0
  149.4187  139.2247  158.4606 H   0  0  0  0  0  0  0  0  0  0  0  0
  152.0878  139.2255  159.2493 H   0  0  0  0  0  0  0  0  0  0  0  0
  152.2593  138.8049  157.5661 H   0  0  0  0  0  0  0  0  0  0  0  0
  151.3223  140.5142  154.7070 H   0  0  0  0  0  0  0  0  0  0  0  0
  150.8835  139.2535  155.8323 H   0  0  0  0  0  0  0  0  0  0  0  0
  149.6215  139.3628  153.2958 H   0  0  0  0  0  0  0  0  0  0  0  0
  149.2278  138.3224  154.6532 H   0  0  0  0  0  0  0  0  0  0  0  0
  147.3030  138.4579  153.0853 H   0  0  0  0  0  0  0  0  0  0  0  0
  146.8837  139.0975  154.6574 H   0  0  0  0  0  0  0  0  0  0  0  0
  147.6241  140.7209  152.1743 H   0  0  0  0  0  0  0  0  0  0  0  0
  146.0449  140.6419  152.9275 H   0  0  0  0  0  0  0  0  0  0  0  0
  147.3249  142.7185  153.5776 H   0  0  0  0  0  0  0  0  0  0  0  0
  146.8965  141.7426  154.9625 H   0  0  0  0  0  0  0  0  0  0  0  0
  149.2410  142.4791  155.1312 H   0  0  0  0  0  0  0  0  0  0  0  0
  149.6351  141.7691  153.5767 H   0  0  0  0  0  0  0  0  0  0  0  0
  151.2434  145.0586  157.8298 H   0  0  0  0  0  0  0  0  0  0  0  0
  152.0037  145.3536  160.1754 H   0  0  0  0  0  0  0  0  0  0  0  0
  152.3018  141.0750  160.6431 H   0  0  0  0  0  0  0  0  0  0  0  0
  1  2  1  0  0  0  0
  1 21  1  0  0  0  0
  2  3  1  0  0  0  0
  2 22  1  0  0  0  0
  2 23  1  0  0  0  0
  3  4  1  0  0  0  0
  3 24  1  0  0  0  0
  3 25  1  0  0  0  0
  4 20  1  0  0  0  0
  4  5  1  0  0  0  0
  5  6  1  0  0  0  0
  5 13  2  0  0  0  0
  6  7  1  0  0  0  0
  6 26  1  0  0  0  0
  6 27  1  0  0  0  0
  7 12  1  0  0  0  0
  7  8  1  0  0  0  0
  8  9  1  0  0  0  0
  8 28  1  0  0  0  0
  8 29  1  0  0  0  0
  9 10  1  0  0  0  0
  9 30  1  0  0  0  0
  9 31  1  0  0  0  0
 10 11  1  0  0  0  0
 10 32  1  0  0  0  0
 10 33  1  0  0  0  0
 11 12  1  0  0  0  0
 11 34  1  0  0  0  0
 11 35  1  0  0  0  0
 12 36  1  0  0  0  0
 12 37  1  0  0  0  0
 13 14  1  0  0  0  0
 14 20  2  0  0  0  0
 14 15  1  0  0  0  0
 15 16  2  0  0  0  0
 15 38  1  0  0  0  0
 16 17  1  0  0  0  0
 16 39  1  0  0  0  0
 17 18  1  0  0  0  0
 17 19  2  0  0  0  0
 19 20  1  0  0  0  0
 19 40  1  0  0  0  0
M  END
> <s_m_source_file>
AV-unprocessed.smi

> <i_m_source_file_index>
518

> <i_lp_mmshare_version>
43012

> <i_f3d_flags>
0

> <s_epik_input>
W2NIXTFbY0hdYyhDbClbY0hdYyhjMTIpbihbQ0gyXVtDSDJdW09IXSljKG4yKVtDSDJdTjNbQ0gyXVtDSDJdW0NIMl1bQ0gyXVtDSDJdMw==

> <s_epik_cmdline>
J2VwaWtfcHl0aG9uJywgJy1waCcsICc3LjAnLCAnLXRuJywgJzgnLCAnLW1hJywgJzIwMCcsICctbWV0YWxfYmluZGluZycsICctaW1hZScsICc8aW5maWxlLm1hZT4nLCAnLW9tYWUnLCAnPG91dGZpbGUubWFlPic=

> <r_epik_Ionization_Penalty>
0.921249

> <r_epik_Ionization_Penalty_Charging>
0

> <r_epik_Ionization_Penalty_Neutral>
0.921249

> <r_epik_State_Penalty>
0.872823

> <r_epik_Charging_Adjusted_Penalty>
0.872823

> <i_epik_Tot_Q>
0

> <i_epik_Tot_abs_Q>
0

> <r_epik_Metal_State_Penalty>
0.771629

> <b_epik_Metal_Only>
0

> <s_lp_Force_Field>
OPLS_2005

> <r_lp_Energy>
19.1482

> <b_lp_Chiralities_Consistent>
1

> <s_lp_Variant>
AV-unprocessed.smi:518-2

> <Gold.Version>
5.8.1

> <Gold.Id.Protein>
6NUR|6NUR_protein|mol2

> <Gold.PLP.Fitness>
45.6309

> <Gold.PLP.PLP>
-46.3419

> <Gold.PLP.part.hbond>
-1.0000

> <Gold.PLP.part.metal>
0.0000

> <Gold.PLP.part.buried>
-3.5445

> <Gold.PLP.part.nonpolar>
-41.0792

> <Gold.PLP.part.repulsive>
0.2012

> <Gold.PLP.ligand.clash>
0.0000

> <Gold.PLP.ligand.torsion>
0.3754

> <Gold.PLP.Chemscore.Hbond>
0.0000

> <Gold.PLP.Chemscore.CHOScore>
0.0000

> <Gold.PLP.Chemscore.Metal>
0.0000

> <Gold.PLP.Chemscore.Internal.Correction>
0.0398

> <Gold.Rescore>
     Score         DG    S(hbond)    S(metal)    S(lipo)     H(rot)  DE(clash)    DE(int)     intcor
     14.60     -15.03       0.00        0.00     125.86       2.02       0.14       0.29       ----

> <Gold.Chemscore.Fitness>
14.5951

> <Gold.Chemscore.DG>
-15.0277

> <Gold.Chemscore.ZeroCoef>
-5.4800

> <Gold.Chemscore.Hbond>
0.0000

> <Gold.Chemscore.Metal>
0.0000

> <Gold.Chemscore.Lipo>
125.8560

> <Gold.Chemscore.Internal_Hbond>
0.0000

> <Gold.Chemscore.DEClash>
0.1406

> <Gold.Chemscore.DEInternal>
0.2920

> <Gold.Chemscore.Rot>
2.0224

> <Gold.Chemscore.Internal.Correction>
   9.000000E+99

> <Gold.Chemscore.Hbond.Weighted>
-0.0000

> <Gold.Chemscore.Metal.Weighted>
-0.0000

> <Gold.Chemscore.Lipo.Weighted>
-14.7252

> <Gold.Chemscore.Internal_Hbond.Weighted>
0.0000

> <Gold.Chemscore.DEClash.Weighted>
0.1406

> <Gold.Chemscore.DEInternal.Weighted>
0.2920

> <Gold.Chemscore.Rot.Weighted>
5.1775

> <Gold.Chemscore.Internal.Correction.Weighted>
   9.000000E+99

> <Gold.Protein.RotatedTorsions>
[ 6907 6896 6895 6894 ] final   83.01 input  -60.11 | X-H torsion
[ 7974 7965 7964 7962 ] final   44.40 input  175.53 | X-H torsion
[ 8008 7997 7996 7995 ] final  -67.05 input   59.86 | X-H torsion
[ 10167 10162 10161 10158 ] final   90.24 input  -65.29 | X-H torsion
[ 10718 10713 10712 10709 ] final -100.61 input   66.30 | X-H torsion
[ 10763 10752 10751 10750 ] final  110.80 input  -60.55 | X-H torsion
[ 11005 11000 10999 10996 ] final -148.21 input  -57.11 | X-H torsion

> <Gold.Protein.ActiveResidues>
 VAL166  LYS551  ARG553  GLY616  TRP617  ASP618  TYR619  PRO620  LYS621  CYS622 
 ASP623  PHE694  ASN695  SER759  ASP760  ASP761  ALA762  ILE779  LEU786  VAL792 
 PHE793  MET794  SER795  GLU796  ALA797  LYS798  CYS799  TRP800  GLU811  SER814 

> <Gold.Protein.RotatedAtoms>
  152.5315  134.2961  159.9060 H   0  0  0  0  0  0  0  0  0  0  0  0  # atno 6907 bound_to 6896
  151.2912  133.4158  159.2641 H   0  0  0  0  0  0  0  0  0  0  0  0  # atno 6908 bound_to 6896
  151.0199  134.9477  159.8111 H   0  0  0  0  0  0  0  0  0  0  0  0  # atno 6909 bound_to 6896
  146.0571  139.5078  142.9681 H   0  0  0  0  0  0  0  0  0  0  0  0  # atno 7974 bound_to 7965
  154.4774  140.0900  156.7296 H   0  0  0  0  0  0  0  0  0  0  0  0  # atno 8008 bound_to 7997
  155.4559  140.3459  155.4288 H   0  0  0  0  0  0  0  0  0  0  0  0  # atno 8009 bound_to 7997
  156.1138  140.1455  156.9289 H   0  0  0  0  0  0  0  0  0  0  0  0  # atno 8010 bound_to 7997
  139.8493  144.6602  150.9189 H   0  0  0  0  0  0  0  0  0  0  0  0  # atno 10167 bound_to 10162
  156.0168  130.5335  150.6842 H   0  0  0  0  0  0  0  0  0  0  0  0  # atno 10718 bound_to 10713
  153.4541  135.3737  155.2301 H   0  0  0  0  0  0  0  0  0  0  0  0  # atno 10763 bound_to 10752
  154.8757  135.3893  154.4003 H   0  0  0  0  0  0  0  0  0  0  0  0  # atno 10764 bound_to 10752
  153.4566  135.7086  153.6140 H   0  0  0  0  0  0  0  0  0  0  0  0  # atno 10765 bound_to 10752
  140.7636  134.3270  157.5095 H   0  0  0  0  0  0  0  0  0  0  0  0  # atno 11005 bound_to 11000
  145.6624  141.0237  143.1702 LP  0  0  0  0  0  0  0  0  0  0  0  0  # atno 17320 bound_to 7965
  144.7154  139.8216  143.7400 LP  0  0  0  0  0  0  0  0  0  0  0  0  # atno 17321 bound_to 7965
  140.7789  143.3842  151.1423 LP  0  0  0  0  0  0  0  0  0  0  0  0  # atno 17342 bound_to 10162
  139.7481  143.8820  152.3069 LP  0  0  0  0  0  0  0  0  0  0  0  0  # atno 17343 bound_to 10162
  157.4537  131.0875  151.0819 LP  0  0  0  0  0  0  0  0  0  0  0  0  # atno 17370 bound_to 10713
  157.1327  130.6109  149.5533 LP  0  0  0  0  0  0  0  0  0  0  0  0  # atno 17371 bound_to 10713
  139.8767  134.9217  156.3282 LP  0  0  0  0  0  0  0  0  0  0  0  0  # atno 17394 bound_to 11000
  140.9640  133.7370  156.0441 LP  0  0  0  0  0  0  0  0  0  0  0  0  # atno 17395 bound_to 11000

$$$$
