AV-unprocessed.smi:1015|AV-procd|sdf|4436|dock5
  -GOLD-   22720 2393D 1   1.00000     0.00000
 Structure written by MMmdl.
 42 43  0  0  0  0  0  0  0  0  1 V2000
  148.1871  145.2162  161.2303 C   0  0  0  0  0  0  0  0  0  0  0  0
  148.6112  144.0659  160.5204 O   0  0  0  0  0  0  0  0  0  0  0  0
  149.3739  144.3869  159.3681 C   0  0  0  0  0  0  0  0  0  0  0  0
  150.8533  144.5779  159.7430 C   0  0  0  0  0  0  0  0  0  0  0  0
  151.5373  143.3872  160.2517 N   0  0  0  0  0  0  0  0  0  0  0  0
  152.0363  143.6230  161.6067 C   0  0  0  0  0  0  0  0  0  0  0  0
  152.6895  142.3754  162.2241 C   0  0  0  0  0  0  0  0  0  0  0  0
  153.8457  141.8702  161.3428 C   0  0  0  0  0  0  0  0  0  0  0  0
  154.4788  140.5883  161.9246 C   0  0  0  0  0  0  0  0  0  0  0  0
  155.2476  140.8613  163.1327 N   0  0  0  0  0  0  0  0  0  0  0  0
  155.6248  139.9400  164.0322 C   0  0  0  0  0  0  0  0  0  0  0  0
  155.4561  138.7305  163.8805 O   0  0  0  0  0  0  0  0  0  0  0  0
  156.2590  140.4693  165.3175 C   0  0  0  0  0  0  0  0  0  0  0  0
  156.3371  141.9181  165.2826 N   0  0  0  0  0  0  0  0  0  0  0  0
  155.3933  142.8507  165.4281 C   0  0  0  0  0  0  0  0  0  0  0  0
  155.8883  144.0719  165.2960 N   0  0  0  0  0  0  0  0  0  0  0  0
  157.2325  143.8422  165.0539 N   0  0  0  0  0  0  0  0  0  0  0  0
  157.5047  142.5661  165.0445 N   0  0  0  0  0  0  0  0  0  0  0  0
  153.3337  141.6845  159.8989 C   0  0  0  0  0  0  0  0  0  0  0  0
  152.6410  142.9591  159.3890 C   0  0  0  0  0  0  0  0  0  0  0  0
  147.6010  144.9147  162.0985 H   0  0  0  0  0  0  0  0  0  0  0  0
  147.5616  145.8570  160.6076 H   0  0  0  0  0  0  0  0  0  0  0  0
  149.0400  145.7961  161.5849 H   0  0  0  0  0  0  0  0  0  0  0  0
  149.2884  143.5658  158.6548 H   0  0  0  0  0  0  0  0  0  0  0  0
  148.9869  145.2817  158.8776 H   0  0  0  0  0  0  0  0  0  0  0  0
  151.3995  144.9981  158.8971 H   0  0  0  0  0  0  0  0  0  0  0  0
  150.8829  145.3413  160.5215 H   0  0  0  0  0  0  0  0  0  0  0  0
  152.7555  144.4437  161.5985 H   0  0  0  0  0  0  0  0  0  0  0  0
  151.2152  143.9408  162.2504 H   0  0  0  0  0  0  0  0  0  0  0  0
  153.0546  142.6080  163.2250 H   0  0  0  0  0  0  0  0  0  0  0  0
  151.9390  141.5922  162.3407 H   0  0  0  0  0  0  0  0  0  0  0  0
  154.6100  142.6489  161.3272 H   0  0  0  0  0  0  0  0  0  0  0  0
  153.7096  139.8432  162.1346 H   0  0  0  0  0  0  0  0  0  0  0  0
  155.1510  140.1391  161.1930 H   0  0  0  0  0  0  0  0  0  0  0  0
  155.4347  141.8315  163.3420 H   0  0  0  0  0  0  0  0  0  0  0  0
  155.6656  140.1701  166.1823 H   0  0  0  0  0  0  0  0  0  0  0  0
  157.2585  140.0506  165.4463 H   0  0  0  0  0  0  0  0  0  0  0  0
  154.3522  142.6359  165.6195 H   0  0  0  0  0  0  0  0  0  0  0  0
  154.1560  141.4325  159.2282 H   0  0  0  0  0  0  0  0  0  0  0  0
  152.6332  140.8492  159.8586 H   0  0  0  0  0  0  0  0  0  0  0  0
  152.2743  142.7554  158.3841 H   0  0  0  0  0  0  0  0  0  0  0  0
  153.3737  143.7624  159.2965 H   0  0  0  0  0  0  0  0  0  0  0  0
  1  2  1  0  0  0  0
  1 21  1  0  0  0  0
  1 22  1  0  0  0  0
  1 23  1  0  0  0  0
  2  3  1  0  0  0  0
  3  4  1  0  0  0  0
  3 24  1  0  0  0  0
  3 25  1  0  0  0  0
  4  5  1  0  0  0  0
  4 26  1  0  0  0  0
  4 27  1  0  0  0  0
  5 20  1  0  0  0  0
  5  6  1  0  0  0  0
  6  7  1  0  0  0  0
  6 28  1  0  0  0  0
  6 29  1  0  0  0  0
  7  8  1  0  0  0  0
  7 30  1  0  0  0  0
  7 31  1  0  0  0  0
  8  9  1  0  0  0  0
  8 19  1  0  0  0  0
  8 32  1  0  0  0  0
  9 10  1  0  0  0  0
  9 33  1  0  0  0  0
  9 34  1  0  0  0  0
 10 11  1  0  0  0  0
 10 35  1  0  0  0  0
 11 12  2  0  0  0  0
 11 13  1  0  0  0  0
 13 14  1  0  0  0  0
 13 36  1  0  0  0  0
 13 37  1  0  0  0  0
 14 18  1  0  0  0  0
 14 15  1  0  0  0  0
 15 16  2  0  0  0  0
 15 38  1  0  0  0  0
 16 17  1  0  0  0  0
 17 18  2  0  0  0  0
 19 20  1  0  0  0  0
 19 39  1  0  0  0  0
 19 40  1  0  0  0  0
 20 41  1  0  0  0  0
 20 42  1  0  0  0  0
M  END
> <s_m_source_file>
AV-unprocessed.smi

> <i_m_source_file_index>
1015

> <i_lp_mmshare_version>
43012

> <i_f3d_flags>
0

> <s_epik_input>
W0NIM11PW0NIMl1bQ0gyXU4xW0NIMl1bQ0gyXVtDSF0oW0NIMl1bQ0gyXTEpW0NIMl1bTkhdQyg9TylbQ0gyXW4yW2NIXW5ubjI=

> <s_epik_cmdline>
J2VwaWtfcHl0aG9uJywgJy1waCcsICc3LjAnLCAnLXRuJywgJzgnLCAnLW1hJywgJzIwMCcsICctbWV0YWxfYmluZGluZycsICctaW1hZScsICc8aW5maWxlLm1hZT4nLCAnLW9tYWUnLCAnPG91dGZpbGUubWFlPic=

> <r_lp_tautomer_probability>
1

> <r_epik_Ionization_Penalty>
2.39972

> <r_epik_Ionization_Penalty_Charging>
0

> <r_epik_Ionization_Penalty_Neutral>
2.39972

> <r_epik_State_Penalty>
2.55755

> <r_epik_Charging_Adjusted_Penalty>
2.55755

> <i_epik_Tot_Q>
0

> <i_epik_Tot_abs_Q>
0

> <r_epik_Metal_State_Penalty>
2.55755

> <b_epik_Metal_Only>
0

> <s_lp_Force_Field>
OPLS_2005

> <r_lp_Energy>
27.1713

> <b_lp_Chiralities_Consistent>
1

> <s_lp_Variant>
AV-unprocessed.smi:1015-3

> <Gold.Version>
5.8.1

> <Gold.Id.Protein>
6NUR|6NUR_protein|mol2

> <Gold.PLP.Fitness>
45.4084

> <Gold.PLP.PLP>
-45.3206

> <Gold.PLP.part.hbond>
-6.2433

> <Gold.PLP.part.metal>
0.0000

> <Gold.PLP.part.buried>
-5.0491

> <Gold.PLP.part.nonpolar>
-34.3110

> <Gold.PLP.part.repulsive>
0.2825

> <Gold.PLP.ligand.clash>
0.0000

> <Gold.PLP.ligand.torsion>
1.2936

> <Gold.PLP.Chemscore.Hbond>
0.8640

> <Gold.PLP.Chemscore.CHOScore>
0.0000

> <Gold.PLP.Chemscore.Metal>
0.0000

> <Gold.Chemscore.Hbonds>
donor molecule, donor type, donor heavy atom, donor atom, acceptor molecule, acceptor atom, score
      P1  H  6933  6944       L1     2  0.86

> <Gold.PLP.Chemscore.Internal.Correction>
0.0831

> <Gold.Rescore>
     Score         DG    S(hbond)    S(metal)    S(lipo)     H(rot)  DE(clash)    DE(int)     intcor
      8.43     -11.34       0.85        0.00      94.01       3.12       1.42       1.49       ----

> <Gold.Chemscore.Fitness>
8.4301

> <Gold.Chemscore.DG>
-11.3446

> <Gold.Chemscore.ZeroCoef>
-5.4800

> <Gold.Chemscore.Hbond>
0.8542

> <Gold.Chemscore.Metal>
0.0000

> <Gold.Chemscore.Lipo>
94.0066

> <Gold.Chemscore.Internal_Hbond>
0.0000

> <Gold.Chemscore.DEClash>
1.4209

> <Gold.Chemscore.DEInternal>
1.4935

> <Gold.Chemscore.Rot>
3.1201

> <Gold.Chemscore.Internal.Correction>
   9.000000E+99

> <Gold.Chemscore.Hbonds>
donor molecule, donor type, donor heavy atom, donor atom, acceptor molecule, acceptor atom, score
      P1  H  6933  6944       L1     2  0.81

> <Gold.Chemscore.Hbond.Weighted>
-2.8532

> <Gold.Chemscore.Metal.Weighted>
-0.0000

> <Gold.Chemscore.Lipo.Weighted>
-10.9988

> <Gold.Chemscore.Internal_Hbond.Weighted>
0.0000

> <Gold.Chemscore.DEClash.Weighted>
1.4209

> <Gold.Chemscore.DEInternal.Weighted>
1.4935

> <Gold.Chemscore.Rot.Weighted>
7.9874

> <Gold.Chemscore.Internal.Correction.Weighted>
   9.000000E+99

> <Gold.Protein.RotatedTorsions>
[ 6907 6896 6895 6894 ] final   25.93 input  -60.11 | X-H torsion
[ 7974 7965 7964 7962 ] final  -53.10 input  175.53 | X-H torsion
[ 8008 7997 7996 7995 ] final   -7.76 input   59.86 | X-H torsion
[ 10167 10162 10161 10158 ] final  178.36 input  -65.29 | X-H torsion
[ 10718 10713 10712 10709 ] final -100.36 input   66.30 | X-H torsion
[ 10763 10752 10751 10750 ] final  -54.63 input  -60.55 | X-H torsion
[ 11005 11000 10999 10996 ] final  113.20 input  -57.11 | X-H torsion

> <Gold.Protein.ActiveResidues>
 VAL166  LYS551  ARG553  GLY616  TRP617  ASP618  TYR619  PRO620  LYS621  CYS622 
 ASP623  PHE694  ASN695  SER759  ASP760  ASP761  ALA762  ILE779  LEU786  VAL792 
 PHE793  MET794  SER795  GLU796  ALA797  LYS798  CYS799  TRP800  GLU811  SER814 

> <Gold.Protein.RotatedAtoms>
  151.9799  135.0034  160.0556 H   0  0  0  0  0  0  0  0  0  0  0  0  # atno 6907 bound_to 6896
  152.1706  133.4636  159.4915 H   0  0  0  0  0  0  0  0  0  0  0  0  # atno 6908 bound_to 6896
  150.6901  134.1875  159.4315 H   0  0  0  0  0  0  0  0  0  0  0  0  # atno 6909 bound_to 6896
  145.9006  140.7997  142.9745 H   0  0  0  0  0  0  0  0  0  0  0  0  # atno 7974 bound_to 7965
  154.5806  140.2398  155.8059 H   0  0  0  0  0  0  0  0  0  0  0  0  # atno 8008 bound_to 7997
  156.2176  140.3007  155.9833 H   0  0  0  0  0  0  0  0  0  0  0  0  # atno 8009 bound_to 7997
  155.2547  140.0412  157.2981 H   0  0  0  0  0  0  0  0  0  0  0  0  # atno 8010 bound_to 7997
  139.5291  144.2689  152.0645 H   0  0  0  0  0  0  0  0  0  0  0  0  # atno 10167 bound_to 10162
  156.0161  130.5324  150.6806 H   0  0  0  0  0  0  0  0  0  0  0  0  # atno 10718 bound_to 10713
  154.1779  135.6448  153.5026 H   0  0  0  0  0  0  0  0  0  0  0  0  # atno 10763 bound_to 10752
  153.0067  135.5399  154.6545 H   0  0  0  0  0  0  0  0  0  0  0  0  # atno 10764 bound_to 10752
  154.5901  135.2933  155.0616 H   0  0  0  0  0  0  0  0  0  0  0  0  # atno 10765 bound_to 10752
  139.8947  134.9545  156.6703 H   0  0  0  0  0  0  0  0  0  0  0  0  # atno 11005 bound_to 11000
  144.6735  140.1671  143.7417 LP  0  0  0  0  0  0  0  0  0  0  0  0  # atno 17320 bound_to 7965
  145.8795  139.2315  143.1613 LP  0  0  0  0  0  0  0  0  0  0  0  0  # atno 17321 bound_to 7965
  140.2149  144.4525  150.6368 LP  0  0  0  0  0  0  0  0  0  0  0  0  # atno 17342 bound_to 10162
  140.6456  143.2213  151.6193 LP  0  0  0  0  0  0  0  0  0  0  0  0  # atno 17343 bound_to 10162
  157.4509  131.0872  151.0846 LP  0  0  0  0  0  0  0  0  0  0  0  0  # atno 17370 bound_to 10713
  157.1362  130.6123  149.5543 LP  0  0  0  0  0  0  0  0  0  0  0  0  # atno 17371 bound_to 10713
  140.7378  133.9003  155.8257 LP  0  0  0  0  0  0  0  0  0  0  0  0  # atno 17394 bound_to 11000
  141.0101  134.1031  157.4230 LP  0  0  0  0  0  0  0  0  0  0  0  0  # atno 17395 bound_to 11000

$$$$
