AV-unprocessed.smi:1867|AV-procd|sdf|7583|dock2
  -GOLD-   22720 9293D 1   1.00000     0.00000
 Structure written by MMmdl.
 52 55  0  0  0  0  0  0  0  0  4 V2000
  150.0251  136.6357  158.7495 O   0  0  0  0  0  0  0  0  0  0  0  0
  149.7879  136.6500  157.5428 C   0  0  0  0  0  0  0  0  0  0  0  0
  149.9463  137.8095  156.8573 N   0  0  0  0  0  0  0  0  0  0  0  0
  150.4509  139.0553  157.3170 C   0  0  0  0  0  0  0  0  0  0  0  0
  150.2631  140.1890  156.4996 C   0  0  0  0  0  0  0  0  0  0  0  0
  150.7684  141.4393  156.9112 C   0  0  0  0  0  0  0  0  0  0  0  0
  151.4740  141.5421  158.1334 C   0  0  0  0  0  0  0  0  0  0  0  0
  152.0003  142.7573  158.6108 N   0  0  0  0  0  0  0  0  0  0  0  0
  151.7468  144.0176  157.9313 C   0  0  0  0  0  0  0  0  0  0  0  0
  152.3560  145.0772  158.8480 C   0  0  0  0  0  0  0  0  0  0  0  0
  152.1565  144.4847  160.2433 C   0  0  0  0  0  0  0  0  0  0  0  0
  152.2595  142.9699  160.0276 C   0  0  0  0  0  0  0  0  0  0  0  0
  151.6429  140.4240  158.8788 N   0  3  0  0  0  0  0  0  0  0  0  0
  151.1737  139.2086  158.5234 C   0  0  0  0  0  0  0  0  0  0  0  0
  149.3452  135.5299  156.8954 N   0  5  0  0  0  0  0  0  0  0  0  0
  149.3395  135.2308  155.4565 C   0  0  1  0  0  0  0  0  0  0  0  0
  150.0596  133.9040  155.1460 C   0  0  0  0  0  0  0  0  0  0  0  0
  149.2526  133.2511  154.0071 C   0  0  0  0  0  0  0  0  0  0  0  0
  148.1468  134.1848  153.7194 N   0  3  1  0  0  0  0  0  0  0  0  0
  146.9028  133.6100  153.1608 C   0  0  0  0  0  0  0  0  0  0  0  0
  145.9182  134.7505  152.8313 C   0  0  0  0  0  0  0  0  0  0  0  0
  145.6816  135.6740  154.0444 C   0  0  0  0  0  0  0  0  0  0  0  0
  147.0156  136.1738  154.6337 C   0  0  0  0  0  0  0  0  0  0  0  0
  147.9180  134.9622  154.9478 C   0  0  2  0  0  0  0  0  0  0  0  0
  149.6190  137.7977  155.9026 H   0  0  0  0  0  0  0  0  0  0  0  0
  149.7267  140.1061  155.5655 H   0  0  0  0  0  0  0  0  0  0  0  0
  150.6035  142.3044  156.2862 H   0  0  0  0  0  0  0  0  0  0  0  0
  152.1947  144.0385  156.9372 H   0  0  0  0  0  0  0  0  0  0  0  0
  150.6709  144.1675  157.8309 H   0  0  0  0  0  0  0  0  0  0  0  0
  153.4222  145.1774  158.6398 H   0  0  0  0  0  0  0  0  0  0  0  0
  151.8948  146.0580  158.7290 H   0  0  0  0  0  0  0  0  0  0  0  0
  152.8776  144.8582  160.9711 H   0  0  0  0  0  0  0  0  0  0  0  0
  151.1580  144.7353  160.6043 H   0  0  0  0  0  0  0  0  0  0  0  0
  151.5505  142.4372  160.6623 H   0  0  0  0  0  0  0  0  0  0  0  0
  153.2636  142.6135  160.2594 H   0  0  0  0  0  0  0  0  0  0  0  0
  151.4058  138.4091  159.2115 H   0  0  0  0  0  0  0  0  0  0  0  0
  149.7829  136.0256  154.8537 H   0  0  0  0  0  0  0  0  0  0  0  0
  151.0986  134.0758  154.8631 H   0  0  0  0  0  0  0  0  0  0  0  0
  150.0648  133.2384  156.0110 H   0  0  0  0  0  0  0  0  0  0  0  0
  149.8543  133.0858  153.1128 H   0  0  0  0  0  0  0  0  0  0  0  0
  148.8602  132.2856  154.3315 H   0  0  0  0  0  0  0  0  0  0  0  0
  147.1345  133.0406  152.2603 H   0  0  0  0  0  0  0  0  0  0  0  0
  146.4600  132.9169  153.8777 H   0  0  0  0  0  0  0  0  0  0  0  0
  146.3153  135.3409  152.0045 H   0  0  0  0  0  0  0  0  0  0  0  0
  144.9701  134.3372  152.4857 H   0  0  0  0  0  0  0  0  0  0  0  0
  145.0581  136.5205  153.7560 H   0  0  0  0  0  0  0  0  0  0  0  0
  145.1288  135.1298  154.8111 H   0  0  0  0  0  0  0  0  0  0  0  0
  147.4966  136.8462  153.9205 H   0  0  0  0  0  0  0  0  0  0  0  0
  146.8219  136.7584  155.5351 H   0  0  0  0  0  0  0  0  0  0  0  0
  147.4048  134.3151  155.6637 H   0  0  0  0  0  0  0  0  0  0  0  0
  148.5049  134.8424  153.0419 H   0  0  0  0  0  0  0  0  0  0  0  0
  152.1558  140.5008  159.7570 H   0  0  0  0  0  0  0  0  0  0  0  0
  1  2  2  0  0  0  0
  2  3  1  0  0  0  0
  2 15  1  0  0  0  0
  3  4  1  0  0  0  0
  3 25  1  0  0  0  0
  4 14  1  0  0  0  0
  4  5  2  0  0  0  0
  5  6  1  0  0  0  0
  5 26  1  0  0  0  0
  6  7  2  0  0  0  0
  6 27  1  0  0  0  0
  7  8  1  0  0  0  0
  7 13  1  0  0  0  0
  8 12  1  0  0  0  0
  8  9  1  0  0  0  0
  9 10  1  0  0  0  0
  9 28  1  0  0  0  0
  9 29  1  0  0  0  0
 10 11  1  0  0  0  0
 10 30  1  0  0  0  0
 10 31  1  0  0  0  0
 11 12  1  0  0  0  0
 11 32  1  0  0  0  0
 11 33  1  0  0  0  0
 12 34  1  0  0  0  0
 12 35  1  0  0  0  0
 13 14  2  0  0  0  0
 13 52  1  0  0  0  0
 14 36  1  0  0  0  0
 15 16  1  0  0  0  0
 16 24  1  0  0  0  0
 16 17  1  0  0  0  0
 16 37  1  0  0  0  0
 17 18  1  0  0  0  0
 17 38  1  0  0  0  0
 17 39  1  0  0  0  0
 18 19  1  0  0  0  0
 18 40  1  0  0  0  0
 18 41  1  0  0  0  0
 19 24  1  0  0  0  0
 19 20  1  0  0  0  0
 19 51  1  0  0  0  0
 20 21  1  0  0  0  0
 20 42  1  0  0  0  0
 20 43  1  0  0  0  0
 21 22  1  0  0  0  0
 21 44  1  0  0  0  0
 21 45  1  0  0  0  0
 22 23  1  0  0  0  0
 22 46  1  0  0  0  0
 22 47  1  0  0  0  0
 23 24  1  0  0  0  0
 23 48  1  0  0  0  0
 23 49  1  0  0  0  0
 24 50  1  0  0  0  0
M  CHG  1  13   1
M  CHG  1  15  -1
M  CHG  1  19   1
M  END
> <s_m_source_file>
AV-unprocessed.smi

> <i_m_source_file_index>
1867

> <i_lp_mmshare_version>
43012

> <i_f3d_flags>
0

> <s_epik_input>
W0NIMl0xW0NIMl1bQ0gyXVtDSDJdW0NASF0oTjEyKVtDQEBIXShbQ0gyXVtDSDJdMilbTkhdQyg9TylbTkhdYzNbY0hdW2NIXWMobltjSF0zKU40W0NIMl1bQ0gyXVtDSDJdW0NIMl00

> <s_epik_cmdline>
J2VwaWtfcHl0aG9uJywgJy1waCcsICc3LjAnLCAnLXRuJywgJzgnLCAnLW1hJywgJzIwMCcsICctbWV0YWxfYmluZGluZycsICctaW1hZScsICc8aW5maWxlLm1hZT4nLCAnLW9tYWUnLCAnPG91dGZpbGUubWFlPic=

> <r_lp_tautomer_probability>
0.999994

> <r_epik_Ionization_Penalty>
8.56137

> <r_epik_Ionization_Penalty_Charging>
8.56136

> <r_epik_Ionization_Penalty_Neutral>
3.91889e-06

> <r_epik_State_Penalty>
8.16255

> <r_epik_Charging_Adjusted_Penalty>
16.7239

> <i_epik_Tot_Q>
1

> <i_epik_Tot_abs_Q>
3

> <r_epik_Metal_State_Penalty>
4.14279

> <b_epik_Metal_Only>
1

> <s_lp_Force_Field>
OPLS_2005

> <r_lp_Energy>
66.3104

> <b_lp_Chiralities_Consistent>
1

> <s_lp_Variant>
AV-unprocessed.smi:1867-24

> <Gold.Version>
5.8.1

> <Gold.Id.Protein>
6NUR|6NUR_protein|mol2

> <Gold.PLP.Fitness>
48.4758

> <Gold.PLP.PLP>
-39.7763

> <Gold.PLP.part.hbond>
-2.0000

> <Gold.PLP.part.metal>
0.0000

> <Gold.PLP.part.buried>
-6.6215

> <Gold.PLP.part.nonpolar>
-32.4497

> <Gold.PLP.part.repulsive>
0.1460

> <Gold.PLP.ligand.clash>
0.0000

> <Gold.PLP.ligand.torsion>
0.2591

> <Gold.PLP.Chemscore.Hbond>
3.0000

> <Gold.PLP.Chemscore.CHOScore>
0.0000

> <Gold.PLP.Chemscore.Metal>
0.0000

> <Gold.Chemscore.Hbonds>
donor molecule, donor type, donor heavy atom, donor atom, acceptor molecule, acceptor atom, score
      L1  H    19    51       P1  7948  2.00
      P1  H  6896  6908       L1     1  0.65

> <Gold.PLP.Chemscore.Internal.Correction>
0.2177

> <Gold.Rescore>
     Score         DG    S(hbond)    S(metal)    S(lipo)     H(rot)  DE(clash)    DE(int)     intcor
     18.62     -20.33       1.88        0.00      95.06       1.00       0.06       1.65       ----

> <Gold.Chemscore.Fitness>
18.6181

> <Gold.Chemscore.DG>
-20.3283

> <Gold.Chemscore.ZeroCoef>
-5.4800

> <Gold.Chemscore.Hbond>
1.8821

> <Gold.Chemscore.Metal>
0.0000

> <Gold.Chemscore.Lipo>
95.0610

> <Gold.Chemscore.Internal_Hbond>
0.0000

> <Gold.Chemscore.DEClash>
0.0562

> <Gold.Chemscore.DEInternal>
1.6539

> <Gold.Chemscore.Rot>
1.0000

> <Gold.Chemscore.Internal.Correction>
   9.000000E+99

> <Gold.Chemscore.Hbonds>
donor molecule, donor type, donor heavy atom, donor atom, acceptor molecule, acceptor atom, score
      L1  H    19    51       P1  7948  0.55
      P1  H  6896  6908       L1     1  0.62

> <Gold.Chemscore.Hbond.Weighted>
-6.2862

> <Gold.Chemscore.Metal.Weighted>
-0.0000

> <Gold.Chemscore.Lipo.Weighted>
-11.1221

> <Gold.Chemscore.Internal_Hbond.Weighted>
0.0000

> <Gold.Chemscore.DEClash.Weighted>
0.0562

> <Gold.Chemscore.DEInternal.Weighted>
1.6539

> <Gold.Chemscore.Rot.Weighted>
2.5600

> <Gold.Chemscore.Internal.Correction.Weighted>
   9.000000E+99

> <Gold.Protein.RotatedTorsions>
[ 6907 6896 6895 6894 ] final -173.52 input  -60.11 | X-H torsion
[ 7974 7965 7964 7962 ] final -140.12 input  175.53 | X-H torsion
[ 8008 7997 7996 7995 ] final   77.25 input   59.86 | X-H torsion
[ 10167 10162 10161 10158 ] final  -63.75 input  -65.29 | X-H torsion
[ 10718 10713 10712 10709 ] final   40.84 input   66.30 | X-H torsion
[ 10763 10752 10751 10750 ] final   11.40 input  -60.55 | X-H torsion
[ 11005 11000 10999 10996 ] final   73.77 input  -57.11 | X-H torsion

> <Gold.Protein.ActiveResidues>
 VAL166  LYS551  ARG553  GLY616  TRP617  ASP618  TYR619  PRO620  LYS621  CYS622 
 ASP623  PHE694  ASN695  SER759  ASP760  ASP761  ALA762  ILE779  LEU786  VAL792 
 PHE793  MET794  SER795  GLU796  ALA797  LYS798  CYS799  TRP800  GLU811  SER814 

> <Gold.Protein.RotatedAtoms>
  151.5575  133.3408  159.2964 H   0  0  0  0  0  0  0  0  0  0  0  0  # atno 6907 bound_to 6896
  150.8442  134.7748  159.6968 H   0  0  0  0  0  0  0  0  0  0  0  0  # atno 6908 bound_to 6896
  152.4503  134.5415  159.9892 H   0  0  0  0  0  0  0  0  0  0  0  0  # atno 6909 bound_to 6896
  144.8622  140.6237  143.5321 H   0  0  0  0  0  0  0  0  0  0  0  0  # atno 7974 bound_to 7965
  155.8389  140.3463  155.5619 H   0  0  0  0  0  0  0  0  0  0  0  0  # atno 8008 bound_to 7997
  155.8162  140.0906  157.1895 H   0  0  0  0  0  0  0  0  0  0  0  0  # atno 8009 bound_to 7997
  154.4005  140.1438  156.3432 H   0  0  0  0  0  0  0  0  0  0  0  0  # atno 8010 bound_to 7997
  140.5849  143.2332  151.6263 H   0  0  0  0  0  0  0  0  0  0  0  0  # atno 10167 bound_to 10162
  157.3868  130.7784  149.7237 H   0  0  0  0  0  0  0  0  0  0  0  0  # atno 10718 bound_to 10713
  153.1930  135.6845  153.8327 H   0  0  0  0  0  0  0  0  0  0  0  0  # atno 10763 bound_to 10752
  153.7620  135.3208  155.3339 H   0  0  0  0  0  0  0  0  0  0  0  0  # atno 10764 bound_to 10752
  154.8128  135.4705  154.0662 H   0  0  0  0  0  0  0  0  0  0  0  0  # atno 10765 bound_to 10752
  139.9423  134.7376  156.1067 H   0  0  0  0  0  0  0  0  0  0  0  0  # atno 11005 bound_to 11000
  145.4290  139.1552  143.4032 LP  0  0  0  0  0  0  0  0  0  0  0  0  # atno 17320 bound_to 7965
  146.2869  140.4405  142.8754 LP  0  0  0  0  0  0  0  0  0  0  0  0  # atno 17321 bound_to 7965
  139.5192  144.3262  152.0867 LP  0  0  0  0  0  0  0  0  0  0  0  0  # atno 17342 bound_to 10162
  140.2417  144.4262  150.6257 LP  0  0  0  0  0  0  0  0  0  0  0  0  # atno 17343 bound_to 10162
  155.9788  130.4047  150.3623 LP  0  0  0  0  0  0  0  0  0  0  0  0  # atno 17370 bound_to 10713
  157.1734  131.0374  151.2784 LP  0  0  0  0  0  0  0  0  0  0  0  0  # atno 17371 bound_to 10713
  141.1062  133.6659  156.2870 LP  0  0  0  0  0  0  0  0  0  0  0  0  # atno 17394 bound_to 11000
  140.5920  134.5641  157.5501 LP  0  0  0  0  0  0  0  0  0  0  0  0  # atno 17395 bound_to 11000

$$$$
