AV-unprocessed.smi:2055|AV-procd|sdf|8335|dock4
  -GOLD-   2272011 03D 1   1.00000     0.00000
 Structure written by MMmdl.
 43 44  0  0  0  0  0  0  0  0  1 V2000
  144.2244  134.6379  150.9011 C   0  0  0  0  0  0  0  0  0  0  0  0
  145.5361  134.2907  151.6219 C   0  0  1  0  0  0  0  0  0  0  0  0
  146.4026  133.3009  150.8174 C   0  0  0  0  0  0  0  0  0  0  0  0
  147.5143  132.8824  151.5803 O   0  0  0  0  0  0  0  0  0  0  0  0
  146.2808  135.5209  151.8754 N   0  0  0  0  0  0  0  0  0  0  0  0
  145.7991  136.6027  152.5033 C   0  0  0  0  0  0  0  0  0  0  0  0
  144.6467  136.7025  152.9246 O   0  0  0  0  0  0  0  0  0  0  0  0
  146.7338  137.5531  152.6417 N   0  0  0  0  0  0  0  0  0  0  0  0
  146.5388  138.8186  153.3434 C   0  0  0  0  0  0  0  0  0  0  0  0
  147.8148  139.4885  153.8428 C   0  0  0  0  0  0  0  0  0  0  0  0
  147.8838  140.8943  153.8816 C   0  0  0  0  0  0  0  0  0  0  0  0
  149.0689  141.4972  154.3402 C   0  0  0  0  0  0  0  0  0  0  0  0
  150.1460  140.7953  154.7483 N   0  0  0  0  0  0  0  0  0  0  0  0
  150.0988  139.4418  154.7179 C   0  0  0  0  0  0  0  0  0  0  0  0
  151.2466  138.7599  155.1795 N   0  0  0  0  0  0  0  0  0  0  0  0
  151.1149  137.3718  155.6132 C   0  0  0  0  0  0  0  0  0  0  0  0
  152.3611  136.9345  156.4011 C   0  0  0  0  0  0  0  0  0  0  0  0
  153.5288  137.1662  155.6209 O   0  0  0  0  0  0  0  0  0  0  0  0
  153.6977  138.5481  155.3225 C   0  0  0  0  0  0  0  0  0  0  0  0
  152.5040  139.0540  154.4946 C   0  0  0  0  0  0  0  0  0  0  0  0
  148.9476  138.7520  154.2604 C   0  0  0  0  0  0  0  0  0  0  0  0
  143.6190  133.7472  150.7315 H   0  0  0  0  0  0  0  0  0  0  0  0
  144.4136  135.1005  149.9320 H   0  0  0  0  0  0  0  0  0  0  0  0
  143.6247  135.3320  151.4905 H   0  0  0  0  0  0  0  0  0  0  0  0
  145.2833  133.8390  152.5833 H   0  0  0  0  0  0  0  0  0  0  0  0
  145.8220  132.4313  150.5079 H   0  0  0  0  0  0  0  0  0  0  0  0
  146.7847  133.7704  149.9102 H   0  0  0  0  0  0  0  0  0  0  0  0
  147.7953  132.0375  151.2636 H   0  0  0  0  0  0  0  0  0  0  0  0
  147.2421  135.5391  151.5684 H   0  0  0  0  0  0  0  0  0  0  0  0
  147.6531  137.3788  152.2633 H   0  0  0  0  0  0  0  0  0  0  0  0
  146.0379  139.5067  152.6623 H   0  0  0  0  0  0  0  0  0  0  0  0
  145.8586  138.6680  154.1837 H   0  0  0  0  0  0  0  0  0  0  0  0
  147.0466  141.5005  153.5679 H   0  0  0  0  0  0  0  0  0  0  0  0
  149.1543  142.5729  154.3820 H   0  0  0  0  0  0  0  0  0  0  0  0
  150.2359  137.2543  156.2481 H   0  0  0  0  0  0  0  0  0  0  0  0
  150.9805  136.7326  154.7397 H   0  0  0  0  0  0  0  0  0  0  0  0
  152.4307  137.4722  157.3481 H   0  0  0  0  0  0  0  0  0  0  0  0
  152.2988  135.8735  156.6426 H   0  0  0  0  0  0  0  0  0  0  0  0
  153.7999  139.1206  156.2459 H   0  0  0  0  0  0  0  0  0  0  0  0
  154.6240  138.6797  154.7632 H   0  0  0  0  0  0  0  0  0  0  0  0
  152.4932  138.5671  153.5187 H   0  0  0  0  0  0  0  0  0  0  0  0
  152.6263  140.1222  154.3160 H   0  0  0  0  0  0  0  0  0  0  0  0
  148.9261  137.6742  154.2230 H   0  0  0  0  0  0  0  0  0  0  0  0
  1  2  1  0  0  0  0
  1 22  1  0  0  0  0
  1 23  1  0  0  0  0
  1 24  1  0  0  0  0
  2  3  1  0  0  0  0
  2  5  1  0  0  0  0
  2 25  1  0  0  0  0
  3  4  1  0  0  0  0
  3 26  1  0  0  0  0
  3 27  1  0  0  0  0
  4 28  1  0  0  0  0
  5  6  1  0  0  0  0
  5 29  1  0  0  0  0
  6  7  2  0  0  0  0
  6  8  1  0  0  0  0
  8  9  1  0  0  0  0
  8 30  1  0  0  0  0
  9 10  1  0  0  0  0
  9 31  1  0  0  0  0
  9 32  1  0  0  0  0
 10 21  1  0  0  0  0
 10 11  2  0  0  0  0
 11 12  1  0  0  0  0
 11 33  1  0  0  0  0
 12 13  2  0  0  0  0
 12 34  1  0  0  0  0
 13 14  1  0  0  0  0
 14 15  1  0  0  0  0
 14 21  2  0  0  0  0
 15 20  1  0  0  0  0
 15 16  1  0  0  0  0
 16 17  1  0  0  0  0
 16 35  1  0  0  0  0
 16 36  1  0  0  0  0
 17 18  1  0  0  0  0
 17 37  1  0  0  0  0
 17 38  1  0  0  0  0
 18 19  1  0  0  0  0
 19 20  1  0  0  0  0
 19 39  1  0  0  0  0
 19 40  1  0  0  0  0
 20 41  1  0  0  0  0
 20 42  1  0  0  0  0
 21 43  1  0  0  0  0
M  END
> <s_m_source_file>
AV-unprocessed.smi

> <i_m_source_file_index>
2055

> <i_lp_mmshare_version>
43012

> <i_f3d_flags>
0

> <s_epik_input>
W09IXVtDSDJdW0NAQEhdKFtDSDNdKVtOSF1DKD1PKVtOSF1bQ0gyXWMxW2NIXVtjSF1uYyhbY0hdMSlOMltDSDJdW0NIMl1PW0NIMl1bQ0gyXTI=

> <s_epik_cmdline>
J2VwaWtfcHl0aG9uJywgJy1waCcsICc3LjAnLCAnLXRuJywgJzgnLCAnLW1hJywgJzIwMCcsICctbWV0YWxfYmluZGluZycsICctaW1hZScsICc8aW5maWxlLm1hZT4nLCAnLW9tYWUnLCAnPG91dGZpbGUubWFlPic=

> <r_lp_tautomer_probability>
1

> <r_epik_Ionization_Penalty>
0.0122173

> <r_epik_Ionization_Penalty_Charging>
0

> <r_epik_Ionization_Penalty_Neutral>
0.0122173

> <r_epik_State_Penalty>
0.00940497

> <r_epik_Charging_Adjusted_Penalty>
0.00940497

> <i_epik_Tot_Q>
0

> <i_epik_Tot_abs_Q>
0

> <r_epik_Metal_State_Penalty>
0.00921475

> <b_epik_Metal_Only>
0

> <s_lp_Force_Field>
OPLS_2005

> <r_lp_Energy>
11.6971

> <b_lp_Chiralities_Consistent>
1

> <s_lp_Variant>
AV-unprocessed.smi:2055-2

> <Gold.Version>
5.8.1

> <Gold.Id.Protein>
6NUR|6NUR_protein|mol2

> <Gold.PLP.Fitness>
48.8587

> <Gold.PLP.PLP>
-33.6873

> <Gold.PLP.part.hbond>
-4.9899

> <Gold.PLP.part.metal>
0.0000

> <Gold.PLP.part.buried>
0.1206

> <Gold.PLP.part.nonpolar>
-28.0789

> <Gold.PLP.part.repulsive>
0.4628

> <Gold.PLP.ligand.clash>
0.0000

> <Gold.PLP.ligand.torsion>
0.8730

> <Gold.PLP.Chemscore.Hbond>
4.4563

> <Gold.PLP.Chemscore.CHOScore>
0.9988

> <Gold.PLP.Chemscore.Metal>
0.0000

> <Gold.Chemscore.Hbonds>
donor molecule, donor type, donor heavy atom, donor atom, acceptor molecule, acceptor atom, score
      L1  H     4    28       P1 10747  1.00
      L1  H     5    29       P1  7948  0.96
      L1  H     8    30       P1  7948  1.00
      P1  H  7989  7998       L1    13  0.55
      P1  H 10752 10763       L1    18  0.05
      L1  C    12    34       P1  8028  1.00

> <Gold.PLP.Chemscore.Internal.Correction>
0.5519

> <Gold.Rescore>
     Score         DG    S(hbond)    S(metal)    S(lipo)     H(rot)  DE(clash)    DE(int)     intcor
     16.78     -19.19       3.67        0.00      71.54       2.70       0.06       2.35       ----

> <Gold.Chemscore.Fitness>
16.7830

> <Gold.Chemscore.DG>
-19.1922

> <Gold.Chemscore.ZeroCoef>
-5.4800

> <Gold.Chemscore.Hbond>
3.6714

> <Gold.Chemscore.Metal>
0.0000

> <Gold.Chemscore.Lipo>
71.5358

> <Gold.Chemscore.Internal_Hbond>
0.0000

> <Gold.Chemscore.DEClash>
0.0614

> <Gold.Chemscore.DEInternal>
2.3477

> <Gold.Chemscore.Rot>
2.7031

> <Gold.Chemscore.Internal.Correction>
   9.000000E+99

> <Gold.Chemscore.Hbonds>
donor molecule, donor type, donor heavy atom, donor atom, acceptor molecule, acceptor atom, score
      L1  H     4    28       P1 10747  0.96
      L1  H     5    29       P1  7948  0.91
      L1  H     8    30       P1  7948  0.94
      P1  H  7989  7998       L1    13  0.05

> <Gold.Chemscore.Hbond.Weighted>
-12.2624

> <Gold.Chemscore.Metal.Weighted>
-0.0000

> <Gold.Chemscore.Lipo.Weighted>
-8.3697

> <Gold.Chemscore.Internal_Hbond.Weighted>
0.0000

> <Gold.Chemscore.DEClash.Weighted>
0.0614

> <Gold.Chemscore.DEInternal.Weighted>
2.3477

> <Gold.Chemscore.Rot.Weighted>
6.9199

> <Gold.Chemscore.Internal.Correction.Weighted>
   9.000000E+99

> <Gold.Protein.RotatedTorsions>
[ 6907 6896 6895 6894 ] final -170.89 input  -60.11 | X-H torsion
[ 7974 7965 7964 7962 ] final   24.62 input  175.53 | X-H torsion
[ 8008 7997 7996 7995 ] final  -59.07 input   59.86 | X-H torsion
[ 10167 10162 10161 10158 ] final  -12.36 input  -65.29 | X-H torsion
[ 10718 10713 10712 10709 ] final   21.37 input   66.30 | X-H torsion
[ 10763 10752 10751 10750 ] final  103.91 input  -60.55 | X-H torsion
[ 11005 11000 10999 10996 ] final   13.24 input  -57.11 | X-H torsion

> <Gold.Protein.ActiveResidues>
 VAL166  LYS551  ARG553  GLY616  TRP617  ASP618  TYR619  PRO620  LYS621  CYS622 
 ASP623  PHE694  ASN695  SER759  ASP760  ASP761  ALA762  ILE779  LEU786  VAL792 
 PHE793  MET794  SER795  GLU796  ALA797  LYS798  CYS799  TRP800  GLU811  SER814 

> <Gold.Protein.RotatedAtoms>
  151.5149  133.3477  159.2891 H   0  0  0  0  0  0  0  0  0  0  0  0  # atno 6907 bound_to 6896
  150.8688  134.8060  159.7150 H   0  0  0  0  0  0  0  0  0  0  0  0  # atno 6908 bound_to 6896
  152.4684  134.5030  159.9782 H   0  0  0  0  0  0  0  0  0  0  0  0  # atno 6909 bound_to 6896
  146.1929  139.7580  142.8819 H   0  0  0  0  0  0  0  0  0  0  0  0  # atno 7974 bound_to 7965
  154.4336  140.1070  156.6058 H   0  0  0  0  0  0  0  0  0  0  0  0  # atno 8008 bound_to 7997
  155.5862  140.3491  155.4535 H   0  0  0  0  0  0  0  0  0  0  0  0  # atno 8009 bound_to 7997
  156.0281  140.1254  157.0277 H   0  0  0  0  0  0  0  0  0  0  0  0  # atno 8010 bound_to 7997
  140.7159  143.5540  150.9269 H   0  0  0  0  0  0  0  0  0  0  0  0  # atno 10167 bound_to 10162
  157.1375  130.6618  149.5970 H   0  0  0  0  0  0  0  0  0  0  0  0  # atno 10718 bound_to 10713
  153.3589  135.3961  155.1703 H   0  0  0  0  0  0  0  0  0  0  0  0  # atno 10763 bound_to 10752
  154.8675  135.3674  154.5125 H   0  0  0  0  0  0  0  0  0  0  0  0  # atno 10764 bound_to 10752
  153.5583  135.7081  153.5619 H   0  0  0  0  0  0  0  0  0  0  0  0  # atno 10765 bound_to 10752
  140.4829  134.0917  155.7755 H   0  0  0  0  0  0  0  0  0  0  0  0  # atno 11005 bound_to 11000
  145.3736  141.0347  143.3217 LP  0  0  0  0  0  0  0  0  0  0  0  0  # atno 17320 bound_to 7965
  144.8522  139.5305  143.6851 LP  0  0  0  0  0  0  0  0  0  0  0  0  # atno 17321 bound_to 7965
  139.9265  143.6544  152.3086 LP  0  0  0  0  0  0  0  0  0  0  0  0  # atno 17342 bound_to 10162
  139.6979  144.7639  151.1324 LP  0  0  0  0  0  0  0  0  0  0  0  0  # atno 17343 bound_to 10162
  155.9795  130.4789  150.6720 LP  0  0  0  0  0  0  0  0  0  0  0  0  # atno 17370 bound_to 10713
  157.4337  131.0852  151.1013 LP  0  0  0  0  0  0  0  0  0  0  0  0  # atno 17371 bound_to 10713
  141.1522  133.8948  157.2068 LP  0  0  0  0  0  0  0  0  0  0  0  0  # atno 17394 bound_to 11000
  139.9815  135.0096  156.9762 LP  0  0  0  0  0  0  0  0  0  0  0  0  # atno 17395 bound_to 11000

$$$$
