AV-unprocessed.smi:739|AV-procd|sdf|3542|dock9
  -GOLD-   22720 0533D 1   1.00000     0.00000
 Structure written by MMmdl.
 32 34  0  0  0  0  0  0  0  0  1 V2000
  148.5589  142.5990  156.9918 O   0  0  0  0  0  0  0  0  0  0  0  0
  149.2035  141.4076  156.5907 C   0  0  2  0  0  0  0  0  0  0  0  0
  150.6952  141.7200  156.3590 C   0  0  0  0  0  0  0  0  0  0  0  0
  151.3004  142.3823  157.5008 N   0  0  0  0  0  0  0  0  0  0  0  0
  151.2325  143.6923  157.8059 C   0  0  0  0  0  0  0  0  0  0  0  0
  151.8484  144.0923  158.9146 N   0  0  0  0  0  0  0  0  0  0  0  0
  152.3808  142.9036  159.3836 C   0  0  0  0  0  0  0  0  0  0  0  0
  153.1530  142.6366  160.5365 C   0  0  0  0  0  0  0  0  0  0  0  0
  153.5886  141.3249  160.8174 C   0  0  0  0  0  0  0  0  0  0  0  0
  154.3271  141.0866  161.9273 F   0  0  0  0  0  0  0  0  0  0  0  0
  153.2595  140.2619  159.9501 C   0  0  0  0  0  0  0  0  0  0  0  0
  153.6802  139.0050  160.2275 F   0  0  0  0  0  0  0  0  0  0  0  0
  152.4928  140.5042  158.7946 C   0  0  0  0  0  0  0  0  0  0  0  0
  152.0592  141.8142  158.5191 C   0  0  0  0  0  0  0  0  0  0  0  0
  148.5469  140.7817  155.3675 C   0  0  0  0  0  0  0  0  0  0  0  0
  148.8963  139.4718  154.9731 C   0  0  0  0  0  0  0  0  0  0  0  0
  148.3176  138.8974  153.8247 C   0  0  0  0  0  0  0  0  0  0  0  0
  147.3846  139.6284  153.0649 C   0  0  0  0  0  0  0  0  0  0  0  0
  146.8289  139.0764  151.9605 F   0  0  0  0  0  0  0  0  0  0  0  0
  147.0306  140.9345  153.4538 C   0  0  0  0  0  0  0  0  0  0  0  0
  147.6100  141.5101  154.6011 C   0  0  0  0  0  0  0  0  0  0  0  0
  148.7266  143.2639  156.3413 H   0  0  0  0  0  0  0  0  0  0  0  0
  149.1139  140.7136  157.4278 H   0  0  0  0  0  0  0  0  0  0  0  0
  151.2547  140.8098  156.1387 H   0  0  0  0  0  0  0  0  0  0  0  0
  150.8116  142.3736  155.4932 H   0  0  0  0  0  0  0  0  0  0  0  0
  150.6952  144.3908  157.1812 H   0  0  0  0  0  0  0  0  0  0  0  0
  153.4103  143.4423  161.2080 H   0  0  0  0  0  0  0  0  0  0  0  0
  152.2379  139.6913  158.1312 H   0  0  0  0  0  0  0  0  0  0  0  0
  149.6180  138.9065  155.5442 H   0  0  0  0  0  0  0  0  0  0  0  0
  148.5918  137.8967  153.5249 H   0  0  0  0  0  0  0  0  0  0  0  0
  146.3168  141.4966  152.8700 H   0  0  0  0  0  0  0  0  0  0  0  0
  147.3402  142.5168  154.8852 H   0  0  0  0  0  0  0  0  0  0  0  0
  1  2  1  0  0  0  0
  1 22  1  0  0  0  0
  2  3  1  0  0  0  0
  2 15  1  0  0  0  0
  2 23  1  0  0  0  0
  3  4  1  0  0  0  0
  3 24  1  0  0  0  0
  3 25  1  0  0  0  0
  4 14  1  0  0  0  0
  4  5  1  0  0  0  0
  5  6  2  0  0  0  0
  5 26  1  0  0  0  0
  6  7  1  0  0  0  0
  7 14  2  0  0  0  0
  7  8  1  0  0  0  0
  8  9  2  0  0  0  0
  8 27  1  0  0  0  0
  9 10  1  0  0  0  0
  9 11  1  0  0  0  0
 11 12  1  0  0  0  0
 11 13  2  0  0  0  0
 13 14  1  0  0  0  0
 13 28  1  0  0  0  0
 15 21  1  0  0  0  0
 15 16  2  0  0  0  0
 16 17  1  0  0  0  0
 16 29  1  0  0  0  0
 17 18  2  0  0  0  0
 17 30  1  0  0  0  0
 18 19  1  0  0  0  0
 18 20  1  0  0  0  0
 20 21  2  0  0  0  0
 20 31  1  0  0  0  0
 21 32  1  0  0  0  0
M  END
> <s_m_source_file>
AV-unprocessed.smi

> <i_m_source_file_index>
739

> <i_lp_mmshare_version>
43012

> <i_f3d_flags>
0

> <s_epik_input>
W2NIXTFbY0hdYyhGKVtjSF1bY0hdYzFbQ0BIXShbT0hdKVtDSDJdbihbY0hdbjIpYyhjMjMpW2NIXWMoRiljKEYpW2NIXTM=

> <s_epik_cmdline>
J2VwaWtfcHl0aG9uJywgJy1waCcsICc3LjAnLCAnLXRuJywgJzgnLCAnLW1hJywgJzIwMCcsICctbWV0YWxfYmluZGluZycsICctaW1hZScsICc8aW5maWxlLm1hZT4nLCAnLW9tYWUnLCAnPG91dGZpbGUubWFlPic=

> <r_epik_Ionization_Penalty>
0.0156356

> <r_epik_Ionization_Penalty_Charging>
0

> <r_epik_Ionization_Penalty_Neutral>
0.0156356

> <r_epik_State_Penalty>
0.0122974

> <r_epik_Charging_Adjusted_Penalty>
0.0122974

> <i_epik_Tot_Q>
0

> <i_epik_Tot_abs_Q>
0

> <r_epik_Metal_State_Penalty>
1.24258e-05

> <b_epik_Metal_Only>
0

> <s_lp_Force_Field>
OPLS_2005

> <r_lp_Energy>
11.0566

> <b_lp_Chiralities_Consistent>
1

> <s_lp_Variant>
AV-unprocessed.smi:739-1

> <Gold.Version>
5.8.1

> <Gold.Id.Protein>
6NUR|6NUR_protein|mol2

> <Gold.PLP.Fitness>
50.3130

> <Gold.PLP.PLP>
-45.4038

> <Gold.PLP.part.hbond>
-0.8337

> <Gold.PLP.part.metal>
0.0000

> <Gold.PLP.part.buried>
-0.2773

> <Gold.PLP.part.nonpolar>
-44.3853

> <Gold.PLP.part.repulsive>
0.0430

> <Gold.PLP.ligand.clash>
0.0000

> <Gold.PLP.ligand.torsion>
0.5545

> <Gold.PLP.Chemscore.Hbond>
1.0000

> <Gold.PLP.Chemscore.CHOScore>
1.0000

> <Gold.PLP.Chemscore.Metal>
0.0000

> <Gold.Chemscore.Hbonds>
donor molecule, donor type, donor heavy atom, donor atom, acceptor molecule, acceptor atom, score
      L1  H     1    22       P1  8028  1.00
      L1  C     5    26       P1  8028  1.00

> <Gold.PLP.Chemscore.Internal.Correction>
0.0182

> <Gold.Rescore>
     Score         DG    S(hbond)    S(metal)    S(lipo)     H(rot)  DE(clash)    DE(int)     intcor
     14.33     -15.16       0.95        0.00     101.01       2.07       0.35       0.48       ----

> <Gold.Chemscore.Fitness>
14.3282

> <Gold.Chemscore.DG>
-15.1596

> <Gold.Chemscore.ZeroCoef>
-5.4800

> <Gold.Chemscore.Hbond>
0.9462

> <Gold.Chemscore.Metal>
0.0000

> <Gold.Chemscore.Lipo>
101.0135

> <Gold.Chemscore.Internal_Hbond>
0.0000

> <Gold.Chemscore.DEClash>
0.3475

> <Gold.Chemscore.DEInternal>
0.4839

> <Gold.Chemscore.Rot>
2.0700

> <Gold.Chemscore.Internal.Correction>
   9.000000E+99

> <Gold.Chemscore.Hbonds>
donor molecule, donor type, donor heavy atom, donor atom, acceptor molecule, acceptor atom, score
      L1  H     1    22       P1  8028  0.93

> <Gold.Chemscore.Hbond.Weighted>
-3.1603

> <Gold.Chemscore.Metal.Weighted>
-0.0000

> <Gold.Chemscore.Lipo.Weighted>
-11.8186

> <Gold.Chemscore.Internal_Hbond.Weighted>
0.0000

> <Gold.Chemscore.DEClash.Weighted>
0.3475

> <Gold.Chemscore.DEInternal.Weighted>
0.4839

> <Gold.Chemscore.Rot.Weighted>
5.2992

> <Gold.Chemscore.Internal.Correction.Weighted>
   9.000000E+99

> <Gold.Protein.RotatedTorsions>
[ 6907 6896 6895 6894 ] final  111.14 input  -60.11 | X-H torsion
[ 7974 7965 7964 7962 ] final  104.79 input  175.53 | X-H torsion
[ 8008 7997 7996 7995 ] final  -46.35 input   59.86 | X-H torsion
[ 10167 10162 10161 10158 ] final -105.49 input  -65.29 | X-H torsion
[ 10718 10713 10712 10709 ] final  -60.14 input   66.30 | X-H torsion
[ 10763 10752 10751 10750 ] final  -22.62 input  -60.55 | X-H torsion
[ 11005 11000 10999 10996 ] final -169.39 input  -57.11 | X-H torsion

> <Gold.Protein.ActiveResidues>
 VAL166  LYS551  ARG553  GLY616  TRP617  ASP618  TYR619  PRO620  LYS621  CYS622 
 ASP623  PHE694  ASN695  SER759  ASP760  ASP761  ALA762  ILE779  LEU786  VAL792 
 PHE793  MET794  SER795  GLU796  ALA797  LYS798  CYS799  TRP800  GLU811  SER814 

> <Gold.Protein.RotatedAtoms>
  152.4985  133.8700  159.7293 H   0  0  0  0  0  0  0  0  0  0  0  0  # atno 6907 bound_to 6896
  150.9189  133.6895  159.2843 H   0  0  0  0  0  0  0  0  0  0  0  0  # atno 6908 bound_to 6896
  151.4279  135.1010  159.9686 H   0  0  0  0  0  0  0  0  0  0  0  0  # atno 6909 bound_to 6896
  145.3281  139.2494  143.3675 H   0  0  0  0  0  0  0  0  0  0  0  0  # atno 7974 bound_to 7965
  154.4007  140.1373  156.3997 H   0  0  0  0  0  0  0  0  0  0  0  0  # atno 8008 bound_to 7997
  155.7836  140.3481  155.5290 H   0  0  0  0  0  0  0  0  0  0  0  0  # atno 8009 bound_to 7997
  155.8649  140.0962  157.1579 H   0  0  0  0  0  0  0  0  0  0  0  0  # atno 8010 bound_to 7997
  140.1980  143.3840  152.1153 H   0  0  0  0  0  0  0  0  0  0  0  0  # atno 10167 bound_to 10162
  156.1011  130.4186  150.0813 H   0  0  0  0  0  0  0  0  0  0  0  0  # atno 10718 bound_to 10713
  153.6548  135.6979  153.5197 H   0  0  0  0  0  0  0  0  0  0  0  0  # atno 10763 bound_to 10752
  153.2678  135.4224  155.0957 H   0  0  0  0  0  0  0  0  0  0  0  0  # atno 10764 bound_to 10752
  154.8467  135.3571  154.6092 H   0  0  0  0  0  0  0  0  0  0  0  0  # atno 10765 bound_to 10752
  140.5312  134.5614  157.5075 H   0  0  0  0  0  0  0  0  0  0  0  0  # atno 11005 bound_to 11000
  146.3056  140.3853  142.8688 LP  0  0  0  0  0  0  0  0  0  0  0  0  # atno 17320 bound_to 7965
  144.8886  140.7494  143.5941 LP  0  0  0  0  0  0  0  0  0  0  0  0  # atno 17321 bound_to 7965
  139.5229  144.7064  151.5341 LP  0  0  0  0  0  0  0  0  0  0  0  0  # atno 17342 bound_to 10162
  140.6410  143.8889  150.6692 LP  0  0  0  0  0  0  0  0  0  0  0  0  # atno 17343 bound_to 10162
  156.8799  130.9553  151.3600 LP  0  0  0  0  0  0  0  0  0  0  0  0  # atno 17370 bound_to 10713
  157.6182  130.8634  149.9063 LP  0  0  0  0  0  0  0  0  0  0  0  0  # atno 17371 bound_to 10713
  139.9553  134.7546  156.0356 LP  0  0  0  0  0  0  0  0  0  0  0  0  # atno 17394 bound_to 11000
  141.1280  133.6594  156.3388 LP  0  0  0  0  0  0  0  0  0  0  0  0  # atno 17395 bound_to 11000

$$$$
