AV-unprocessed.smi:1381|AV-procd|sdf|5612|dock1
  -GOLD-   22720 5223D 1   1.00000     0.00000
 Structure written by MMmdl.
 42 43  0  0  0  0  0  0  0  0  3 V2000
  147.5485  135.0870  162.2217 C   0  0  0  0  0  0  0  0  0  0  0  0
  147.8503  135.7547  160.9237 C   0  0  0  0  0  0  0  0  0  0  0  0
  148.2247  135.2759  159.7004 C   0  0  0  0  0  0  0  0  0  0  0  0
  148.3422  136.4532  158.9124 C   0  0  0  0  0  0  0  0  0  0  0  0
  148.7061  136.5029  157.6215 N   0  5  0  0  0  0  0  0  0  0  0  0
  149.2777  135.4272  157.0335 C   0  0  0  0  0  0  0  0  0  0  0  0
  149.8865  134.5176  157.6015 O   0  0  0  0  0  0  0  0  0  0  0  0
  149.1396  135.4066  155.7014 N   0  0  0  0  0  0  0  0  0  0  0  0
  149.6721  134.3796  154.8163 C   0  0  0  0  0  0  0  0  0  0  0  0
  148.5490  133.4310  154.3685 C   0  0  0  0  0  0  0  0  0  0  0  0
  147.7294  133.9947  153.2668 N   0  3  1  0  0  0  0  0  0  0  0  0
  147.1646  132.9387  152.3935 C   0  0  0  0  0  0  0  0  0  0  0  0
  146.3665  133.5608  151.2322 C   0  0  1  0  0  0  0  0  0  0  0  0
  145.6967  132.4961  150.3562 C   0  0  0  0  0  0  0  0  0  0  0  0
  145.3473  134.3992  151.7649 O   0  0  0  0  0  0  0  0  0  0  0  0
  145.8723  135.4767  152.5323 C   0  0  1  0  0  0  0  0  0  0  0  0
  144.7028  136.3633  152.9744 C   0  0  0  0  0  0  0  0  0  0  0  0
  146.6550  134.9075  153.7307 C   0  0  0  0  0  0  0  0  0  0  0  0
  148.0773  137.5511  159.6007 N   0  0  0  0  0  0  0  0  0  0  0  0
  147.7546  137.1114  160.8902 O   0  0  0  0  0  0  0  0  0  0  0  0
  148.4343  134.5850  162.6108 H   0  0  0  0  0  0  0  0  0  0  0  0
  146.7643  134.3405  162.0974 H   0  0  0  0  0  0  0  0  0  0  0  0
  147.2135  135.8079  162.9677 H   0  0  0  0  0  0  0  0  0  0  0  0
  148.3864  134.2478  159.4136 H   0  0  0  0  0  0  0  0  0  0  0  0
  148.6309  136.1675  155.2752 H   0  0  0  0  0  0  0  0  0  0  0  0
  150.1372  134.8610  153.9559 H   0  0  0  0  0  0  0  0  0  0  0  0
  150.4520  133.8261  155.3412 H   0  0  0  0  0  0  0  0  0  0  0  0
  149.0062  132.5000  154.0294 H   0  0  0  0  0  0  0  0  0  0  0  0
  147.9057  133.1707  155.2107 H   0  0  0  0  0  0  0  0  0  0  0  0
  147.9707  132.3211  151.9947 H   0  0  0  0  0  0  0  0  0  0  0  0
  146.5219  132.2844  152.9854 H   0  0  0  0  0  0  0  0  0  0  0  0
  147.0320  134.1576  150.6057 H   0  0  0  0  0  0  0  0  0  0  0  0
  146.4368  131.8325  149.9084 H   0  0  0  0  0  0  0  0  0  0  0  0
  145.1310  132.9571  149.5459 H   0  0  0  0  0  0  0  0  0  0  0  0
  145.0057  131.8841  150.9371 H   0  0  0  0  0  0  0  0  0  0  0  0
  146.5395  136.0719  151.9064 H   0  0  0  0  0  0  0  0  0  0  0  0
  145.0540  137.2124  153.5614 H   0  0  0  0  0  0  0  0  0  0  0  0
  143.9921  135.8054  153.5847 H   0  0  0  0  0  0  0  0  0  0  0  0
  144.1643  136.7565  152.1117 H   0  0  0  0  0  0  0  0  0  0  0  0
  145.9817  134.3671  154.3984 H   0  0  0  0  0  0  0  0  0  0  0  0
  147.0771  135.7326  154.3030 H   0  0  0  0  0  0  0  0  0  0  0  0
  148.3548  134.5387  152.6894 H   0  0  0  0  0  0  0  0  0  0  0  0
  1  2  1  0  0  0  0
  1 21  1  0  0  0  0
  1 22  1  0  0  0  0
  1 23  1  0  0  0  0
  2 20  1  0  0  0  0
  2  3  2  0  0  0  0
  3  4  1  0  0  0  0
  3 24  1  0  0  0  0
  4  5  1  0  0  0  0
  4 19  2  0  0  0  0
  5  6  1  0  0  0  0
  6  7  2  0  0  0  0
  6  8  1  0  0  0  0
  8  9  1  0  0  0  0
  8 25  1  0  0  0  0
  9 10  1  0  0  0  0
  9 26  1  0  0  0  0
  9 27  1  0  0  0  0
 10 11  1  0  0  0  0
 10 28  1  0  0  0  0
 10 29  1  0  0  0  0
 11 18  1  0  0  0  0
 11 12  1  0  0  0  0
 11 42  1  0  0  0  0
 12 13  1  0  0  0  0
 12 30  1  0  0  0  0
 12 31  1  0  0  0  0
 13 14  1  0  0  0  0
 13 15  1  0  0  0  0
 13 32  1  0  0  0  0
 14 33  1  0  0  0  0
 14 34  1  0  0  0  0
 14 35  1  0  0  0  0
 15 16  1  0  0  0  0
 16 17  1  0  0  0  0
 16 18  1  0  0  0  0
 16 36  1  0  0  0  0
 17 37  1  0  0  0  0
 17 38  1  0  0  0  0
 17 39  1  0  0  0  0
 18 40  1  0  0  0  0
 18 41  1  0  0  0  0
 19 20  1  0  0  0  0
M  CHG  1   5  -1
M  CHG  1  11   1
M  END
> <s_m_source_file>
AV-unprocessed.smi

> <i_m_source_file_index>
1381

> <i_lp_mmshare_version>
43012

> <i_f3d_flags>
0

> <s_epik_input>
W0NIM11jMVtjSF1jKG5vMSlbTkhdQyg9TylbTkhdW0NIMl1bQ0gyXU4yW0NIMl1bQ0BASF0oW0NIM10pT1tDQEBIXShbQ0gzXSlbQ0gyXTI=

> <s_epik_cmdline>
J2VwaWtfcHl0aG9uJywgJy1waCcsICc3LjAnLCAnLXRuJywgJzgnLCAnLW1hJywgJzIwMCcsICctbWV0YWxfYmluZGluZycsICctaW1hZScsICc8aW5maWxlLm1hZT4nLCAnLW9tYWUnLCAnPG91dGZpbGUubWFlPic=

> <r_epik_Ionization_Penalty>
6.73511

> <r_epik_Ionization_Penalty_Charging>
6.73502

> <r_epik_Ionization_Penalty_Neutral>
9.26583e-05

> <r_epik_State_Penalty>
6.93549

> <r_epik_Charging_Adjusted_Penalty>
13.6705

> <i_epik_Tot_Q>
0

> <i_epik_Tot_abs_Q>
2

> <r_epik_Metal_State_Penalty>
2.87211

> <b_epik_Metal_Only>
1

> <s_lp_Force_Field>
OPLS_2005

> <r_lp_Energy>
2.9367

> <b_lp_Chiralities_Consistent>
1

> <s_lp_Variant>
AV-unprocessed.smi:1381-11

> <Gold.Version>
5.8.1

> <Gold.Id.Protein>
6NUR|6NUR_protein|mol2

> <Gold.PLP.Fitness>
40.1288

> <Gold.PLP.PLP>
-30.0196

> <Gold.PLP.part.hbond>
-5.5289

> <Gold.PLP.part.metal>
0.0000

> <Gold.PLP.part.buried>
-3.5204

> <Gold.PLP.part.nonpolar>
-20.9584

> <Gold.PLP.part.repulsive>
0.1098

> <Gold.PLP.ligand.clash>
0.0000

> <Gold.PLP.ligand.torsion>
0.6821

> <Gold.PLP.Chemscore.Hbond>
3.7760

> <Gold.PLP.Chemscore.CHOScore>
0.0000

> <Gold.PLP.Chemscore.Metal>
0.0000

> <Gold.Chemscore.Hbonds>
donor molecule, donor type, donor heavy atom, donor atom, acceptor molecule, acceptor atom, score
      L1  H    11    42       P1  7948  2.00
      P1  H  6896  6907       L1     7  0.90
      P1  H  6931  6943       L1    20  0.82

> <Gold.PLP.Chemscore.Internal.Correction>
0.1453

> <Gold.Rescore>
     Score         DG    S(hbond)    S(metal)    S(lipo)     H(rot)  DE(clash)    DE(int)     intcor
     13.30     -15.48       2.22        0.00      56.78       1.58       0.08       2.10       ----

> <Gold.Chemscore.Fitness>
13.3025

> <Gold.Chemscore.DG>
-15.4832

> <Gold.Chemscore.ZeroCoef>
-5.4800

> <Gold.Chemscore.Hbond>
2.2164

> <Gold.Chemscore.Metal>
0.0000

> <Gold.Chemscore.Lipo>
56.7803

> <Gold.Chemscore.Internal_Hbond>
0.0000

> <Gold.Chemscore.DEClash>
0.0811

> <Gold.Chemscore.DEInternal>
2.0997

> <Gold.Chemscore.Rot>
1.5792

> <Gold.Chemscore.Internal.Correction>
   9.000000E+99

> <Gold.Chemscore.Hbonds>
donor molecule, donor type, donor heavy atom, donor atom, acceptor molecule, acceptor atom, score
      L1  H    11    42       P1  7948  0.25
      P1  H  6896  6907       L1     7  0.87
      P1  H  6931  6943       L1    20  0.15

> <Gold.Chemscore.Hbond.Weighted>
-7.4028

> <Gold.Chemscore.Metal.Weighted>
-0.0000

> <Gold.Chemscore.Lipo.Weighted>
-6.6433

> <Gold.Chemscore.Internal_Hbond.Weighted>
0.0000

> <Gold.Chemscore.DEClash.Weighted>
0.0811

> <Gold.Chemscore.DEInternal.Weighted>
2.0997

> <Gold.Chemscore.Rot.Weighted>
4.0428

> <Gold.Chemscore.Internal.Correction.Weighted>
   9.000000E+99

> <Gold.Protein.RotatedTorsions>
[ 6907 6896 6895 6894 ] final -108.95 input  -60.11 | X-H torsion
[ 7974 7965 7964 7962 ] final -160.57 input  175.53 | X-H torsion
[ 8008 7997 7996 7995 ] final   16.37 input   59.86 | X-H torsion
[ 10167 10162 10161 10158 ] final  -65.06 input  -65.29 | X-H torsion
[ 10718 10713 10712 10709 ] final  115.49 input   66.30 | X-H torsion
[ 10763 10752 10751 10750 ] final  136.42 input  -60.55 | X-H torsion
[ 11005 11000 10999 10996 ] final  138.15 input  -57.11 | X-H torsion

> <Gold.Protein.ActiveResidues>
 VAL166  LYS551  ARG553  GLY616  TRP617  ASP618  TYR619  PRO620  LYS621  CYS622 
 ASP623  PHE694  ASN695  SER759  ASP760  ASP761  ALA762  ILE779  LEU786  VAL792 
 PHE793  MET794  SER795  GLU796  ALA797  LYS798  CYS799  TRP800  GLU811  SER814 

> <Gold.Protein.RotatedAtoms>
  150.7532  133.9601  159.3512 H   0  0  0  0  0  0  0  0  0  0  0  0  # atno 6907 bound_to 6896
  151.7526  135.0827  160.0342 H   0  0  0  0  0  0  0  0  0  0  0  0  # atno 6908 bound_to 6896
  152.3456  133.6081  159.5943 H   0  0  0  0  0  0  0  0  0  0  0  0  # atno 6909 bound_to 6896
  144.7422  140.3523  143.6113 H   0  0  0  0  0  0  0  0  0  0  0  0  # atno 7974 bound_to 7965
  154.8759  140.2966  155.5453 H   0  0  0  0  0  0  0  0  0  0  0  0  # atno 8008 bound_to 7997
  156.3022  140.2451  156.3688 H   0  0  0  0  0  0  0  0  0  0  0  0  # atno 8009 bound_to 7997
  154.8768  140.0399  157.1747 H   0  0  0  0  0  0  0  0  0  0  0  0  # atno 8010 bound_to 7997
  140.5757  143.2322  151.6447 H   0  0  0  0  0  0  0  0  0  0  0  0  # atno 10167 bound_to 10162
  157.6218  131.1013  150.7337 H   0  0  0  0  0  0  0  0  0  0  0  0  # atno 10718 bound_to 10713
  153.8563  135.3073  155.3435 H   0  0  0  0  0  0  0  0  0  0  0  0  # atno 10763 bound_to 10752
  154.7869  135.4805  153.9968 H   0  0  0  0  0  0  0  0  0  0  0  0  # atno 10764 bound_to 10752
  153.1488  135.6839  153.9007 H   0  0  0  0  0  0  0  0  0  0  0  0  # atno 10765 bound_to 10752
  140.0163  134.9417  157.0383 H   0  0  0  0  0  0  0  0  0  0  0  0  # atno 11005 bound_to 11000
  145.7263  139.1724  143.2455 LP  0  0  0  0  0  0  0  0  0  0  0  0  # atno 17320 bound_to 7965
  146.1239  140.7273  142.9444 LP  0  0  0  0  0  0  0  0  0  0  0  0  # atno 17321 bound_to 7965
  139.5141  144.3421  152.0731 LP  0  0  0  0  0  0  0  0  0  0  0  0  # atno 17342 bound_to 10162
  140.2564  144.4114  150.6202 LP  0  0  0  0  0  0  0  0  0  0  0  0  # atno 17343 bound_to 10162
  156.7693  130.4824  149.5421 LP  0  0  0  0  0  0  0  0  0  0  0  0  # atno 17370 bound_to 10713
  156.1368  130.6217  151.0412 LP  0  0  0  0  0  0  0  0  0  0  0  0  # atno 17371 bound_to 10713
  140.4465  134.1627  155.7178 LP  0  0  0  0  0  0  0  0  0  0  0  0  # atno 17394 bound_to 11000
  141.1745  133.8542  157.1466 LP  0  0  0  0  0  0  0  0  0  0  0  0  # atno 17395 bound_to 11000

$$$$
