AV-unprocessed.smi:15|AV-procd|sdf|86|dock5
  -GOLD-   2262015223D 1   1.00000     0.00000
 Structure written by MMmdl.
 53 56  0  0  0  0  0  0  0  0  1 V2000
  146.8073  132.8510  155.0271 C   0  0  0  0  0  0  0  0  0  0  0  0
  146.8885  133.6317  153.7089 C   0  0  0  0  0  0  0  0  0  0  0  0
  145.7880  134.5811  153.5437 N   0  0  0  0  0  0  0  0  0  0  0  0
  144.6593  134.2572  152.6689 C   0  0  0  0  0  0  0  0  0  0  0  0
  145.0926  133.8143  151.2584 C   0  0  1  0  0  0  0  0  0  0  0  0
  145.7240  132.4249  151.2209 C   0  0  0  0  0  0  0  0  0  0  0  0
  145.4928  131.9683  149.7883 C   0  0  0  0  0  0  0  0  0  0  0  0
  144.4078  132.9148  149.2666 C   0  0  0  0  0  0  0  0  0  0  0  0
  143.9705  133.6390  150.4070 O   0  0  0  0  0  0  0  0  0  0  0  0
  146.0993  135.8992  153.5840 C   0  0  0  0  0  0  0  0  0  0  0  0
  145.4426  136.7229  152.7280 N   0  0  0  0  0  0  0  0  0  0  0  0
  145.7218  138.0291  152.7040 C   0  0  0  0  0  0  0  0  0  0  0  0
  146.6120  138.7058  153.4320 N   0  0  0  0  0  0  0  0  0  0  0  0
  147.2825  137.8814  154.2870 C   0  0  0  0  0  0  0  0  0  0  0  0
  147.0902  136.4778  154.4300 C   0  0  0  0  0  0  0  0  0  0  0  0
  147.9696  135.9782  155.3842 N   0  0  0  0  0  0  0  0  0  0  0  0
  148.6356  137.0255  155.7866 C   0  0  0  0  0  0  0  0  0  0  0  0
  148.2840  138.2115  155.1833 N   0  0  0  0  0  0  0  0  0  0  0  0
  148.8653  139.5218  155.4344 C   0  0  0  0  0  0  0  0  0  0  0  0
  150.2521  139.7194  154.7687 C   0  0  2  0  0  0  0  0  0  0  0  0
  150.0522  140.4110  153.5463 O   0  0  0  0  0  0  0  0  0  0  0  0
  150.9731  138.4122  154.4541 C   0  0  0  0  0  0  0  0  0  0  0  0
  152.4388  138.8156  154.4907 C   0  0  0  0  0  0  0  0  0  0  0  0
  152.4850  139.7084  155.5898 O   0  0  0  0  0  0  0  0  0  0  0  0
  151.3076  140.5130  155.5900 C   0  0  2  0  0  0  0  0  0  0  0  0
  150.9583  140.8136  157.0565 C   0  0  0  0  0  0  0  0  0  0  0  0
  147.6822  132.2120  155.1473 H   0  0  0  0  0  0  0  0  0  0  0  0
  145.9289  132.2068  155.0633 H   0  0  0  0  0  0  0  0  0  0  0  0
  146.7693  133.5259  155.8825 H   0  0  0  0  0  0  0  0  0  0  0  0
  147.8367  134.1710  153.6894 H   0  0  0  0  0  0  0  0  0  0  0  0
  146.9086  132.9365  152.8698 H   0  0  0  0  0  0  0  0  0  0  0  0
  144.0820  133.4588  153.1336 H   0  0  0  0  0  0  0  0  0  0  0  0
  143.9764  135.1048  152.5993 H   0  0  0  0  0  0  0  0  0  0  0  0
  145.7791  134.5351  150.8114 H   0  0  0  0  0  0  0  0  0  0  0  0
  146.7779  132.4342  151.5000 H   0  0  0  0  0  0  0  0  0  0  0  0
  145.2004  131.7556  151.9051 H   0  0  0  0  0  0  0  0  0  0  0  0
  146.3996  132.0600  149.1894 H   0  0  0  0  0  0  0  0  0  0  0  0
  145.1730  130.9264  149.7570 H   0  0  0  0  0  0  0  0  0  0  0  0
  144.8235  133.6112  148.5371 H   0  0  0  0  0  0  0  0  0  0  0  0
  143.5779  132.3858  148.7979 H   0  0  0  0  0  0  0  0  0  0  0  0
  145.1535  138.6154  151.9970 H   0  0  0  0  0  0  0  0  0  0  0  0
  149.4068  136.9621  156.5405 H   0  0  0  0  0  0  0  0  0  0  0  0
  148.1628  140.2778  155.0815 H   0  0  0  0  0  0  0  0  0  0  0  0
  148.9374  139.6485  156.5147 H   0  0  0  0  0  0  0  0  0  0  0  0
  149.6967  139.8044  152.9149 H   0  0  0  0  0  0  0  0  0  0  0  0
  150.7915  137.6839  155.2455 H   0  0  0  0  0  0  0  0  0  0  0  0
  150.6739  137.9577  153.5084 H   0  0  0  0  0  0  0  0  0  0  0  0
  153.1082  137.9671  154.6322 H   0  0  0  0  0  0  0  0  0  0  0  0
  152.7272  139.3380  153.5774 H   0  0  0  0  0  0  0  0  0  0  0  0
  151.5473  141.4556  155.0942 H   0  0  0  0  0  0  0  0  0  0  0  0
  150.0675  141.4366  157.1357 H   0  0  0  0  0  0  0  0  0  0  0  0
  151.7736  141.3491  157.5434 H   0  0  0  0  0  0  0  0  0  0  0  0
  150.7870  139.8979  157.6227 H   0  0  0  0  0  0  0  0  0  0  0  0
  1  2  1  0  0  0  0
  1 27  1  0  0  0  0
  1 28  1  0  0  0  0
  1 29  1  0  0  0  0
  2  3  1  0  0  0  0
  2 30  1  0  0  0  0
  2 31  1  0  0  0  0
  3  4  1  0  0  0  0
  3 10  1  0  0  0  0
  4  5  1  0  0  0  0
  4 32  1  0  0  0  0
  4 33  1  0  0  0  0
  5  9  1  0  0  0  0
  5  6  1  0  0  0  0
  5 34  1  0  0  0  0
  6  7  1  0  0  0  0
  6 35  1  0  0  0  0
  6 36  1  0  0  0  0
  7  8  1  0  0  0  0
  7 37  1  0  0  0  0
  7 38  1  0  0  0  0
  8  9  1  0  0  0  0
  8 39  1  0  0  0  0
  8 40  1  0  0  0  0
 10 15  1  0  0  0  0
 10 11  2  0  0  0  0
 11 12  1  0  0  0  0
 12 13  2  0  0  0  0
 12 41  1  0  0  0  0
 13 14  1  0  0  0  0
 14 18  1  0  0  0  0
 14 15  2  0  0  0  0
 15 16  1  0  0  0  0
 16 17  2  0  0  0  0
 17 18  1  0  0  0  0
 17 42  1  0  0  0  0
 18 19  1  0  0  0  0
 19 20  1  0  0  0  0
 19 43  1  0  0  0  0
 19 44  1  0  0  0  0
 20 25  1  0  0  0  0
 20 21  1  0  0  0  0
 20 22  1  0  0  0  0
 21 45  1  0  0  0  0
 22 23  1  0  0  0  0
 22 46  1  0  0  0  0
 22 47  1  0  0  0  0
 23 24  1  0  0  0  0
 23 48  1  0  0  0  0
 23 49  1  0  0  0  0
 24 25  1  0  0  0  0
 25 26  1  0  0  0  0
 25 50  1  0  0  0  0
 26 51  1  0  0  0  0
 26 52  1  0  0  0  0
 26 53  1  0  0  0  0
M  END
> <s_m_source_file>
AV-unprocessed.smi

> <i_m_source_file_index>
15

> <i_lp_mmshare_version>
43012

> <i_f3d_flags>
0

> <s_epik_input>
TzFbQ0gyXVtDSDJdW0NIMl1bQ0BIXTFbQ0gyXU4oW0NIMl1bQ0gzXSljKG5bY0hdbjIpYyhjMjMpbltjSF1uM1tDSDJdW0NAQF00KFtPSF0pW0NIMl1bQ0gyXU9bQ0BIXTRbQ0gzXQ==

> <s_epik_cmdline>
J2VwaWtfcHl0aG9uJywgJy1waCcsICc3LjAnLCAnLXRuJywgJzgnLCAnLW1hJywgJzIwMCcsICctbWV0YWxfYmluZGluZycsICctaW1hZScsICc8aW5maWxlLm1hZT4nLCAnLW9tYWUnLCAnPG91dGZpbGUubWFlPic=

> <r_lp_tautomer_probability>
1

> <r_epik_Ionization_Penalty>
0.00360814

> <r_epik_Ionization_Penalty_Charging>
0

> <r_epik_Ionization_Penalty_Neutral>
0.00360814

> <r_epik_State_Penalty>
0.00237482

> <r_epik_Charging_Adjusted_Penalty>
0.00237482

> <i_epik_Tot_Q>
0

> <i_epik_Tot_abs_Q>
0

> <r_epik_Metal_State_Penalty>
-0

> <b_epik_Metal_Only>
0

> <s_lp_Force_Field>
OPLS_2005

> <r_lp_Energy>
45.3604

> <b_lp_Chiralities_Consistent>
1

> <s_lp_Variant>
AV-unprocessed.smi:15-8

> <Gold.Version>
5.8.1

> <Gold.Id.Protein>
6NUR|6NUR_protein|mol2

> <Gold.PLP.Fitness>
44.0370

> <Gold.PLP.PLP>
-34.3168

> <Gold.PLP.part.hbond>
-2.7017

> <Gold.PLP.part.metal>
0.0000

> <Gold.PLP.part.buried>
-4.5696

> <Gold.PLP.part.nonpolar>
-27.5244

> <Gold.PLP.part.repulsive>
0.6312

> <Gold.PLP.ligand.clash>
0.0000

> <Gold.PLP.ligand.torsion>
1.7063

> <Gold.PLP.Chemscore.Hbond>
2.1520

> <Gold.PLP.Chemscore.CHOScore>
1.9018

> <Gold.PLP.Chemscore.Metal>
0.0000

> <Gold.Chemscore.Hbonds>
donor molecule, donor type, donor heavy atom, donor atom, acceptor molecule, acceptor atom, score
      L1  H    21    45       P1  7957  0.53
      P1  H  7989  7998       L1    21  0.36
      P1  H  7997  8008       L1    24  1.00
      P1  H  8011  8017       L1    21  0.20
      L1  C    12    41       P1 10171  1.00
      L1  C    12    41       P1 10175  0.97

> <Gold.PLP.Chemscore.Internal.Correction>
0.9716

> <Gold.Rescore>
     Score         DG    S(hbond)    S(metal)    S(lipo)     H(rot)  DE(clash)    DE(int)     intcor
     12.07     -15.03       1.86        0.00      81.98       2.44       0.02       2.95       ----

> <Gold.Chemscore.Fitness>
12.0668

> <Gold.Chemscore.DG>
-15.0333

> <Gold.Chemscore.ZeroCoef>
-5.4800

> <Gold.Chemscore.Hbond>
1.8610

> <Gold.Chemscore.Metal>
0.0000

> <Gold.Chemscore.Lipo>
81.9843

> <Gold.Chemscore.Internal_Hbond>
0.0000

> <Gold.Chemscore.DEClash>
0.0203

> <Gold.Chemscore.DEInternal>
2.9463

> <Gold.Chemscore.Rot>
2.4431

> <Gold.Chemscore.Internal.Correction>
   9.000000E+99

> <Gold.Chemscore.Hbonds>
donor molecule, donor type, donor heavy atom, donor atom, acceptor molecule, acceptor atom, score
      L1  H    21    45       P1  7957  0.52
      P1  H  7989  7998       L1    21  0.03
      P1  H  7997  8008       L1    24  0.85
      P1  H  8011  8017       L1    21  0.04

> <Gold.Chemscore.Hbond.Weighted>
-6.2156

> <Gold.Chemscore.Metal.Weighted>
-0.0000

> <Gold.Chemscore.Lipo.Weighted>
-9.5922

> <Gold.Chemscore.Internal_Hbond.Weighted>
0.0000

> <Gold.Chemscore.DEClash.Weighted>
0.0203

> <Gold.Chemscore.DEInternal.Weighted>
2.9463

> <Gold.Chemscore.Rot.Weighted>
6.2544

> <Gold.Chemscore.Internal.Correction.Weighted>
   9.000000E+99

> <Gold.Protein.RotatedTorsions>
[ 6907 6896 6895 6894 ] final -116.19 input  -60.11 | X-H torsion
[ 7974 7965 7964 7962 ] final -126.31 input  175.53 | X-H torsion
[ 8008 7997 7996 7995 ] final  -34.51 input   59.86 | X-H torsion
[ 10167 10162 10161 10158 ] final   18.51 input  -65.29 | X-H torsion
[ 10718 10713 10712 10709 ] final  -16.32 input   66.30 | X-H torsion
[ 10763 10752 10751 10750 ] final  174.86 input  -60.55 | X-H torsion
[ 11005 11000 10999 10996 ] final  -43.84 input  -57.11 | X-H torsion

> <Gold.Protein.ActiveResidues>
 VAL166  LYS551  ARG553  GLY616  TRP617  ASP618  TYR619  PRO620  LYS621  CYS622 
 ASP623  PHE694  ASN695  SER759  ASP760  ASP761  ALA762  ILE779  LEU786  VAL792 
 PHE793  MET794  SER795  GLU796  ALA797  LYS798  CYS799  TRP800  GLU811  SER814 

> <Gold.Protein.RotatedAtoms>
  150.8036  133.8552  159.3216 H   0  0  0  0  0  0  0  0  0  0  0  0  # atno 6907 bound_to 6896
  151.6357  135.1016  160.0140 H   0  0  0  0  0  0  0  0  0  0  0  0  # atno 6908 bound_to 6896
  152.4125  133.6946  159.6445 H   0  0  0  0  0  0  0  0  0  0  0  0  # atno 6909 bound_to 6896
  144.9886  140.7710  143.4568 H   0  0  0  0  0  0  0  0  0  0  0  0  # atno 7974 bound_to 7965
  154.4119  140.1682  156.2061 H   0  0  0  0  0  0  0  0  0  0  0  0  # atno 8008 bound_to 7997
  155.9483  140.3403  155.6363 H   0  0  0  0  0  0  0  0  0  0  0  0  # atno 8009 bound_to 7997
  155.6902  140.0733  157.2442 H   0  0  0  0  0  0  0  0  0  0  0  0  # atno 8010 bound_to 7997
  140.5647  143.9272  150.6668 H   0  0  0  0  0  0  0  0  0  0  0  0  # atno 10167 bound_to 10162
  156.5892  130.4794  149.6287 H   0  0  0  0  0  0  0  0  0  0  0  0  # atno 10718 bound_to 10713
  154.4598  135.2767  155.1721 H   0  0  0  0  0  0  0  0  0  0  0  0  # atno 10763 bound_to 10752
  154.3514  135.6149  153.5648 H   0  0  0  0  0  0  0  0  0  0  0  0  # atno 10764 bound_to 10752
  152.9854  135.5812  154.4958 H   0  0  0  0  0  0  0  0  0  0  0  0  # atno 10765 bound_to 10752
  141.0410  133.6780  156.2788 H   0  0  0  0  0  0  0  0  0  0  0  0  # atno 11005 bound_to 11000
  145.2318  139.2111  143.5039 LP  0  0  0  0  0  0  0  0  0  0  0  0  # atno 17320 bound_to 7965
  146.3426  140.2197  142.8591 LP  0  0  0  0  0  0  0  0  0  0  0  0  # atno 17321 bound_to 7965
  140.2732  143.3441  152.1219 LP  0  0  0  0  0  0  0  0  0  0  0  0  # atno 17342 bound_to 10162
  139.5087  144.6855  151.5899 LP  0  0  0  0  0  0  0  0  0  0  0  0  # atno 17343 bound_to 10162
  156.2564  130.6937  151.1692 LP  0  0  0  0  0  0  0  0  0  0  0  0  # atno 17370 bound_to 10713
  157.7308  131.0613  150.5710 LP  0  0  0  0  0  0  0  0  0  0  0  0  # atno 17371 bound_to 10713
  140.6234  134.5339  157.5550 LP  0  0  0  0  0  0  0  0  0  0  0  0  # atno 17394 bound_to 11000
  139.9276  134.8026  156.1023 LP  0  0  0  0  0  0  0  0  0  0  0  0  # atno 17395 bound_to 11000

$$$$
