#       Name:                AV-unprocessed.smi:1831
#       Creating user name   scv26
#       Creation time:       Fri Mar 27 09:15:35 2020


#       File generated by GOLD software.
#

@<TRIPOS>MOLECULE
AV-unprocessed.smi:1831
    45    46     1
SMALL
NO_CHARGES


@<TRIPOS>ATOM
      1 ****        -1.9682   4.3941  -4.3000 C.3            1 S1                 0.0000
      2 ****        -2.2469   3.8651  -2.9350 C.2            1 S1                 0.0000
      3 ****        -3.4845   3.6790  -2.4698 N.2            1 S1                 0.0000
      4 ****        -3.4870   3.1773  -1.1765 N.2            1 S1                 0.0000
      5 ****        -2.2551   2.9805  -0.6867 C.2            1 S1                 0.0000
      6 ****        -2.0394   2.4987   0.5485 N.pl3          1 S1                -1.0000
      7 ****        -1.7512   1.1897   0.7190 C.2            1 S1                 0.0000
      8 ****        -1.6616   0.3401  -0.1714 O.2            1 S1                 0.0000
      9 ****        -1.5278   0.8458   1.9967 N.am           1 S1                 0.0000
     10 ****        -1.1735  -0.4889   2.4720 C.3            1 S1                 0.0000
     11 ****         0.3477  -0.6648   2.6932 C.3            1 S1                 0.0000
     12 ****         0.6968  -2.1221   3.0013 C.3            1 S1                 0.0000
     13 ****         0.9907  -2.7574   1.6323 C.3            1 S1                 0.0000
     14 ****         1.0971  -1.6465   0.6537 N.4            1 S1                 1.0000
     15 ****         2.1201  -1.8246  -0.4138 C.3            1 S1                 0.0000
     16 ****         2.1772  -0.6052  -1.3538 C.3            1 S1                 0.0000
     17 ****         1.8431  -3.0959  -1.2376 C.3            1 S1                 0.0000
     18 ****         1.2079  -0.4086   1.4510 C.3            1 S1                 0.0000
     19 ****        -0.9717   3.4298  -1.8099 S.3            1 S1                 0.0000
     20 ****        -1.9118   3.5713  -5.0125 H              1 S1                 0.0000
     21 ****        -1.0204   4.9324  -4.3095 H              1 S1                 0.0000
     22 ****        -2.7589   5.0769  -4.6124 H              1 S1                 0.0000
     23 ****        -1.6114   1.5725   2.6929 H              1 S1                 0.0000
     24 ****        -1.6948  -0.6495   3.4160 H              1 S1                 0.0000
     25 ****        -1.5562  -1.2520   1.7923 H              1 S1                 0.0000
     26 ****         0.6590  -0.0106   3.5087 H              1 S1                 0.0000
     27 ****         1.5967  -2.1568   3.6170 H              1 S1                 0.0000
     28 ****        -0.0896  -2.6450   3.5472 H              1 S1                 0.0000
     29 ****         1.9116  -3.3398   1.6856 H              1 S1                 0.0000
     30 ****         0.1876  -3.4279   1.3249 H              1 S1                 0.0000
     31 ****         3.0956  -1.9305   0.0632 H              1 S1                 0.0000
     32 ****         2.8803  -0.7728  -2.1700 H              1 S1                 0.0000
     33 ****         2.5078   0.2950  -0.8357 H              1 S1                 0.0000
     34 ****         1.2013  -0.3987  -1.7955 H              1 S1                 0.0000
     35 ****         2.5800  -3.2146  -2.0324 H              1 S1                 0.0000
     36 ****         0.8583  -3.0565  -1.7045 H              1 S1                 0.0000
     37 ****         1.8866  -3.9982  -0.6281 H              1 S1                 0.0000
     38 ****         0.9195   0.4798   0.8922 H              1 S1                 0.0000
     39 ****         2.2473  -0.2710   1.7540 H              1 S1                 0.0000
     40 ****         0.1986  -1.5888   0.1948 H              1 S1                 0.0000
     41 ****        -4.3132   3.8781  -2.9929 LP             1 S1                 0.0000
     42 ****        -4.3223   2.9824  -0.6624 LP             1 S1                 0.0000
     43 ****        -2.0920   3.1074   1.3401 LP             1 S1                 0.0000
     44 ****        -1.8083   0.5990  -1.1261 LP             1 S1                 0.0000
     45 ****        -1.4424  -0.6073   0.0617 LP             1 S1                 0.0000
@<TRIPOS>BOND
    1    1    2 1     
    2    1   20 1     
    3    1   21 1     
    4    1   22 1     
    5    2   19 1     
    6    2    3 2     
    7    3    4 1     
    8    4    5 2     
    9    5    6 1     
   10    5   19 1     
   11    6    7 1     
   12    7    8 2     
   13    7    9 am    
   14    9   10 1     
   15    9   23 1     
   16   10   11 1     
   17   10   24 1     
   18   10   25 1     
   19   11   18 1     
   20   11   12 1     
   21   11   26 1     
   22   12   13 1     
   23   12   27 1     
   24   12   28 1     
   25   13   14 1     
   26   13   29 1     
   27   13   30 1     
   28   14   15 1     
   29   14   18 1     
   30   14   40 1     
   31   15   16 1     
   32   15   17 1     
   33   15   31 1     
   34   16   32 1     
   35   16   33 1     
   36   16   34 1     
   37   17   35 1     
   38   17   36 1     
   39   17   37 1     
   40   18   38 1     
   41   18   39 1     
   42    3   41 1     
   43    4   42 1     
   44    6   43 1     
   45    8   44 1     
   46    8   45 1     
@<TRIPOS>SUBSTRUCTURE
      1 S1             1
@<TRIPOS>SET
LONE_PAIRS      STATIC     ATOMS    <user>   **** ""
5 41 42 43 44 45
DONOR_HYDROGENS      STATIC     ATOMS    <user>   **** ""
2 23 40
ATOM$BLUE        STATIC     ATOMS    COLORGROUP SYSTEM
5 41 42 43 44 45
ATOM$RED        STATIC     ATOMS    COLORGROUP SYSTEM
2 23 40
