AV-unprocessed.smi:1429|AV-procd|sdf|5818|dock2
  -GOLD-   22720 5473D 1   1.00000     0.00000
 Structure written by MMmdl.
 30 31  0  0  0  0  0  0  0  0  1 V2000
  150.9405  142.0121  156.8993 C   0  0  0  0  0  0  0  0  0  0  0  0
  150.5771  140.9095  155.9645 C   0  0  0  0  0  0  0  0  0  0  0  0
  151.4851  140.0744  155.4454 N   0  0  0  0  0  0  0  0  0  0  0  0
  150.9123  139.1321  154.6028 N   0  0  0  0  0  0  0  0  0  0  0  0
  149.5845  139.2864  154.5094 C   0  0  0  0  0  0  0  0  0  0  0  0
  148.7480  138.4588  153.7144 N   0  0  0  0  0  0  0  0  0  0  0  0
  147.4077  138.4846  153.6101 C   0  0  0  0  0  0  0  0  0  0  0  0
  146.6614  139.2606  154.2075 O   0  0  0  0  0  0  0  0  0  0  0  0
  146.9680  137.5444  152.7614 N   0  0  0  0  0  0  0  0  0  0  0  0
  145.5668  137.3073  152.4298 C   0  0  0  0  0  0  0  0  0  0  0  0
  145.3883  136.0893  151.5036 C   0  0  2  0  0  0  0  0  0  0  0  0
  143.9534  135.6363  151.3165 C   0  0  0  0  0  0  0  0  0  0  0  0
  144.1445  134.2139  150.8021 C   0  0  0  0  0  0  0  0  0  0  0  0
  145.3162  133.7281  151.4495 O   0  0  0  0  0  0  0  0  0  0  0  0
  146.0414  134.8102  152.0284 C   0  0  0  0  0  0  0  0  0  0  0  0
  148.9206  140.6101  155.4521 S   0  0  0  0  0  0  0  0  0  0  0  0
  151.7730  141.7111  157.5361 H   0  0  0  0  0  0  0  0  0  0  0  0
  150.0912  142.2647  157.5342 H   0  0  0  0  0  0  0  0  0  0  0  0
  151.2320  142.8975  156.3345 H   0  0  0  0  0  0  0  0  0  0  0  0
  149.2273  137.7647  153.1600 H   0  0  0  0  0  0  0  0  0  0  0  0
  147.6490  136.9492  152.3126 H   0  0  0  0  0  0  0  0  0  0  0  0
  144.9867  137.1739  153.3444 H   0  0  0  0  0  0  0  0  0  0  0  0
  145.1781  138.2053  151.9486 H   0  0  0  0  0  0  0  0  0  0  0  0
  145.8117  136.3097  150.5221 H   0  0  0  0  0  0  0  0  0  0  0  0
  143.4285  135.6221  152.2729 H   0  0  0  0  0  0  0  0  0  0  0  0
  143.3901  136.2639  150.6251 H   0  0  0  0  0  0  0  0  0  0  0  0
  143.2829  133.5763  151.0016 H   0  0  0  0  0  0  0  0  0  0  0  0
  144.3196  134.2204  149.7256 H   0  0  0  0  0  0  0  0  0  0  0  0
  147.1014  134.7551  151.7796 H   0  0  0  0  0  0  0  0  0  0  0  0
  145.9471  134.7414  153.1131 H   0  0  0  0  0  0  0  0  0  0  0  0
  1  2  1  0  0  0  0
  1 17  1  0  0  0  0
  1 18  1  0  0  0  0
  1 19  1  0  0  0  0
  2 16  1  0  0  0  0
  2  3  2  0  0  0  0
  3  4  1  0  0  0  0
  4  5  2  0  0  0  0
  5  6  1  0  0  0  0
  5 16  1  0  0  0  0
  6  7  1  0  0  0  0
  6 20  1  0  0  0  0
  7  8  2  0  0  0  0
  7  9  1  0  0  0  0
  9 10  1  0  0  0  0
  9 21  1  0  0  0  0
 10 11  1  0  0  0  0
 10 22  1  0  0  0  0
 10 23  1  0  0  0  0
 11 15  1  0  0  0  0
 11 12  1  0  0  0  0
 11 24  1  0  0  0  0
 12 13  1  0  0  0  0
 12 25  1  0  0  0  0
 12 26  1  0  0  0  0
 13 14  1  0  0  0  0
 13 27  1  0  0  0  0
 13 28  1  0  0  0  0
 14 15  1  0  0  0  0
 15 29  1  0  0  0  0
 15 30  1  0  0  0  0
M  END
> <s_m_source_file>
AV-unprocessed.smi

> <i_m_source_file_index>
1429

> <i_lp_mmshare_version>
43012

> <i_f3d_flags>
0

> <s_epik_input>
W0NIM11jMW5uYyhzMSlbTkhdQyg9TylbTkhdW0NIMl1bQ0BASF0yW0NIMl1bQ0gyXU9bQ0gyXTI=

> <s_epik_cmdline>
J2VwaWtfcHl0aG9uJywgJy1waCcsICc3LjAnLCAnLXRuJywgJzgnLCAnLW1hJywgJzIwMCcsICctbWV0YWxfYmluZGluZycsICctaW1hZScsICc8aW5maWxlLm1hZT4nLCAnLW9tYWUnLCAnPG91dGZpbGUubWFlPic=

> <r_lp_tautomer_probability>
1

> <r_epik_Ionization_Penalty>
0.000468089

> <r_epik_Ionization_Penalty_Charging>
0

> <r_epik_Ionization_Penalty_Neutral>
0.000468089

> <r_epik_State_Penalty>
-0

> <r_epik_Charging_Adjusted_Penalty>
0

> <i_epik_Tot_Q>
0

> <i_epik_Tot_abs_Q>
0

> <r_epik_Metal_State_Penalty>
0.211262

> <b_epik_Metal_Only>
0

> <s_lp_Force_Field>
OPLS_2005

> <r_lp_Energy>
16.548

> <b_lp_Chiralities_Consistent>
1

> <s_lp_Variant>
AV-unprocessed.smi:1429-1

> <Gold.Version>
5.8.1

> <Gold.Id.Protein>
6NUR|6NUR_protein|mol2

> <Gold.PLP.Fitness>
32.5882

> <Gold.PLP.PLP>
-26.9464

> <Gold.PLP.part.hbond>
-5.0000

> <Gold.PLP.part.metal>
0.0000

> <Gold.PLP.part.buried>
-3.4275

> <Gold.PLP.part.nonpolar>
-18.8690

> <Gold.PLP.part.repulsive>
0.5196

> <Gold.PLP.ligand.clash>
0.0000

> <Gold.PLP.ligand.torsion>
0.0500

> <Gold.PLP.Chemscore.Hbond>
1.9120

> <Gold.PLP.Chemscore.CHOScore>
0.0000

> <Gold.PLP.Chemscore.Metal>
0.0000

> <Gold.Chemscore.Hbonds>
donor molecule, donor type, donor heavy atom, donor atom, acceptor molecule, acceptor atom, score
      L1  H     6    20       P1  7948  0.90
      L1  H     9    21       P1  7948  1.00

> <Gold.PLP.Chemscore.Internal.Correction>
0.0058

> <Gold.Rescore>
     Score         DG    S(hbond)    S(metal)    S(lipo)     H(rot)  DE(clash)    DE(int)     intcor
     12.85     -14.20       1.93        0.00      48.09       1.31       0.06       1.29       ----

> <Gold.Chemscore.Fitness>
12.8470

> <Gold.Chemscore.DG>
-14.1985

> <Gold.Chemscore.ZeroCoef>
-5.4800

> <Gold.Chemscore.Hbond>
1.9319

> <Gold.Chemscore.Metal>
0.0000

> <Gold.Chemscore.Lipo>
48.0858

> <Gold.Chemscore.Internal_Hbond>
0.0000

> <Gold.Chemscore.DEClash>
0.0617

> <Gold.Chemscore.DEInternal>
1.2897

> <Gold.Chemscore.Rot>
1.3125

> <Gold.Chemscore.Internal.Correction>
   9.000000E+99

> <Gold.Chemscore.Hbonds>
donor molecule, donor type, donor heavy atom, donor atom, acceptor molecule, acceptor atom, score
      L1  H     6    20       P1  7948  0.84
      L1  H     9    21       P1  7948  0.94

> <Gold.Chemscore.Hbond.Weighted>
-6.4524

> <Gold.Chemscore.Metal.Weighted>
-0.0000

> <Gold.Chemscore.Lipo.Weighted>
-5.6260

> <Gold.Chemscore.Internal_Hbond.Weighted>
0.0000

> <Gold.Chemscore.DEClash.Weighted>
0.0617

> <Gold.Chemscore.DEInternal.Weighted>
1.2897

> <Gold.Chemscore.Rot.Weighted>
3.3600

> <Gold.Chemscore.Internal.Correction.Weighted>
   9.000000E+99

> <Gold.Protein.RotatedTorsions>
[ 6907 6896 6895 6894 ] final -165.19 input  -60.11 | X-H torsion
[ 7974 7965 7964 7962 ] final   -7.29 input  175.53 | X-H torsion
[ 8008 7997 7996 7995 ] final -133.32 input   59.86 | X-H torsion
[ 10167 10162 10161 10158 ] final    4.69 input  -65.29 | X-H torsion
[ 10718 10713 10712 10709 ] final   14.70 input   66.30 | X-H torsion
[ 10763 10752 10751 10750 ] final  170.77 input  -60.55 | X-H torsion
[ 11005 11000 10999 10996 ] final  127.50 input  -57.11 | X-H torsion

> <Gold.Protein.ActiveResidues>
 VAL166  LYS551  ARG553  GLY616  TRP617  ASP618  TYR619  PRO620  LYS621  CYS622 
 ASP623  PHE694  ASN695  SER759  ASP760  ASP761  ALA762  ILE779  LEU786  VAL792 
 PHE793  MET794  SER795  GLU796  ALA797  LYS798  CYS799  TRP800  GLU811  SER814 

> <Gold.Protein.RotatedAtoms>
  151.4238  133.3690  159.2759 H   0  0  0  0  0  0  0  0  0  0  0  0  # atno 6907 bound_to 6896
  150.9274  134.8692  159.7540 H   0  0  0  0  0  0  0  0  0  0  0  0  # atno 6908 bound_to 6896
  152.5012  134.4180  159.9523 H   0  0  0  0  0  0  0  0  0  0  0  0  # atno 6909 bound_to 6896
  146.2310  140.2298  142.8340 H   0  0  0  0  0  0  0  0  0  0  0  0  # atno 7974 bound_to 7965
  155.3435  140.0473  157.3045 H   0  0  0  0  0  0  0  0  0  0  0  0  # atno 8008 bound_to 7997
  154.5264  140.2242  155.8847 H   0  0  0  0  0  0  0  0  0  0  0  0  # atno 8009 bound_to 7997
  156.1744  140.3088  155.9038 H   0  0  0  0  0  0  0  0  0  0  0  0  # atno 8010 bound_to 7997
  140.6521  143.7518  150.7593 H   0  0  0  0  0  0  0  0  0  0  0  0  # atno 10167 bound_to 10162
  157.0429  130.6238  149.5754 H   0  0  0  0  0  0  0  0  0  0  0  0  # atno 10718 bound_to 10713
  154.4023  135.2755  155.2089 H   0  0  0  0  0  0  0  0  0  0  0  0  # atno 10763 bound_to 10752
  154.4109  135.6022  153.5956 H   0  0  0  0  0  0  0  0  0  0  0  0  # atno 10764 bound_to 10752
  152.9831  135.5949  154.4293 H   0  0  0  0  0  0  0  0  0  0  0  0  # atno 10765 bound_to 10752
  139.9511  134.9622  156.8863 H   0  0  0  0  0  0  0  0  0  0  0  0  # atno 11005 bound_to 11000
  144.9567  140.8233  143.5539 LP  0  0  0  0  0  0  0  0  0  0  0  0  # atno 17320 bound_to 7965
  145.2264  139.2135  143.5066 LP  0  0  0  0  0  0  0  0  0  0  0  0  # atno 17321 bound_to 7965
  140.1170  143.4646  152.2336 LP  0  0  0  0  0  0  0  0  0  0  0  0  # atno 17342 bound_to 10162
  139.5738  144.7477  151.3819 LP  0  0  0  0  0  0  0  0  0  0  0  0  # atno 17343 bound_to 10162
  156.0032  130.5115  150.7738 LP  0  0  0  0  0  0  0  0  0  0  0  0  # atno 17370 bound_to 10713
  157.5090  131.0924  151.0221 LP  0  0  0  0  0  0  0  0  0  0  0  0  # atno 17371 bound_to 10713
  140.5718  134.0436  155.7433 LP  0  0  0  0  0  0  0  0  0  0  0  0  # atno 17394 bound_to 11000
  141.1173  133.9519  157.2797 LP  0  0  0  0  0  0  0  0  0  0  0  0  # atno 17395 bound_to 11000

$$$$
