AV-unprocessed.smi:2078|AV-procd|sdf|8465|dock5
  -GOLD-   2272011163D 1   1.00000     0.00000
 Structure written by MMmdl.
 42 43  0  0  0  0  0  0  0  0  2 V2000
  152.6778  138.2050  158.0960 C   0  0  0  0  0  0  0  0  0  0  0  0
  152.0827  138.6669  156.8103 C   0  0  0  0  0  0  0  0  0  0  0  0
  150.8575  138.4851  156.2323 C   0  0  0  0  0  0  0  0  0  0  0  0
  150.9696  139.2057  155.0136 C   0  0  0  0  0  0  0  0  0  0  0  0
  149.8831  139.2755  154.1044 N   0  0  0  0  0  0  0  0  0  0  0  0
  148.6449  138.7810  154.2743 C   0  0  0  0  0  0  0  0  0  0  0  0
  148.2404  138.2110  155.2882 O   0  0  0  0  0  0  0  0  0  0  0  0
  147.8824  138.9790  153.1890 N   0  0  0  0  0  0  0  0  0  0  0  0
  146.4927  138.5538  153.0665 C   0  0  0  0  0  0  0  0  0  0  0  0
  146.2354  137.8331  151.7282 C   0  0  0  0  0  0  0  0  0  0  0  0
  145.9887  136.3808  151.9090 N   0  3  1  0  0  0  0  0  0  0  0  0
  145.2534  136.0864  153.1658 C   0  0  0  0  0  0  0  0  0  0  0  0
  145.1480  134.5716  153.4042 C   0  0  0  0  0  0  0  0  0  0  0  0
  144.4974  133.8671  152.2050 C   0  0  0  0  0  0  0  0  0  0  0  0
  145.2164  134.2212  150.8900 C   0  0  2  0  0  0  0  0  0  0  0  0
  146.5785  133.5198  150.7452 C   0  0  0  0  0  0  0  0  0  0  0  0
  145.3296  135.7514  150.7319 C   0  0  0  0  0  0  0  0  0  0  0  0
  152.1561  139.7732  154.8603 N   0  0  0  0  0  0  0  0  0  0  0  0
  152.8757  139.4304  156.0108 O   0  0  0  0  0  0  0  0  0  0  0  0
  151.9681  137.5987  158.6591 H   0  0  0  0  0  0  0  0  0  0  0  0
  152.9627  139.0549  158.7163 H   0  0  0  0  0  0  0  0  0  0  0  0
  153.5688  137.6035  157.9157 H   0  0  0  0  0  0  0  0  0  0  0  0
  150.0186  137.9287  156.6229 H   0  0  0  0  0  0  0  0  0  0  0  0
  150.0765  139.7316  153.2250 H   0  0  0  0  0  0  0  0  0  0  0  0
  148.2879  139.4604  152.3992 H   0  0  0  0  0  0  0  0  0  0  0  0
  146.2397  137.9231  153.9192 H   0  0  0  0  0  0  0  0  0  0  0  0
  145.8596  139.4384  153.1382 H   0  0  0  0  0  0  0  0  0  0  0  0
  145.3633  138.2945  151.2627 H   0  0  0  0  0  0  0  0  0  0  0  0
  147.0638  137.9754  151.0325 H   0  0  0  0  0  0  0  0  0  0  0  0
  145.7672  136.5435  154.0124 H   0  0  0  0  0  0  0  0  0  0  0  0
  144.2585  136.5324  153.1200 H   0  0  0  0  0  0  0  0  0  0  0  0
  146.1402  134.1581  153.5866 H   0  0  0  0  0  0  0  0  0  0  0  0
  144.5665  134.3785  154.3062 H   0  0  0  0  0  0  0  0  0  0  0  0
  144.4870  132.7874  152.3579 H   0  0  0  0  0  0  0  0  0  0  0  0
  143.4532  134.1751  152.1359 H   0  0  0  0  0  0  0  0  0  0  0  0
  144.5950  133.8538  150.0721 H   0  0  0  0  0  0  0  0  0  0  0  0
  147.2848  133.8382  151.5118 H   0  0  0  0  0  0  0  0  0  0  0  0
  147.0272  133.7359  149.7752 H   0  0  0  0  0  0  0  0  0  0  0  0
  146.4715  132.4373  150.8212 H   0  0  0  0  0  0  0  0  0  0  0  0
  144.3344  136.1823  150.6103 H   0  0  0  0  0  0  0  0  0  0  0  0
  145.8745  135.9787  149.8162 H   0  0  0  0  0  0  0  0  0  0  0  0
  146.8955  135.9471  152.0066 H   0  0  0  0  0  0  0  0  0  0  0  0
  1  2  1  0  0  0  0
  1 20  1  0  0  0  0
  1 21  1  0  0  0  0
  1 22  1  0  0  0  0
  2 19  1  0  0  0  0
  2  3  2  0  0  0  0
  3  4  1  0  0  0  0
  3 23  1  0  0  0  0
  4  5  1  0  0  0  0
  4 18  2  0  0  0  0
  5  6  1  0  0  0  0
  5 24  1  0  0  0  0
  6  7  2  0  0  0  0
  6  8  1  0  0  0  0
  8  9  1  0  0  0  0
  8 25  1  0  0  0  0
  9 10  1  0  0  0  0
  9 26  1  0  0  0  0
  9 27  1  0  0  0  0
 10 11  1  0  0  0  0
 10 28  1  0  0  0  0
 10 29  1  0  0  0  0
 11 17  1  0  0  0  0
 11 12  1  0  0  0  0
 11 42  1  0  0  0  0
 12 13  1  0  0  0  0
 12 30  1  0  0  0  0
 12 31  1  0  0  0  0
 13 14  1  0  0  0  0
 13 32  1  0  0  0  0
 13 33  1  0  0  0  0
 14 15  1  0  0  0  0
 14 34  1  0  0  0  0
 14 35  1  0  0  0  0
 15 16  1  0  0  0  0
 15 17  1  0  0  0  0
 15 36  1  0  0  0  0
 16 37  1  0  0  0  0
 16 38  1  0  0  0  0
 16 39  1  0  0  0  0
 17 40  1  0  0  0  0
 17 41  1  0  0  0  0
 18 19  1  0  0  0  0
M  CHG  1  11   1
M  END
> <s_m_source_file>
AV-unprocessed.smi

> <i_m_source_file_index>
2078

> <i_lp_mmshare_version>
43012

> <i_f3d_flags>
0

> <s_epik_input>
W0NIM11jMVtjSF1jKG5vMSlbTkhdQyg9TylbTkhdW0NIMl1bQ0gyXU4yW0NIMl1bQ0gyXVtDSDJdW0NAQEhdKFtDSDNdKVtDSDJdMg==

> <s_epik_cmdline>
J2VwaWtfcHl0aG9uJywgJy1waCcsICc3LjAnLCAnLXRuJywgJzgnLCAnLW1hJywgJzIwMCcsICctbWV0YWxfYmluZGluZycsICctaW1hZScsICc8aW5maWxlLm1hZT4nLCAnLW9tYWUnLCAnPG91dGZpbGUubWFlPic=

> <r_epik_Ionization_Penalty>
0.00216453

> <r_epik_Ionization_Penalty_Charging>
0.00212879

> <r_epik_Ionization_Penalty_Neutral>
3.57418e-05

> <r_epik_State_Penalty>
0.00146033

> <r_epik_Charging_Adjusted_Penalty>
0.00358912

> <i_epik_Tot_Q>
1

> <i_epik_Tot_abs_Q>
1

> <r_epik_Metal_State_Penalty>
0.0215827

> <b_epik_Metal_Only>
0

> <s_lp_Force_Field>
OPLS_2005

> <r_lp_Energy>
15.3695

> <b_lp_Chiralities_Consistent>
1

> <s_lp_Variant>
AV-unprocessed.smi:2078-3

> <Gold.Version>
5.8.1

> <Gold.Id.Protein>
6NUR|6NUR_protein|mol2

> <Gold.PLP.Fitness>
43.7471

> <Gold.PLP.PLP>
-28.8554

> <Gold.PLP.part.hbond>
-5.3895

> <Gold.PLP.part.metal>
0.0000

> <Gold.PLP.part.buried>
-2.7610

> <Gold.PLP.part.nonpolar>
-21.1121

> <Gold.PLP.part.repulsive>
0.3393

> <Gold.PLP.ligand.clash>
0.0000

> <Gold.PLP.ligand.torsion>
0.6442

> <Gold.PLP.Chemscore.Hbond>
5.3880

> <Gold.PLP.Chemscore.CHOScore>
0.0000

> <Gold.PLP.Chemscore.Metal>
0.0000

> <Gold.Chemscore.Hbonds>
donor molecule, donor type, donor heavy atom, donor atom, acceptor molecule, acceptor atom, score
      L1  H     5    24       P1  7957  0.75
      L1  H     8    25       P1  7957  1.00
      L1  H    11    42       P1  7948  1.69
      P1  H  7989  7998       L1    18  0.64
      P1  H  7997  8010       L1    19  1.00

> <Gold.PLP.Chemscore.Internal.Correction>
0.0162

> <Gold.Rescore>
     Score         DG    S(hbond)    S(metal)    S(lipo)     H(rot)  DE(clash)    DE(int)     intcor
     18.71     -21.42       3.84        0.00      60.92       1.57       0.78       1.93       ----

> <Gold.Chemscore.Fitness>
18.7119

> <Gold.Chemscore.DG>
-21.4248

> <Gold.Chemscore.ZeroCoef>
-5.4800

> <Gold.Chemscore.Hbond>
3.8432

> <Gold.Chemscore.Metal>
0.0000

> <Gold.Chemscore.Lipo>
60.9154

> <Gold.Chemscore.Internal_Hbond>
0.0000

> <Gold.Chemscore.DEClash>
0.7807

> <Gold.Chemscore.DEInternal>
1.9321

> <Gold.Chemscore.Rot>
1.5697

> <Gold.Chemscore.Internal.Correction>
   9.000000E+99

> <Gold.Chemscore.Hbonds>
donor molecule, donor type, donor heavy atom, donor atom, acceptor molecule, acceptor atom, score
      L1  H     5    24       P1  7957  0.71
      L1  H     8    25       P1  7957  0.99
      L1  H    11    42       P1  7948  0.78
      P1  H  7989  7998       L1    18  0.09
      P1  H  7997  8010       L1    19  0.72

> <Gold.Chemscore.Hbond.Weighted>
-12.8362

> <Gold.Chemscore.Metal.Weighted>
-0.0000

> <Gold.Chemscore.Lipo.Weighted>
-7.1271

> <Gold.Chemscore.Internal_Hbond.Weighted>
0.0000

> <Gold.Chemscore.DEClash.Weighted>
0.7807

> <Gold.Chemscore.DEInternal.Weighted>
1.9321

> <Gold.Chemscore.Rot.Weighted>
4.0185

> <Gold.Chemscore.Internal.Correction.Weighted>
   9.000000E+99

> <Gold.Protein.RotatedTorsions>
[ 6907 6896 6895 6894 ] final  -74.99 input  -60.11 | X-H torsion
[ 7974 7965 7964 7962 ] final  -23.49 input  175.53 | X-H torsion
[ 8008 7997 7996 7995 ] final  100.20 input   59.86 | X-H torsion
[ 10167 10162 10161 10158 ] final  167.35 input  -65.29 | X-H torsion
[ 10718 10713 10712 10709 ] final -177.60 input   66.30 | X-H torsion
[ 10763 10752 10751 10750 ] final -168.27 input  -60.55 | X-H torsion
[ 11005 11000 10999 10996 ] final  -59.91 input  -57.11 | X-H torsion

> <Gold.Protein.ActiveResidues>
 VAL166  LYS551  ARG553  GLY616  TRP617  ASP618  TYR619  PRO620  LYS621  CYS622 
 ASP623  PHE694  ASN695  SER759  ASP760  ASP761  ALA762  ILE779  LEU786  VAL792 
 PHE793  MET794  SER795  GLU796  ALA797  LYS798  CYS799  TRP800  GLU811  SER814 

> <Gold.Protein.RotatedAtoms>
  150.7074  134.4788  159.5460 H   0  0  0  0  0  0  0  0  0  0  0  0  # atno 6907 bound_to 6896
  152.2429  134.8207  160.0466 H   0  0  0  0  0  0  0  0  0  0  0  0  # atno 6908 bound_to 6896
  151.8982  133.3497  159.3858 H   0  0  0  0  0  0  0  0  0  0  0  0  # atno 6909 bound_to 6896
  146.1613  140.4623  142.8570 H   0  0  0  0  0  0  0  0  0  0  0  0  # atno 7974 bound_to 7965
  156.1180  140.3217  155.8166 H   0  0  0  0  0  0  0  0  0  0  0  0  # atno 8008 bound_to 7997
  155.4556  140.0535  157.3013 H   0  0  0  0  0  0  0  0  0  0  0  0  # atno 8009 bound_to 7997
  154.4806  140.2051  155.9786 H   0  0  0  0  0  0  0  0  0  0  0  0  # atno 8010 bound_to 7997
  139.4943  144.3930  151.9495 H   0  0  0  0  0  0  0  0  0  0  0  0  # atno 10167 bound_to 10162
  156.8319  130.9656  151.3106 H   0  0  0  0  0  0  0  0  0  0  0  0  # atno 10718 bound_to 10713
  154.6646  135.2930  154.9821 H   0  0  0  0  0  0  0  0  0  0  0  0  # atno 10763 bound_to 10752
  154.0869  135.6596  153.4850 H   0  0  0  0  0  0  0  0  0  0  0  0  # atno 10764 bound_to 10752
  153.0450  135.5211  154.7613 H   0  0  0  0  0  0  0  0  0  0  0  0  # atno 10765 bound_to 10752
  141.1267  133.6619  156.5144 H   0  0  0  0  0  0  0  0  0  0  0  0  # atno 11005 bound_to 11000
  144.8031  140.6249  143.6465 LP  0  0  0  0  0  0  0  0  0  0  0  0  # atno 17320 bound_to 7965
  145.4581  139.1516  143.3881 LP  0  0  0  0  0  0  0  0  0  0  0  0  # atno 17321 bound_to 7965
  140.3368  144.3251  150.5975 LP  0  0  0  0  0  0  0  0  0  0  0  0  # atno 17342 bound_to 10162
  140.5599  143.2193  151.7783 LP  0  0  0  0  0  0  0  0  0  0  0  0  # atno 17343 bound_to 10162
  157.6402  130.8799  149.9434 LP  0  0  0  0  0  0  0  0  0  0  0  0  # atno 17370 bound_to 10713
  156.0929  130.3662  150.0360 LP  0  0  0  0  0  0  0  0  0  0  0  0  # atno 17371 bound_to 10713
  140.4343  134.7073  157.4958 LP  0  0  0  0  0  0  0  0  0  0  0  0  # atno 17394 bound_to 11000
  140.0272  134.6459  155.9156 LP  0  0  0  0  0  0  0  0  0  0  0  0  # atno 17395 bound_to 11000

$$$$
