AV-unprocessed.smi:2469|AV-procd|sdf|9734|dock6
  -GOLD-   2272013373D 1   1.00000     0.00000
 Structure written by MMmdl.
 32 33  0  0  0  0  0  0  0  0  1 V2000
  147.6120  138.7645  151.6685 O   0  0  0  0  0  0  0  0  0  0  0  0
  146.8080  138.9845  152.8079 C   0  0  0  0  0  0  0  0  0  0  0  0
  147.4889  139.9792  153.7561 C   0  0  0  0  0  0  0  0  0  0  0  0
  148.8408  139.5763  153.9584 O   0  0  0  0  0  0  0  0  0  0  0  0
  149.5676  140.1848  154.9612 C   0  0  0  0  0  0  0  0  0  0  0  0
  148.8927  141.0274  155.8667 C   0  0  0  0  0  0  0  0  0  0  0  0
  149.6268  141.6487  156.8949 C   0  0  0  0  0  0  0  0  0  0  0  0
  151.0171  141.4069  156.9893 C   0  0  0  0  0  0  0  0  0  0  0  0
  151.8396  141.9750  157.9740 N   0  0  0  0  0  0  0  0  0  0  0  0
  151.3843  143.0746  158.8152 C   0  0  1  0  0  0  0  0  0  0  0  0
  152.2775  143.3381  160.0120 C   0  0  0  0  0  0  0  0  0  0  0  0
  151.8949  144.7708  160.3725 C   0  0  0  0  0  0  0  0  0  0  0  0
  151.5148  145.3948  159.1482 O   0  0  0  0  0  0  0  0  0  0  0  0
  151.4503  144.4255  158.1065 C   0  0  0  0  0  0  0  0  0  0  0  0
  151.5969  140.5491  156.0307 C   0  0  0  0  0  0  0  0  0  0  0  0
  150.9005  139.9500  155.0418 N   0  0  0  0  0  0  0  0  0  0  0  0
  148.1670  139.5190  151.5421 H   0  0  0  0  0  0  0  0  0  0  0  0
  145.8158  139.3295  152.5153 H   0  0  0  0  0  0  0  0  0  0  0  0
  146.6810  138.0252  153.3105 H   0  0  0  0  0  0  0  0  0  0  0  0
  147.4827  140.9655  153.2893 H   0  0  0  0  0  0  0  0  0  0  0  0
  146.9431  140.0549  154.6985 H   0  0  0  0  0  0  0  0  0  0  0  0
  147.8299  141.1949  155.7741 H   0  0  0  0  0  0  0  0  0  0  0  0
  149.1134  142.2961  157.5892 H   0  0  0  0  0  0  0  0  0  0  0  0
  152.7040  141.5128  158.2186 H   0  0  0  0  0  0  0  0  0  0  0  0
  150.3581  142.9036  159.1431 H   0  0  0  0  0  0  0  0  0  0  0  0
  152.1236  142.6397  160.8348 H   0  0  0  0  0  0  0  0  0  0  0  0
  153.3289  143.2973  159.7220 H   0  0  0  0  0  0  0  0  0  0  0  0
  151.0367  144.7783  161.0457 H   0  0  0  0  0  0  0  0  0  0  0  0
  152.7103  145.3081  160.8573 H   0  0  0  0  0  0  0  0  0  0  0  0
  152.3600  144.5084  157.5093 H   0  0  0  0  0  0  0  0  0  0  0  0
  150.5973  144.5976  157.4496 H   0  0  0  0  0  0  0  0  0  0  0  0
  152.6552  140.3333  156.0573 H   0  0  0  0  0  0  0  0  0  0  0  0
  1  2  1  0  0  0  0
  1 17  1  0  0  0  0
  2  3  1  0  0  0  0
  2 18  1  0  0  0  0
  2 19  1  0  0  0  0
  3  4  1  0  0  0  0
  3 20  1  0  0  0  0
  3 21  1  0  0  0  0
  4  5  1  0  0  0  0
  5 16  1  0  0  0  0
  5  6  2  0  0  0  0
  6  7  1  0  0  0  0
  6 22  1  0  0  0  0
  7  8  2  0  0  0  0
  7 23  1  0  0  0  0
  8  9  1  0  0  0  0
  8 15  1  0  0  0  0
  9 10  1  0  0  0  0
  9 24  1  0  0  0  0
 10 14  1  0  0  0  0
 10 11  1  0  0  0  0
 10 25  1  0  0  0  0
 11 12  1  0  0  0  0
 11 26  1  0  0  0  0
 11 27  1  0  0  0  0
 12 13  1  0  0  0  0
 12 28  1  0  0  0  0
 12 29  1  0  0  0  0
 13 14  1  0  0  0  0
 14 30  1  0  0  0  0
 14 31  1  0  0  0  0
 15 16  2  0  0  0  0
 15 32  1  0  0  0  0
M  END
> <s_m_source_file>
AV-unprocessed.smi

> <i_m_source_file_index>
2469

> <i_lp_mmshare_version>
43012

> <i_f3d_flags>
0

> <s_epik_input>
W09IXVtDSDJdW0NIMl1PYzFbY0hdW2NIXWMoW2NIXW4xKVtOSF1bQ0BASF0yW0NIMl1bQ0gyXU9bQ0gyXTI=

> <s_epik_cmdline>
J2VwaWtfcHl0aG9uJywgJy1waCcsICc3LjAnLCAnLXRuJywgJzgnLCAnLW1hJywgJzIwMCcsICctbWV0YWxfYmluZGluZycsICctaW1hZScsICc8aW5maWxlLm1hZT4nLCAnLW9tYWUnLCAnPG91dGZpbGUubWFlPic=

> <r_lp_tautomer_probability>
1

> <r_epik_Ionization_Penalty>
0.000432265

> <r_epik_Ionization_Penalty_Charging>
0

> <r_epik_Ionization_Penalty_Neutral>
0.000432265

> <r_epik_State_Penalty>
-0

> <r_epik_Charging_Adjusted_Penalty>
0

> <i_epik_Tot_Q>
0

> <i_epik_Tot_abs_Q>
0

> <r_epik_Metal_State_Penalty>
-0

> <b_epik_Metal_Only>
0

> <s_lp_Force_Field>
OPLS_2005

> <r_lp_Energy>
23.2185

> <b_lp_Chiralities_Consistent>
1

> <s_lp_Variant>
AV-unprocessed.smi:2469-2

> <Gold.Version>
5.8.1

> <Gold.Id.Protein>
6NUR|6NUR_protein|mol2

> <Gold.PLP.Fitness>
40.3547

> <Gold.PLP.PLP>
-34.1083

> <Gold.PLP.part.hbond>
-4.3858

> <Gold.PLP.part.metal>
0.0000

> <Gold.PLP.part.buried>
-4.4870

> <Gold.PLP.part.nonpolar>
-26.4962

> <Gold.PLP.part.repulsive>
1.5970

> <Gold.PLP.ligand.clash>
0.2535

> <Gold.PLP.ligand.torsion>
0.3965

> <Gold.PLP.Chemscore.Hbond>
2.4140

> <Gold.PLP.Chemscore.CHOScore>
0.0000

> <Gold.PLP.Chemscore.Metal>
0.0000

> <Gold.Chemscore.Hbonds>
donor molecule, donor type, donor heavy atom, donor atom, acceptor molecule, acceptor atom, score
      L1  H     1    17       P1  7957  0.91
      P1  H  7954  7966       L1     1  0.55
      P1  H  7989  7998       L1    16  1.00

> <Gold.PLP.Chemscore.Internal.Correction>
0.0508

> <Gold.Rescore>
     Score         DG    S(hbond)    S(metal)    S(lipo)     H(rot)  DE(clash)    DE(int)     intcor
     12.38     -12.90       1.05        0.00      84.36       2.32       0.08       0.45       ----

> <Gold.Chemscore.Fitness>
12.3765

> <Gold.Chemscore.DG>
-12.9008

> <Gold.Chemscore.ZeroCoef>
-5.4800

> <Gold.Chemscore.Hbond>
1.0467

> <Gold.Chemscore.Metal>
0.0000

> <Gold.Chemscore.Lipo>
84.3619

> <Gold.Chemscore.Internal_Hbond>
0.0000

> <Gold.Chemscore.DEClash>
0.0754

> <Gold.Chemscore.DEInternal>
0.4489

> <Gold.Chemscore.Rot>
2.3225

> <Gold.Chemscore.Internal.Correction>
   9.000000E+99

> <Gold.Chemscore.Hbonds>
donor molecule, donor type, donor heavy atom, donor atom, acceptor molecule, acceptor atom, score
      L1  H     1    17       P1  7957  0.84
      P1  H  7954  7966       L1     1  0.04
      P1  H  7989  7998       L1    16  0.11

> <Gold.Chemscore.Hbond.Weighted>
-3.4961

> <Gold.Chemscore.Metal.Weighted>
-0.0000

> <Gold.Chemscore.Lipo.Weighted>
-9.8703

> <Gold.Chemscore.Internal_Hbond.Weighted>
0.0000

> <Gold.Chemscore.DEClash.Weighted>
0.0754

> <Gold.Chemscore.DEInternal.Weighted>
0.4489

> <Gold.Chemscore.Rot.Weighted>
5.9456

> <Gold.Chemscore.Internal.Correction.Weighted>
   9.000000E+99

> <Gold.Protein.RotatedTorsions>
[ 6907 6896 6895 6894 ] final   13.42 input  -60.11 | X-H torsion
[ 7974 7965 7964 7962 ] final  169.84 input  175.53 | X-H torsion
[ 8008 7997 7996 7995 ] final -166.81 input   59.86 | X-H torsion
[ 10167 10162 10161 10158 ] final -123.66 input  -65.29 | X-H torsion
[ 10718 10713 10712 10709 ] final -148.43 input   66.30 | X-H torsion
[ 10763 10752 10751 10750 ] final   66.64 input  -60.55 | X-H torsion
[ 11005 11000 10999 10996 ] final   97.26 input  -57.11 | X-H torsion

> <Gold.Protein.ActiveResidues>
 VAL166  LYS551  ARG553  GLY616  TRP617  ASP618  TYR619  PRO620  LYS621  CYS622 
 ASP623  PHE694  ASN695  SER759  ASP760  ASP761  ALA762  ILE779  LEU786  VAL792 
 PHE793  MET794  SER795  GLU796  ALA797  LYS798  CYS799  TRP800  GLU811  SER814 

> <Gold.Protein.RotatedAtoms>
  151.7860  135.0749  160.0380 H   0  0  0  0  0  0  0  0  0  0  0  0  # atno 6907 bound_to 6896
  152.3190  133.5829  159.5740 H   0  0  0  0  0  0  0  0  0  0  0  0  # atno 6908 bound_to 6896
  150.7359  133.9955  159.3663 H   0  0  0  0  0  0  0  0  0  0  0  0  # atno 6909 bound_to 6896
  144.7342  139.9113  143.6415 H   0  0  0  0  0  0  0  0  0  0  0  0  # atno 7974 bound_to 7965
  155.8690  140.0990  157.1563 H   0  0  0  0  0  0  0  0  0  0  0  0  # atno 8008 bound_to 7997
  154.3995  140.1350  156.4118 H   0  0  0  0  0  0  0  0  0  0  0  0  # atno 8009 bound_to 7997
  155.7771  140.3459  155.5280 H   0  0  0  0  0  0  0  0  0  0  0  0  # atno 8010 bound_to 7997
  140.0012  143.5539  152.2303 H   0  0  0  0  0  0  0  0  0  0  0  0  # atno 10167 bound_to 10162
  156.4202  130.8025  151.2247 H   0  0  0  0  0  0  0  0  0  0  0  0  # atno 10718 bound_to 10713
  153.0149  135.5313  154.6855 H   0  0  0  0  0  0  0  0  0  0  0  0  # atno 10763 bound_to 10752
  154.6004  135.2867  155.0544 H   0  0  0  0  0  0  0  0  0  0  0  0  # atno 10764 bound_to 10752
  154.1603  135.6548  153.5037 H   0  0  0  0  0  0  0  0  0  0  0  0  # atno 10765 bound_to 10752
  139.8777  134.8992  156.4281 H   0  0  0  0  0  0  0  0  0  0  0  0  # atno 11005 bound_to 11000
  146.0999  139.3993  143.0353 LP  0  0  0  0  0  0  0  0  0  0  0  0  # atno 17320 bound_to 7965
  145.7594  140.9941  143.1208 LP  0  0  0  0  0  0  0  0  0  0  0  0  # atno 17321 bound_to 7965
  139.6271  144.7639  151.2616 LP  0  0  0  0  0  0  0  0  0  0  0  0  # atno 17342 bound_to 10162
  140.7418  143.6545  150.8219 LP  0  0  0  0  0  0  0  0  0  0  0  0  # atno 17343 bound_to 10162
  157.7508  131.0230  150.3817 LP  0  0  0  0  0  0  0  0  0  0  0  0  # atno 17370 bound_to 10713
  156.4133  130.3938  149.6876 LP  0  0  0  0  0  0  0  0  0  0  0  0  # atno 17371 bound_to 10713
  140.9086  133.7728  155.9765 LP  0  0  0  0  0  0  0  0  0  0  0  0  # atno 17394 bound_to 11000
  140.8571  134.2884  157.5250 LP  0  0  0  0  0  0  0  0  0  0  0  0  # atno 17395 bound_to 11000

$$$$
