AV-unprocessed.smi:2226|AV-procd|sdf|9010|dock5
  -GOLD-   2272012213D 1   1.00000     0.00000
 Structure written by MMmdl.
 40 42  0  0  0  0  0  0  0  0  2 V2000
  145.8488  143.1183  153.9632 C   0  0  0  0  0  0  0  0  0  0  0  0
  146.0206  141.6474  154.0298 N   0  3  2  0  0  0  0  0  0  0  0  0
  145.8940  141.0653  155.3882 C   0  0  1  0  0  0  0  0  0  0  0  0
  145.6577  139.5420  155.2601 C   0  0  0  0  0  0  0  0  0  0  0  0
  146.7120  138.8176  154.3981 C   0  0  0  0  0  0  0  0  0  0  0  0
  147.0794  139.6118  153.1280 C   0  0  0  0  0  0  0  0  0  0  0  0
  147.2427  141.1316  153.3660 C   0  0  2  0  0  0  0  0  0  0  0  0
  148.5194  141.5341  154.1458 C   0  0  0  0  0  0  0  0  0  0  0  0
  148.4819  141.2102  155.6572 C   0  0  1  0  0  0  0  0  0  0  0  0
  149.4761  142.0311  156.3472 N   0  0  0  0  0  0  0  0  0  0  0  0
  150.4879  141.5908  157.1116 C   0  0  0  0  0  0  0  0  0  0  0  0
  150.6776  140.3867  157.3098 O   0  0  0  0  0  0  0  0  0  0  0  0
  151.2145  142.6702  157.5923 N   0  0  0  0  0  0  0  0  0  0  0  0
  151.9599  142.5281  158.6446 C   0  0  0  0  0  0  0  0  0  0  0  0
  152.7470  143.4894  159.2582 N   0  0  0  0  0  0  0  0  0  0  0  0
  153.3631  142.9121  160.3338 C   0  0  0  0  0  0  0  0  0  0  0  0
  152.9808  141.6400  160.3964 C   0  0  0  0  0  0  0  0  0  0  0  0
  152.1203  141.3728  159.3748 O   0  0  0  0  0  0  0  0  0  0  0  0
  147.0921  141.4644  156.2854 C   0  0  0  0  0  0  0  0  0  0  0  0
  146.6313  143.6517  154.5022 H   0  0  0  0  0  0  0  0  0  0  0  0
  144.8882  143.4082  154.3899 H   0  0  0  0  0  0  0  0  0  0  0  0
  145.8633  143.4559  152.9267 H   0  0  0  0  0  0  0  0  0  0  0  0
  144.9941  141.4797  155.8452 H   0  0  0  0  0  0  0  0  0  0  0  0
  145.5995  139.0804  156.2464 H   0  0  0  0  0  0  0  0  0  0  0  0
  144.6802  139.3872  154.8016 H   0  0  0  0  0  0  0  0  0  0  0  0
  147.6019  138.6062  154.9846 H   0  0  0  0  0  0  0  0  0  0  0  0
  146.3349  137.8345  154.1145 H   0  0  0  0  0  0  0  0  0  0  0  0
  147.9806  139.1973  152.6751 H   0  0  0  0  0  0  0  0  0  0  0  0
  146.2848  139.4662  152.3951 H   0  0  0  0  0  0  0  0  0  0  0  0
  147.3058  141.5932  152.3795 H   0  0  0  0  0  0  0  0  0  0  0  0
  149.3964  141.0710  153.6920 H   0  0  0  0  0  0  0  0  0  0  0  0
  148.6661  142.6075  154.0178 H   0  0  0  0  0  0  0  0  0  0  0  0
  148.7318  140.1612  155.7899 H   0  0  0  0  0  0  0  0  0  0  0  0
  149.3891  143.0309  156.2344 H   0  0  0  0  0  0  0  0  0  0  0  0
  152.8746  144.4558  158.9945 H   0  0  0  0  0  0  0  0  0  0  0  0
  154.0285  143.4903  160.9576 H   0  0  0  0  0  0  0  0  0  0  0  0
  153.2201  140.8343  161.0746 H   0  0  0  0  0  0  0  0  0  0  0  0
  146.9981  142.5261  156.5180 H   0  0  0  0  0  0  0  0  0  0  0  0
  147.0249  140.9553  157.2477 H   0  0  0  0  0  0  0  0  0  0  0  0
  145.2452  141.2745  153.5004 H   0  0  0  0  0  0  0  0  0  0  0  0
  1  2  1  0  0  0  0
  1 20  1  0  0  0  0
  1 21  1  0  0  0  0
  1 22  1  0  0  0  0
  2  7  1  0  0  0  0
  2  3  1  0  0  0  0
  2 40  1  0  0  0  0
  3 19  1  0  0  0  0
  3  4  1  0  0  0  0
  3 23  1  0  0  0  0
  4  5  1  0  0  0  0
  4 24  1  0  0  0  0
  4 25  1  0  0  0  0
  5  6  1  0  0  0  0
  5 26  1  0  0  0  0
  5 27  1  0  0  0  0
  6  7  1  0  0  0  0
  6 28  1  0  0  0  0
  6 29  1  0  0  0  0
  7  8  1  0  0  0  0
  7 30  1  0  0  0  0
  8  9  1  0  0  0  0
  8 31  1  0  0  0  0
  8 32  1  0  0  0  0
  9 10  1  0  0  0  0
  9 19  1  0  0  0  0
  9 33  1  0  0  0  0
 10 34  1  0  0  0  0
 10 11  1  0  0  0  0
 11 13  1  0  0  0  0
 11 12  2  0  0  0  0
 13 14  2  0  0  0  0
 14 18  1  0  0  0  0
 14 15  1  0  0  0  0
 15 35  1  0  0  0  0
 15 16  1  0  0  0  0
 16 36  1  0  0  0  0
 16 17  2  0  0  0  0
 17 37  1  0  0  0  0
 17 18  1  0  0  0  0
 19 38  1  0  0  0  0
 19 39  1  0  0  0  0
M  CHG  1   2   1
M  END
> <s_m_source_file>
AV-unprocessed.smi

> <i_m_source_file_index>
2226

> <i_lp_mmshare_version>
43012

> <i_f3d_flags>
0

> <s_epik_input>
W0NIMl0xW0NIMl1bQ0gyXVtDQEhdKE4oW0NIM10pW0NIXTEyKVtDSDJdW0NASF0oW0NIMl0yKVtOSF1DKD1PKVtOSF1jM25bY0hdW2NIXW8z

> <s_epik_cmdline>
J2VwaWtfcHl0aG9uJywgJy1waCcsICc3LjAnLCAnLXRuJywgJzgnLCAnLW1hJywgJzIwMCcsICctbWV0YWxfYmluZGluZycsICctaW1hZScsICc8aW5maWxlLm1hZT4nLCAnLW9tYWUnLCAnPG91dGZpbGUubWFlPic=

> <r_lp_tautomer_probability>
0.107061

> <r_epik_Ionization_Penalty>
1.08307

> <r_epik_Ionization_Penalty_Charging>
1.08272

> <r_epik_Ionization_Penalty_Neutral>
0.000345913

> <r_epik_State_Penalty>
2.5744

> <r_epik_Charging_Adjusted_Penalty>
3.65713

> <i_epik_Tot_Q>
1

> <i_epik_Tot_abs_Q>
1

> <r_epik_Metal_State_Penalty>
3.72133

> <b_epik_Metal_Only>
0

> <s_lp_Force_Field>
OPLS_2005

> <r_lp_Energy>
57.8706

> <b_lp_Chiralities_Consistent>
1

> <s_lp_Variant>
AV-unprocessed.smi:2226-10

> <Gold.Version>
5.8.1

> <Gold.Id.Protein>
6NUR|6NUR_protein|mol2

> <Gold.PLP.Fitness>
40.1595

> <Gold.PLP.PLP>
-31.3935

> <Gold.PLP.part.hbond>
-2.0000

> <Gold.PLP.part.metal>
0.0000

> <Gold.PLP.part.buried>
-5.6923

> <Gold.PLP.part.nonpolar>
-23.9828

> <Gold.PLP.part.repulsive>
0.1864

> <Gold.PLP.ligand.clash>
0.0000

> <Gold.PLP.ligand.torsion>
0.1200

> <Gold.PLP.Chemscore.Hbond>
3.0000

> <Gold.PLP.Chemscore.CHOScore>
0.0000

> <Gold.PLP.Chemscore.Metal>
0.0000

> <Gold.Chemscore.Hbonds>
donor molecule, donor type, donor heavy atom, donor atom, acceptor molecule, acceptor atom, score
      L1  H     2    40       P1 10175  2.00
      L1  H    10    34       P1  8028  1.00

> <Gold.PLP.Chemscore.Internal.Correction>
0.0060

> <Gold.Rescore>
     Score         DG    S(hbond)    S(metal)    S(lipo)     H(rot)  DE(clash)    DE(int)     intcor
     15.24     -16.88       1.95        0.00      63.54       1.00       0.02       1.62       ----

> <Gold.Chemscore.Fitness>
15.2425

> <Gold.Chemscore.DG>
-16.8811

> <Gold.Chemscore.ZeroCoef>
-5.4800

> <Gold.Chemscore.Hbond>
1.9542

> <Gold.Chemscore.Metal>
0.0000

> <Gold.Chemscore.Lipo>
63.5394

> <Gold.Chemscore.Internal_Hbond>
0.0000

> <Gold.Chemscore.DEClash>
0.0186

> <Gold.Chemscore.DEInternal>
1.6199

> <Gold.Chemscore.Rot>
1.0000

> <Gold.Chemscore.Internal.Correction>
   9.000000E+99

> <Gold.Chemscore.Hbonds>
donor molecule, donor type, donor heavy atom, donor atom, acceptor molecule, acceptor atom, score
      L1  H     2    40       P1 10175  0.28
      L1  H    10    34       P1  8028  1.00

> <Gold.Chemscore.Hbond.Weighted>
-6.5270

> <Gold.Chemscore.Metal.Weighted>
-0.0000

> <Gold.Chemscore.Lipo.Weighted>
-7.4341

> <Gold.Chemscore.Internal_Hbond.Weighted>
0.0000

> <Gold.Chemscore.DEClash.Weighted>
0.0186

> <Gold.Chemscore.DEInternal.Weighted>
1.6199

> <Gold.Chemscore.Rot.Weighted>
2.5600

> <Gold.Chemscore.Internal.Correction.Weighted>
   9.000000E+99

> <Gold.Protein.RotatedTorsions>
[ 6907 6896 6895 6894 ] final  -60.06 input  -60.11 | X-H torsion
[ 7974 7965 7964 7962 ] final   52.86 input  175.53 | X-H torsion
[ 8008 7997 7996 7995 ] final   94.71 input   59.86 | X-H torsion
[ 10167 10162 10161 10158 ] final -114.80 input  -65.29 | X-H torsion
[ 10718 10713 10712 10709 ] final  167.15 input   66.30 | X-H torsion
[ 10763 10752 10751 10750 ] final   73.54 input  -60.55 | X-H torsion
[ 11005 11000 10999 10996 ] final   51.55 input  -57.11 | X-H torsion

> <Gold.Protein.ActiveResidues>
 VAL166  LYS551  ARG553  GLY616  TRP617  ASP618  TYR619  PRO620  LYS621  CYS622 
 ASP623  PHE694  ASN695  SER759  ASP760  ASP761  ALA762  ILE779  LEU786  VAL792 
 PHE793  MET794  SER795  GLU796  ALA797  LYS798  CYS799  TRP800  GLU811  SER814 

> <Gold.Protein.RotatedAtoms>
  150.7884  134.6887  159.6484 H   0  0  0  0  0  0  0  0  0  0  0  0  # atno 6907 bound_to 6896
  152.3985  134.6323  160.0088 H   0  0  0  0  0  0  0  0  0  0  0  0  # atno 6908 bound_to 6896
  151.6601  133.3280  159.3208 H   0  0  0  0  0  0  0  0  0  0  0  0  # atno 6909 bound_to 6896
  145.9770  139.4205  143.0155 H   0  0  0  0  0  0  0  0  0  0  0  0  # atno 7974 bound_to 7965
  156.0609  140.3296  155.7460 H   0  0  0  0  0  0  0  0  0  0  0  0  # atno 8008 bound_to 7997
  155.5456  140.0605  157.2878 H   0  0  0  0  0  0  0  0  0  0  0  0  # atno 8009 bound_to 7997
  154.4481  140.1903  156.0623 H   0  0  0  0  0  0  0  0  0  0  0  0  # atno 8010 bound_to 7997
  140.0970  143.4647  152.1835 H   0  0  0  0  0  0  0  0  0  0  0  0  # atno 10167 bound_to 10162
  157.0557  131.0326  151.2665 H   0  0  0  0  0  0  0  0  0  0  0  0  # atno 10718 bound_to 10713
  153.0528  135.5059  154.7909 H   0  0  0  0  0  0  0  0  0  0  0  0  # atno 10763 bound_to 10752
  154.6758  135.2960  154.9683 H   0  0  0  0  0  0  0  0  0  0  0  0  # atno 10764 bound_to 10752
  154.0486  135.6707  153.4850 H   0  0  0  0  0  0  0  0  0  0  0  0  # atno 10765 bound_to 10752
  140.0923  134.5193  155.8840 H   0  0  0  0  0  0  0  0  0  0  0  0  # atno 11005 bound_to 11000
  145.7824  140.9850  143.1092 LP  0  0  0  0  0  0  0  0  0  0  0  0  # atno 17320 bound_to 7965
  144.6851  139.9581  143.7479 LP  0  0  0  0  0  0  0  0  0  0  0  0  # atno 17321 bound_to 7965
  139.5692  144.7453  151.3937 LP  0  0  0  0  0  0  0  0  0  0  0  0  # atno 17342 bound_to 10162
  140.6998  143.7660  150.7384 LP  0  0  0  0  0  0  0  0  0  0  0  0  # atno 17343 bound_to 10162
  157.4995  130.7871  149.7590 LP  0  0  0  0  0  0  0  0  0  0  0  0  # atno 17370 bound_to 10713
  155.9994  130.3889  150.2666 LP  0  0  0  0  0  0  0  0  0  0  0  0  # atno 17371 bound_to 10713
  141.2081  133.6671  156.6352 LP  0  0  0  0  0  0  0  0  0  0  0  0  # atno 17394 bound_to 11000
  140.3335  134.7909  157.4344 LP  0  0  0  0  0  0  0  0  0  0  0  0  # atno 17395 bound_to 11000

$$$$
