AV-unprocessed.smi:2509|AV-procd|sdf|9867|dock2
  -GOLD-   2272013493D 1   1.00000     0.00000
 Structure written by MMmdl.
 45 46  0  0  0  0  0  0  0  0  1 V2000
  148.5083  141.6638  154.5810 C   0  0  0  0  0  0  0  0  0  0  0  0
  147.0071  141.3157  154.4452 C   0  0  0  0  0  0  0  0  0  0  0  0
  146.4880  141.0946  155.8854 C   0  0  0  0  0  0  0  0  0  0  0  0
  146.2606  142.4994  153.8030 C   0  0  0  0  0  0  0  0  0  0  0  0
  146.8050  140.0551  153.5862 C   0  0  0  0  0  0  0  0  0  0  0  0
  147.0849  140.1539  152.2803 N   0  0  0  0  0  0  0  0  0  0  0  0
  146.7913  139.0962  151.4953 C   0  0  0  0  0  0  0  0  0  0  0  0
  146.1786  137.9331  152.0033 C   0  0  0  0  0  0  0  0  0  0  0  0
  145.9014  136.8641  151.1070 N   0  0  0  0  0  0  0  0  0  0  0  0
  145.0798  135.8126  151.2668 C   0  0  0  0  0  0  0  0  0  0  0  0
  144.3898  135.5865  152.2598 O   0  0  0  0  0  0  0  0  0  0  0  0
  145.1030  135.0152  150.1895 N   0  0  0  0  0  0  0  0  0  0  0  0
  144.3404  133.7793  150.0447 C   0  0  0  0  0  0  0  0  0  0  0  0
  144.7203  132.7334  151.1144 C   0  0  1  0  0  0  0  0  0  0  0  0
  144.3313  131.2935  150.7581 C   0  0  0  0  0  0  0  0  0  0  0  0
  145.2530  130.3915  151.5945 C   0  0  0  0  0  0  0  0  0  0  0  0
  146.3093  131.3106  152.2290 C   0  0  0  0  0  0  0  0  0  0  0  0
  146.2108  132.6418  151.4783 C   0  0  1  0  0  0  0  0  0  0  0  0
  147.0255  132.5783  150.3220 O   0  0  0  0  0  0  0  0  0  0  0  0
  145.8881  137.9503  153.3892 C   0  0  0  0  0  0  0  0  0  0  0  0
  146.1881  139.0156  154.1628 N   0  0  0  0  0  0  0  0  0  0  0  0
  148.6576  142.5310  155.2253 H   0  0  0  0  0  0  0  0  0  0  0  0
  148.9609  141.9060  153.6190 H   0  0  0  0  0  0  0  0  0  0  0  0
  149.0709  140.8348  155.0120 H   0  0  0  0  0  0  0  0  0  0  0  0
  146.9805  140.2444  156.3590 H   0  0  0  0  0  0  0  0  0  0  0  0
  145.4136  140.9096  155.9093 H   0  0  0  0  0  0  0  0  0  0  0  0
  146.6698  141.9687  156.5115 H   0  0  0  0  0  0  0  0  0  0  0  0
  146.3870  143.4129  154.3846 H   0  0  0  0  0  0  0  0  0  0  0  0
  145.1908  142.3002  153.7314 H   0  0  0  0  0  0  0  0  0  0  0  0
  146.6258  142.6976  152.7947 H   0  0  0  0  0  0  0  0  0  0  0  0
  147.0437  139.1844  150.4487 H   0  0  0  0  0  0  0  0  0  0  0  0
  146.3965  136.9040  150.2282 H   0  0  0  0  0  0  0  0  0  0  0  0
  145.6998  135.2728  149.4170 H   0  0  0  0  0  0  0  0  0  0  0  0
  143.2722  133.9961  150.0950 H   0  0  0  0  0  0  0  0  0  0  0  0
  144.5214  133.3849  149.0446 H   0  0  0  0  0  0  0  0  0  0  0  0
  144.1852  132.9843  152.0322 H   0  0  0  0  0  0  0  0  0  0  0  0
  143.2761  131.0978  150.9517 H   0  0  0  0  0  0  0  0  0  0  0  0
  144.5072  131.1080  149.6976 H   0  0  0  0  0  0  0  0  0  0  0  0
  144.6951  129.8582  152.3652 H   0  0  0  0  0  0  0  0  0  0  0  0
  145.7238  129.6424  150.9572 H   0  0  0  0  0  0  0  0  0  0  0  0
  146.0522  131.4746  153.2764 H   0  0  0  0  0  0  0  0  0  0  0  0
  147.3114  130.8802  152.2092 H   0  0  0  0  0  0  0  0  0  0  0  0
  146.5355  133.4809  152.0946 H   0  0  0  0  0  0  0  0  0  0  0  0
  147.7248  131.9632  150.4821 H   0  0  0  0  0  0  0  0  0  0  0  0
  145.4121  137.1323  153.9049 H   0  0  0  0  0  0  0  0  0  0  0  0
  1  2  1  0  0  0  0
  1 22  1  0  0  0  0
  1 23  1  0  0  0  0
  1 24  1  0  0  0  0
  2  3  1  0  0  0  0
  2  4  1  0  0  0  0
  2  5  1  0  0  0  0
  3 25  1  0  0  0  0
  3 26  1  0  0  0  0
  3 27  1  0  0  0  0
  4 28  1  0  0  0  0
  4 29  1  0  0  0  0
  4 30  1  0  0  0  0
  5 21  1  0  0  0  0
  5  6  2  0  0  0  0
  6  7  1  0  0  0  0
  7  8  2  0  0  0  0
  7 31  1  0  0  0  0
  8  9  1  0  0  0  0
  8 20  1  0  0  0  0
  9 10  1  0  0  0  0
  9 32  1  0  0  0  0
 10 11  2  0  0  0  0
 10 12  1  0  0  0  0
 12 13  1  0  0  0  0
 12 33  1  0  0  0  0
 13 14  1  0  0  0  0
 13 34  1  0  0  0  0
 13 35  1  0  0  0  0
 14 18  1  0  0  0  0
 14 15  1  0  0  0  0
 14 36  1  0  0  0  0
 15 16  1  0  0  0  0
 15 37  1  0  0  0  0
 15 38  1  0  0  0  0
 16 17  1  0  0  0  0
 16 39  1  0  0  0  0
 16 40  1  0  0  0  0
 17 18  1  0  0  0  0
 17 41  1  0  0  0  0
 17 42  1  0  0  0  0
 18 19  1  0  0  0  0
 18 43  1  0  0  0  0
 19 44  1  0  0  0  0
 20 21  2  0  0  0  0
 20 45  1  0  0  0  0
M  END
> <s_m_source_file>
AV-unprocessed.smi

> <i_m_source_file_index>
2509

> <i_lp_mmshare_version>
43012

> <i_f3d_flags>
0

> <s_epik_input>
W0NIM11DKFtDSDNdKShbQ0gzXSljMW5bY0hdYyhbY0hdbjEpW05IXUMoPU8pW05IXVtDSDJdW0NAQEhdMltDSDJdW0NIMl1bQ0gyXVtDQEhdMltPSF0=

> <s_epik_cmdline>
J2VwaWtfcHl0aG9uJywgJy1waCcsICc3LjAnLCAnLXRuJywgJzgnLCAnLW1hJywgJzIwMCcsICctbWV0YWxfYmluZGluZycsICctaW1hZScsICc8aW5maWxlLm1hZT4nLCAnLW9tYWUnLCAnPG91dGZpbGUubWFlPic=

> <r_lp_tautomer_probability>
1

> <r_epik_Ionization_Penalty>
2.77586e-05

> <r_epik_Ionization_Penalty_Charging>
0

> <r_epik_Ionization_Penalty_Neutral>
2.77586e-05

> <r_epik_State_Penalty>
-0

> <r_epik_Charging_Adjusted_Penalty>
0

> <i_epik_Tot_Q>
0

> <i_epik_Tot_abs_Q>
0

> <r_epik_Metal_State_Penalty>
-0

> <b_epik_Metal_Only>
0

> <s_lp_Force_Field>
OPLS_2005

> <r_lp_Energy>
25.7942

> <b_lp_Chiralities_Consistent>
1

> <s_lp_Variant>
AV-unprocessed.smi:2509-2

> <Gold.Version>
5.8.1

> <Gold.Id.Protein>
6NUR|6NUR_protein|mol2

> <Gold.PLP.Fitness>
45.4425

> <Gold.PLP.PLP>
-40.0685

> <Gold.PLP.part.hbond>
-3.6110

> <Gold.PLP.part.metal>
0.0000

> <Gold.PLP.part.buried>
-4.3381

> <Gold.PLP.part.nonpolar>
-35.2383

> <Gold.PLP.part.repulsive>
3.1520

> <Gold.PLP.ligand.clash>
0.0000

> <Gold.PLP.ligand.torsion>
0.3458

> <Gold.PLP.Chemscore.Hbond>
1.8640

> <Gold.PLP.Chemscore.CHOScore>
0.1066

> <Gold.PLP.Chemscore.Metal>
0.0000

> <Gold.Chemscore.Hbonds>
donor molecule, donor type, donor heavy atom, donor atom, acceptor molecule, acceptor atom, score
      L1  H    12    33       P1  7921  0.88
      L1  H    19    44       P1 10747  1.00
      L1  C     7    31       P1  7957  0.11

> <Gold.PLP.Chemscore.Internal.Correction>
0.1538

> <Gold.Rescore>
     Score         DG    S(hbond)    S(metal)    S(lipo)     H(rot)  DE(clash)    DE(int)     intcor
     16.52     -18.21       1.93        0.00      95.50       1.91       0.56       1.13       ----

> <Gold.Chemscore.Fitness>
16.5240

> <Gold.Chemscore.DG>
-18.2128

> <Gold.Chemscore.ZeroCoef>
-5.4800

> <Gold.Chemscore.Hbond>
1.9320

> <Gold.Chemscore.Metal>
0.0000

> <Gold.Chemscore.Lipo>
95.5016

> <Gold.Chemscore.Internal_Hbond>
0.0000

> <Gold.Chemscore.DEClash>
0.5599

> <Gold.Chemscore.DEInternal>
1.1289

> <Gold.Chemscore.Rot>
1.9116

> <Gold.Chemscore.Internal.Correction>
   9.000000E+99

> <Gold.Chemscore.Hbonds>
donor molecule, donor type, donor heavy atom, donor atom, acceptor molecule, acceptor atom, score
      L1  H    12    33       P1  7921  0.86
      L1  H    19    44       P1 10747  1.00

> <Gold.Chemscore.Hbond.Weighted>
-6.4527

> <Gold.Chemscore.Metal.Weighted>
-0.0000

> <Gold.Chemscore.Lipo.Weighted>
-11.1737

> <Gold.Chemscore.Internal_Hbond.Weighted>
0.0000

> <Gold.Chemscore.DEClash.Weighted>
0.5599

> <Gold.Chemscore.DEInternal.Weighted>
1.1289

> <Gold.Chemscore.Rot.Weighted>
4.8936

> <Gold.Chemscore.Internal.Correction.Weighted>
   9.000000E+99

> <Gold.Protein.RotatedTorsions>
[ 6907 6896 6895 6894 ] final  176.24 input  -60.11 | X-H torsion
[ 7974 7965 7964 7962 ] final -133.56 input  175.53 | X-H torsion
[ 8008 7997 7996 7995 ] final  -46.55 input   59.86 | X-H torsion
[ 10167 10162 10161 10158 ] final   87.07 input  -65.29 | X-H torsion
[ 10718 10713 10712 10709 ] final   72.34 input   66.30 | X-H torsion
[ 10763 10752 10751 10750 ] final  153.86 input  -60.55 | X-H torsion
[ 11005 11000 10999 10996 ] final    6.86 input  -57.11 | X-H torsion

> <Gold.Protein.ActiveResidues>
 VAL166  LYS551  ARG553  GLY616  TRP617  ASP618  TYR619  PRO620  LYS621  CYS622 
 ASP623  PHE694  ASN695  SER759  ASP760  ASP761  ALA762  ILE779  LEU786  VAL792 
 PHE793  MET794  SER795  GLU796  ALA797  LYS798  CYS799  TRP800  GLU811  SER814 

> <Gold.Protein.RotatedAtoms>
  151.7232  133.3315  159.3320 H   0  0  0  0  0  0  0  0  0  0  0  0  # atno 6907 bound_to 6896
  150.7644  134.6429  159.6256 H   0  0  0  0  0  0  0  0  0  0  0  0  # atno 6908 bound_to 6896
  152.3638  134.6835  160.0250 H   0  0  0  0  0  0  0  0  0  0  0  0  # atno 6909 bound_to 6896
  144.9182  140.6981  143.4982 H   0  0  0  0  0  0  0  0  0  0  0  0  # atno 7974 bound_to 7965
  154.4008  140.1369  156.4029 H   0  0  0  0  0  0  0  0  0  0  0  0  # atno 8008 bound_to 7997
  155.7807  140.3481  155.5275 H   0  0  0  0  0  0  0  0  0  0  0  0  # atno 8009 bound_to 7997
  155.8676  140.0966  157.1562 H   0  0  0  0  0  0  0  0  0  0  0  0  # atno 8010 bound_to 7997
  139.8811  144.6439  150.8842 H   0  0  0  0  0  0  0  0  0  0  0  0  # atno 10167 bound_to 10162
  157.6496  130.9574  150.0915 H   0  0  0  0  0  0  0  0  0  0  0  0  # atno 10718 bound_to 10713
  154.1429  135.2819  155.3156 H   0  0  0  0  0  0  0  0  0  0  0  0  # atno 10763 bound_to 10752
  154.6273  135.5447  153.7645 H   0  0  0  0  0  0  0  0  0  0  0  0  # atno 10764 bound_to 10752
  153.0245  135.6454  154.1576 H   0  0  0  0  0  0  0  0  0  0  0  0  # atno 10765 bound_to 10752
  140.5547  134.0249  155.7949 H   0  0  0  0  0  0  0  0  0  0  0  0  # atno 11005 bound_to 11000
  145.3340  139.1751  143.4521 LP  0  0  0  0  0  0  0  0  0  0  0  0  # atno 17320 bound_to 7965
  146.3192  140.3373  142.8645 LP  0  0  0  0  0  0  0  0  0  0  0  0  # atno 17321 bound_to 7965
  140.7744  143.3585  151.1874 LP  0  0  0  0  0  0  0  0  0  0  0  0  # atno 17342 bound_to 10162
  139.7195  143.9246  152.2980 LP  0  0  0  0  0  0  0  0  0  0  0  0  # atno 17343 bound_to 10162
  156.1863  130.3652  149.8969 LP  0  0  0  0  0  0  0  0  0  0  0  0  # atno 17370 bound_to 10713
  156.6908  130.8895  151.3588 LP  0  0  0  0  0  0  0  0  0  0  0  0  # atno 17371 bound_to 10713
  141.1150  133.9554  157.2839 LP  0  0  0  0  0  0  0  0  0  0  0  0  # atno 17394 bound_to 11000
  139.9437  135.0187  156.8788 LP  0  0  0  0  0  0  0  0  0  0  0  0  # atno 17395 bound_to 11000

$$$$
