AV-unprocessed.smi:2355|AV-procd|sdf|9385|dock4
  -GOLD-   2272013 13D 1   1.00000     0.00000
 Structure written by MMmdl.
 48 49  0  0  0  0  0  0  0  0  1 V2000
  152.2242  145.9229  160.1852 C   0  0  0  0  0  0  0  0  0  0  0  0
  152.0611  144.5347  159.6030 C   0  0  0  0  0  0  0  0  0  0  0  0
  152.8251  143.4540  160.0837 C   0  0  0  0  0  0  0  0  0  0  0  0
  152.6262  142.1877  159.4994 C   0  0  0  0  0  0  0  0  0  0  0  0
  153.4160  140.9823  159.9640 C   0  0  0  0  0  0  0  0  0  0  0  0
  151.7401  141.9660  158.5053 N   0  0  0  0  0  0  0  0  0  0  0  0
  150.9976  142.9990  158.0353 C   0  0  0  0  0  0  0  0  0  0  0  0
  150.0361  142.8707  156.9979 N   0  0  0  0  0  0  0  0  0  0  0  0
  149.3305  141.7805  156.6493 C   0  0  0  0  0  0  0  0  0  0  0  0
  149.4291  140.6709  157.1745 O   0  0  0  0  0  0  0  0  0  0  0  0
  148.4867  142.0539  155.6434 N   0  0  0  0  0  0  0  0  0  0  0  0
  147.5363  141.1161  155.0452 C   0  0  2  0  0  0  0  0  0  0  0  0
  148.0242  140.7045  153.6444 C   0  0  0  0  0  0  0  0  0  0  0  0
  146.0883  141.6985  155.0857 C   0  0  2  0  0  0  0  0  0  0  0  0
  146.0288  143.0208  154.2773 C   0  0  0  0  0  0  0  0  0  0  0  0
  145.5417  141.8461  156.4590 N   0  0  0  0  0  0  0  0  0  0  0  0
  145.7657  140.6556  157.2874 C   0  0  0  0  0  0  0  0  0  0  0  0
  145.2149  140.8075  158.7160 C   0  0  0  0  0  0  0  0  0  0  0  0
  145.7925  141.9488  159.3342 O   0  0  0  0  0  0  0  0  0  0  0  0
  145.5295  143.1390  158.6047 C   0  0  0  0  0  0  0  0  0  0  0  0
  146.0860  143.0056  157.1769 C   0  0  0  0  0  0  0  0  0  0  0  0
  151.1363  144.3015  158.5650 C   0  0  0  0  0  0  0  0  0  0  0  0
  152.9579  145.9320  160.9919 H   0  0  0  0  0  0  0  0  0  0  0  0
  151.2742  146.2788  160.5845 H   0  0  0  0  0  0  0  0  0  0  0  0
  152.5561  146.6185  159.4140 H   0  0  0  0  0  0  0  0  0  0  0  0
  153.5443  143.5914  160.8779 H   0  0  0  0  0  0  0  0  0  0  0  0
  154.0259  141.2208  160.8358 H   0  0  0  0  0  0  0  0  0  0  0  0
  154.0772  140.6354  159.1696 H   0  0  0  0  0  0  0  0  0  0  0  0
  152.7438  140.1665  160.2323 H   0  0  0  0  0  0  0  0  0  0  0  0
  149.8515  143.7115  156.4713 H   0  0  0  0  0  0  0  0  0  0  0  0
  148.4764  142.9951  155.2789 H   0  0  0  0  0  0  0  0  0  0  0  0
  147.5387  140.1795  155.6007 H   0  0  0  0  0  0  0  0  0  0  0  0
  147.2873  140.0806  153.1382 H   0  0  0  0  0  0  0  0  0  0  0  0
  148.9466  140.1269  153.7150 H   0  0  0  0  0  0  0  0  0  0  0  0
  148.2374  141.5630  153.0082 H   0  0  0  0  0  0  0  0  0  0  0  0
  145.4557  140.9836  154.5570 H   0  0  0  0  0  0  0  0  0  0  0  0
  146.4559  142.9175  153.2818 H   0  0  0  0  0  0  0  0  0  0  0  0
  146.5615  143.8258  154.7844 H   0  0  0  0  0  0  0  0  0  0  0  0
  145.0065  143.3532  154.1047 H   0  0  0  0  0  0  0  0  0  0  0  0
  145.2782  139.7858  156.8516 H   0  0  0  0  0  0  0  0  0  0  0  0
  146.8327  140.4324  157.3329 H   0  0  0  0  0  0  0  0  0  0  0  0
  144.1280  140.9003  158.7035 H   0  0  0  0  0  0  0  0  0  0  0  0
  145.4535  139.9243  159.3088 H   0  0  0  0  0  0  0  0  0  0  0  0
  144.4560  143.3338  158.5837 H   0  0  0  0  0  0  0  0  0  0  0  0
  145.9969  143.9806  159.1160 H   0  0  0  0  0  0  0  0  0  0  0  0
  147.1745  142.9421  157.2141 H   0  0  0  0  0  0  0  0  0  0  0  0
  145.8379  143.9312  156.6615 H   0  0  0  0  0  0  0  0  0  0  0  0
  150.5392  145.1165  158.1816 H   0  0  0  0  0  0  0  0  0  0  0  0
  1  2  1  0  0  0  0
  1 23  1  0  0  0  0
  1 24  1  0  0  0  0
  1 25  1  0  0  0  0
  2 22  1  0  0  0  0
  2  3  2  0  0  0  0
  3  4  1  0  0  0  0
  3 26  1  0  0  0  0
  4  5  1  0  0  0  0
  4  6  2  0  0  0  0
  5 27  1  0  0  0  0
  5 28  1  0  0  0  0
  5 29  1  0  0  0  0
  6  7  1  0  0  0  0
  7  8  1  0  0  0  0
  7 22  2  0  0  0  0
  8  9  1  0  0  0  0
  8 30  1  0  0  0  0
  9 10  2  0  0  0  0
  9 11  1  0  0  0  0
 11 12  1  0  0  0  0
 11 31  1  0  0  0  0
 12 13  1  0  0  0  0
 12 14  1  0  0  0  0
 12 32  1  0  0  0  0
 13 33  1  0  0  0  0
 13 34  1  0  0  0  0
 13 35  1  0  0  0  0
 14 15  1  0  0  0  0
 14 16  1  0  0  0  0
 14 36  1  0  0  0  0
 15 37  1  0  0  0  0
 15 38  1  0  0  0  0
 15 39  1  0  0  0  0
 16 21  1  0  0  0  0
 16 17  1  0  0  0  0
 17 18  1  0  0  0  0
 17 40  1  0  0  0  0
 17 41  1  0  0  0  0
 18 19  1  0  0  0  0
 18 42  1  0  0  0  0
 18 43  1  0  0  0  0
 19 20  1  0  0  0  0
 20 21  1  0  0  0  0
 20 44  1  0  0  0  0
 20 45  1  0  0  0  0
 21 46  1  0  0  0  0
 21 47  1  0  0  0  0
 22 48  1  0  0  0  0
M  END
> <s_m_source_file>
AV-unprocessed.smi

> <i_m_source_file_index>
2355

> <i_lp_mmshare_version>
43012

> <i_f3d_flags>
0

> <s_epik_input>
W0NIM11jMVtjSF1jKFtDSDNdKW5jKFtjSF0xKVtOSF1DKD1PKVtOSF1bQ0BIXShbQ0gzXSlbQ0BIXShbQ0gzXSlOMltDSDJdW0NIMl1PW0NIMl1bQ0gyXTI=

> <s_epik_cmdline>
J2VwaWtfcHl0aG9uJywgJy1waCcsICc3LjAnLCAnLXRuJywgJzgnLCAnLW1hJywgJzIwMCcsICctbWV0YWxfYmluZGluZycsICctaW1hZScsICc8aW5maWxlLm1hZT4nLCAnLW9tYWUnLCAnPG91dGZpbGUubWFlPic=

> <r_epik_Ionization_Penalty>
0.266238

> <r_epik_Ionization_Penalty_Charging>
0

> <r_epik_Ionization_Penalty_Neutral>
0.266238

> <r_epik_State_Penalty>
0.257924

> <r_epik_Charging_Adjusted_Penalty>
0.257924

> <i_epik_Tot_Q>
0

> <i_epik_Tot_abs_Q>
0

> <r_epik_Metal_State_Penalty>
0.257904

> <b_epik_Metal_Only>
0

> <s_lp_Force_Field>
OPLS_2005

> <r_lp_Energy>
36.7742

> <b_lp_Chiralities_Consistent>
1

> <s_lp_Variant>
AV-unprocessed.smi:2355-1

> <Gold.Version>
5.8.1

> <Gold.Id.Protein>
6NUR|6NUR_protein|mol2

> <Gold.PLP.Fitness>
46.8657

> <Gold.PLP.PLP>
-38.8855

> <Gold.PLP.part.hbond>
-3.0000

> <Gold.PLP.part.metal>
0.0000

> <Gold.PLP.part.buried>
-3.6625

> <Gold.PLP.part.nonpolar>
-33.5559

> <Gold.PLP.part.repulsive>
0.2195

> <Gold.PLP.ligand.clash>
0.0000

> <Gold.PLP.ligand.torsion>
0.4362

> <Gold.PLP.Chemscore.Hbond>
2.9120

> <Gold.PLP.Chemscore.CHOScore>
0.0000

> <Gold.PLP.Chemscore.Metal>
0.0000

> <Gold.Chemscore.Hbonds>
donor molecule, donor type, donor heavy atom, donor atom, acceptor molecule, acceptor atom, score
      L1  H     8    30       P1  8028  1.00
      L1  H    11    31       P1  8028  0.91
      P1  H  6934  6946       L1    19  0.61

> <Gold.PLP.Chemscore.Internal.Correction>
0.1166

> <Gold.Rescore>
     Score         DG    S(hbond)    S(metal)    S(lipo)     H(rot)  DE(clash)    DE(int)     intcor
     18.83     -21.41       2.62        0.00      92.12       1.40       0.81       1.77       ----

> <Gold.Chemscore.Fitness>
18.8307

> <Gold.Chemscore.DG>
-21.4092

> <Gold.Chemscore.ZeroCoef>
-5.4800

> <Gold.Chemscore.Hbond>
2.6163

> <Gold.Chemscore.Metal>
0.0000

> <Gold.Chemscore.Lipo>
92.1249

> <Gold.Chemscore.Internal_Hbond>
0.0000

> <Gold.Chemscore.DEClash>
0.8065

> <Gold.Chemscore.DEInternal>
1.7720

> <Gold.Chemscore.Rot>
1.4015

> <Gold.Chemscore.Internal.Correction>
   9.000000E+99

> <Gold.Chemscore.Hbonds>
donor molecule, donor type, donor heavy atom, donor atom, acceptor molecule, acceptor atom, score
      L1  H     8    30       P1  8028  0.97
      L1  H    11    31       P1  8028  0.88
      P1  H  6934  6946       L1    19  0.06

> <Gold.Chemscore.Hbond.Weighted>
-8.7383

> <Gold.Chemscore.Metal.Weighted>
-0.0000

> <Gold.Chemscore.Lipo.Weighted>
-10.7786

> <Gold.Chemscore.Internal_Hbond.Weighted>
0.0000

> <Gold.Chemscore.DEClash.Weighted>
0.8065

> <Gold.Chemscore.DEInternal.Weighted>
1.7720

> <Gold.Chemscore.Rot.Weighted>
3.5878

> <Gold.Chemscore.Internal.Correction.Weighted>
   9.000000E+99

> <Gold.Protein.RotatedTorsions>
[ 6907 6896 6895 6894 ] final  150.15 input  -60.11 | X-H torsion
[ 7974 7965 7964 7962 ] final   66.05 input  175.53 | X-H torsion
[ 8008 7997 7996 7995 ] final  -42.22 input   59.86 | X-H torsion
[ 10167 10162 10161 10158 ] final -108.31 input  -65.29 | X-H torsion
[ 10718 10713 10712 10709 ] final   18.86 input   66.30 | X-H torsion
[ 10763 10752 10751 10750 ] final   10.86 input  -60.55 | X-H torsion
[ 11005 11000 10999 10996 ] final -165.77 input  -57.11 | X-H torsion

> <Gold.Protein.ActiveResidues>
 VAL166  LYS551  ARG553  GLY616  TRP617  ASP618  TYR619  PRO620  LYS621  CYS622 
 ASP623  PHE694  ASN695  SER759  ASP760  ASP761  ALA762  ILE779  LEU786  VAL792 
 PHE793  MET794  SER795  GLU796  ALA797  LYS798  CYS799  TRP800  GLU811  SER814 

> <Gold.Protein.RotatedAtoms>
  152.1183  133.4339  159.4663 H   0  0  0  0  0  0  0  0  0  0  0  0  # atno 6907 bound_to 6896
  150.6870  134.2565  159.4541 H   0  0  0  0  0  0  0  0  0  0  0  0  # atno 6908 bound_to 6896
  152.0440  134.9694  160.0625 H   0  0  0  0  0  0  0  0  0  0  0  0  # atno 6909 bound_to 6896
  145.8313  139.3140  143.0986 H   0  0  0  0  0  0  0  0  0  0  0  0  # atno 7974 bound_to 7965
  154.4000  140.1479  156.3320 H   0  0  0  0  0  0  0  0  0  0  0  0  # atno 8008 bound_to 7997
  155.8435  140.3461  155.5626 H   0  0  0  0  0  0  0  0  0  0  0  0  # atno 8009 bound_to 7997
  155.8061  140.0877  157.1920 H   0  0  0  0  0  0  0  0  0  0  0  0  # atno 8010 bound_to 7997
  140.1676  143.4069  152.1379 H   0  0  0  0  0  0  0  0  0  0  0  0  # atno 10167 bound_to 10162
  157.1023  130.6473  149.5875 H   0  0  0  0  0  0  0  0  0  0  0  0  # atno 10718 bound_to 10713
  153.1987  135.6853  153.8258 H   0  0  0  0  0  0  0  0  0  0  0  0  # atno 10763 bound_to 10752
  153.7532  135.3221  155.3326 H   0  0  0  0  0  0  0  0  0  0  0  0  # atno 10764 bound_to 10752
  154.8159  135.4686  154.0744 H   0  0  0  0  0  0  0  0  0  0  0  0  # atno 10765 bound_to 10752
  140.5720  134.5228  157.5163 H   0  0  0  0  0  0  0  0  0  0  0  0  # atno 11005 bound_to 11000
  145.9568  140.8866  143.0231 LP  0  0  0  0  0  0  0  0  0  0  0  0  # atno 17320 bound_to 7965
  144.6739  140.1757  143.7410 LP  0  0  0  0  0  0  0  0  0  0  0  0  # atno 17321 bound_to 7965
  139.5353  144.7202  151.4916 LP  0  0  0  0  0  0  0  0  0  0  0  0  # atno 17342 bound_to 10162
  140.6603  143.8512  150.6880 LP  0  0  0  0  0  0  0  0  0  0  0  0  # atno 17343 bound_to 10162
  155.9870  130.4908  150.7108 LP  0  0  0  0  0  0  0  0  0  0  0  0  # atno 17370 bound_to 10713
  157.4630  131.0885  151.0725 LP  0  0  0  0  0  0  0  0  0  0  0  0  # atno 17371 bound_to 10713
  139.9357  134.7879  156.0809 LP  0  0  0  0  0  0  0  0  0  0  0  0  # atno 17394 bound_to 11000
  141.1050  133.6663  156.2843 LP  0  0  0  0  0  0  0  0  0  0  0  0  # atno 17395 bound_to 11000

$$$$
