AV-unprocessed.smi:1025|AV-procd|sdf|4467|dock1
  -GOLD-   22720 2443D 1   1.00000     0.00000
 Structure written by MMmdl.
 51 52  0  0  0  0  0  0  0  0  1 V2000
  146.9027  144.3732  159.7929 C   0  0  0  0  0  0  0  0  0  0  0  0
  148.2335  144.6195  159.2591 N   0  0  0  0  0  0  0  0  0  0  0  0
  149.3656  144.5189  159.9713 C   0  0  0  0  0  0  0  0  0  0  0  0
  149.3769  144.2023  161.1607 O   0  0  0  0  0  0  0  0  0  0  0  0
  150.6748  144.8240  159.2185 C   0  0  2  0  0  0  0  0  0  0  0  0
  150.9978  143.7700  158.1340 C   0  0  0  0  0  0  0  0  0  0  0  0
  151.5672  142.4556  158.6996 C   0  0  0  0  0  0  0  0  0  0  0  0
  152.7918  142.7130  159.5988 C   0  0  2  0  0  0  0  0  0  0  0  0
  153.2780  141.4633  160.1754 N   0  0  0  0  0  0  0  0  0  0  0  0
  153.5535  140.3472  159.4861 C   0  0  0  0  0  0  0  0  0  0  0  0
  153.4168  140.2521  158.2671 O   0  0  0  0  0  0  0  0  0  0  0  0
  153.9983  139.3751  160.3003 N   0  0  0  0  0  0  0  0  0  0  0  0
  154.4280  138.0613  159.9699 C   0  0  0  0  0  0  0  0  0  0  0  0
  154.9412  137.6521  158.7155 C   0  0  0  0  0  0  0  0  0  0  0  0
  155.3259  136.3778  158.4896 N   0  0  0  0  0  0  0  0  0  0  0  0
  155.1733  135.4917  159.4823 C   0  0  0  0  0  0  0  0  0  0  0  0
  155.7612  134.0859  159.2670 C   0  0  0  0  0  0  0  0  0  0  0  0
  155.6561  133.2361  160.5551 C   0  0  0  0  0  0  0  0  0  0  0  0
  157.2376  134.2070  158.8470 C   0  0  0  0  0  0  0  0  0  0  0  0
  154.9774  133.3135  158.1798 C   0  0  0  0  0  0  0  0  0  0  0  0
  154.7283  135.7841  160.7113 N   0  0  0  0  0  0  0  0  0  0  0  0
  154.3394  137.0537  160.9510 C   0  0  0  0  0  0  0  0  0  0  0  0
  152.4461  143.7008  160.7268 C   0  0  0  0  0  0  0  0  0  0  0  0
  151.8794  145.0197  160.1688 C   0  0  0  0  0  0  0  0  0  0  0  0
  146.1569  144.5150  159.0108 H   0  0  0  0  0  0  0  0  0  0  0  0
  146.6776  145.0625  160.6078 H   0  0  0  0  0  0  0  0  0  0  0  0
  146.8159  143.3518  160.1659 H   0  0  0  0  0  0  0  0  0  0  0  0
  148.3000  144.8832  158.2867 H   0  0  0  0  0  0  0  0  0  0  0  0
  150.5218  145.7733  158.7023 H   0  0  0  0  0  0  0  0  0  0  0  0
  150.1091  143.5569  157.5382 H   0  0  0  0  0  0  0  0  0  0  0  0
  151.7237  144.1942  157.4394 H   0  0  0  0  0  0  0  0  0  0  0  0
  150.7982  141.9232  159.2598 H   0  0  0  0  0  0  0  0  0  0  0  0
  151.8432  141.8002  157.8729 H   0  0  0  0  0  0  0  0  0  0  0  0
  153.5841  143.1585  158.9940 H   0  0  0  0  0  0  0  0  0  0  0  0
  153.4193  141.4511  161.1748 H   0  0  0  0  0  0  0  0  0  0  0  0
  154.0832  139.6224  161.2754 H   0  0  0  0  0  0  0  0  0  0  0  0
  155.0515  138.3198  157.8764 H   0  0  0  0  0  0  0  0  0  0  0  0
  156.0298  132.2242  160.3942 H   0  0  0  0  0  0  0  0  0  0  0  0
  154.6224  133.1535  160.8934 H   0  0  0  0  0  0  0  0  0  0  0  0
  156.2392  133.6598  161.3734 H   0  0  0  0  0  0  0  0  0  0  0  0
  157.8253  134.7191  159.6096 H   0  0  0  0  0  0  0  0  0  0  0  0
  157.3403  134.7714  157.9195 H   0  0  0  0  0  0  0  0  0  0  0  0
  157.6885  133.2271  158.6878 H   0  0  0  0  0  0  0  0  0  0  0  0
  155.3629  132.3011  158.0558 H   0  0  0  0  0  0  0  0  0  0  0  0
  155.0468  133.7968  157.2046 H   0  0  0  0  0  0  0  0  0  0  0  0
  153.9200  133.2323  158.4347 H   0  0  0  0  0  0  0  0  0  0  0  0
  153.9648  137.2676  161.9413 H   0  0  0  0  0  0  0  0  0  0  0  0
  151.7321  143.2477  161.4148 H   0  0  0  0  0  0  0  0  0  0  0  0
  153.3380  143.9136  161.3177 H   0  0  0  0  0  0  0  0  0  0  0  0
  152.6711  145.5393  159.6274 H   0  0  0  0  0  0  0  0  0  0  0  0
  151.6058  145.6783  160.9943 H   0  0  0  0  0  0  0  0  0  0  0  0
  1  2  1  0  0  0  0
  1 25  1  0  0  0  0
  1 26  1  0  0  0  0
  1 27  1  0  0  0  0
  2  3  1  0  0  0  0
  2 28  1  0  0  0  0
  3  4  2  0  0  0  0
  3  5  1  0  0  0  0
  5 24  1  0  0  0  0
  5  6  1  0  0  0  0
  5 29  1  0  0  0  0
  6  7  1  0  0  0  0
  6 30  1  0  0  0  0
  6 31  1  0  0  0  0
  7  8  1  0  0  0  0
  7 32  1  0  0  0  0
  7 33  1  0  0  0  0
  8  9  1  0  0  0  0
  8 23  1  0  0  0  0
  8 34  1  0  0  0  0
  9 10  1  0  0  0  0
  9 35  1  0  0  0  0
 10 11  2  0  0  0  0
 10 12  1  0  0  0  0
 12 13  1  0  0  0  0
 12 36  1  0  0  0  0
 13 22  1  0  0  0  0
 13 14  2  0  0  0  0
 14 15  1  0  0  0  0
 14 37  1  0  0  0  0
 15 16  2  0  0  0  0
 16 17  1  0  0  0  0
 16 21  1  0  0  0  0
 17 18  1  0  0  0  0
 17 19  1  0  0  0  0
 17 20  1  0  0  0  0
 18 38  1  0  0  0  0
 18 39  1  0  0  0  0
 18 40  1  0  0  0  0
 19 41  1  0  0  0  0
 19 42  1  0  0  0  0
 19 43  1  0  0  0  0
 20 44  1  0  0  0  0
 20 45  1  0  0  0  0
 20 46  1  0  0  0  0
 21 22  2  0  0  0  0
 22 47  1  0  0  0  0
 23 24  1  0  0  0  0
 23 48  1  0  0  0  0
 23 49  1  0  0  0  0
 24 50  1  0  0  0  0
 24 51  1  0  0  0  0
M  END
> <s_m_source_file>
AV-unprocessed.smi

> <i_m_source_file_index>
1025

> <i_lp_mmshare_version>
43012

> <i_f3d_flags>
0

> <s_epik_input>
W0NIM11bTkhdQyg9TylbQ0BASF0xW0NIMl1bQ0gyXVtDQEhdKFtDSDJdW0NIMl0xKVtOSF1DKD1PKVtOSF1jMltjSF1uYyhDKFtDSDNdKShbQ0gzXSlbQ0gzXSluW2NIXTI=

> <s_epik_cmdline>
J2VwaWtfcHl0aG9uJywgJy1waCcsICc3LjAnLCAnLXRuJywgJzgnLCAnLW1hJywgJzIwMCcsICctbWV0YWxfYmluZGluZycsICctaW1hZScsICc8aW5maWxlLm1hZT4nLCAnLW9tYWUnLCAnPG91dGZpbGUubWFlPic=

> <r_lp_tautomer_probability>
1

> <r_epik_Ionization_Penalty>
2.76239e-05

> <r_epik_Ionization_Penalty_Charging>
0

> <r_epik_Ionization_Penalty_Neutral>
2.76239e-05

> <r_epik_State_Penalty>
-0

> <r_epik_Charging_Adjusted_Penalty>
0

> <i_epik_Tot_Q>
0

> <i_epik_Tot_abs_Q>
0

> <r_epik_Metal_State_Penalty>
-0

> <b_epik_Metal_Only>
0

> <s_lp_Force_Field>
OPLS_2005

> <r_lp_Energy>
4.91063

> <b_lp_Chiralities_Consistent>
1

> <s_lp_Variant>
AV-unprocessed.smi:1025-2

> <Gold.Version>
5.8.1

> <Gold.Id.Protein>
6NUR|6NUR_protein|mol2

> <Gold.PLP.Fitness>
43.7290

> <Gold.PLP.PLP>
-35.0700

> <Gold.PLP.part.hbond>
-3.8942

> <Gold.PLP.part.metal>
0.0000

> <Gold.PLP.part.buried>
-5.2921

> <Gold.PLP.part.nonpolar>
-25.8752

> <Gold.PLP.part.repulsive>
0.5446

> <Gold.PLP.ligand.clash>
0.0000

> <Gold.PLP.ligand.torsion>
0.5077

> <Gold.PLP.Chemscore.Hbond>
3.1628

> <Gold.PLP.Chemscore.CHOScore>
0.0000

> <Gold.PLP.Chemscore.Metal>
0.0000

> <Gold.Chemscore.Hbonds>
donor molecule, donor type, donor heavy atom, donor atom, acceptor molecule, acceptor atom, score
      L1  H     2    28       P1  8029  0.86
      P1  H  6933  6944       L1     4  0.42
      P1  H  7997  8009       L1    11  0.83

> <Gold.PLP.Chemscore.Internal.Correction>
0.1859

> <Gold.Rescore>
     Score         DG    S(hbond)    S(metal)    S(lipo)     H(rot)  DE(clash)    DE(int)     intcor
     18.53     -20.75       2.55        0.00      90.89       1.52       0.24       1.98       ----

> <Gold.Chemscore.Fitness>
18.5307

> <Gold.Chemscore.DG>
-20.7455

> <Gold.Chemscore.ZeroCoef>
-5.4800

> <Gold.Chemscore.Hbond>
2.5495

> <Gold.Chemscore.Metal>
0.0000

> <Gold.Chemscore.Lipo>
90.8890

> <Gold.Chemscore.Internal_Hbond>
0.0000

> <Gold.Chemscore.DEClash>
0.2396

> <Gold.Chemscore.DEInternal>
1.9752

> <Gold.Chemscore.Rot>
1.5171

> <Gold.Chemscore.Internal.Correction>
   9.000000E+99

> <Gold.Chemscore.Hbonds>
donor molecule, donor type, donor heavy atom, donor atom, acceptor molecule, acceptor atom, score
      L1  H     2    28       P1  8029  0.72
      P1  H  6933  6944       L1     4  0.33
      P1  H  7997  8009       L1    11  0.83

> <Gold.Chemscore.Hbond.Weighted>
-8.5154

> <Gold.Chemscore.Metal.Weighted>
-0.0000

> <Gold.Chemscore.Lipo.Weighted>
-10.6340

> <Gold.Chemscore.Internal_Hbond.Weighted>
0.0000

> <Gold.Chemscore.DEClash.Weighted>
0.2396

> <Gold.Chemscore.DEInternal.Weighted>
1.9752

> <Gold.Chemscore.Rot.Weighted>
3.8839

> <Gold.Chemscore.Internal.Correction.Weighted>
   9.000000E+99

> <Gold.Protein.RotatedTorsions>
[ 6907 6896 6895 6894 ] final   49.79 input  -60.11 | X-H torsion
[ 7974 7965 7964 7962 ] final -116.07 input  175.53 | X-H torsion
[ 8008 7997 7996 7995 ] final  163.96 input   59.86 | X-H torsion
[ 10167 10162 10161 10158 ] final  129.08 input  -65.29 | X-H torsion
[ 10718 10713 10712 10709 ] final  -38.88 input   66.30 | X-H torsion
[ 10763 10752 10751 10750 ] final  114.52 input  -60.55 | X-H torsion
[ 11005 11000 10999 10996 ] final -118.34 input  -57.11 | X-H torsion

> <Gold.Protein.ActiveResidues>
 VAL166  LYS551  ARG553  GLY616  TRP617  ASP618  TYR619  PRO620  LYS621  CYS622 
 ASP623  PHE694  ASN695  SER759  ASP760  ASP761  ALA762  ILE779  LEU786  VAL792 
 PHE793  MET794  SER795  GLU796  ALA797  LYS798  CYS799  TRP800  GLU811  SER814 

> <Gold.Protein.RotatedAtoms>
  152.2947  134.7681  160.0370 H   0  0  0  0  0  0  0  0  0  0  0  0  # atno 6907 bound_to 6896
  151.8214  133.3390  159.3593 H   0  0  0  0  0  0  0  0  0  0  0  0  # atno 6908 bound_to 6896
  150.7246  134.5499  159.5833 H   0  0  0  0  0  0  0  0  0  0  0  0  # atno 6909 bound_to 6896
  145.1010  140.8552  143.3926 H   0  0  0  0  0  0  0  0  0  0  0  0  # atno 7974 bound_to 7965
  156.1917  140.1709  156.8079 H   0  0  0  0  0  0  0  0  0  0  0  0  # atno 8008 bound_to 7997
  154.5479  140.0723  156.8651 H   0  0  0  0  0  0  0  0  0  0  0  0  # atno 8009 bound_to 7997
  155.3086  140.3366  155.4247 H   0  0  0  0  0  0  0  0  0  0  0  0  # atno 8010 bound_to 7997
  139.5495  144.6801  151.4367 H   0  0  0  0  0  0  0  0  0  0  0  0  # atno 10167 bound_to 10162
  156.2987  130.4237  149.8165 H   0  0  0  0  0  0  0  0  0  0  0  0  # atno 10718 bound_to 10713
  153.5085  135.3623  155.2575 H   0  0  0  0  0  0  0  0  0  0  0  0  # atno 10763 bound_to 10752
  154.8743  135.4017  154.3396 H   0  0  0  0  0  0  0  0  0  0  0  0  # atno 10764 bound_to 10752
  153.4045  135.7076  153.6469 H   0  0  0  0  0  0  0  0  0  0  0  0  # atno 10765 bound_to 10752
  141.0292  134.0006  157.3168 H   0  0  0  0  0  0  0  0  0  0  0  0  # atno 11005 bound_to 11000
  145.0955  139.2859  143.5713 LP  0  0  0  0  0  0  0  0  0  0  0  0  # atno 17320 bound_to 7965
  146.3529  140.0506  142.8636 LP  0  0  0  0  0  0  0  0  0  0  0  0  # atno 17321 bound_to 7965
  140.6754  143.8202  150.7051 LP  0  0  0  0  0  0  0  0  0  0  0  0  # atno 17342 bound_to 10162
  140.1639  143.4252  152.2048 LP  0  0  0  0  0  0  0  0  0  0  0  0  # atno 17343 bound_to 10162
  156.5551  130.8359  151.3311 LP  0  0  0  0  0  0  0  0  0  0  0  0  # atno 17370 bound_to 10713
  157.7362  130.9775  150.2124 LP  0  0  0  0  0  0  0  0  0  0  0  0  # atno 17371 bound_to 10713
  139.9197  135.0199  156.8016 LP  0  0  0  0  0  0  0  0  0  0  0  0  # atno 17394 bound_to 11000
  140.6436  133.9795  155.7720 LP  0  0  0  0  0  0  0  0  0  0  0  0  # atno 17395 bound_to 11000

$$$$
