AV-unprocessed.smi:1007|AV-procd|sdf|4406|dock6
  -GOLD-   22720 2353D 1   1.00000     0.00000
 Structure written by MMmdl.
 57 59  0  0  0  0  0  0  0  0  3 V2000
  143.8412  133.6441  151.5543 C   0  0  0  0  0  0  0  0  0  0  0  0
  144.8624  134.2366  152.3385 O   0  0  0  0  0  0  0  0  0  0  0  0
  145.9761  134.6457  151.5621 C   0  0  0  0  0  0  0  0  0  0  0  0
  145.6910  136.0391  150.9803 C   0  0  0  0  0  0  0  0  0  0  0  0
  146.3044  137.1289  151.7816 N   0  3  2  0  0  0  0  0  0  0  0  0
  145.7132  137.2744  153.1365 C   0  0  0  0  0  0  0  0  0  0  0  0
  146.4372  138.3653  153.9461 C   0  0  0  0  0  0  0  0  0  0  0  0
  146.4354  139.6624  153.2226 N   0  3  1  0  0  0  0  0  0  0  0  0
  147.0555  140.7714  153.9920 C   0  0  0  0  0  0  0  0  0  0  0  0
  148.3425  140.3392  154.7295 C   0  0  2  0  0  0  0  0  0  0  0  0
  147.9926  139.9488  156.0432 O   0  0  0  0  0  0  0  0  0  0  0  0
  149.4141  141.4497  154.8000 C   0  0  0  0  0  0  0  0  0  0  0  0
  150.5341  141.1240  155.6682 N   0  0  0  0  0  0  0  0  0  0  0  0
  151.4480  140.1506  155.4871 C   0  0  0  0  0  0  0  0  0  0  0  0
  152.3861  140.0147  156.4191 N   0  0  0  0  0  0  0  0  0  0  0  0
  152.0497  141.0243  157.3039 C   0  0  0  0  0  0  0  0  0  0  0  0
  152.6526  141.4178  158.5184 C   0  0  0  0  0  0  0  0  0  0  0  0
  152.1320  142.4949  159.2705 C   0  0  0  0  0  0  0  0  0  0  0  0
  152.8142  142.8861  160.5697 C   0  0  0  0  0  0  0  0  0  0  0  0
  150.9897  143.1969  158.8094 C   0  0  0  0  0  0  0  0  0  0  0  0
  150.4172  144.3616  159.5975 C   0  0  0  0  0  0  0  0  0  0  0  0
  150.3731  142.8149  157.5998 C   0  0  0  0  0  0  0  0  0  0  0  0
  150.8998  141.7408  156.8605 C   0  0  0  0  0  0  0  0  0  0  0  0
  147.0259  139.5160  151.8695 C   0  0  0  0  0  0  0  0  0  0  0  0
  146.3020  138.4256  151.0606 C   0  0  0  0  0  0  0  0  0  0  0  0
  143.0071  133.3575  152.1948 H   0  0  0  0  0  0  0  0  0  0  0  0
  144.2017  132.7460  151.0509 H   0  0  0  0  0  0  0  0  0  0  0  0
  143.4653  134.3398  150.8028 H   0  0  0  0  0  0  0  0  0  0  0  0
  146.8626  134.6962  152.1962 H   0  0  0  0  0  0  0  0  0  0  0  0
  146.1876  133.9185  150.7779 H   0  0  0  0  0  0  0  0  0  0  0  0
  146.0848  136.0644  149.9630 H   0  0  0  0  0  0  0  0  0  0  0  0
  144.6159  136.2047  150.8960 H   0  0  0  0  0  0  0  0  0  0  0  0
  144.6535  137.5198  153.0467 H   0  0  0  0  0  0  0  0  0  0  0  0
  145.7730  136.3321  153.6801 H   0  0  0  0  0  0  0  0  0  0  0  0
  145.9502  138.4704  154.9150 H   0  0  0  0  0  0  0  0  0  0  0  0
  147.4663  138.0596  154.1426 H   0  0  0  0  0  0  0  0  0  0  0  0
  147.2604  141.6063  153.3203 H   0  0  0  0  0  0  0  0  0  0  0  0
  146.3383  141.1420  154.7264 H   0  0  0  0  0  0  0  0  0  0  0  0
  148.7917  139.4770  154.2377 H   0  0  0  0  0  0  0  0  0  0  0  0
  147.2219  140.4301  156.3062 H   0  0  0  0  0  0  0  0  0  0  0  0
  149.8003  141.6710  153.8038 H   0  0  0  0  0  0  0  0  0  0  0  0
  148.9619  142.3744  155.1604 H   0  0  0  0  0  0  0  0  0  0  0  0
  151.4171  139.4987  154.6261 H   0  0  0  0  0  0  0  0  0  0  0  0
  153.5238  140.8837  158.8686 H   0  0  0  0  0  0  0  0  0  0  0  0
  153.1732  143.9142  160.5177 H   0  0  0  0  0  0  0  0  0  0  0  0
  153.6695  142.2433  160.7799 H   0  0  0  0  0  0  0  0  0  0  0  0
  152.1207  142.8034  161.4065 H   0  0  0  0  0  0  0  0  0  0  0  0
  149.5361  144.7782  159.1087 H   0  0  0  0  0  0  0  0  0  0  0  0
  151.1559  145.1577  159.6905 H   0  0  0  0  0  0  0  0  0  0  0  0
  150.1250  144.0414  160.5979 H   0  0  0  0  0  0  0  0  0  0  0  0
  149.5032  143.3428  157.2386 H   0  0  0  0  0  0  0  0  0  0  0  0
  146.9580  140.4634  151.3331 H   0  0  0  0  0  0  0  0  0  0  0  0
  148.0868  139.2766  151.9588 H   0  0  0  0  0  0  0  0  0  0  0  0
  146.7933  138.3107  150.0936 H   0  0  0  0  0  0  0  0  0  0  0  0
  145.2727  138.7280  150.8600 H   0  0  0  0  0  0  0  0  0  0  0  0
  145.4703  139.9274  153.0819 H   0  0  0  0  0  0  0  0  0  0  0  0
  147.2749  136.8752  151.9044 H   0  0  0  0  0  0  0  0  0  0  0  0
  1  2  1  0  0  0  0
  1 26  1  0  0  0  0
  1 27  1  0  0  0  0
  1 28  1  0  0  0  0
  2  3  1  0  0  0  0
  3  4  1  0  0  0  0
  3 29  1  0  0  0  0
  3 30  1  0  0  0  0
  4  5  1  0  0  0  0
  4 31  1  0  0  0  0
  4 32  1  0  0  0  0
  5 25  1  0  0  0  0
  5  6  1  0  0  0  0
  5 57  1  0  0  0  0
  6  7  1  0  0  0  0
  6 33  1  0  0  0  0
  6 34  1  0  0  0  0
  7  8  1  0  0  0  0
  7 35  1  0  0  0  0
  7 36  1  0  0  0  0
  8  9  1  0  0  0  0
  8 24  1  0  0  0  0
  8 56  1  0  0  0  0
  9 10  1  0  0  0  0
  9 37  1  0  0  0  0
  9 38  1  0  0  0  0
 10 11  1  0  0  0  0
 10 12  1  0  0  0  0
 10 39  1  0  0  0  0
 11 40  1  0  0  0  0
 12 13  1  0  0  0  0
 12 41  1  0  0  0  0
 12 42  1  0  0  0  0
 13 23  1  0  0  0  0
 13 14  1  0  0  0  0
 14 15  2  0  0  0  0
 14 43  1  0  0  0  0
 15 16  1  0  0  0  0
 16 23  2  0  0  0  0
 16 17  1  0  0  0  0
 17 18  2  0  0  0  0
 17 44  1  0  0  0  0
 18 19  1  0  0  0  0
 18 20  1  0  0  0  0
 19 45  1  0  0  0  0
 19 46  1  0  0  0  0
 19 47  1  0  0  0  0
 20 21  1  0  0  0  0
 20 22  2  0  0  0  0
 21 48  1  0  0  0  0
 21 49  1  0  0  0  0
 21 50  1  0  0  0  0
 22 23  1  0  0  0  0
 22 51  1  0  0  0  0
 24 25  1  0  0  0  0
 24 52  1  0  0  0  0
 24 53  1  0  0  0  0
 25 54  1  0  0  0  0
 25 55  1  0  0  0  0
M  CHG  1   5   1
M  CHG  1   8   1
M  END
> <s_m_source_file>
AV-unprocessed.smi

> <i_m_source_file_index>
1007

> <i_lp_mmshare_version>
43012

> <i_f3d_flags>
0

> <s_epik_input>
W0NIM11PW0NIMl1bQ0gyXU4xW0NIMl1bQ0gyXU4oW0NIMl1bQ0gyXTEpW0NIMl1bQ0BIXShbT0hdKVtDSDJdbihbY0hdbjIpYyhjMjMpW2NIXWMoW0NIM10pYyhbY0hdMylbQ0gzXQ==

> <s_epik_cmdline>
J2VwaWtfcHl0aG9uJywgJy1waCcsICc3LjAnLCAnLXRuJywgJzgnLCAnLW1hJywgJzIwMCcsICctbWV0YWxfYmluZGluZycsICctaW1hZScsICc8aW5maWxlLm1hZT4nLCAnLW9tYWUnLCAnPG91dGZpbGUubWFlPic=

> <r_epik_Ionization_Penalty>
3.88944

> <r_epik_Ionization_Penalty_Charging>
3.80608

> <r_epik_Ionization_Penalty_Neutral>
0.0833653

> <r_epik_State_Penalty>
2.70739

> <r_epik_Charging_Adjusted_Penalty>
6.51347

> <i_epik_Tot_Q>
2

> <i_epik_Tot_abs_Q>
2

> <r_epik_Metal_State_Penalty>
2.62239

> <b_epik_Metal_Only>
0

> <s_lp_Force_Field>
OPLS_2005

> <r_lp_Energy>
26.7916

> <b_lp_Chiralities_Consistent>
1

> <s_lp_Variant>
AV-unprocessed.smi:1007-9

> <Gold.Version>
5.8.1

> <Gold.Id.Protein>
6NUR|6NUR_protein|mol2

> <Gold.PLP.Fitness>
58.9872

> <Gold.PLP.PLP>
-46.2731

> <Gold.PLP.part.hbond>
-3.0000

> <Gold.PLP.part.metal>
0.0000

> <Gold.PLP.part.buried>
1.9696

> <Gold.PLP.part.nonpolar>
-45.1370

> <Gold.PLP.part.repulsive>
0.1404

> <Gold.PLP.ligand.clash>
0.0000

> <Gold.PLP.ligand.torsion>
1.2052

> <Gold.PLP.Chemscore.Hbond>
5.0000

> <Gold.PLP.Chemscore.CHOScore>
0.0000

> <Gold.PLP.Chemscore.Metal>
0.0000

> <Gold.Chemscore.Hbonds>
donor molecule, donor type, donor heavy atom, donor atom, acceptor molecule, acceptor atom, score
      L1  H     5    57       P1  7948  2.00
      L1  H     8    56       P1 10175  2.00
      P1  H  7997  8009       L1    15  1.00

> <Gold.PLP.Chemscore.Internal.Correction>
0.1243

> <Gold.Rescore>
     Score         DG    S(hbond)    S(metal)    S(lipo)     H(rot)  DE(clash)    DE(int)     intcor
     18.22     -22.86       2.71        0.00     128.81       2.63       2.56       2.08       ----

> <Gold.Chemscore.Fitness>
18.2184

> <Gold.Chemscore.DG>
-22.8633

> <Gold.Chemscore.ZeroCoef>
-5.4800

> <Gold.Chemscore.Hbond>
2.7118

> <Gold.Chemscore.Metal>
0.0000

> <Gold.Chemscore.Lipo>
128.8079

> <Gold.Chemscore.Internal_Hbond>
0.0000

> <Gold.Chemscore.DEClash>
2.5608

> <Gold.Chemscore.DEInternal>
2.0841

> <Gold.Chemscore.Rot>
2.6347

> <Gold.Chemscore.Internal.Correction>
   9.000000E+99

> <Gold.Chemscore.Hbonds>
donor molecule, donor type, donor heavy atom, donor atom, acceptor molecule, acceptor atom, score
      L1  H     5    57       P1  7948  1.00
      L1  H     8    56       P1 10175  0.98
      P1  H  7997  8009       L1    15  0.34

> <Gold.Chemscore.Hbond.Weighted>
-9.0575

> <Gold.Chemscore.Metal.Weighted>
-0.0000

> <Gold.Chemscore.Lipo.Weighted>
-15.0705

> <Gold.Chemscore.Internal_Hbond.Weighted>
0.0000

> <Gold.Chemscore.DEClash.Weighted>
2.5608

> <Gold.Chemscore.DEInternal.Weighted>
2.0841

> <Gold.Chemscore.Rot.Weighted>
6.7448

> <Gold.Chemscore.Internal.Correction.Weighted>
   9.000000E+99

> <Gold.Protein.RotatedTorsions>
[ 6907 6896 6895 6894 ] final  -14.28 input  -60.11 | X-H torsion
[ 7974 7965 7964 7962 ] final  -96.85 input  175.53 | X-H torsion
[ 8008 7997 7996 7995 ] final -166.33 input   59.86 | X-H torsion
[ 10167 10162 10161 10158 ] final  154.75 input  -65.29 | X-H torsion
[ 10718 10713 10712 10709 ] final   31.25 input   66.30 | X-H torsion
[ 10763 10752 10751 10750 ] final -119.39 input  -60.55 | X-H torsion
[ 11005 11000 10999 10996 ] final   95.92 input  -57.11 | X-H torsion

> <Gold.Protein.ActiveResidues>
 VAL166  LYS551  ARG553  GLY616  TRP617  ASP618  TYR619  PRO620  LYS621  CYS622 
 ASP623  PHE694  ASN695  SER759  ASP760  ASP761  ALA762  ILE779  LEU786  VAL792 
 PHE793  MET794  SER795  GLU796  ALA797  LYS798  CYS799  TRP800  GLU811  SER814 

> <Gold.Protein.RotatedAtoms>
  151.3418  135.0865  159.9373 H   0  0  0  0  0  0  0  0  0  0  0  0  # atno 6907 bound_to 6896
  152.5209  133.9440  159.7650 H   0  0  0  0  0  0  0  0  0  0  0  0  # atno 6908 bound_to 6896
  150.9798  133.6204  159.2754 H   0  0  0  0  0  0  0  0  0  0  0  0  # atno 6909 bound_to 6896
  145.3415  140.9460  143.2605 H   0  0  0  0  0  0  0  0  0  0  0  0  # atno 7974 bound_to 7965
  155.8623  140.0980  157.1605 H   0  0  0  0  0  0  0  0  0  0  0  0  # atno 8008 bound_to 7997
  154.3991  140.1363  156.4038 H   0  0  0  0  0  0  0  0  0  0  0  0  # atno 8009 bound_to 7997
  155.7843  140.3457  155.5317 H   0  0  0  0  0  0  0  0  0  0  0  0  # atno 8010 bound_to 7997
  139.4822  144.5159  151.7952 H   0  0  0  0  0  0  0  0  0  0  0  0  # atno 10167 bound_to 10162
  157.2700  130.7203  149.6499 H   0  0  0  0  0  0  0  0  0  0  0  0  # atno 10718 bound_to 10713
  154.8616  135.4240  154.2291 H   0  0  0  0  0  0  0  0  0  0  0  0  # atno 10763 bound_to 10752
  153.3280  135.6986  153.6978 H   0  0  0  0  0  0  0  0  0  0  0  0  # atno 10764 bound_to 10752
  153.6006  135.3537  155.2917 H   0  0  0  0  0  0  0  0  0  0  0  0  # atno 10765 bound_to 10752
  139.8785  134.8924  156.4082 H   0  0  0  0  0  0  0  0  0  0  0  0  # atno 11005 bound_to 11000
  144.8787  139.4935  143.6733 LP  0  0  0  0  0  0  0  0  0  0  0  0  # atno 17320 bound_to 7965
  146.3005  139.7413  142.9094 LP  0  0  0  0  0  0  0  0  0  0  0  0  # atno 17321 bound_to 7965
  140.4667  144.1645  150.5912 LP  0  0  0  0  0  0  0  0  0  0  0  0  # atno 17342 bound_to 10162
  140.4426  143.2520  151.9453 LP  0  0  0  0  0  0  0  0  0  0  0  0  # atno 17343 bound_to 10162
  155.9663  130.4370  150.5159 LP  0  0  0  0  0  0  0  0  0  0  0  0  # atno 17370 bound_to 10713
  157.3082  131.0658  151.2020 LP  0  0  0  0  0  0  0  0  0  0  0  0  # atno 17371 bound_to 10713
  140.9219  133.7639  155.9917 LP  0  0  0  0  0  0  0  0  0  0  0  0  # atno 17394 bound_to 11000
  140.8430  134.3044  157.5306 LP  0  0  0  0  0  0  0  0  0  0  0  0  # atno 17395 bound_to 11000

$$$$
