#       Name:                AV-unprocessed.smi:765
#       Creating user name   scv26
#       Creation time:       Fri Mar 27 01:04:44 2020


#       File generated by GOLD software.
#

@<TRIPOS>MOLECULE
AV-unprocessed.smi:765
    43    44     1
SMALL
NO_CHARGES


@<TRIPOS>ATOM
      1 ****        -2.0303  -1.1017  -3.3853 C.3            1 S1                 0.0000
      2 ****        -1.6202  -1.1451  -1.9065 C.3            1 S1                 0.0000
      3 ****        -2.2911  -2.3201  -1.1725 C.3            1 S1                 0.0000
      4 ****        -1.9002  -2.3563   0.3117 C.3            1 S1                 0.0000
      5 ****        -2.2277  -1.0211   1.0006 C.3            1 S1                 0.0000
      6 ****        -1.5558   0.1877   0.3031 C.3            1 S1                 0.0000
      7 ****        -2.0423   1.4437   0.9056 C.1            1 S1                 0.0000
      8 ****        -2.4242   2.4292   1.3768 N.1            1 S1                 0.0000
      9 ****        -0.0948   0.1072   0.4015 N.am           1 S1                 0.0000
     10 ****         0.6543   0.2322   1.5100 C.2            1 S1                 0.0000
     11 ****         0.1801   0.4327   2.6284 O.2            1 S1                 0.0000
     12 ****         2.1725   0.1109   1.3094 C.3            1 S1                 0.0000
     13 ****         2.9301  -0.1932   2.6155 C.3            1 S1                 0.0000
     14 ****         2.6920   1.3114   0.6673 N.pl3          1 S1                 0.0000
     15 ****         2.7360   2.6039   1.1536 C.2            1 S1                 0.0000
     16 ****         3.2987   3.3858   0.1861 C.2            1 S1                 0.0000
     17 ****         3.5675   2.4730  -0.8717 C.2            1 S1                 0.0000
     18 ****         3.2020   1.2347  -0.5822 N.2            1 S1                 0.0000
     19 ****        -1.9398   0.1874  -1.1946 C.3            1 S1                 0.0000
     20 ****        -3.1044  -0.9492  -3.4955 H              1 S1                 0.0000
     21 ****        -1.7726  -2.0324  -3.8916 H              1 S1                 0.0000
     22 ****        -1.5232  -0.2913  -3.9097 H              1 S1                 0.0000
     23 ****        -0.5413  -1.3019  -1.8762 H              1 S1                 0.0000
     24 ****        -3.3756  -2.2385  -1.2586 H              1 S1                 0.0000
     25 ****        -2.0147  -3.2629  -1.6457 H              1 S1                 0.0000
     26 ****        -2.4265  -3.1694   0.8125 H              1 S1                 0.0000
     27 ****        -0.8361  -2.5745   0.4081 H              1 S1                 0.0000
     28 ****        -3.3095  -0.8803   0.9943 H              1 S1                 0.0000
     29 ****        -1.9455  -1.0706   2.0524 H              1 S1                 0.0000
     30 ****         0.3970  -0.0500  -0.4664 H              1 S1                 0.0000
     31 ****         2.3383  -0.7325   0.6360 H              1 S1                 0.0000
     32 ****         2.5564  -1.1035   3.0860 H              1 S1                 0.0000
     33 ****         2.8359   0.6176   3.3390 H              1 S1                 0.0000
     34 ****         3.9930  -0.3393   2.4214 H              1 S1                 0.0000
     35 ****         2.3650   2.8560   2.1365 H              1 S1                 0.0000
     36 ****         3.4876   4.4483   0.2268 H              1 S1                 0.0000
     37 ****         4.0128   2.6725  -1.8353 H              1 S1                 0.0000
     38 ****        -1.4338   1.0091  -1.7042 H              1 S1                 0.0000
     39 ****        -3.0078   0.3915  -1.2882 H              1 S1                 0.0000
     40 ****        -2.7543   3.2808   1.7840 LP             1 S1                 0.0000
     41 ****        -0.8101   0.5105   2.7451 LP             1 S1                 0.0000
     42 ****         0.7850   0.5177   3.4201 LP             1 S1                 0.0000
     43 ****         3.2847   0.4224  -1.1595 LP             1 S1                 0.0000
@<TRIPOS>BOND
    1    1    2 1     
    2    1   20 1     
    3    1   21 1     
    4    1   22 1     
    5    2   19 1     
    6    2    3 1     
    7    2   23 1     
    8    3    4 1     
    9    3   24 1     
   10    3   25 1     
   11    4    5 1     
   12    4   26 1     
   13    4   27 1     
   14    5    6 1     
   15    5   28 1     
   16    5   29 1     
   17    6    7 1     
   18    6    9 1     
   19    6   19 1     
   20    7    8 3     
   21    9   10 am    
   22    9   30 1     
   23   10   11 2     
   24   10   12 1     
   25   12   13 1     
   26   12   14 1     
   27   12   31 1     
   28   13   32 1     
   29   13   33 1     
   30   13   34 1     
   31   14   18 1     
   32   14   15 1     
   33   15   16 2     
   34   15   35 1     
   35   16   17 1     
   36   16   36 1     
   37   17   18 2     
   38   17   37 1     
   39   19   38 1     
   40   19   39 1     
   41    8   40 1     
   42   11   41 1     
   43   11   42 1     
   44   18   43 1     
@<TRIPOS>SUBSTRUCTURE
      1 S1             1
@<TRIPOS>SET
LONE_PAIRS      STATIC     ATOMS    <user>   **** ""
4 40 41 42 43
DONOR_HYDROGENS      STATIC     ATOMS    <user>   **** ""
1 30
ATOM$BLUE        STATIC     ATOMS    COLORGROUP SYSTEM
4 40 41 42 43
ATOM$RED        STATIC     ATOMS    COLORGROUP SYSTEM
1 30
