#       Name:                AV-unprocessed.smi:1381
#       Creating user name   scv26
#       Creation time:       Fri Mar 27 05:23:08 2020


#       File generated by GOLD software.
#

@<TRIPOS>MOLECULE
AV-unprocessed.smi:1381
    50    51     1
SMALL
NO_CHARGES


@<TRIPOS>ATOM
      1 ****        -6.2691   6.0752  -0.0605 C.3            1 S1                 0.0000
      2 ****        -5.4048   4.8661  -0.1701 C.2            1 S1                 0.0000
      3 ****        -4.0694   4.6566   0.0283 C.2            1 S1                 0.0000
      4 ****        -3.9164   3.2722  -0.2504 C.2            1 S1                 0.0000
      5 ****        -2.6427   2.6523  -0.1523 N.am           1 S1                 0.0000
      6 ****        -2.3090   1.3682  -0.3770 C.2            1 S1                 0.0000
      7 ****        -3.1670   0.5532  -0.7369 O.2            1 S1                 0.0000
      8 ****        -0.9849   1.1373  -0.1609 N.pl3          1 S1                -1.0000
      9 ****        -0.3334  -0.1609  -0.3156 C.3            1 S1                 0.0000
     10 ****         1.0785  -0.1063   0.2993 C.3            1 S1                 0.0000
     11 ****         1.8038  -1.3962   0.1521 N.4            1 S1                 1.0000
     12 ****         3.2487  -1.2182  -0.1240 C.3            1 S1                 0.0000
     13 ****         3.9151  -2.5784  -0.3976 C.3            1 S1                 0.0000
     14 ****         5.4286  -2.4461  -0.6003 C.3            1 S1                 0.0000
     15 ****         3.6957  -3.4490   0.7097 O.3            1 S1                 0.0000
     16 ****         2.3236  -3.6717   1.0360 C.3            1 S1                 0.0000
     17 ****         1.6093  -4.5501  -0.0065 C.3            1 S1                 0.0000
     18 ****         1.6148  -2.3286   1.2947 C.3            1 S1                 0.0000
     19 ****        -5.0575   2.6899  -0.5879 N.2            1 S1                 0.0000
     20 ****        -6.0168   3.7082  -0.5382 O.3            1 S1                 0.0000
     21 ****        -5.6810   6.9512   0.2139 H              1 S1                 0.0000
     22 ****        -7.0377   5.9326   0.6992 H              1 S1                 0.0000
     23 ****        -6.7638   6.2838  -1.0093 H              1 S1                 0.0000
     24 ****        -3.3232   5.3782   0.3252 H              1 S1                 0.0000
     25 ****        -1.8858   3.2565   0.1309 H              1 S1                 0.0000
     26 ****        -0.8977  -0.9594   0.1678 H              1 S1                 0.0000
     27 ****        -0.2513  -0.4473  -1.3649 H              1 S1                 0.0000
     28 ****         1.6336   0.6842  -0.2089 H              1 S1                 0.0000
     29 ****         1.0384   0.1825   1.3511 H              1 S1                 0.0000
     30 ****         3.3811  -0.5695  -0.9913 H              1 S1                 0.0000
     31 ****         3.7227  -0.7222   0.7246 H              1 S1                 0.0000
     32 ****         3.4912  -3.0181  -1.3007 H              1 S1                 0.0000
     33 ****         5.6567  -1.7927  -1.4428 H              1 S1                 0.0000
     34 ****         5.8810  -3.4175  -0.8020 H              1 S1                 0.0000
     35 ****         5.9117  -2.0318   0.2851 H              1 S1                 0.0000
     36 ****         2.3238  -4.2317   1.9718 H              1 S1                 0.0000
     37 ****         0.6085  -4.8158   0.3349 H              1 S1                 0.0000
     38 ****         2.1566  -5.4777  -0.1746 H              1 S1                 0.0000
     39 ****         1.4989  -4.0473  -0.9669 H              1 S1                 0.0000
     40 ****         2.0201  -1.8699   2.1981 H              1 S1                 0.0000
     41 ****         0.5545  -2.5015   1.4823 H              1 S1                 0.0000
     42 ****         1.4127  -1.8411  -0.6662 H              1 S1                 0.0000
     43 ****        -4.1145   0.8473  -0.8623 LP             1 S1                 0.0000
     44 ****        -2.9131  -0.3998  -0.9024 LP             1 S1                 0.0000
     45 ****        -0.4185   1.9107   0.1237 LP             1 S1                 0.0000
     46 ****         4.1452  -3.0528   1.5103 LP             1 S1                 0.0000
     47 ****         4.1121  -4.3330   0.4972 LP             1 S1                 0.0000
     48 ****        -5.2023   1.7297  -0.8267 LP             1 S1                 0.0000
     49 ****        -6.4353   3.8205  -1.4394 LP             1 S1                 0.0000
     50 ****        -6.7225   3.4734   0.1302 LP             1 S1                 0.0000
@<TRIPOS>BOND
    1    1    2 1     
    2    1   21 1     
    3    1   22 1     
    4    1   23 1     
    5    2   20 1     
    6    2    3 2     
    7    3    4 1     
    8    3   24 1     
    9    4    5 1     
   10    4   19 2     
   11    5    6 am    
   12    5   25 1     
   13    6    7 2     
   14    6    8 1     
   15    8    9 1     
   16    9   10 1     
   17    9   26 1     
   18    9   27 1     
   19   10   11 1     
   20   10   28 1     
   21   10   29 1     
   22   11   18 1     
   23   11   12 1     
   24   11   42 1     
   25   12   13 1     
   26   12   30 1     
   27   12   31 1     
   28   13   14 1     
   29   13   15 1     
   30   13   32 1     
   31   14   33 1     
   32   14   34 1     
   33   14   35 1     
   34   15   16 1     
   35   16   17 1     
   36   16   18 1     
   37   16   36 1     
   38   17   37 1     
   39   17   38 1     
   40   17   39 1     
   41   18   40 1     
   42   18   41 1     
   43   19   20 1     
   44    7   43 1     
   45    7   44 1     
   46    8   45 1     
   47   15   46 1     
   48   15   47 1     
   49   19   48 1     
   50   20   49 1     
   51   20   50 1     
@<TRIPOS>SUBSTRUCTURE
      1 S1             1
@<TRIPOS>SET
LONE_PAIRS      STATIC     ATOMS    <user>   **** ""
8 43 44 45 46 47 48 49 50
DONOR_HYDROGENS      STATIC     ATOMS    <user>   **** ""
2 25 42
ATOM$BLUE        STATIC     ATOMS    COLORGROUP SYSTEM
8 43 44 45 46 47 48 49 50
ATOM$RED        STATIC     ATOMS    COLORGROUP SYSTEM
2 25 42
