AV-unprocessed.smi:3031|AV-procd|sdf|11550|dock4
  -GOLD-   2272016503D 1   1.00000     0.00000
 Structure written by MMmdl.
 48 49  0  0  0  0  0  0  0  0  3 V2000
  151.1188  142.9817  157.9317 C   0  0  0  0  0  0  0  0  0  0  0  0
  151.0398  141.7335  157.1008 C   0  0  0  0  0  0  0  0  0  0  0  0
  151.5869  140.4516  157.3932 C   0  0  0  0  0  0  0  0  0  0  0  0
  151.3368  139.5585  156.4496 N   0  0  0  0  0  0  0  0  0  0  0  0
  150.6257  140.2362  155.5238 N   0  0  0  0  0  0  0  0  0  0  0  0
  150.1677  139.5577  154.3248 C   0  0  0  0  0  0  0  0  0  0  0  0
  148.6264  139.4619  154.2329 C   0  0  1  0  0  0  0  0  0  0  0  0
  147.9331  140.8277  154.3756 C   0  0  0  0  0  0  0  0  0  0  0  0
  148.2095  138.8393  152.9562 N   0  3  0  0  0  0  0  0  0  0  0  0
  146.7489  138.7145  152.7529 C   0  0  0  0  0  0  0  0  0  0  0  0
  146.4029  137.4453  151.9537 C   0  0  2  0  0  0  0  0  0  0  0  0
  146.4732  137.7498  150.5738 O   0  0  0  0  0  0  0  0  0  0  0  0
  144.9810  136.9342  152.2678 C   0  0  0  0  0  0  0  0  0  0  0  0
  144.7817  135.5145  151.8766 N   0  3  0  0  0  0  0  0  0  0  0  0
  144.4969  135.3307  150.4311 C   0  0  0  0  0  0  0  0  0  0  0  0
  144.2676  133.8434  150.1115 C   0  0  0  0  0  0  0  0  0  0  0  0
  145.4038  133.0889  150.5132 O   0  0  0  0  0  0  0  0  0  0  0  0
  145.6364  133.1826  151.9127 C   0  0  0  0  0  0  0  0  0  0  0  0
  145.9102  134.6478  152.2935 C   0  0  0  0  0  0  0  0  0  0  0  0
  150.4296  141.5504  155.8923 C   0  0  0  0  0  0  0  0  0  0  0  0
  151.7912  142.8617  158.7815 H   0  0  0  0  0  0  0  0  0  0  0  0
  150.1436  143.2604  158.3314 H   0  0  0  0  0  0  0  0  0  0  0  0
  151.4839  143.8292  157.3515 H   0  0  0  0  0  0  0  0  0  0  0  0
  152.1545  140.1454  158.2597 H   0  0  0  0  0  0  0  0  0  0  0  0
  150.5649  140.0819  153.4536 H   0  0  0  0  0  0  0  0  0  0  0  0
  150.6190  138.5657  154.3194 H   0  0  0  0  0  0  0  0  0  0  0  0
  148.2650  138.8320  155.0474 H   0  0  0  0  0  0  0  0  0  0  0  0
  148.1191  141.2734  155.3529 H   0  0  0  0  0  0  0  0  0  0  0  0
  146.8519  140.7323  154.2696 H   0  0  0  0  0  0  0  0  0  0  0  0
  148.2810  141.5303  153.6177 H   0  0  0  0  0  0  0  0  0  0  0  0
  148.5648  139.4155  152.2061 H   0  0  0  0  0  0  0  0  0  0  0  0
  146.2604  138.6663  153.7258 H   0  0  0  0  0  0  0  0  0  0  0  0
  146.3651  139.6025  152.2477 H   0  0  0  0  0  0  0  0  0  0  0  0
  147.1409  136.6765  152.1815 H   0  0  0  0  0  0  0  0  0  0  0  0
  145.6173  138.0191  150.2749 H   0  0  0  0  0  0  0  0  0  0  0  0
  144.7600  137.0423  153.3310 H   0  0  0  0  0  0  0  0  0  0  0  0
  144.2608  137.5669  151.7457 H   0  0  0  0  0  0  0  0  0  0  0  0
  143.6164  135.9004  150.1368 H   0  0  0  0  0  0  0  0  0  0  0  0
  145.3334  135.7094  149.8413 H   0  0  0  0  0  0  0  0  0  0  0  0
  143.3713  133.4704  150.6099 H   0  0  0  0  0  0  0  0  0  0  0  0
  144.1157  133.7088  149.0404 H   0  0  0  0  0  0  0  0  0  0  0  0
  144.7805  132.7894  152.4636 H   0  0  0  0  0  0  0  0  0  0  0  0
  146.4939  132.5610  152.1706 H   0  0  0  0  0  0  0  0  0  0  0  0
  146.8307  134.9916  151.8189 H   0  0  0  0  0  0  0  0  0  0  0  0
  146.0570  134.7229  153.3717 H   0  0  0  0  0  0  0  0  0  0  0  0
  149.8786  142.2407  155.2709 H   0  0  0  0  0  0  0  0  0  0  0  0
  148.6379  137.9275  152.8841 H   0  0  0  0  0  0  0  0  0  0  0  0
  143.9724  135.1853  152.3842 H   0  0  0  0  0  0  0  0  0  0  0  0
  1  2  1  0  0  0  0
  1 21  1  0  0  0  0
  1 22  1  0  0  0  0
  1 23  1  0  0  0  0
  2 20  2  0  0  0  0
  2  3  1  0  0  0  0
  3  4  2  0  0  0  0
  3 24  1  0  0  0  0
  4  5  1  0  0  0  0
  5  6  1  0  0  0  0
  5 20  1  0  0  0  0
  6  7  1  0  0  0  0
  6 25  1  0  0  0  0
  6 26  1  0  0  0  0
  7  8  1  0  0  0  0
  7  9  1  0  0  0  0
  7 27  1  0  0  0  0
  8 28  1  0  0  0  0
  8 29  1  0  0  0  0
  8 30  1  0  0  0  0
  9 10  1  0  0  0  0
  9 31  1  0  0  0  0
  9 47  1  0  0  0  0
 10 11  1  0  0  0  0
 10 32  1  0  0  0  0
 10 33  1  0  0  0  0
 11 12  1  0  0  0  0
 11 13  1  0  0  0  0
 11 34  1  0  0  0  0
 12 35  1  0  0  0  0
 13 14  1  0  0  0  0
 13 36  1  0  0  0  0
 13 37  1  0  0  0  0
 14 19  1  0  0  0  0
 14 15  1  0  0  0  0
 14 48  1  0  0  0  0
 15 16  1  0  0  0  0
 15 38  1  0  0  0  0
 15 39  1  0  0  0  0
 16 17  1  0  0  0  0
 16 40  1  0  0  0  0
 16 41  1  0  0  0  0
 17 18  1  0  0  0  0
 18 19  1  0  0  0  0
 18 42  1  0  0  0  0
 18 43  1  0  0  0  0
 19 44  1  0  0  0  0
 19 45  1  0  0  0  0
 20 46  1  0  0  0  0
M  CHG  1   9   1
M  CHG  1  14   1
M  END
> <s_m_source_file>
AV-unprocessed.smi

> <i_m_source_file_index>
3031

> <i_lp_mmshare_version>
43012

> <i_f3d_flags>
0

> <s_epik_input>
W0NIM11jMVtjSF1ubihbY0hdMSlbQ0gyXVtDQEhdKFtDSDNdKVtOSF1bQ0gyXVtDQEhdKFtPSF0pW0NIMl1OMltDSDJdW0NIMl1PW0NIMl1bQ0gyXTI=

> <s_epik_cmdline>
J2VwaWtfcHl0aG9uJywgJy1waCcsICc3LjAnLCAnLXRuJywgJzgnLCAnLW1hJywgJzIwMCcsICctbWV0YWxfYmluZGluZycsICctaW1hZScsICc8aW5maWxlLm1hZT4nLCAnLW9tYWUnLCAnPG91dGZpbGUubWFlPic=

> <r_lp_tautomer_probability>
1

> <r_epik_Ionization_Penalty>
1.76542

> <r_epik_Ionization_Penalty_Charging>
1.76348

> <r_epik_Ionization_Penalty_Neutral>
0.00194017

> <r_epik_State_Penalty>
1.49348

> <r_epik_Charging_Adjusted_Penalty>
3.25696

> <i_epik_Tot_Q>
2

> <i_epik_Tot_abs_Q>
2

> <r_epik_Metal_State_Penalty>
1.49349

> <b_epik_Metal_Only>
0

> <s_lp_Force_Field>
OPLS_2005

> <r_lp_Energy>
28.4524

> <b_lp_Chiralities_Consistent>
1

> <s_lp_Variant>
AV-unprocessed.smi:3031-10

> <Gold.Version>
5.8.1

> <Gold.Id.Protein>
6NUR|6NUR_protein|mol2

> <Gold.PLP.Fitness>
54.3785

> <Gold.PLP.PLP>
-38.1853

> <Gold.PLP.part.hbond>
-4.7293

> <Gold.PLP.part.metal>
0.0000

> <Gold.PLP.part.buried>
-0.4315

> <Gold.PLP.part.nonpolar>
-32.8334

> <Gold.PLP.part.repulsive>
0.2125

> <Gold.PLP.ligand.clash>
0.0000

> <Gold.PLP.ligand.torsion>
0.8981

> <Gold.PLP.Chemscore.Hbond>
4.9586

> <Gold.PLP.Chemscore.CHOScore>
0.9431

> <Gold.PLP.Chemscore.Metal>
0.0000

> <Gold.Chemscore.Hbonds>
donor molecule, donor type, donor heavy atom, donor atom, acceptor molecule, acceptor atom, score
      L1  H     9    31       P1  7957  1.00
      L1  H     9    47       P1  7948  1.98
      L1  H    12    35       P1 10171  1.00
      P1  H  7954  7966       L1    12  0.98
      L1  C    20    46       P1  8028  0.59

> <Gold.PLP.Chemscore.Internal.Correction>
0.2843

> <Gold.Rescore>
     Score         DG    S(hbond)    S(metal)    S(lipo)     H(rot)  DE(clash)    DE(int)     intcor
     19.97     -21.98       3.84        0.00      91.55       2.74       0.96       1.06       ----

> <Gold.Chemscore.Fitness>
19.9687

> <Gold.Chemscore.DG>
-21.9835

> <Gold.Chemscore.ZeroCoef>
-5.4800

> <Gold.Chemscore.Hbond>
3.8370

> <Gold.Chemscore.Metal>
0.0000

> <Gold.Chemscore.Lipo>
91.5478

> <Gold.Chemscore.Internal_Hbond>
0.0000

> <Gold.Chemscore.DEClash>
0.9590

> <Gold.Chemscore.DEInternal>
1.0558

> <Gold.Chemscore.Rot>
2.7434

> <Gold.Chemscore.Internal.Correction>
   9.000000E+99

> <Gold.Chemscore.Hbonds>
donor molecule, donor type, donor heavy atom, donor atom, acceptor molecule, acceptor atom, score
      L1  H     9    31       P1  7957  0.98
      L1  H     9    47       P1  7948  0.92
      L1  H    12    35       P1 10171  1.00
      P1  H  7954  7966       L1    12  0.87

> <Gold.Chemscore.Hbond.Weighted>
-12.8155

> <Gold.Chemscore.Metal.Weighted>
-0.0000

> <Gold.Chemscore.Lipo.Weighted>
-10.7111

> <Gold.Chemscore.Internal_Hbond.Weighted>
0.0000

> <Gold.Chemscore.DEClash.Weighted>
0.9590

> <Gold.Chemscore.DEInternal.Weighted>
1.0558

> <Gold.Chemscore.Rot.Weighted>
7.0231

> <Gold.Chemscore.Internal.Correction.Weighted>
   9.000000E+99

> <Gold.Protein.RotatedTorsions>
[ 6907 6896 6895 6894 ] final  -25.54 input  -60.11 | X-H torsion
[ 7974 7965 7964 7962 ] final  -71.59 input  175.53 | X-H torsion
[ 8008 7997 7996 7995 ] final -116.12 input   59.86 | X-H torsion
[ 10167 10162 10161 10158 ] final -136.12 input  -65.29 | X-H torsion
[ 10718 10713 10712 10709 ] final -116.39 input   66.30 | X-H torsion
[ 10763 10752 10751 10750 ] final -123.98 input  -60.55 | X-H torsion
[ 11005 11000 10999 10996 ] final  -48.48 input  -57.11 | X-H torsion

> <Gold.Protein.ActiveResidues>
 VAL166  LYS551  ARG553  GLY616  TRP617  ASP618  TYR619  PRO620  LYS621  CYS622 
 ASP623  PHE694  ASN695  SER759  ASP760  ASP761  ALA762  ILE779  LEU786  VAL792 
 PHE793  MET794  SER795  GLU796  ALA797  LYS798  CYS799  TRP800  GLU811  SER814 

> <Gold.Protein.RotatedAtoms>
  151.1737  135.0330  159.8762 H   0  0  0  0  0  0  0  0  0  0  0  0  # atno 6907 bound_to 6896
  152.5448  134.1141  159.8381 H   0  0  0  0  0  0  0  0  0  0  0  0  # atno 6908 bound_to 6896
  151.1250  133.5030  159.2633 H   0  0  0  0  0  0  0  0  0  0  0  0  # atno 6909 bound_to 6896
  145.6761  140.9204  143.0857 H   0  0  0  0  0  0  0  0  0  0  0  0  # atno 7974 bound_to 7965
  155.0628  140.0393  157.2582 H   0  0  0  0  0  0  0  0  0  0  0  0  # atno 8008 bound_to 7997
  154.7046  140.2680  155.6663 H   0  0  0  0  0  0  0  0  0  0  0  0  # atno 8009 bound_to 7997
  156.2771  140.2734  156.1667 H   0  0  0  0  0  0  0  0  0  0  0  0  # atno 8010 bound_to 7997
  139.8710  143.6957  152.2640 H   0  0  0  0  0  0  0  0  0  0  0  0  # atno 10167 bound_to 10162
  156.0961  130.6133  150.9030 H   0  0  0  0  0  0  0  0  0  0  0  0  # atno 10718 bound_to 10713
  154.8716  135.4079  154.3032 H   0  0  0  0  0  0  0  0  0  0  0  0  # atno 10763 bound_to 10752
  153.3888  135.7014  153.6516 H   0  0  0  0  0  0  0  0  0  0  0  0  # atno 10764 bound_to 10752
  153.5307  135.3668  155.2646 H   0  0  0  0  0  0  0  0  0  0  0  0  # atno 10765 bound_to 10752
  141.0703  133.6681  156.3446 H   0  0  0  0  0  0  0  0  0  0  0  0  # atno 11005 bound_to 11000
  144.7041  139.8635  143.7435 LP  0  0  0  0  0  0  0  0  0  0  0  0  # atno 17320 bound_to 7965
  146.1004  139.4000  143.0350 LP  0  0  0  0  0  0  0  0  0  0  0  0  # atno 17321 bound_to 7965
  139.7284  144.7588  151.0842 LP  0  0  0  0  0  0  0  0  0  0  0  0  # atno 17342 bound_to 10162
  140.7760  143.5119  150.9642 LP  0  0  0  0  0  0  0  0  0  0  0  0  # atno 17343 bound_to 10162
  157.6121  131.0935  150.8775 LP  0  0  0  0  0  0  0  0  0  0  0  0  # atno 17370 bound_to 10713
  156.8913  130.5214  149.5286 LP  0  0  0  0  0  0  0  0  0  0  0  0  # atno 17371 bound_to 10713
  140.5688  134.5861  157.5452 LP  0  0  0  0  0  0  0  0  0  0  0  0  # atno 17394 bound_to 11000
  139.9517  134.7606  156.0434 LP  0  0  0  0  0  0  0  0  0  0  0  0  # atno 17395 bound_to 11000

$$$$
