#       Name:                AV-unprocessed.smi:1905
#       Creating user name   scv26
#       Creation time:       Fri Mar 27 09:46:49 2020


#       File generated by GOLD software.
#

@<TRIPOS>MOLECULE
AV-unprocessed.smi:1905
    45    46     1
SMALL
NO_CHARGES


@<TRIPOS>ATOM
      1 ****        -3.2847   3.7547   0.8620 C.3            1 S1                 0.0000
      2 ****        -1.8087   4.1434   0.9730 C.3            1 S1                 0.0000
      3 ****        -1.0216   2.9573   0.9297 O.3            1 S1                 0.0000
      4 ****         0.3538   3.0681   1.0095 C.ar           1 S1                 0.0000
      5 ****         0.8969   4.3078   1.1020 N.ar           1 S1                 0.0000
      6 ****         2.2384   4.4171   1.1839 C.ar           1 S1                 0.0000
      7 ****         3.1024   3.3072   1.1844 C.ar           1 S1                 0.0000
      8 ****         2.5418   2.0199   1.0886 C.ar           1 S1                 0.0000
      9 ****         1.1346   1.8885   0.9896 C.ar           1 S1                 0.0000
     10 ****         0.4506   0.6432   0.9011 N.am           1 S1                 0.0000
     11 ****         0.9346  -0.5797   0.6249 C.2            1 S1                 0.0000
     12 ****         2.1100  -0.8478   0.3793 O.2            1 S1                 0.0000
     13 ****        -0.0439  -1.4956   0.6356 N.am           1 S1                 0.0000
     14 ****         0.1340  -2.9206   0.3774 C.3            1 S1                 0.0000
     15 ****         0.3032  -3.2296  -1.1232 C.3            1 S1                 0.0000
     16 ****         0.4231  -4.7165  -1.4384 C.3            1 S1                 0.0000
     17 ****        -0.3690  -4.8963  -2.7381 C.3            1 S1                 0.0000
     18 ****        -0.6971  -3.5823  -3.1661 O.3            1 S1                 0.0000
     19 ****        -0.8665  -2.7913  -2.0029 C.3            1 S1                 0.0000
     20 ****        -3.9242   4.6370   0.8959 H              1 S1                 0.0000
     21 ****        -3.5785   3.0968   1.6802 H              1 S1                 0.0000
     22 ****        -3.4822   3.2337  -0.0752 H              1 S1                 0.0000
     23 ****        -1.5437   4.8100   0.1506 H              1 S1                 0.0000
     24 ****        -1.6400   4.6767   1.9100 H              1 S1                 0.0000
     25 ****         2.6343   5.4193   1.2552 H              1 S1                 0.0000
     26 ****         4.1715   3.4400   1.2596 H              1 S1                 0.0000
     27 ****         3.2036   1.1690   1.1049 H              1 S1                 0.0000
     28 ****        -0.5498   0.7003   1.0240 H              1 S1                 0.0000
     29 ****        -0.9817  -1.1855   0.8444 H              1 S1                 0.0000
     30 ****         0.9925  -3.2931   0.9385 H              1 S1                 0.0000
     31 ****        -0.7401  -3.4411   0.7696 H              1 S1                 0.0000
     32 ****         1.2038  -2.7383  -1.4955 H              1 S1                 0.0000
     33 ****         1.4678  -5.0059  -1.5575 H              1 S1                 0.0000
     34 ****        -0.0042  -5.3376  -0.6502 H              1 S1                 0.0000
     35 ****         0.1977  -5.4261  -3.5039 H              1 S1                 0.0000
     36 ****        -1.2891  -5.4516  -2.5511 H              1 S1                 0.0000
     37 ****        -1.8258  -3.0236  -1.5372 H              1 S1                 0.0000
     38 ****        -0.8432  -1.7264  -2.2358 H              1 S1                 0.0000
     39 ****        -1.2299   2.4976   0.0664 LP             1 S1                 0.0000
     40 ****        -1.3150   2.3817   1.6931 LP             1 S1                 0.0000
     41 ****         0.3159   5.1216   1.1093 LP             1 S1                 0.0000
     42 ****         2.7979  -0.1220   0.3745 LP             1 S1                 0.0000
     43 ****         2.3774  -1.7915   0.1845 LP             1 S1                 0.0000
     44 ****        -1.5446  -3.5967  -3.6967 LP             1 S1                 0.0000
     45 ****         0.0418  -3.2108  -3.7281 LP             1 S1                 0.0000
@<TRIPOS>BOND
    1    1    2 1     
    2    1   20 1     
    3    1   21 1     
    4    1   22 1     
    5    2    3 1     
    6    2   23 1     
    7    2   24 1     
    8    3    4 1     
    9    4    9 ar    
   10    4    5 ar    
   11    5    6 ar    
   12    6    7 ar    
   13    6   25 1     
   14    7    8 ar    
   15    7   26 1     
   16    8    9 ar    
   17    8   27 1     
   18    9   10 1     
   19   10   11 am    
   20   10   28 1     
   21   11   12 2     
   22   11   13 am    
   23   13   14 1     
   24   13   29 1     
   25   14   15 1     
   26   14   30 1     
   27   14   31 1     
   28   15   19 1     
   29   15   16 1     
   30   15   32 1     
   31   16   17 1     
   32   16   33 1     
   33   16   34 1     
   34   17   18 1     
   35   17   35 1     
   36   17   36 1     
   37   18   19 1     
   38   19   37 1     
   39   19   38 1     
   40    3   39 1     
   41    3   40 1     
   42    5   41 1     
   43   12   42 1     
   44   12   43 1     
   45   18   44 1     
   46   18   45 1     
@<TRIPOS>SUBSTRUCTURE
      1 S1             1
@<TRIPOS>SET
LONE_PAIRS      STATIC     ATOMS    <user>   **** ""
7 39 40 41 42 43 44 45
DONOR_HYDROGENS      STATIC     ATOMS    <user>   **** ""
2 28 29
ATOM$BLUE        STATIC     ATOMS    COLORGROUP SYSTEM
7 39 40 41 42 43 44 45
ATOM$RED        STATIC     ATOMS    COLORGROUP SYSTEM
2 28 29
