AV-unprocessed.smi:1933|AV-procd|sdf|7819|dock2
  -GOLD-   22720 9563D 1   1.00000     0.00000
 Structure written by MMmdl.
 48 50  0  0  0  0  0  0  0  0  2 V2000
  151.6894  140.4529  156.4833 O   0  0  0  0  0  0  0  0  0  0  0  0
  150.8351  141.2251  156.0479 C   0  0  0  0  0  0  0  0  0  0  0  0
  149.9965  140.9160  155.0478 N   0  0  0  0  0  0  0  0  0  0  0  0
  149.9622  139.6494  154.3222 C   0  0  0  0  0  0  0  0  0  0  0  0
  148.9574  138.6276  154.9237 C   0  0  2  0  0  0  0  0  0  0  0  0
  149.6255  137.3847  155.5805 C   0  0  2  0  0  0  0  0  0  0  0  0
  150.4776  137.7099  156.8001 C   0  0  0  0  0  0  0  0  0  0  0  0
  151.3672  136.4816  156.9085 C   0  0  0  0  0  0  0  0  0  0  0  0
  151.7008  136.1966  155.5610 O   0  0  0  0  0  0  0  0  0  0  0  0
  150.6411  136.6228  154.7093 C   0  0  0  0  0  0  0  0  0  0  0  0
  147.9519  138.1827  153.9114 N   0  3  0  0  0  0  0  0  0  0  0  0
  146.9229  137.2549  154.4409 C   0  0  0  0  0  0  0  0  0  0  0  0
  146.0711  136.6992  153.2865 C   0  0  0  0  0  0  0  0  0  0  0  0
  145.4881  137.7731  152.5575 O   0  0  0  0  0  0  0  0  0  0  0  0
  146.4697  138.6270  151.9811 C   0  0  0  0  0  0  0  0  0  0  0  0
  147.3229  139.2534  153.0963 C   0  0  0  0  0  0  0  0  0  0  0  0
  150.6043  142.4685  156.5041 N   0  0  0  0  0  0  0  0  0  0  0  0
  151.2292  143.1359  157.5906 C   0  0  0  0  0  0  0  0  0  0  0  0
  151.8395  142.2870  158.5413 C   0  0  0  0  0  0  0  0  0  0  0  0
  152.4928  142.8502  159.6546 C   0  0  0  0  0  0  0  0  0  0  0  0
  152.5195  144.2500  159.7877 C   0  0  0  0  0  0  0  0  0  0  0  0
  151.8887  145.0227  158.7954 C   0  0  0  0  0  0  0  0  0  0  0  0
  151.2617  144.4849  157.7278 N   0  0  0  0  0  0  0  0  0  0  0  0
  149.3294  141.6178  154.7614 H   0  0  0  0  0  0  0  0  0  0  0  0
  149.6871  139.8913  153.2960 H   0  0  0  0  0  0  0  0  0  0  0  0
  150.9598  139.2114  154.2704 H   0  0  0  0  0  0  0  0  0  0  0  0
  148.3993  139.1341  155.7129 H   0  0  0  0  0  0  0  0  0  0  0  0
  148.8545  136.6773  155.8896 H   0  0  0  0  0  0  0  0  0  0  0  0
  151.0892  138.5949  156.6177 H   0  0  0  0  0  0  0  0  0  0  0  0
  149.8901  137.8783  157.7031 H   0  0  0  0  0  0  0  0  0  0  0  0
  152.2559  136.6532  157.5161 H   0  0  0  0  0  0  0  0  0  0  0  0
  150.8158  135.6399  157.3305 H   0  0  0  0  0  0  0  0  0  0  0  0
  150.1854  135.7574  154.2289 H   0  0  0  0  0  0  0  0  0  0  0  0
  151.0669  137.2574  153.9317 H   0  0  0  0  0  0  0  0  0  0  0  0
  147.3987  136.4294  154.9715 H   0  0  0  0  0  0  0  0  0  0  0  0
  146.2816  137.7706  155.1563 H   0  0  0  0  0  0  0  0  0  0  0  0
  146.6745  136.0793  152.6213 H   0  0  0  0  0  0  0  0  0  0  0  0
  145.2761  136.0645  153.6782 H   0  0  0  0  0  0  0  0  0  0  0  0
  147.0917  138.0677  151.2802 H   0  0  0  0  0  0  0  0  0  0  0  0
  145.9672  139.4072  151.4088 H   0  0  0  0  0  0  0  0  0  0  0  0
  146.6867  139.8820  153.7206 H   0  0  0  0  0  0  0  0  0  0  0  0
  148.0836  139.8973  152.6562 H   0  0  0  0  0  0  0  0  0  0  0  0
  149.8822  142.9933  156.0333 H   0  0  0  0  0  0  0  0  0  0  0  0
  151.8103  141.2133  158.4232 H   0  0  0  0  0  0  0  0  0  0  0  0
  152.9648  142.2183  160.3924 H   0  0  0  0  0  0  0  0  0  0  0  0
  153.0108  144.7189  160.6273 H   0  0  0  0  0  0  0  0  0  0  0  0
  151.8878  146.1008  158.8590 H   0  0  0  0  0  0  0  0  0  0  0  0
  148.4843  137.6263  153.2575 H   0  0  0  0  0  0  0  0  0  0  0  0
  1  2  2  0  0  0  0
  2  3  1  0  0  0  0
  2 17  1  0  0  0  0
  3  4  1  0  0  0  0
  3 24  1  0  0  0  0
  4  5  1  0  0  0  0
  4 25  1  0  0  0  0
  4 26  1  0  0  0  0
  5  6  1  0  0  0  0
  5 11  1  0  0  0  0
  5 27  1  0  0  0  0
  6 10  1  0  0  0  0
  6  7  1  0  0  0  0
  6 28  1  0  0  0  0
  7  8  1  0  0  0  0
  7 29  1  0  0  0  0
  7 30  1  0  0  0  0
  8  9  1  0  0  0  0
  8 31  1  0  0  0  0
  8 32  1  0  0  0  0
  9 10  1  0  0  0  0
 10 33  1  0  0  0  0
 10 34  1  0  0  0  0
 11 16  1  0  0  0  0
 11 12  1  0  0  0  0
 11 48  1  0  0  0  0
 12 13  1  0  0  0  0
 12 35  1  0  0  0  0
 12 36  1  0  0  0  0
 13 14  1  0  0  0  0
 13 37  1  0  0  0  0
 13 38  1  0  0  0  0
 14 15  1  0  0  0  0
 15 16  1  0  0  0  0
 15 39  1  0  0  0  0
 15 40  1  0  0  0  0
 16 41  1  0  0  0  0
 16 42  1  0  0  0  0
 17 18  1  0  0  0  0
 17 43  1  0  0  0  0
 18 23  1  0  0  0  0
 18 19  2  0  0  0  0
 19 20  1  0  0  0  0
 19 44  1  0  0  0  0
 20 21  2  0  0  0  0
 20 45  1  0  0  0  0
 21 22  1  0  0  0  0
 21 46  1  0  0  0  0
 22 23  2  0  0  0  0
 22 47  1  0  0  0  0
M  CHG  1  11   1
M  END
> <s_m_source_file>
AV-unprocessed.smi

> <i_m_source_file_index>
1933

> <i_lp_mmshare_version>
43012

> <i_f3d_flags>
0

> <s_epik_input>
bjFbY0hdW2NIXVtjSF1bY0hdYzFbTkhdQyg9TylbTkhdW0NIMl1bQ0BIXShbQ0BASF0yW0NIMl1bQ0gyXU9bQ0gyXTIpTjNbQ0gyXVtDSDJdT1tDSDJdW0NIMl0z

> <s_epik_cmdline>
J2VwaWtfcHl0aG9uJywgJy1waCcsICc3LjAnLCAnLXRuJywgJzgnLCAnLW1hJywgJzIwMCcsICctbWV0YWxfYmluZGluZycsICctaW1hZScsICc8aW5maWxlLm1hZT4nLCAnLW9tYWUnLCAnPG91dGZpbGUubWFlPic=

> <r_epik_Ionization_Penalty>
0.983294

> <r_epik_Ionization_Penalty_Charging>
0.98326

> <r_epik_Ionization_Penalty_Neutral>
3.39688e-05

> <r_epik_State_Penalty>
1.0303

> <r_epik_Charging_Adjusted_Penalty>
2.01356

> <i_epik_Tot_Q>
1

> <i_epik_Tot_abs_Q>
1

> <r_epik_Metal_State_Penalty>
1.0303

> <b_epik_Metal_Only>
0

> <s_lp_Force_Field>
OPLS_2005

> <r_lp_Energy>
40.1747

> <b_lp_Chiralities_Consistent>
1

> <s_lp_Variant>
AV-unprocessed.smi:1933-5

> <Gold.Version>
5.8.1

> <Gold.Id.Protein>
6NUR|6NUR_protein|mol2

> <Gold.PLP.Fitness>
47.8944

> <Gold.PLP.PLP>
-38.0053

> <Gold.PLP.part.hbond>
-3.0000

> <Gold.PLP.part.metal>
0.0000

> <Gold.PLP.part.buried>
-4.7695

> <Gold.PLP.part.nonpolar>
-31.8102

> <Gold.PLP.part.repulsive>
1.1784

> <Gold.PLP.ligand.clash>
0.0000

> <Gold.PLP.ligand.torsion>
1.1723

> <Gold.PLP.Chemscore.Hbond>
3.9588

> <Gold.PLP.Chemscore.CHOScore>
0.0000

> <Gold.PLP.Chemscore.Metal>
0.0000

> <Gold.Chemscore.Hbonds>
donor molecule, donor type, donor heavy atom, donor atom, acceptor molecule, acceptor atom, score
      L1  H    11    48       P1  7948  2.00
      L1  H    17    43       P1  8028  1.00
      P1  H 10752 10764       L1     9  1.00

> <Gold.PLP.Chemscore.Internal.Correction>
0.3573

> <Gold.Rescore>
     Score         DG    S(hbond)    S(metal)    S(lipo)     H(rot)  DE(clash)    DE(int)     intcor
     17.85     -21.35       2.75        0.00      95.77       1.77       0.93       2.57       ----

> <Gold.Chemscore.Fitness>
17.8541

> <Gold.Chemscore.DG>
-21.3518

> <Gold.Chemscore.ZeroCoef>
-5.4800

> <Gold.Chemscore.Hbond>
2.7517

> <Gold.Chemscore.Metal>
0.0000

> <Gold.Chemscore.Lipo>
95.7676

> <Gold.Chemscore.Internal_Hbond>
0.0000

> <Gold.Chemscore.DEClash>
0.9310

> <Gold.Chemscore.DEInternal>
2.5667

> <Gold.Chemscore.Rot>
1.7671

> <Gold.Chemscore.Internal.Correction>
   9.000000E+99

> <Gold.Chemscore.Hbonds>
donor molecule, donor type, donor heavy atom, donor atom, acceptor molecule, acceptor atom, score
      L1  H    11    48       P1  7948  0.94
      L1  H    17    43       P1  8028  0.89
      P1  H 10752 10764       L1     9  0.94

> <Gold.Chemscore.Hbond.Weighted>
-9.1908

> <Gold.Chemscore.Metal.Weighted>
-0.0000

> <Gold.Chemscore.Lipo.Weighted>
-11.2048

> <Gold.Chemscore.Internal_Hbond.Weighted>
0.0000

> <Gold.Chemscore.DEClash.Weighted>
0.9310

> <Gold.Chemscore.DEInternal.Weighted>
2.5667

> <Gold.Chemscore.Rot.Weighted>
4.5238

> <Gold.Chemscore.Internal.Correction.Weighted>
   9.000000E+99

> <Gold.Protein.RotatedTorsions>
[ 6907 6896 6895 6894 ] final -149.57 input  -60.11 | X-H torsion
[ 7974 7965 7964 7962 ] final   98.54 input  175.53 | X-H torsion
[ 8008 7997 7996 7995 ] final -164.98 input   59.86 | X-H torsion
[ 10167 10162 10161 10158 ] final   78.44 input  -65.29 | X-H torsion
[ 10718 10713 10712 10709 ] final   53.30 input   66.30 | X-H torsion
[ 10763 10752 10751 10750 ] final  -44.73 input  -60.55 | X-H torsion
[ 11005 11000 10999 10996 ] final  128.86 input  -57.11 | X-H torsion

> <Gold.Protein.ActiveResidues>
 VAL166  LYS551  ARG553  GLY616  TRP617  ASP618  TYR619  PRO620  LYS621  CYS622 
 ASP623  PHE694  ASN695  SER759  ASP760  ASP761  ALA762  ILE779  LEU786  VAL792 
 PHE793  MET794  SER795  GLU796  ALA797  LYS798  CYS799  TRP800  GLU811  SER814 

> <Gold.Protein.RotatedAtoms>
  151.1860  133.4696  159.2594 H   0  0  0  0  0  0  0  0  0  0  0  0  # atno 6907 bound_to 6896
  151.1211  135.0080  159.8549 H   0  0  0  0  0  0  0  0  0  0  0  0  # atno 6908 bound_to 6896
  152.5456  134.1771  159.8673 H   0  0  0  0  0  0  0  0  0  0  0  0  # atno 6909 bound_to 6896
  145.4108  139.2334  143.3249 H   0  0  0  0  0  0  0  0  0  0  0  0  # atno 7974 bound_to 7965
  155.8433  140.0951  157.1721 H   0  0  0  0  0  0  0  0  0  0  0  0  # atno 8008 bound_to 7997
  154.3982  140.1397  156.3817 H   0  0  0  0  0  0  0  0  0  0  0  0  # atno 8009 bound_to 7997
  155.8040  140.3452  155.5422 H   0  0  0  0  0  0  0  0  0  0  0  0  # atno 8010 bound_to 7997
  139.9709  144.5895  150.7986 H   0  0  0  0  0  0  0  0  0  0  0  0  # atno 10167 bound_to 10162
  157.5154  130.8529  149.8489 H   0  0  0  0  0  0  0  0  0  0  0  0  # atno 10718 bound_to 10713
  154.0169  135.6674  153.4769 H   0  0  0  0  0  0  0  0  0  0  0  0  # atno 10763 bound_to 10752
  153.0596  135.5035  154.8059 H   0  0  0  0  0  0  0  0  0  0  0  0  # atno 10764 bound_to 10752
  154.6961  135.3070  154.9374 H   0  0  0  0  0  0  0  0  0  0  0  0  # atno 10765 bound_to 10752
  139.9583  134.9608  156.9063 H   0  0  0  0  0  0  0  0  0  0  0  0  # atno 11005 bound_to 11000
  146.2706  140.4819  142.8816 LP  0  0  0  0  0  0  0  0  0  0  0  0  # atno 17320 bound_to 7965
  144.8310  140.6707  143.6291 LP  0  0  0  0  0  0  0  0  0  0  0  0  # atno 17321 bound_to 7965
  140.7522  143.2986  151.3139 LP  0  0  0  0  0  0  0  0  0  0  0  0  # atno 17342 bound_to 10162
  139.6482  144.0412  152.2606 LP  0  0  0  0  0  0  0  0  0  0  0  0  # atno 17343 bound_to 10162
  156.0317  130.3763  150.1670 LP  0  0  0  0  0  0  0  0  0  0  0  0  # atno 17370 bound_to 10713
  156.9859  130.9878  151.3426 LP  0  0  0  0  0  0  0  0  0  0  0  0  # atno 17371 bound_to 10713
  140.5557  134.0583  155.7383 LP  0  0  0  0  0  0  0  0  0  0  0  0  # atno 17394 bound_to 11000
  141.1258  133.9386  157.2638 LP  0  0  0  0  0  0  0  0  0  0  0  0  # atno 17395 bound_to 11000

$$$$
