AV-unprocessed.smi:3050|AV-procd|sdf|11631|dock6
  -GOLD-   2272017 23D 1   1.00000     0.00000
 Structure written by MMmdl.
 45 46  0  0  0  0  0  0  0  0  1 V2000
  141.4634  136.3124  153.4993 C   0  0  0  0  0  0  0  0  0  0  0  0
  142.7093  137.1839  153.2969 C   0  0  0  0  0  0  0  0  0  0  0  0
  143.7508  136.5300  152.3694 C   0  0  2  0  0  0  0  0  0  0  0  0
  143.5445  135.1182  152.4089 O   0  0  0  0  0  0  0  0  0  0  0  0
  143.9236  134.3879  151.2458 C   0  0  0  0  0  0  0  0  0  0  0  0
  143.4043  132.9542  151.3320 C   0  0  0  0  0  0  0  0  0  0  0  0
  144.2995  132.1631  150.3740 C   0  0  0  0  0  0  0  0  0  0  0  0
  145.6333  132.9245  150.3136 C   0  0  0  0  0  0  0  0  0  0  0  0
  145.4397  134.1999  151.1431 C   0  0  0  0  0  0  0  0  0  0  0  0
  145.1839  136.8794  152.8034 C   0  0  0  0  0  0  0  0  0  0  0  0
  145.9335  136.0040  153.2367 O   0  0  0  0  0  0  0  0  0  0  0  0
  145.5526  138.1624  152.6660 N   0  0  0  0  0  0  0  0  0  0  0  0
  146.8628  138.7022  153.0086 C   0  0  0  0  0  0  0  0  0  0  0  0
  146.8204  139.5155  154.3122 C   0  0  0  0  0  0  0  0  0  0  0  0
  148.1985  139.9234  154.7511 C   0  0  0  0  0  0  0  0  0  0  0  0
  149.4444  139.5608  154.1644 C   0  0  0  0  0  0  0  0  0  0  0  0
  150.4821  140.0867  154.7944 N   0  0  0  0  0  0  0  0  0  0  0  0
  149.9375  140.8005  155.8009 N   0  0  0  0  0  0  0  0  0  0  0  0
  150.8001  141.5240  156.7102 C   0  0  0  0  0  0  0  0  0  0  0  0
  148.5615  140.7213  155.7992 C   0  0  0  0  0  0  0  0  0  0  0  0
  140.7437  136.8098  154.1498 H   0  0  0  0  0  0  0  0  0  0  0  0
  141.7193  135.3570  153.9580 H   0  0  0  0  0  0  0  0  0  0  0  0
  140.9679  136.1069  152.5502 H   0  0  0  0  0  0  0  0  0  0  0  0
  142.3978  138.1437  152.8820 H   0  0  0  0  0  0  0  0  0  0  0  0
  143.1571  137.4003  154.2680 H   0  0  0  0  0  0  0  0  0  0  0  0
  143.5822  136.8909  151.3525 H   0  0  0  0  0  0  0  0  0  0  0  0
  143.5372  134.8416  150.3310 H   0  0  0  0  0  0  0  0  0  0  0  0
  143.5351  132.5752  152.3467 H   0  0  0  0  0  0  0  0  0  0  0  0
  142.3457  132.8752  151.0828 H   0  0  0  0  0  0  0  0  0  0  0  0
  144.4283  131.1311  150.7015 H   0  0  0  0  0  0  0  0  0  0  0  0
  143.8480  132.1373  149.3816 H   0  0  0  0  0  0  0  0  0  0  0  0
  146.4575  132.3268  150.7045 H   0  0  0  0  0  0  0  0  0  0  0  0
  145.8738  133.1737  149.2792 H   0  0  0  0  0  0  0  0  0  0  0  0
  145.9443  135.0599  150.7051 H   0  0  0  0  0  0  0  0  0  0  0  0
  145.8559  134.0487  152.1400 H   0  0  0  0  0  0  0  0  0  0  0  0
  144.8737  138.8123  152.2970 H   0  0  0  0  0  0  0  0  0  0  0  0
  147.5513  137.8638  153.1172 H   0  0  0  0  0  0  0  0  0  0  0  0
  147.2431  139.3126  152.1875 H   0  0  0  0  0  0  0  0  0  0  0  0
  146.1960  140.3982  154.1706 H   0  0  0  0  0  0  0  0  0  0  0  0
  146.3306  138.9275  155.0892 H   0  0  0  0  0  0  0  0  0  0  0  0
  149.6231  138.9328  153.3040 H   0  0  0  0  0  0  0  0  0  0  0  0
  150.2099  141.9675  157.5126 H   0  0  0  0  0  0  0  0  0  0  0  0
  151.3203  142.3168  156.1720 H   0  0  0  0  0  0  0  0  0  0  0  0
  151.5334  140.8441  157.1449 H   0  0  0  0  0  0  0  0  0  0  0  0
  147.9601  141.2326  156.5364 H   0  0  0  0  0  0  0  0  0  0  0  0
  1  2  1  0  0  0  0
  1 21  1  0  0  0  0
  1 22  1  0  0  0  0
  1 23  1  0  0  0  0
  2  3  1  0  0  0  0
  2 24  1  0  0  0  0
  2 25  1  0  0  0  0
  3  4  1  0  0  0  0
  3 10  1  0  0  0  0
  3 26  1  0  0  0  0
  4  5  1  0  0  0  0
  5  9  1  0  0  0  0
  5  6  1  0  0  0  0
  5 27  1  0  0  0  0
  6  7  1  0  0  0  0
  6 28  1  0  0  0  0
  6 29  1  0  0  0  0
  7  8  1  0  0  0  0
  7 30  1  0  0  0  0
  7 31  1  0  0  0  0
  8  9  1  0  0  0  0
  8 32  1  0  0  0  0
  8 33  1  0  0  0  0
  9 34  1  0  0  0  0
  9 35  1  0  0  0  0
 10 11  2  0  0  0  0
 10 12  1  0  0  0  0
 12 13  1  0  0  0  0
 12 36  1  0  0  0  0
 13 14  1  0  0  0  0
 13 37  1  0  0  0  0
 13 38  1  0  0  0  0
 14 15  1  0  0  0  0
 14 39  1  0  0  0  0
 14 40  1  0  0  0  0
 15 20  2  0  0  0  0
 15 16  1  0  0  0  0
 16 17  2  0  0  0  0
 16 41  1  0  0  0  0
 17 18  1  0  0  0  0
 18 19  1  0  0  0  0
 18 20  1  0  0  0  0
 19 42  1  0  0  0  0
 19 43  1  0  0  0  0
 19 44  1  0  0  0  0
 20 45  1  0  0  0  0
M  END
> <s_m_source_file>
AV-unprocessed.smi

> <i_m_source_file_index>
3050

> <i_lp_mmshare_version>
43012

> <i_f3d_flags>
0

> <s_epik_input>
W0NIMl0xW0NIMl1bQ0gyXVtDSDJdW0NIXTFPW0NAQEhdKFtDSDJdW0NIM10pQyg9TylbTkhdW0NIMl1bQ0gyXWMyW2NIXW5uKFtDSDNdKVtjSF0y

> <s_epik_cmdline>
J2VwaWtfcHl0aG9uJywgJy1waCcsICc3LjAnLCAnLXRuJywgJzgnLCAnLW1hJywgJzIwMCcsICctbWV0YWxfYmluZGluZycsICctaW1hZScsICc8aW5maWxlLm1hZT4nLCAnLW9tYWUnLCAnPG91dGZpbGUubWFlPic=

> <r_lp_tautomer_probability>
1

> <r_epik_Ionization_Penalty>
0.000440265

> <r_epik_Ionization_Penalty_Charging>
0

> <r_epik_Ionization_Penalty_Neutral>
0.000440265

> <r_epik_State_Penalty>
-0

> <r_epik_Charging_Adjusted_Penalty>
0

> <i_epik_Tot_Q>
0

> <i_epik_Tot_abs_Q>
0

> <r_epik_Metal_State_Penalty>
-0

> <b_epik_Metal_Only>
0

> <s_lp_Force_Field>
OPLS_2005

> <r_lp_Energy>
20.5357

> <b_lp_Chiralities_Consistent>
1

> <s_lp_Variant>
AV-unprocessed.smi:3050-1

> <Gold.Version>
5.8.1

> <Gold.Id.Protein>
6NUR|6NUR_protein|mol2

> <Gold.PLP.Fitness>
43.0125

> <Gold.PLP.PLP>
-36.9756

> <Gold.PLP.part.hbond>
-2.5640

> <Gold.PLP.part.metal>
0.0000

> <Gold.PLP.part.buried>
-3.0932

> <Gold.PLP.part.nonpolar>
-31.9954

> <Gold.PLP.part.repulsive>
0.3870

> <Gold.PLP.ligand.clash>
0.0000

> <Gold.PLP.ligand.torsion>
1.1115

> <Gold.PLP.Chemscore.Hbond>
1.9200

> <Gold.PLP.Chemscore.CHOScore>
0.7830

> <Gold.PLP.Chemscore.Metal>
0.0000

> <Gold.Chemscore.Hbonds>
donor molecule, donor type, donor heavy atom, donor atom, acceptor molecule, acceptor atom, score
      L1  H    12    36       P1 10175  0.99
      P1  H  7989  7998       L1    17  1.00
      L1  C    16    41       P1  7957  0.74

> <Gold.PLP.Chemscore.Internal.Correction>
0.1511

> <Gold.Rescore>
     Score         DG    S(hbond)    S(metal)    S(lipo)     H(rot)  DE(clash)    DE(int)     intcor
     13.17     -16.98       1.90        0.00      83.97       1.83       1.48       2.33       ----

> <Gold.Chemscore.Fitness>
13.1739

> <Gold.Chemscore.DG>
-16.9758

> <Gold.Chemscore.ZeroCoef>
-5.4800

> <Gold.Chemscore.Hbond>
1.9018

> <Gold.Chemscore.Metal>
0.0000

> <Gold.Chemscore.Lipo>
83.9728

> <Gold.Chemscore.Internal_Hbond>
0.0000

> <Gold.Chemscore.DEClash>
1.4768

> <Gold.Chemscore.DEInternal>
2.3251

> <Gold.Chemscore.Rot>
1.8286

> <Gold.Chemscore.Internal.Correction>
   9.000000E+99

> <Gold.Chemscore.Hbonds>
donor molecule, donor type, donor heavy atom, donor atom, acceptor molecule, acceptor atom, score
      L1  H    12    36       P1 10175  0.90
      P1  H  7989  7998       L1    17  0.64

> <Gold.Chemscore.Hbond.Weighted>
-6.3521

> <Gold.Chemscore.Metal.Weighted>
-0.0000

> <Gold.Chemscore.Lipo.Weighted>
-9.8248

> <Gold.Chemscore.Internal_Hbond.Weighted>
0.0000

> <Gold.Chemscore.DEClash.Weighted>
1.4768

> <Gold.Chemscore.DEInternal.Weighted>
2.3251

> <Gold.Chemscore.Rot.Weighted>
4.6811

> <Gold.Chemscore.Internal.Correction.Weighted>
   9.000000E+99

> <Gold.Protein.RotatedTorsions>
[ 6907 6896 6895 6894 ] final  136.09 input  -60.11 | X-H torsion
[ 7974 7965 7964 7962 ] final -170.65 input  175.53 | X-H torsion
[ 8008 7997 7996 7995 ] final  143.27 input   59.86 | X-H torsion
[ 10167 10162 10161 10158 ] final  -53.65 input  -65.29 | X-H torsion
[ 10718 10713 10712 10709 ] final  -28.52 input   66.30 | X-H torsion
[ 10763 10752 10751 10750 ] final   94.52 input  -60.55 | X-H torsion
[ 11005 11000 10999 10996 ] final   62.99 input  -57.11 | X-H torsion

> <Gold.Protein.ActiveResidues>
 VAL166  LYS551  ARG553  GLY616  TRP617  ASP618  TYR619  PRO620  LYS621  CYS622 
 ASP623  PHE694  ASN695  SER759  ASP760  ASP761  ALA762  ILE779  LEU786  VAL792 
 PHE793  MET794  SER795  GLU796  ALA797  LYS798  CYS799  TRP800  GLU811  SER814 

> <Gold.Protein.RotatedAtoms>
  152.2932  133.5582  159.5570 H   0  0  0  0  0  0  0  0  0  0  0  0  # atno 6907 bound_to 6896
  150.7244  134.0398  159.3771 H   0  0  0  0  0  0  0  0  0  0  0  0  # atno 6908 bound_to 6896
  151.8303  135.0624  160.0487 H   0  0  0  0  0  0  0  0  0  0  0  0  # atno 6909 bound_to 6896
  144.7167  140.2040  143.6335 H   0  0  0  0  0  0  0  0  0  0  0  0  # atno 7974 bound_to 7965
  156.2933  140.2267  156.4863 H   0  0  0  0  0  0  0  0  0  0  0  0  # atno 8008 bound_to 7997
  154.7809  140.0460  157.1147 H   0  0  0  0  0  0  0  0  0  0  0  0  # atno 8009 bound_to 7997
  154.9760  140.3072  155.4970 H   0  0  0  0  0  0  0  0  0  0  0  0  # atno 8010 bound_to 7997
  140.6473  143.2543  151.4822 H   0  0  0  0  0  0  0  0  0  0  0  0  # atno 10167 bound_to 10162
  156.4242  130.4432  149.7162 H   0  0  0  0  0  0  0  0  0  0  0  0  # atno 10718 bound_to 10713
  153.2426  135.4286  155.0714 H   0  0  0  0  0  0  0  0  0  0  0  0  # atno 10763 bound_to 10752
  154.8347  135.3406  154.6627 H   0  0  0  0  0  0  0  0  0  0  0  0  # atno 10764 bound_to 10752
  153.7050  135.7026  153.5109 H   0  0  0  0  0  0  0  0  0  0  0  0  # atno 10765 bound_to 10752
  140.0055  134.6377  155.9863 H   0  0  0  0  0  0  0  0  0  0  0  0  # atno 11005 bound_to 11000
  145.8653  139.2244  143.1692 LP  0  0  0  0  0  0  0  0  0  0  0  0  # atno 17320 bound_to 7965
  146.0135  140.8414  142.9959 LP  0  0  0  0  0  0  0  0  0  0  0  0  # atno 17321 bound_to 7965
  139.5685  144.1985  152.1801 LP  0  0  0  0  0  0  0  0  0  0  0  0  # atno 17342 bound_to 10162
  140.1274  144.5319  150.6824 LP  0  0  0  0  0  0  0  0  0  0  0  0  # atno 17343 bound_to 10162
  156.4091  130.7713  151.2725 LP  0  0  0  0  0  0  0  0  0  0  0  0  # atno 17370 bound_to 10713
  157.7508  131.0217  150.3760 LP  0  0  0  0  0  0  0  0  0  0  0  0  # atno 17371 bound_to 10713
  141.1673  133.6537  156.4526 LP  0  0  0  0  0  0  0  0  0  0  0  0  # atno 17394 bound_to 11000
  140.4650  134.6806  157.5103 LP  0  0  0  0  0  0  0  0  0  0  0  0  # atno 17395 bound_to 11000

$$$$
