AV-unprocessed.smi:1034|AV-procd|sdf|4514|dock8
  -GOLD-   22720 2523D 1   1.00000     0.00000
 Structure written by MMmdl.
 39 40  0  0  0  0  0  0  0  0  1 V2000
  147.1677  132.6675  154.0350 O   0  0  0  0  0  0  0  0  0  0  0  0
  147.6057  133.6184  153.3867 C   0  0  0  0  0  0  0  0  0  0  0  0
  148.6408  134.3704  153.7871 N   0  0  0  0  0  0  0  0  0  0  0  0
  149.3975  134.1681  155.0169 C   0  0  0  0  0  0  0  0  0  0  0  0
  150.6605  135.0440  155.0557 C   0  0  0  0  0  0  0  0  0  0  0  0
  151.0106  135.6670  156.7602 S   0  0  0  0  0  0  0  0  0  0  0  0
  149.9638  135.1572  157.6591 O   0  0  0  0  0  0  0  0  0  0  0  0
  152.4267  135.4202  157.0742 O   0  0  0  0  0  0  0  0  0  0  0  0
  150.7967  137.3925  156.6355 N   0  0  0  0  0  0  0  0  0  0  0  0
  149.4433  137.9826  156.5574 C   0  0  0  0  0  0  0  0  0  0  0  0
  149.0309  138.3471  155.1219 C   0  0  0  0  0  0  0  0  0  0  0  0
  150.1732  139.5429  154.3849 S   0  0  0  0  0  0  0  0  0  0  0  0
  151.6992  138.6043  154.6394 C   0  0  0  0  0  0  0  0  0  0  0  0
  151.8935  138.2349  156.1198 C   0  0  0  0  0  0  0  0  0  0  0  0
  147.1268  134.0422  152.2038 N   0  0  0  0  0  0  0  0  0  0  0  0
  146.0538  133.5020  151.4461 C   0  0  0  0  0  0  0  0  0  0  0  0
  145.9382  132.0942  151.4935 C   0  0  0  0  0  0  0  0  0  0  0  0
  144.9036  131.4597  150.7792 C   0  0  0  0  0  0  0  0  0  0  0  0
  144.0112  132.2498  150.0332 C   0  0  0  0  0  0  0  0  0  0  0  0
  144.1978  133.6445  150.0375 C   0  0  0  0  0  0  0  0  0  0  0  0
  145.1879  134.2549  150.7226 N   0  0  0  0  0  0  0  0  0  0  0  0
  148.9343  135.1316  153.1925 H   0  0  0  0  0  0  0  0  0  0  0  0
  148.7663  134.3679  155.8846 H   0  0  0  0  0  0  0  0  0  0  0  0
  149.6682  133.1141  155.0700 H   0  0  0  0  0  0  0  0  0  0  0  0
  151.5328  134.5157  154.6803 H   0  0  0  0  0  0  0  0  0  0  0  0
  150.5173  135.9151  154.4158 H   0  0  0  0  0  0  0  0  0  0  0  0
  148.7107  137.3040  156.9920 H   0  0  0  0  0  0  0  0  0  0  0  0
  149.4232  138.8795  157.1777 H   0  0  0  0  0  0  0  0  0  0  0  0
  148.9762  137.4617  154.4916 H   0  0  0  0  0  0  0  0  0  0  0  0
  148.0330  138.7857  155.1247 H   0  0  0  0  0  0  0  0  0  0  0  0
  151.6732  137.7148  154.0123 H   0  0  0  0  0  0  0  0  0  0  0  0
  152.5377  139.2083  154.2928 H   0  0  0  0  0  0  0  0  0  0  0  0
  151.9483  139.1432  156.7208 H   0  0  0  0  0  0  0  0  0  0  0  0
  152.8468  137.7240  156.2536 H   0  0  0  0  0  0  0  0  0  0  0  0
  147.5903  134.8386  151.7920 H   0  0  0  0  0  0  0  0  0  0  0  0
  146.6317  131.5016  152.0724 H   0  0  0  0  0  0  0  0  0  0  0  0
  144.7969  130.3854  150.8045 H   0  0  0  0  0  0  0  0  0  0  0  0
  143.2051  131.7999  149.4726 H   0  0  0  0  0  0  0  0  0  0  0  0
  143.5346  134.2871  149.4775 H   0  0  0  0  0  0  0  0  0  0  0  0
  1  2  2  0  0  0  0
  2  3  1  0  0  0  0
  2 15  1  0  0  0  0
  3  4  1  0  0  0  0
  3 22  1  0  0  0  0
  4  5  1  0  0  0  0
  4 23  1  0  0  0  0
  4 24  1  0  0  0  0
  5  6  1  0  0  0  0
  5 25  1  0  0  0  0
  5 26  1  0  0  0  0
  6  7  2  0  0  0  0
  6  8  2  0  0  0  0
  6  9  1  0  0  0  0
  9 14  1  0  0  0  0
  9 10  1  0  0  0  0
 10 11  1  0  0  0  0
 10 27  1  0  0  0  0
 10 28  1  0  0  0  0
 11 12  1  0  0  0  0
 11 29  1  0  0  0  0
 11 30  1  0  0  0  0
 12 13  1  0  0  0  0
 13 14  1  0  0  0  0
 13 31  1  0  0  0  0
 13 32  1  0  0  0  0
 14 33  1  0  0  0  0
 14 34  1  0  0  0  0
 15 16  1  0  0  0  0
 15 35  1  0  0  0  0
 16 21  1  0  0  0  0
 16 17  2  0  0  0  0
 17 18  1  0  0  0  0
 17 36  1  0  0  0  0
 18 19  2  0  0  0  0
 18 37  1  0  0  0  0
 19 20  1  0  0  0  0
 19 38  1  0  0  0  0
 20 21  2  0  0  0  0
 20 39  1  0  0  0  0
M  END
> <s_m_source_file>
AV-unprocessed.smi

> <i_m_source_file_index>
1034

> <i_lp_mmshare_version>
43012

> <i_f3d_flags>
0

> <s_epik_input>
bjFbY0hdW2NIXVtjSF1bY0hdYzFbTkhdQyg9TylbTkhdW0NIMl1bQ0gyXVMoPU8pKD1PKU4yW0NIMl1bQ0gyXVNbQ0gyXVtDSDJdMg==

> <s_epik_cmdline>
J2VwaWtfcHl0aG9uJywgJy1waCcsICc3LjAnLCAnLXRuJywgJzgnLCAnLW1hJywgJzIwMCcsICctbWV0YWxfYmluZGluZycsICctaW1hZScsICc8aW5maWxlLm1hZT4nLCAnLW9tYWUnLCAnPG91dGZpbGUubWFlPic=

> <r_lp_tautomer_probability>
1

> <r_epik_Ionization_Penalty>
3.90463e-05

> <r_epik_Ionization_Penalty_Charging>
0

> <r_epik_Ionization_Penalty_Neutral>
3.90463e-05

> <r_epik_State_Penalty>
-0

> <r_epik_Charging_Adjusted_Penalty>
0

> <i_epik_Tot_Q>
0

> <i_epik_Tot_abs_Q>
0

> <r_epik_Metal_State_Penalty>
-0

> <b_epik_Metal_Only>
0

> <s_lp_Force_Field>
OPLS_2005

> <r_lp_Energy>
-0.604615

> <b_lp_Chiralities_Consistent>
1

> <s_lp_Variant>
AV-unprocessed.smi:1034-1

> <Gold.Version>
5.8.1

> <Gold.Id.Protein>
6NUR|6NUR_protein|mol2

> <Gold.PLP.Fitness>
46.6480

> <Gold.PLP.PLP>
-33.3948

> <Gold.PLP.part.hbond>
-4.3598

> <Gold.PLP.part.metal>
0.0000

> <Gold.PLP.part.buried>
-4.0820

> <Gold.PLP.part.nonpolar>
-24.5670

> <Gold.PLP.part.repulsive>
0.2607

> <Gold.PLP.ligand.clash>
0.0000

> <Gold.PLP.ligand.torsion>
1.6578

> <Gold.PLP.Chemscore.Hbond>
3.8160

> <Gold.PLP.Chemscore.CHOScore>
0.9990

> <Gold.PLP.Chemscore.Metal>
0.0000

> <Gold.Chemscore.Hbonds>
donor molecule, donor type, donor heavy atom, donor atom, acceptor molecule, acceptor atom, score
      L1  H     3    22       P1  7948  1.00
      L1  H    15    35       P1  7948  1.00
      P1  H  6896  6907       L1     7  0.74
      P1  H 10752 10763       L1     8  0.98
      L1  C    20    39       P1 10186  0.99

> <Gold.PLP.Chemscore.Internal.Correction>
2.1237

> <Gold.Rescore>
     Score         DG    S(hbond)    S(metal)    S(lipo)     H(rot)  DE(clash)    DE(int)     intcor
     17.78     -20.84       3.35        0.00      71.42       1.63       0.07       2.99       ----

> <Gold.Chemscore.Fitness>
17.7822

> <Gold.Chemscore.DG>
-20.8374

> <Gold.Chemscore.ZeroCoef>
-5.4800

> <Gold.Chemscore.Hbond>
3.3464

> <Gold.Chemscore.Metal>
0.0000

> <Gold.Chemscore.Lipo>
71.4242

> <Gold.Chemscore.Internal_Hbond>
0.0000

> <Gold.Chemscore.DEClash>
0.0659

> <Gold.Chemscore.DEInternal>
2.9893

> <Gold.Chemscore.Rot>
1.6313

> <Gold.Chemscore.Internal.Correction>
   9.000000E+99

> <Gold.Chemscore.Hbonds>
donor molecule, donor type, donor heavy atom, donor atom, acceptor molecule, acceptor atom, score
      L1  H     3    22       P1  7948  0.35
      L1  H    15    35       P1  7948  0.57
      P1  H  6896  6907       L1     7  0.64
      P1  H 10752 10763       L1     8  0.50

> <Gold.Chemscore.Hbond.Weighted>
-11.1768

> <Gold.Chemscore.Metal.Weighted>
-0.0000

> <Gold.Chemscore.Lipo.Weighted>
-8.3566

> <Gold.Chemscore.Internal_Hbond.Weighted>
0.0000

> <Gold.Chemscore.DEClash.Weighted>
0.0659

> <Gold.Chemscore.DEInternal.Weighted>
2.9893

> <Gold.Chemscore.Rot.Weighted>
4.1761

> <Gold.Chemscore.Internal.Correction.Weighted>
   9.000000E+99

> <Gold.Protein.RotatedTorsions>
[ 6907 6896 6895 6894 ] final  -90.39 input  -60.11 | X-H torsion
[ 7974 7965 7964 7962 ] final   90.48 input  175.53 | X-H torsion
[ 8008 7997 7996 7995 ] final  106.12 input   59.86 | X-H torsion
[ 10167 10162 10161 10158 ] final  102.28 input  -65.29 | X-H torsion
[ 10718 10713 10712 10709 ] final  152.42 input   66.30 | X-H torsion
[ 10763 10752 10751 10750 ] final  108.77 input  -60.55 | X-H torsion
[ 11005 11000 10999 10996 ] final  -76.06 input  -57.11 | X-H torsion

> <Gold.Protein.ActiveResidues>
 VAL166  LYS551  ARG553  GLY616  TRP617  ASP618  TYR619  PRO620  LYS621  CYS622 
 ASP623  PHE694  ASN695  SER759  ASP760  ASP761  ALA762  ILE779  LEU786  VAL792 
 PHE793  MET794  SER795  GLU796  ALA797  LYS798  CYS799  TRP800  GLU811  SER814 

> <Gold.Protein.RotatedAtoms>
  150.6881  134.2440  159.4483 H   0  0  0  0  0  0  0  0  0  0  0  0  # atno 6907 bound_to 6896
  152.0382  134.9725  160.0583 H   0  0  0  0  0  0  0  0  0  0  0  0  # atno 6908 bound_to 6896
  152.1237  133.4333  159.4725 H   0  0  0  0  0  0  0  0  0  0  0  0  # atno 6909 bound_to 6896
  145.5184  139.2278  143.2685 H   0  0  0  0  0  0  0  0  0  0  0  0  # atno 7974 bound_to 7965
  156.1717  140.3118  155.8985 H   0  0  0  0  0  0  0  0  0  0  0  0  # atno 8008 bound_to 7997
  155.3573  140.0474  157.3063 H   0  0  0  0  0  0  0  0  0  0  0  0  # atno 8009 bound_to 7997
  154.5247  140.2210  155.8921 H   0  0  0  0  0  0  0  0  0  0  0  0  # atno 8010 bound_to 7997
  139.7363  144.7023  151.0643 H   0  0  0  0  0  0  0  0  0  0  0  0  # atno 10167 bound_to 10162
  157.2580  131.0792  151.1685 H   0  0  0  0  0  0  0  0  0  0  0  0  # atno 10718 bound_to 10713
  153.4254  135.3801  155.2137 H   0  0  0  0  0  0  0  0  0  0  0  0  # atno 10763 bound_to 10752
  154.8747  135.3827  154.4333 H   0  0  0  0  0  0  0  0  0  0  0  0  # atno 10764 bound_to 10752
  153.4858  135.7088  153.5974 H   0  0  0  0  0  0  0  0  0  0  0  0  # atno 10765 bound_to 10752
  141.1651  133.6969  156.7612 H   0  0  0  0  0  0  0  0  0  0  0  0  # atno 11005 bound_to 11000
  146.2122  140.5994  142.9054 LP  0  0  0  0  0  0  0  0  0  0  0  0  # atno 17320 bound_to 7965
  144.7689  140.5594  143.6683 LP  0  0  0  0  0  0  0  0  0  0  0  0  # atno 17321 bound_to 7965
  140.7779  143.4979  150.9809 LP  0  0  0  0  0  0  0  0  0  0  0  0  # atno 17342 bound_to 10162
  139.8668  143.7244  152.3169 LP  0  0  0  0  0  0  0  0  0  0  0  0  # atno 17343 bound_to 10162
  157.3207  130.6935  149.6267 LP  0  0  0  0  0  0  0  0  0  0  0  0  # atno 17370 bound_to 10713
  155.9664  130.4336  150.5014 LP  0  0  0  0  0  0  0  0  0  0  0  0  # atno 17371 bound_to 10713
  140.2533  134.8524  157.3688 LP  0  0  0  0  0  0  0  0  0  0  0  0  # atno 17394 bound_to 11000
  140.1682  134.4642  155.7849 LP  0  0  0  0  0  0  0  0  0  0  0  0  # atno 17395 bound_to 11000

$$$$
