#       Name:                AV-unprocessed.smi:1679
#       Creating user name   scv26
#       Creation time:       Fri Mar 27 07:48:03 2020


#       File generated by GOLD software.
#

@<TRIPOS>MOLECULE
AV-unprocessed.smi:1679
    53    54     1
SMALL
NO_CHARGES


@<TRIPOS>ATOM
      1 ****        -1.4464   0.8575   3.7463 C.3            1 S1                 0.0000
      2 ****        -1.6104   1.0059   2.2251 C.3            1 S1                 0.0000
      3 ****        -3.0767   1.3179   1.8623 C.3            1 S1                 0.0000
      4 ****        -3.2707   1.4656   0.3451 C.3            1 S1                 0.0000
      5 ****        -2.7888   0.2113  -0.3962 C.3            1 S1                 0.0000
      6 ****        -1.3268  -0.0994  -0.0489 C.3            1 S1                 0.0000
      7 ****        -1.1169  -0.2500   1.4722 C.3            1 S1                 0.0000
      8 ****         0.2750  -0.3948   1.7173 O.3            1 S1                 0.0000
      9 ****         0.7547  -1.7282   1.6220 C.3            1 S1                 0.0000
     10 ****         2.2552  -1.6832   1.3194 C.3            1 S1                 0.0000
     11 ****         2.4654  -1.1072  -0.0003 N.am           1 S1                 0.0000
     12 ****         3.6236  -1.1033  -0.6769 C.2            1 S1                 0.0000
     13 ****         4.6574  -1.5988  -0.2296 O.2            1 S1                 0.0000
     14 ****         3.6399  -0.4596  -2.0746 C.3            1 S1                 0.0000
     15 ****         2.3474   0.1010  -2.5124 N.am           1 S1                 0.0000
     16 ****         1.4898  -0.7394  -3.2444 C.2            1 S1                 0.0000
     17 ****         0.2847  -0.3227  -3.6774 C.2            1 S1                 0.0000
     18 ****        -0.1243   1.0425  -3.3717 C.2            1 S1                 0.0000
     19 ****        -1.2233   1.4388  -3.7544 O.2            1 S1                 0.0000
     20 ****         0.7434   1.8202  -2.6603 N.pl3          1 S1                -1.0000
     21 ****         1.9616   1.3794  -2.2170 C.2            1 S1                 0.0000
     22 ****         2.7191   2.0910  -1.5573 O.2            1 S1                 0.0000
     23 ****        -2.0247   0.0152   4.1270 H              1 S1                 0.0000
     24 ****        -1.7827   1.7549   4.2663 H              1 S1                 0.0000
     25 ****        -0.4032   0.6946   4.0184 H              1 S1                 0.0000
     26 ****        -1.0010   1.8531   1.9061 H              1 S1                 0.0000
     27 ****        -3.7249   0.5231   2.2341 H              1 S1                 0.0000
     28 ****        -3.3968   2.2343   2.3597 H              1 S1                 0.0000
     29 ****        -4.3211   1.6504   0.1192 H              1 S1                 0.0000
     30 ****        -2.7187   2.3359  -0.0127 H              1 S1                 0.0000
     31 ****        -3.4182  -0.6392  -0.1318 H              1 S1                 0.0000
     32 ****        -2.8919   0.3530  -1.4726 H              1 S1                 0.0000
     33 ****        -1.0111  -0.9987  -0.5774 H              1 S1                 0.0000
     34 ****        -0.6932   0.7081  -0.4154 H              1 S1                 0.0000
     35 ****        -1.6633  -1.1199   1.8429 H              1 S1                 0.0000
     36 ****         0.5647  -2.2428   2.5644 H              1 S1                 0.0000
     37 ****         0.2439  -2.2921   0.8400 H              1 S1                 0.0000
     38 ****         2.7817  -1.0920   2.0697 H              1 S1                 0.0000
     39 ****         2.6678  -2.6927   1.3494 H              1 S1                 0.0000
     40 ****         1.6676  -0.6647  -0.4346 H              1 S1                 0.0000
     41 ****         4.4167   0.3064  -2.0940 H              1 S1                 0.0000
     42 ****         3.9731  -1.2139  -2.7888 H              1 S1                 0.0000
     43 ****         1.8666  -1.7360  -3.4222 H              1 S1                 0.0000
     44 ****        -0.3638  -0.9827  -4.2346 H              1 S1                 0.0000
     45 ****         0.4662  -0.0593   2.6397 LP             1 S1                 0.0000
     46 ****         0.7691   0.1632   1.0506 LP             1 S1                 0.0000
     47 ****         4.6562  -2.0273   0.6739 LP             1 S1                 0.0000
     48 ****         5.4986  -1.5729  -0.7697 LP             1 S1                 0.0000
     49 ****        -1.8242   0.8269  -4.2686 LP             1 S1                 0.0000
     50 ****        -1.5164   2.3731  -3.5515 LP             1 S1                 0.0000
     51 ****         0.4753   2.7609  -2.4521 LP             1 S1                 0.0000
     52 ****         3.5993   1.7316  -1.2473 LP             1 S1                 0.0000
     53 ****         2.4543   3.0285  -1.3315 LP             1 S1                 0.0000
@<TRIPOS>BOND
    1    1    2 1     
    2    1   23 1     
    3    1   24 1     
    4    1   25 1     
    5    2    7 1     
    6    2    3 1     
    7    2   26 1     
    8    3    4 1     
    9    3   27 1     
   10    3   28 1     
   11    4    5 1     
   12    4   29 1     
   13    4   30 1     
   14    5    6 1     
   15    5   31 1     
   16    5   32 1     
   17    6    7 1     
   18    6   33 1     
   19    6   34 1     
   20    7    8 1     
   21    7   35 1     
   22    8    9 1     
   23    9   10 1     
   24    9   36 1     
   25    9   37 1     
   26   10   11 1     
   27   10   38 1     
   28   10   39 1     
   29   11   12 am    
   30   11   40 1     
   31   12   13 2     
   32   12   14 1     
   33   14   15 1     
   34   14   41 1     
   35   14   42 1     
   36   15   21 am    
   37   15   16 1     
   38   16   17 2     
   39   16   43 1     
   40   17   18 1     
   41   17   44 1     
   42   18   19 2     
   43   18   20 1     
   44   20   21 1     
   45   21   22 2     
   46    8   45 1     
   47    8   46 1     
   48   13   47 1     
   49   13   48 1     
   50   19   49 1     
   51   19   50 1     
   52   20   51 1     
   53   22   52 1     
   54   22   53 1     
@<TRIPOS>SUBSTRUCTURE
      1 S1             1
@<TRIPOS>SET
LONE_PAIRS      STATIC     ATOMS    <user>   **** ""
9 45 46 47 48 49 50 51 52 53
DONOR_HYDROGENS      STATIC     ATOMS    <user>   **** ""
1 40
ATOM$BLUE        STATIC     ATOMS    COLORGROUP SYSTEM
9 45 46 47 48 49 50 51 52 53
ATOM$RED        STATIC     ATOMS    COLORGROUP SYSTEM
1 40
