#       Name:                AV-unprocessed.smi:881
#       Creating user name   scv26
#       Creation time:       Fri Mar 27 01:52:58 2020


#       File generated by GOLD software.
#

@<TRIPOS>MOLECULE
AV-unprocessed.smi:881
    36    37     1
SMALL
NO_CHARGES


@<TRIPOS>ATOM
      1 ****         2.4220   0.1388  -0.5709 O.2            1 S1                 0.0000
      2 ****         1.8875  -0.9247  -0.2483 C.2            1 S1                 0.0000
      3 ****         2.5157  -2.1030  -0.0313 N.pl3          1 S1                -1.0000
      4 ****         3.8503  -2.1861  -0.1581 C.2            1 S1                 0.0000
      5 ****         4.6772  -2.1274   0.8982 N.2            1 S1                 0.0000
      6 ****         6.0166  -2.2365   0.5499 N.2            1 S1                 0.0000
      7 ****         6.1658  -2.3846  -0.7662 C.2            1 S1                 0.0000
      8 ****         4.6843  -2.4075  -1.6991 S.3            1 S1                 0.0000
      9 ****         0.5580  -0.9843  -0.0802 N.am           1 S1                 0.0000
     10 ****        -0.3892   0.1171  -0.2472 C.3            1 S1                 0.0000
     11 ****        -0.4401   0.9464   1.0530 C.3            1 S1                 0.0000
     12 ****        -1.4344   2.1204   1.0454 C.3            1 S1                 0.0000
     13 ****        -2.8959   1.6631   1.1772 C.3            1 S1                 0.0000
     14 ****        -3.5940   1.2947  -0.1436 C.3            1 S1                 0.0000
     15 ****        -2.7280   0.5983  -1.2080 C.3            1 S1                 0.0000
     16 ****        -1.7515  -0.4655  -0.6783 C.3            1 S1                 0.0000
     17 ****         7.1539  -2.4841  -1.1900 H              1 S1                 0.0000
     18 ****         0.1698  -1.8770   0.1862 H              1 S1                 0.0000
     19 ****        -0.0303   0.7570  -1.0555 H              1 S1                 0.0000
     20 ****        -0.6535   0.2939   1.9010 H              1 S1                 0.0000
     21 ****         0.5548   1.3517   1.2421 H              1 S1                 0.0000
     22 ****        -1.2030   2.7514   1.9040 H              1 S1                 0.0000
     23 ****        -1.2945   2.7515   0.1670 H              1 S1                 0.0000
     24 ****        -2.9491   0.8187   1.8654 H              1 S1                 0.0000
     25 ****        -3.4748   2.4554   1.6528 H              1 S1                 0.0000
     26 ****        -4.4516   0.6629   0.0903 H              1 S1                 0.0000
     27 ****        -4.0112   2.1987  -0.5890 H              1 S1                 0.0000
     28 ****        -3.4000   0.1312  -1.9290 H              1 S1                 0.0000
     29 ****        -2.1755   1.3463  -1.7780 H              1 S1                 0.0000
     30 ****        -1.5733  -1.1746  -1.4883 H              1 S1                 0.0000
     31 ****        -2.2060  -1.0436   0.1274 H              1 S1                 0.0000
     32 ****         3.4132   0.1826  -0.6957 LP             1 S1                 0.0000
     33 ****         1.8642   0.9575  -0.7077 LP             1 S1                 0.0000
     34 ****         1.9864  -2.9122   0.2236 LP             1 S1                 0.0000
     35 ****         4.3604  -2.0163   1.8402 LP             1 S1                 0.0000
     36 ****         6.7731  -2.2076   1.2033 LP             1 S1                 0.0000
@<TRIPOS>BOND
    1    1    2 2     
    2    2    3 1     
    3    2    9 am    
    4    3    4 1     
    5    4    8 1     
    6    4    5 2     
    7    5    6 1     
    8    6    7 2     
    9    7    8 1     
   10    7   17 1     
   11    9   10 1     
   12    9   18 1     
   13   10   16 1     
   14   10   11 1     
   15   10   19 1     
   16   11   12 1     
   17   11   20 1     
   18   11   21 1     
   19   12   13 1     
   20   12   22 1     
   21   12   23 1     
   22   13   14 1     
   23   13   24 1     
   24   13   25 1     
   25   14   15 1     
   26   14   26 1     
   27   14   27 1     
   28   15   16 1     
   29   15   28 1     
   30   15   29 1     
   31   16   30 1     
   32   16   31 1     
   33    1   32 1     
   34    1   33 1     
   35    3   34 1     
   36    5   35 1     
   37    6   36 1     
@<TRIPOS>SUBSTRUCTURE
      1 S1             1
@<TRIPOS>SET
LONE_PAIRS      STATIC     ATOMS    <user>   **** ""
5 32 33 34 35 36
DONOR_HYDROGENS      STATIC     ATOMS    <user>   **** ""
1 18
ATOM$BLUE        STATIC     ATOMS    COLORGROUP SYSTEM
5 32 33 34 35 36
ATOM$RED        STATIC     ATOMS    COLORGROUP SYSTEM
1 18
