#       Name:                AV-unprocessed.smi:1778
#       Creating user name   scv26
#       Creation time:       Fri Mar 27 08:41:51 2020


#       File generated by GOLD software.
#

@<TRIPOS>MOLECULE
AV-unprocessed.smi:1778
    39    40     1
SMALL
NO_CHARGES


@<TRIPOS>ATOM
      1 ****        -1.4127   2.3371   1.6046 C.3            1 S1                 0.0000
      2 ****        -2.3778   1.2036   1.4046 C.2            1 S1                 0.0000
      3 ****        -3.6285   1.4731   1.0707 N.2            1 S1                 0.0000
      4 ****        -4.2678   0.2362   0.9449 O.3            1 S1                 0.0000
      5 ****        -3.3648  -0.7419   1.2092 C.2            1 S1                 0.0000
      6 ****        -3.8512  -2.1489   1.1189 C.3            1 S1                 0.0000
      7 ****        -2.1458  -0.1992   1.5088 C.2            1 S1                 0.0000
      8 ****        -0.8654  -0.9147   1.8565 C.3            1 S1                 0.0000
      9 ****        -0.0590  -1.1745   0.5845 C.2            1 S1                 0.0000
     10 ****        -0.0594  -2.2932   0.0717 O.2            1 S1                 0.0000
     11 ****         0.6210  -0.1310   0.0856 N.am           1 S1                 0.0000
     12 ****         1.4300  -0.1577  -1.1275 C.3            1 S1                 0.0000
     13 ****         2.8174  -0.7865  -0.8863 C.3            1 S1                 0.0000
     14 ****         3.7269  -0.4385  -2.0709 C.3            1 S1                 0.0000
     15 ****         3.1588   1.1917  -2.6880 S.o2           1 S1                 0.0000
     16 ****         4.0875   2.2404  -2.2400 O.2            1 S1                 0.0000
     17 ****         2.7896   1.0621  -4.1057 O.2            1 S1                 0.0000
     18 ****         1.6397   1.2640  -1.6664 C.3            1 S1                 0.0000
     19 ****        -1.0475   2.7096   0.6474 H              1 S1                 0.0000
     20 ****        -0.5480   2.0268   2.1904 H              1 S1                 0.0000
     21 ****        -1.8820   3.1696   2.1296 H              1 S1                 0.0000
     22 ****        -3.3160  -2.6906   0.3388 H              1 S1                 0.0000
     23 ****        -4.9156  -2.1843   0.8861 H              1 S1                 0.0000
     24 ****        -3.6945  -2.6727   2.0618 H              1 S1                 0.0000
     25 ****        -0.2582  -0.3389   2.5555 H              1 S1                 0.0000
     26 ****        -1.0658  -1.8670   2.3492 H              1 S1                 0.0000
     27 ****         0.5610   0.7496   0.5756 H              1 S1                 0.0000
     28 ****         0.9168  -0.7365  -1.8980 H              1 S1                 0.0000
     29 ****         3.2505  -0.3629   0.0211 H              1 S1                 0.0000
     30 ****         2.7551  -1.8648  -0.7352 H              1 S1                 0.0000
     31 ****         4.7818  -0.3938  -1.7993 H              1 S1                 0.0000
     32 ****         3.6050  -1.1630  -2.8766 H              1 S1                 0.0000
     33 ****         0.8009   1.6219  -2.2640 H              1 S1                 0.0000
     34 ****         1.8190   1.9735  -0.8577 H              1 S1                 0.0000
     35 ****        -4.0343   2.3771   0.9357 LP             1 S1                 0.0000
     36 ****        -4.6179   0.1301   0.0142 LP             1 S1                 0.0000
     37 ****        -5.0260   0.1804   1.5945 LP             1 S1                 0.0000
     38 ****        -0.5878  -3.0335   0.4873 LP             1 S1                 0.0000
     39 ****         0.4686  -2.4619  -0.7606 LP             1 S1                 0.0000
@<TRIPOS>BOND
    1    1    2 1     
    2    1   19 1     
    3    1   20 1     
    4    1   21 1     
    5    2    7 1     
    6    2    3 2     
    7    3    4 1     
    8    4    5 1     
    9    5    6 1     
   10    5    7 2     
   11    6   22 1     
   12    6   23 1     
   13    6   24 1     
   14    7    8 1     
   15    8    9 1     
   16    8   25 1     
   17    8   26 1     
   18    9   10 2     
   19    9   11 am    
   20   11   12 1     
   21   11   27 1     
   22   12   18 1     
   23   12   13 1     
   24   12   28 1     
   25   13   14 1     
   26   13   29 1     
   27   13   30 1     
   28   14   15 1     
   29   14   31 1     
   30   14   32 1     
   31   15   16 2     
   32   15   17 2     
   33   15   18 1     
   34   18   33 1     
   35   18   34 1     
   36    3   35 1     
   37    4   36 1     
   38    4   37 1     
   39   10   38 1     
   40   10   39 1     
@<TRIPOS>SUBSTRUCTURE
      1 S1             1
@<TRIPOS>SET
LONE_PAIRS      STATIC     ATOMS    <user>   **** ""
7 35 36 37 38 39 16 17
DONOR_HYDROGENS      STATIC     ATOMS    <user>   **** ""
1 27
ATOM$BLUE        STATIC     ATOMS    COLORGROUP SYSTEM
7 35 36 37 38 39 16 17
ATOM$RED        STATIC     ATOMS    COLORGROUP SYSTEM
1 27
