#       Name:                AV-unprocessed.smi:2299
#       Creating user name   scv26
#       Creation time:       Fri Mar 27 12:45:09 2020


#       File generated by GOLD software.
#

@<TRIPOS>MOLECULE
AV-unprocessed.smi:2299
    47    48     1
SMALL
NO_CHARGES


@<TRIPOS>ATOM
      1 ****        -0.7221  -2.6945   0.7101 C.3            1 S1                 0.0000
      2 ****        -0.0961  -2.8751  -0.6804 C.3            1 S1                 0.0000
      3 ****        -0.6567  -4.1052  -1.4089 C.3            1 S1                 0.0000
      4 ****         1.4071  -2.9101  -0.6075 C.2            1 S1                 0.0000
      5 ****         2.0800  -3.8885  -0.0059 N.2            1 S1                 0.0000
      6 ****         3.4189  -3.5426  -0.1366 C.2            1 S1                 0.0000
      7 ****         3.5145  -2.3534  -0.8155 C.2            1 S1                 0.0000
      8 ****         2.2173  -1.9518  -1.1117 N.pl3          1 S1                 0.0000
      9 ****         1.8671  -0.7267  -1.8158 C.3            1 S1                 0.0000
     10 ****         1.4810   0.3801  -0.8329 C.2            1 S1                 0.0000
     11 ****         2.3521   0.9537  -0.1793 O.2            1 S1                 0.0000
     12 ****         0.1729   0.6618  -0.7316 N.am           1 S1                 0.0000
     13 ****        -0.4267   1.6271   0.1896 C.3            1 S1                 0.0000
     14 ****        -0.3694   3.0489  -0.4118 C.3            1 S1                 0.0000
     15 ****        -0.4453   4.1715   0.6360 C.3            1 S1                 0.0000
     16 ****        -1.7528   4.2173   1.4411 C.3            1 S1                 0.0000
     17 ****        -1.9722   2.9863   2.3380 C.3            1 S1                 0.0000
     18 ****        -2.4666   1.8335   1.5954 N.am           1 S1                 0.0000
     19 ****        -1.8376   1.1742   0.6106 C.2            1 S1                 0.0000
     20 ****        -2.3820   0.2256   0.0459 O.2            1 S1                 0.0000
     21 ****        -0.3639  -1.7798   1.1833 H              1 S1                 0.0000
     22 ****        -0.4785  -3.5288   1.3687 H              1 S1                 0.0000
     23 ****        -1.8085  -2.6272   0.6466 H              1 S1                 0.0000
     24 ****        -0.4007  -2.0132  -1.2698 H              1 S1                 0.0000
     25 ****        -0.2477  -4.1828  -2.4168 H              1 S1                 0.0000
     26 ****        -1.7419  -4.0481  -1.4971 H              1 S1                 0.0000
     27 ****        -0.4152  -5.0272  -0.8790 H              1 S1                 0.0000
     28 ****         4.2017  -4.1679   0.2666 H              1 S1                 0.0000
     29 ****         4.3774  -1.7694  -1.0999 H              1 S1                 0.0000
     30 ****         2.7280  -0.3979  -2.3992 H              1 S1                 0.0000
     31 ****         1.0688  -0.9261  -2.5314 H              1 S1                 0.0000
     32 ****        -0.4698   0.1371  -1.3074 H              1 S1                 0.0000
     33 ****         0.1794   1.6121   1.0975 H              1 S1                 0.0000
     34 ****         0.5672   3.1778  -0.9561 H              1 S1                 0.0000
     35 ****        -1.1596   3.1745  -1.1535 H              1 S1                 0.0000
     36 ****         0.4001   4.0873   1.3200 H              1 S1                 0.0000
     37 ****        -0.3194   5.1273   0.1265 H              1 S1                 0.0000
     38 ****        -1.7231   5.1025   2.0775 H              1 S1                 0.0000
     39 ****        -2.6046   4.3584   0.7744 H              1 S1                 0.0000
     40 ****        -1.0633   2.7278   2.8831 H              1 S1                 0.0000
     41 ****        -2.7227   3.2239   3.0923 H              1 S1                 0.0000
     42 ****        -3.3886   1.5069   1.8467 H              1 S1                 0.0000
     43 ****         1.7028  -4.6983   0.4434 LP             1 S1                 0.0000
     44 ****         3.3119   0.6962  -0.2909 LP             1 S1                 0.0000
     45 ****         2.1000   1.6773   0.4633 LP             1 S1                 0.0000
     46 ****        -1.9082  -0.2563  -0.6912 LP             1 S1                 0.0000
     47 ****        -3.2980  -0.0631   0.3242 LP             1 S1                 0.0000
@<TRIPOS>BOND
    1    1    2 1     
    2    1   21 1     
    3    1   22 1     
    4    1   23 1     
    5    2    3 1     
    6    2    4 1     
    7    2   24 1     
    8    3   25 1     
    9    3   26 1     
   10    3   27 1     
   11    4    8 1     
   12    4    5 2     
   13    5    6 1     
   14    6    7 2     
   15    6   28 1     
   16    7    8 1     
   17    7   29 1     
   18    8    9 1     
   19    9   10 1     
   20    9   30 1     
   21    9   31 1     
   22   10   11 2     
   23   10   12 am    
   24   12   13 1     
   25   12   32 1     
   26   13   19 1     
   27   13   14 1     
   28   13   33 1     
   29   14   15 1     
   30   14   34 1     
   31   14   35 1     
   32   15   16 1     
   33   15   36 1     
   34   15   37 1     
   35   16   17 1     
   36   16   38 1     
   37   16   39 1     
   38   17   18 1     
   39   17   40 1     
   40   17   41 1     
   41   18   19 am    
   42   18   42 1     
   43   19   20 2     
   44    5   43 1     
   45   11   44 1     
   46   11   45 1     
   47   20   46 1     
   48   20   47 1     
@<TRIPOS>SUBSTRUCTURE
      1 S1             1
@<TRIPOS>SET
LONE_PAIRS      STATIC     ATOMS    <user>   **** ""
5 43 44 45 46 47
DONOR_HYDROGENS      STATIC     ATOMS    <user>   **** ""
2 32 42
ATOM$BLUE        STATIC     ATOMS    COLORGROUP SYSTEM
5 43 44 45 46 47
ATOM$RED        STATIC     ATOMS    COLORGROUP SYSTEM
2 32 42
