AV-unprocessed.smi:1239|AV-procd|sdf|5193|dock5
  -GOLD-   22720 4273D 1   1.00000     0.00000
 Structure written by MMmdl.
 48 49  0  0  0  0  0  0  0  0  4 V2000
  150.6233  135.5446  156.5166 C   0  0  0  0  0  0  0  0  0  0  0  0
  150.3955  135.9170  155.0296 C   0  0  2  0  0  0  0  0  0  0  0  0
  150.2716  137.4438  154.7651 C   0  0  0  0  0  0  0  0  0  0  0  0
  151.4749  138.1575  155.1961 N   0  5  0  0  0  0  0  0  0  0  0  0
  151.4891  139.3968  155.7563 C   0  0  0  0  0  0  0  0  0  0  0  0
  151.1835  140.4679  155.2200 O   0  0  0  0  0  0  0  0  0  0  0  0
  151.9258  139.3693  157.0280 N   0  0  0  0  0  0  0  0  0  0  0  0
  152.0490  140.4324  157.9628 C   0  0  0  0  0  0  0  0  0  0  0  0
  152.7120  140.1637  159.1775 C   0  0  0  0  0  0  0  0  0  0  0  0
  152.8380  141.1787  160.1479 C   0  0  0  0  0  0  0  0  0  0  0  0
  152.2881  142.4608  159.9018 C   0  0  0  0  0  0  0  0  0  0  0  0
  152.3701  143.5270  160.8236 N   0  0  0  0  0  0  0  0  0  0  0  0
  151.9600  144.8670  160.4186 C   0  0  0  0  0  0  0  0  0  0  0  0
  152.7765  143.2659  162.1982 C   0  0  0  0  0  0  0  0  0  0  0  0
  151.6482  142.6667  158.7247 N   0  3  0  0  0  0  0  0  0  0  0  0
  151.5055  141.7239  157.7683 C   0  0  0  0  0  0  0  0  0  0  0  0
  149.2435  135.1851  154.4168 N   0  3  0  0  0  0  0  0  0  0  0  0
  149.4699  133.7244  154.2836 C   0  0  0  0  0  0  0  0  0  0  0  0
  148.3294  133.0806  153.4767 C   0  0  0  0  0  0  0  0  0  0  0  0
  147.0803  133.3586  154.0981 O   0  0  0  0  0  0  0  0  0  0  0  0
  146.8147  134.7548  154.1617 C   0  0  0  0  0  0  0  0  0  0  0  0
  147.8993  135.4441  155.0046 C   0  0  0  0  0  0  0  0  0  0  0  0
  151.5559  135.9616  156.9011 H   0  0  0  0  0  0  0  0  0  0  0  0
  150.6964  134.4639  156.6388 H   0  0  0  0  0  0  0  0  0  0  0  0
  149.8205  135.8950  157.1677 H   0  0  0  0  0  0  0  0  0  0  0  0
  151.2863  135.5926  154.4895 H   0  0  0  0  0  0  0  0  0  0  0  0
  150.0726  137.6025  153.7039 H   0  0  0  0  0  0  0  0  0  0  0  0
  149.3866  137.8205  155.2777 H   0  0  0  0  0  0  0  0  0  0  0  0
  152.2470  138.4682  157.3505 H   0  0  0  0  0  0  0  0  0  0  0  0
  153.1274  139.1844  159.3667 H   0  0  0  0  0  0  0  0  0  0  0  0
  153.3547  140.9528  161.0686 H   0  0  0  0  0  0  0  0  0  0  0  0
  150.9102  144.8734  160.1229 H   0  0  0  0  0  0  0  0  0  0  0  0
  152.5601  145.2132  159.5765 H   0  0  0  0  0  0  0  0  0  0  0  0
  152.0830  145.5830  161.2317 H   0  0  0  0  0  0  0  0  0  0  0  0
  153.7855  142.8535  162.2281 H   0  0  0  0  0  0  0  0  0  0  0  0
  152.0953  142.5576  162.6709 H   0  0  0  0  0  0  0  0  0  0  0  0
  152.7736  144.1795  162.7930 H   0  0  0  0  0  0  0  0  0  0  0  0
  150.9503  142.0398  156.8981 H   0  0  0  0  0  0  0  0  0  0  0  0
  150.4176  133.5343  153.7783 H   0  0  0  0  0  0  0  0  0  0  0  0
  149.5351  133.2696  155.2730 H   0  0  0  0  0  0  0  0  0  0  0  0
  148.3256  133.4475  152.4491 H   0  0  0  0  0  0  0  0  0  0  0  0
  148.4673  132.0005  153.4278 H   0  0  0  0  0  0  0  0  0  0  0  0
  146.7725  135.1786  153.1570 H   0  0  0  0  0  0  0  0  0  0  0  0
  145.8344  134.9069  154.6136 H   0  0  0  0  0  0  0  0  0  0  0  0
  147.8531  135.0642  156.0260 H   0  0  0  0  0  0  0  0  0  0  0  0
  147.6973  136.5145  155.0504 H   0  0  0  0  0  0  0  0  0  0  0  0
  151.2446  143.5871  158.5507 H   0  0  0  0  0  0  0  0  0  0  0  0
  149.2030  135.5311  153.4684 H   0  0  0  0  0  0  0  0  0  0  0  0
  1  2  1  0  0  0  0
  1 23  1  0  0  0  0
  1 24  1  0  0  0  0
  1 25  1  0  0  0  0
  2  3  1  0  0  0  0
  2 17  1  0  0  0  0
  2 26  1  0  0  0  0
  3  4  1  0  0  0  0
  3 27  1  0  0  0  0
  3 28  1  0  0  0  0
  4  5  1  0  0  0  0
  5  6  2  0  0  0  0
  5  7  1  0  0  0  0
  7  8  1  0  0  0  0
  7 29  1  0  0  0  0
  8 16  1  0  0  0  0
  8  9  2  0  0  0  0
  9 10  1  0  0  0  0
  9 30  1  0  0  0  0
 10 11  2  0  0  0  0
 10 31  1  0  0  0  0
 11 12  1  0  0  0  0
 11 15  1  0  0  0  0
 12 13  1  0  0  0  0
 12 14  1  0  0  0  0
 13 32  1  0  0  0  0
 13 33  1  0  0  0  0
 13 34  1  0  0  0  0
 14 35  1  0  0  0  0
 14 36  1  0  0  0  0
 14 37  1  0  0  0  0
 15 16  2  0  0  0  0
 15 47  1  0  0  0  0
 16 38  1  0  0  0  0
 17 22  1  0  0  0  0
 17 18  1  0  0  0  0
 17 48  1  0  0  0  0
 18 19  1  0  0  0  0
 18 39  1  0  0  0  0
 18 40  1  0  0  0  0
 19 20  1  0  0  0  0
 19 41  1  0  0  0  0
 19 42  1  0  0  0  0
 20 21  1  0  0  0  0
 21 22  1  0  0  0  0
 21 43  1  0  0  0  0
 21 44  1  0  0  0  0
 22 45  1  0  0  0  0
 22 46  1  0  0  0  0
M  CHG  1   4  -1
M  CHG  1  15   1
M  CHG  1  17   1
M  END
> <s_m_source_file>
AV-unprocessed.smi

> <i_m_source_file_index>
1239

> <i_lp_mmshare_version>
43012

> <i_f3d_flags>
0

> <s_epik_input>
W0NIMl0xW0NIMl1PW0NIMl1bQ0gyXU4xW0NASF0oW0NIM10pW0NIMl1bTkhdQyg9TylbTkhdYzJbY0hdW2NIXWMoTihbQ0gzXSlbQ0gzXSluW2NIXTI=

> <s_epik_cmdline>
J2VwaWtfcHl0aG9uJywgJy1waCcsICc3LjAnLCAnLXRuJywgJzgnLCAnLW1hJywgJzIwMCcsICctbWV0YWxfYmluZGluZycsICctaW1hZScsICc8aW5maWxlLm1hZT4nLCAnLW9tYWUnLCAnPG91dGZpbGUubWFlPic=

> <r_lp_tautomer_probability>
0.999994

> <r_epik_Ionization_Penalty>
7.43905

> <r_epik_Ionization_Penalty_Charging>
7.43905

> <r_epik_Ionization_Penalty_Neutral>
3.43851e-06

> <r_epik_State_Penalty>
7.63789

> <r_epik_Charging_Adjusted_Penalty>
15.0769

> <i_epik_Tot_Q>
1

> <i_epik_Tot_abs_Q>
3

> <r_epik_Metal_State_Penalty>
3.83826

> <b_epik_Metal_Only>
1

> <s_lp_Force_Field>
OPLS_2005

> <r_lp_Energy>
24.2949

> <b_lp_Chiralities_Consistent>
1

> <s_lp_Variant>
AV-unprocessed.smi:1239-9

> <Gold.Version>
5.8.1

> <Gold.Id.Protein>
6NUR|6NUR_protein|mol2

> <Gold.PLP.Fitness>
50.2591

> <Gold.PLP.PLP>
-43.0466

> <Gold.PLP.part.hbond>
-2.0000

> <Gold.PLP.part.metal>
0.0000

> <Gold.PLP.part.buried>
-6.6891

> <Gold.PLP.part.nonpolar>
-34.3453

> <Gold.PLP.part.repulsive>
0.3378

> <Gold.PLP.ligand.clash>
0.0000

> <Gold.PLP.ligand.torsion>
0.9831

> <Gold.PLP.Chemscore.Hbond>
2.9760

> <Gold.PLP.Chemscore.CHOScore>
0.0000

> <Gold.PLP.Chemscore.Metal>
0.0000

> <Gold.Chemscore.Hbonds>
donor molecule, donor type, donor heavy atom, donor atom, acceptor molecule, acceptor atom, score
      L1  H    17    48       P1  7948  2.00
      P1  H  7989  7998       L1     6  0.96

> <Gold.PLP.Chemscore.Internal.Correction>
0.2508

> <Gold.Rescore>
     Score         DG    S(hbond)    S(metal)    S(lipo)     H(rot)  DE(clash)    DE(int)     intcor
     15.36     -17.73       1.88        0.00      83.51       1.48       0.03       2.34       ----

> <Gold.Chemscore.Fitness>
15.3613

> <Gold.Chemscore.DG>
-17.7327

> <Gold.Chemscore.ZeroCoef>
-5.4800

> <Gold.Chemscore.Hbond>
1.8799

> <Gold.Chemscore.Metal>
0.0000

> <Gold.Chemscore.Lipo>
83.5066

> <Gold.Chemscore.Internal_Hbond>
0.0000

> <Gold.Chemscore.DEClash>
0.0283

> <Gold.Chemscore.DEInternal>
2.3431

> <Gold.Chemscore.Rot>
1.4830

> <Gold.Chemscore.Internal.Correction>
   9.000000E+99

> <Gold.Chemscore.Hbonds>
donor molecule, donor type, donor heavy atom, donor atom, acceptor molecule, acceptor atom, score
      L1  H    17    48       P1  7948  0.45
      P1  H  7989  7998       L1     6  0.92

> <Gold.Chemscore.Hbond.Weighted>
-6.2788

> <Gold.Chemscore.Metal.Weighted>
-0.0000

> <Gold.Chemscore.Lipo.Weighted>
-9.7703

> <Gold.Chemscore.Internal_Hbond.Weighted>
0.0000

> <Gold.Chemscore.DEClash.Weighted>
0.0283

> <Gold.Chemscore.DEInternal.Weighted>
2.3431

> <Gold.Chemscore.Rot.Weighted>
3.7964

> <Gold.Chemscore.Internal.Correction.Weighted>
   9.000000E+99

> <Gold.Protein.RotatedTorsions>
[ 6907 6896 6895 6894 ] final   42.32 input  -60.11 | X-H torsion
[ 7974 7965 7964 7962 ] final   79.42 input  175.53 | X-H torsion
[ 8008 7997 7996 7995 ] final -168.98 input   59.86 | X-H torsion
[ 10167 10162 10161 10158 ] final   85.82 input  -65.29 | X-H torsion
[ 10718 10713 10712 10709 ] final  -22.28 input   66.30 | X-H torsion
[ 10763 10752 10751 10750 ] final  -20.48 input  -60.55 | X-H torsion
[ 11005 11000 10999 10996 ] final   23.41 input  -57.11 | X-H torsion

> <Gold.Protein.ActiveResidues>
 VAL166  LYS551  ARG553  GLY616  TRP617  ASP618  TYR619  PRO620  LYS621  CYS622 
 ASP623  PHE694  ASN695  SER759  ASP760  ASP761  ALA762  ILE779  LEU786  VAL792 
 PHE793  MET794  SER795  GLU796  ALA797  LYS798  CYS799  TRP800  GLU811  SER814 

> <Gold.Protein.RotatedAtoms>
  152.2064  134.8541  160.0502 H   0  0  0  0  0  0  0  0  0  0  0  0  # atno 6907 bound_to 6896
  151.9376  133.3623  159.3961 H   0  0  0  0  0  0  0  0  0  0  0  0  # atno 6908 bound_to 6896
  150.6966  134.4397  159.5330 H   0  0  0  0  0  0  0  0  0  0  0  0  # atno 6909 bound_to 6896
  145.6644  139.2480  143.1904 H   0  0  0  0  0  0  0  0  0  0  0  0  # atno 7974 bound_to 7965
  155.8988  140.1037  157.1365 H   0  0  0  0  0  0  0  0  0  0  0  0  # atno 8008 bound_to 7997
  154.4024  140.1296  156.4474 H   0  0  0  0  0  0  0  0  0  0  0  0  # atno 8009 bound_to 7997
  155.7447  140.3466  155.5123 H   0  0  0  0  0  0  0  0  0  0  0  0  # atno 8010 bound_to 7997
  139.8938  144.6370  150.8710 H   0  0  0  0  0  0  0  0  0  0  0  0  # atno 10167 bound_to 10162
  156.5067  130.4600  149.6671 H   0  0  0  0  0  0  0  0  0  0  0  0  # atno 10718 bound_to 10713
  153.6210  135.6992  153.5310 H   0  0  0  0  0  0  0  0  0  0  0  0  # atno 10763 bound_to 10752
  153.2937  135.4149  155.1190 H   0  0  0  0  0  0  0  0  0  0  0  0  # atno 10764 bound_to 10752
  154.8543  135.3632  154.5751 H   0  0  0  0  0  0  0  0  0  0  0  0  # atno 10765 bound_to 10752
  140.3699  134.2034  155.7667 H   0  0  0  0  0  0  0  0  0  0  0  0  # atno 11005 bound_to 11000
  146.1098  140.7442  142.9508 LP  0  0  0  0  0  0  0  0  0  0  0  0  # atno 17320 bound_to 7965
  144.7078  140.3921  143.7104 LP  0  0  0  0  0  0  0  0  0  0  0  0  # atno 17321 bound_to 7965
  140.7721  143.3489  151.2054 LP  0  0  0  0  0  0  0  0  0  0  0  0  # atno 17342 bound_to 10162
  139.7086  143.9415  152.2937 LP  0  0  0  0  0  0  0  0  0  0  0  0  # atno 17343 bound_to 10162
  156.3280  130.7316  151.2240 LP  0  0  0  0  0  0  0  0  0  0  0  0  # atno 17370 bound_to 10713
  157.7456  131.0437  150.4759 LP  0  0  0  0  0  0  0  0  0  0  0  0  # atno 17371 bound_to 10713
  141.1958  133.8097  157.0700 LP  0  0  0  0  0  0  0  0  0  0  0  0  # atno 17394 bound_to 11000
  140.0560  134.9780  157.1221 LP  0  0  0  0  0  0  0  0  0  0  0  0  # atno 17395 bound_to 11000

$$$$
