AV-unprocessed.smi:2617|AV-procd|sdf|10217|dock7
  -GOLD-   2272014223D 1   1.00000     0.00000
 Structure written by MMmdl.
 35 35  0  0  0  0  0  0  0  0  1 V2000
  146.1305  132.9243  150.0538 C   0  0  0  0  0  0  0  0  0  0  0  0
  145.5479  134.3105  149.7625 C   0  0  0  0  0  0  0  0  0  0  0  0
  145.4694  135.1885  151.0227 C   0  0  0  0  0  0  0  0  0  0  0  0
  144.1058  135.4344  151.4480 N   0  0  0  0  0  0  0  0  0  0  0  0
  143.6038  136.7041  151.7466 C   0  0  0  0  0  0  0  0  0  0  0  0
  144.4640  137.7881  151.6526 N   0  0  0  0  0  0  0  0  0  0  0  0
  142.3159  136.8976  152.1520 C   0  0  0  0  0  0  0  0  0  0  0  0
  141.8244  138.1671  152.4398 N   0  0  0  0  0  0  0  0  0  0  0  0
  140.4747  138.4916  152.8782 C   0  0  0  0  0  0  0  0  0  0  0  0
  139.4677  138.3246  151.7353 C   0  0  0  0  0  0  0  0  0  0  0  0
  138.1873  138.7405  152.1820 O   0  0  0  0  0  0  0  0  0  0  0  0
  137.1396  138.2392  151.3712 C   0  0  0  0  0  0  0  0  0  0  0  0
  141.3973  135.7555  152.2680 C   0  0  0  0  0  0  0  0  0  0  0  0
  140.2063  135.8107  152.5726 O   0  0  0  0  0  0  0  0  0  0  0  0
  141.9651  134.5146  151.9879 N   0  0  0  0  0  0  0  0  0  0  0  0
  143.2811  134.2947  151.5980 C   0  0  0  0  0  0  0  0  0  0  0  0
  143.6687  133.1426  151.4003 O   0  0  0  0  0  0  0  0  0  0  0  0
  141.3685  133.7050  152.0756 H   0  0  0  0  0  0  0  0  0  0  0  0
  146.1738  132.3223  149.1459 H   0  0  0  0  0  0  0  0  0  0  0  0
  145.5217  132.3867  150.7812 H   0  0  0  0  0  0  0  0  0  0  0  0
  147.1427  132.9995  150.4523 H   0  0  0  0  0  0  0  0  0  0  0  0
  146.1586  134.8025  149.0047 H   0  0  0  0  0  0  0  0  0  0  0  0
  144.5528  134.1983  149.3307 H   0  0  0  0  0  0  0  0  0  0  0  0
  145.9868  134.7283  151.8641 H   0  0  0  0  0  0  0  0  0  0  0  0
  145.9609  136.1532  150.8831 H   0  0  0  0  0  0  0  0  0  0  0  0
  145.4280  137.6703  151.3765 H   0  0  0  0  0  0  0  0  0  0  0  0
  144.1147  138.7354  151.6489 H   0  0  0  0  0  0  0  0  0  0  0  0
  142.5125  138.7953  152.8283 H   0  0  0  0  0  0  0  0  0  0  0  0
  140.2173  137.8241  153.7008 H   0  0  0  0  0  0  0  0  0  0  0  0
  140.4173  139.5098  153.2641 H   0  0  0  0  0  0  0  0  0  0  0  0
  139.7802  138.8998  150.8621 H   0  0  0  0  0  0  0  0  0  0  0  0
  139.4244  137.2759  151.4377 H   0  0  0  0  0  0  0  0  0  0  0  0
  136.1806  138.5848  151.7569 H   0  0  0  0  0  0  0  0  0  0  0  0
  137.1293  137.1485  151.3698 H   0  0  0  0  0  0  0  0  0  0  0  0
  137.2348  138.5902  150.3428 H   0  0  0  0  0  0  0  0  0  0  0  0
  1  2  1  0  0  0  0
  1 19  1  0  0  0  0
  1 20  1  0  0  0  0
  1 21  1  0  0  0  0
  2  3  1  0  0  0  0
  2 22  1  0  0  0  0
  2 23  1  0  0  0  0
  3  4  1  0  0  0  0
  3 24  1  0  0  0  0
  3 25  1  0  0  0  0
  4 16  1  0  0  0  0
  4  5  1  0  0  0  0
  5  6  1  0  0  0  0
  5  7  2  0  0  0  0
  6 26  1  0  0  0  0
  6 27  1  0  0  0  0
  7  8  1  0  0  0  0
  7 13  1  0  0  0  0
  8  9  1  0  0  0  0
  8 28  1  0  0  0  0
  9 10  1  0  0  0  0
  9 29  1  0  0  0  0
  9 30  1  0  0  0  0
 10 11  1  0  0  0  0
 10 31  1  0  0  0  0
 10 32  1  0  0  0  0
 11 12  1  0  0  0  0
 12 33  1  0  0  0  0
 12 34  1  0  0  0  0
 12 35  1  0  0  0  0
 13 14  2  0  0  0  0
 13 15  1  0  0  0  0
 15 18  1  0  0  0  0
 15 16  1  0  0  0  0
 16 17  2  0  0  0  0
M  END
> <s_m_source_file>
AV-unprocessed.smi

> <i_m_source_file_index>
2617

> <i_lp_mmshare_version>
43012

> <i_f3d_flags>
0

> <s_epik_input>
W0NIM11bQ0gyXVtDSDJdbjFjKFtOSDJdKWMoYyg9TylbbkhdYzE9TylbTkhdW0NIMl1bQ0gyXU9bQ0gzXQ==

> <s_epik_cmdline>
J2VwaWtfcHl0aG9uJywgJy1waCcsICc3LjAnLCAnLXRuJywgJzgnLCAnLW1hJywgJzIwMCcsICctbWV0YWxfYmluZGluZycsICctaW1hZScsICc8aW5maWxlLm1hZT4nLCAnLW9tYWUnLCAnPG91dGZpbGUubWFlPic=

> <r_lp_tautomer_probability>
1

> <r_epik_Ionization_Penalty>
1.06398e-05

> <r_epik_Ionization_Penalty_Charging>
2.62604e-06

> <r_epik_Ionization_Penalty_Neutral>
8.01376e-06

> <r_epik_State_Penalty>
-0

> <r_epik_Charging_Adjusted_Penalty>
2.62604e-06

> <i_epik_Tot_Q>
0

> <i_epik_Tot_abs_Q>
0

> <r_epik_Metal_State_Penalty>
-0

> <b_epik_Metal_Only>
0

> <s_epik_Chemistry_Notes>
This compound has an imine and may undergo hydrolysis.

> <s_lp_Force_Field>
OPLS_2005

> <r_lp_Energy>
15.6594

> <b_lp_Chiralities_Consistent>
1

> <s_lp_Variant>
AV-unprocessed.smi:2617-1

> <Gold.Version>
5.8.1

> <Gold.Id.Protein>
6NUR|6NUR_protein|mol2

> <Gold.PLP.Fitness>
35.9245

> <Gold.PLP.PLP>
-25.8990

> <Gold.PLP.part.hbond>
-3.5032

> <Gold.PLP.part.metal>
0.0000

> <Gold.PLP.part.buried>
-2.1126

> <Gold.PLP.part.nonpolar>
-20.4605

> <Gold.PLP.part.repulsive>
0.3519

> <Gold.PLP.ligand.clash>
1.3886

> <Gold.PLP.ligand.torsion>
0.5901

> <Gold.PLP.Chemscore.Hbond>
3.7280

> <Gold.PLP.Chemscore.CHOScore>
0.0000

> <Gold.PLP.Chemscore.Metal>
0.0000

> <Gold.Chemscore.Hbonds>
donor molecule, donor type, donor heavy atom, donor atom, acceptor molecule, acceptor atom, score
      L1  H     6    27       P1 10175  1.00
      L1  H     8    28       P1 10175  0.88

> <Gold.PLP.Chemscore.Internal.Correction>
1.4102

> <Gold.Rescore>
     Score         DG    S(hbond)    S(metal)    S(lipo)     H(rot)  DE(clash)    DE(int)     intcor
     10.03     -16.64       3.39        0.00      46.23       2.17       1.93       4.68       ----

> <Gold.Chemscore.Fitness>
10.0280

> <Gold.Chemscore.DG>
-16.6446

> <Gold.Chemscore.ZeroCoef>
-5.4800

> <Gold.Chemscore.Hbond>
3.3886

> <Gold.Chemscore.Metal>
0.0000

> <Gold.Chemscore.Lipo>
46.2343

> <Gold.Chemscore.Internal_Hbond>
0.0000

> <Gold.Chemscore.DEClash>
1.9343

> <Gold.Chemscore.DEInternal>
4.6822

> <Gold.Chemscore.Rot>
2.1730

> <Gold.Chemscore.Internal.Correction>
   9.000000E+99

> <Gold.Chemscore.Hbonds>
donor molecule, donor type, donor heavy atom, donor atom, acceptor molecule, acceptor atom, score
      L1  H     6    27       P1 10175  0.96
      L1  H     8    28       P1 10175  0.83

> <Gold.Chemscore.Hbond.Weighted>
-11.3180

> <Gold.Chemscore.Metal.Weighted>
-0.0000

> <Gold.Chemscore.Lipo.Weighted>
-5.4094

> <Gold.Chemscore.Internal_Hbond.Weighted>
0.0000

> <Gold.Chemscore.DEClash.Weighted>
1.9343

> <Gold.Chemscore.DEInternal.Weighted>
4.6822

> <Gold.Chemscore.Rot.Weighted>
5.5628

> <Gold.Chemscore.Internal.Correction.Weighted>
   9.000000E+99

> <Gold.Protein.RotatedTorsions>
[ 6907 6896 6895 6894 ] final -155.65 input  -60.11 | X-H torsion
[ 7974 7965 7964 7962 ] final    9.86 input  175.53 | X-H torsion
[ 8008 7997 7996 7995 ] final  -33.94 input   59.86 | X-H torsion
[ 10167 10162 10161 10158 ] final   73.53 input  -65.29 | X-H torsion
[ 10718 10713 10712 10709 ] final  132.78 input   66.30 | X-H torsion
[ 10763 10752 10751 10750 ] final -166.88 input  -60.55 | X-H torsion
[ 11005 11000 10999 10996 ] final   33.03 input  -57.11 | X-H torsion

> <Gold.Protein.ActiveResidues>
 VAL166  LYS551  ARG553  GLY616  TRP617  ASP618  TYR619  PRO620  LYS621  CYS622 
 ASP623  PHE694  ASN695  SER759  ASP760  ASP761  ALA762  ILE779  LEU786  VAL792 
 PHE793  MET794  SER795  GLU796  ALA797  LYS798  CYS799  TRP800  GLU811  SER814 

> <Gold.Protein.RotatedAtoms>
  151.2757  133.4234  159.2623 H   0  0  0  0  0  0  0  0  0  0  0  0  # atno 6907 bound_to 6896
  151.0406  134.9604  159.8170 H   0  0  0  0  0  0  0  0  0  0  0  0  # atno 6908 bound_to 6896
  152.5364  134.2715  159.9026 H   0  0  0  0  0  0  0  0  0  0  0  0  # atno 6909 bound_to 6896
  146.2397  139.9720  142.8446 H   0  0  0  0  0  0  0  0  0  0  0  0  # atno 7974 bound_to 7965
  154.4134  140.1697  156.1969 H   0  0  0  0  0  0  0  0  0  0  0  0  # atno 8008 bound_to 7997
  155.9557  140.3397  155.6423 H   0  0  0  0  0  0  0  0  0  0  0  0  # atno 8009 bound_to 7997
  155.6813  140.0723  157.2474 H   0  0  0  0  0  0  0  0  0  0  0  0  # atno 8010 bound_to 7997
  140.0235  144.5522  150.7563 H   0  0  0  0  0  0  0  0  0  0  0  0  # atno 10167 bound_to 10162
  157.4838  131.1087  150.9647 H   0  0  0  0  0  0  0  0  0  0  0  0  # atno 10718 bound_to 10713
  154.6788  135.2951  154.9641 H   0  0  0  0  0  0  0  0  0  0  0  0  # atno 10763 bound_to 10752
  154.0643  135.6627  153.4820 H   0  0  0  0  0  0  0  0  0  0  0  0  # atno 10764 bound_to 10752
  153.0534  135.5159  154.7821 H   0  0  0  0  0  0  0  0  0  0  0  0  # atno 10765 bound_to 10752
  140.2673  134.3122  155.7838 H   0  0  0  0  0  0  0  0  0  0  0  0  # atno 11005 bound_to 11000
  145.1672  140.9703  143.4342 LP  0  0  0  0  0  0  0  0  0  0  0  0  # atno 17320 bound_to 7965
  145.0061  139.3553  143.6143 LP  0  0  0  0  0  0  0  0  0  0  0  0  # atno 17321 bound_to 7965
  140.7332  143.2715  151.3875 LP  0  0  0  0  0  0  0  0  0  0  0  0  # atno 17342 bound_to 10162
  139.6124  144.1072  152.2311 LP  0  0  0  0  0  0  0  0  0  0  0  0  # atno 17343 bound_to 10162
  157.0371  130.5734  149.5351 LP  0  0  0  0  0  0  0  0  0  0  0  0  # atno 17370 bound_to 10713
  156.0136  130.5229  150.8064 LP  0  0  0  0  0  0  0  0  0  0  0  0  # atno 17371 bound_to 10713
  141.2182  133.7446  156.9281 LP  0  0  0  0  0  0  0  0  0  0  0  0  # atno 17394 bound_to 11000
  140.1406  134.9296  157.2462 LP  0  0  0  0  0  0  0  0  0  0  0  0  # atno 17395 bound_to 11000

$$$$
