AV-unprocessed.smi:1976|AV-procd|sdf|7987|dock7
  -GOLD-   2272010163D 1   1.00000     0.00000
 Structure written by MMmdl.
 45 47  0  0  0  0  0  0  0  0  2 V2000
  148.4374  138.9921  158.3750 O   0  0  0  0  0  0  0  0  0  0  0  0
  149.6393  138.7240  158.3487 C   0  0  0  0  0  0  0  0  0  0  0  0
  150.1463  137.3248  158.7257 C   0  0  0  0  0  0  0  0  0  0  0  0
  149.0693  136.3962  159.1079 N   0  0  0  0  0  0  0  0  0  0  0  0
  148.4836  136.5791  160.3761 C   0  0  0  0  0  0  0  0  0  0  0  0
  147.4997  135.7907  160.8496 C   0  0  0  0  0  0  0  0  0  0  0  0
  146.8528  136.0446  162.2022 C   0  0  0  0  0  0  0  0  0  0  0  0
  145.9289  135.1226  162.4735 F   0  0  0  0  0  0  0  0  0  0  0  0
  147.7765  136.0017  163.1612 F   0  0  0  0  0  0  0  0  0  0  0  0
  146.2711  137.2440  162.2400 F   0  0  0  0  0  0  0  0  0  0  0  0
  147.0322  134.7413  159.9656 C   0  0  0  0  0  0  0  0  0  0  0  0
  147.5785  134.5552  158.7479 C   0  0  0  0  0  0  0  0  0  0  0  0
  148.6665  135.4046  158.2579 C   0  0  0  0  0  0  0  0  0  0  0  0
  149.1832  135.2369  157.1530 O   0  0  0  0  0  0  0  0  0  0  0  0
  150.5781  139.6070  157.9786 N   0  0  0  0  0  0  0  0  0  0  0  0
  150.3175  140.9865  157.5761 C   0  0  2  0  0  0  0  0  0  0  0  0
  150.9759  141.3892  156.2596 C   0  0  0  0  0  0  0  0  0  0  0  0
  150.9841  142.9187  156.3294 C   0  0  0  0  0  0  0  0  0  0  0  0
  151.0001  143.2827  157.7672 N   0  3  2  0  0  0  0  0  0  0  0  0
  152.1373  144.1596  158.1547 C   0  0  0  0  0  0  0  0  0  0  0  0
  152.3151  144.1850  159.6798 C   0  0  0  0  0  0  0  0  0  0  0  0
  152.6458  142.7855  160.2323 C   0  0  0  0  0  0  0  0  0  0  0  0
  152.1611  141.6545  159.3045 C   0  0  0  0  0  0  0  0  0  0  0  0
  150.8523  142.0338  158.5688 C   0  0  2  0  0  0  0  0  0  0  0  0
  150.7119  136.9300  157.8806 H   0  0  0  0  0  0  0  0  0  0  0  0
  150.8715  137.4103  159.5374 H   0  0  0  0  0  0  0  0  0  0  0  0
  148.8898  137.4029  160.9448 H   0  0  0  0  0  0  0  0  0  0  0  0
  146.2334  134.0889  160.2858 H   0  0  0  0  0  0  0  0  0  0  0  0
  147.2067  133.7611  158.1173 H   0  0  0  0  0  0  0  0  0  0  0  0
  151.5413  139.3032  157.9803 H   0  0  0  0  0  0  0  0  0  0  0  0
  149.2387  141.1282  157.4811 H   0  0  0  0  0  0  0  0  0  0  0  0
  151.9998  141.0148  156.2188 H   0  0  0  0  0  0  0  0  0  0  0  0
  150.4454  141.0124  155.3844 H   0  0  0  0  0  0  0  0  0  0  0  0
  151.8187  143.3414  155.7684 H   0  0  0  0  0  0  0  0  0  0  0  0
  150.0668  143.3166  155.8944 H   0  0  0  0  0  0  0  0  0  0  0  0
  153.0604  143.8062  157.6919 H   0  0  0  0  0  0  0  0  0  0  0  0
  151.9572  145.1647  157.7717 H   0  0  0  0  0  0  0  0  0  0  0  0
  153.0956  144.8919  159.9629 H   0  0  0  0  0  0  0  0  0  0  0  0
  151.3941  144.5497  160.1370 H   0  0  0  0  0  0  0  0  0  0  0  0
  153.7220  142.6854  160.3788 H   0  0  0  0  0  0  0  0  0  0  0  0
  152.1950  142.6786  161.2196 H   0  0  0  0  0  0  0  0  0  0  0  0
  152.9360  141.4344  158.5687 H   0  0  0  0  0  0  0  0  0  0  0  0
  152.0342  140.7449  159.8921 H   0  0  0  0  0  0  0  0  0  0  0  0
  150.0916  142.2135  159.3301 H   0  0  0  0  0  0  0  0  0  0  0  0
  150.1580  143.8156  157.9318 H   0  0  0  0  0  0  0  0  0  0  0  0
  1  2  2  0  0  0  0
  2  3  1  0  0  0  0
  2 15  1  0  0  0  0
  3  4  1  0  0  0  0
  3 25  1  0  0  0  0
  3 26  1  0  0  0  0
  4 13  1  0  0  0  0
  4  5  1  0  0  0  0
  5  6  2  0  0  0  0
  5 27  1  0  0  0  0
  6  7  1  0  0  0  0
  6 11  1  0  0  0  0
  7  8  1  0  0  0  0
  7  9  1  0  0  0  0
  7 10  1  0  0  0  0
 11 12  2  0  0  0  0
 11 28  1  0  0  0  0
 12 13  1  0  0  0  0
 12 29  1  0  0  0  0
 13 14  2  0  0  0  0
 15 16  1  0  0  0  0
 15 30  1  0  0  0  0
 16 24  1  0  0  0  0
 16 17  1  0  0  0  0
 16 31  1  0  0  0  0
 17 18  1  0  0  0  0
 17 32  1  0  0  0  0
 17 33  1  0  0  0  0
 18 19  1  0  0  0  0
 18 34  1  0  0  0  0
 18 35  1  0  0  0  0
 19 24  1  0  0  0  0
 19 20  1  0  0  0  0
 19 45  1  0  0  0  0
 20 21  1  0  0  0  0
 20 36  1  0  0  0  0
 20 37  1  0  0  0  0
 21 22  1  0  0  0  0
 21 38  1  0  0  0  0
 21 39  1  0  0  0  0
 22 23  1  0  0  0  0
 22 40  1  0  0  0  0
 22 41  1  0  0  0  0
 23 24  1  0  0  0  0
 23 42  1  0  0  0  0
 23 43  1  0  0  0  0
 24 44  1  0  0  0  0
M  CHG  1  19   1
M  END
> <s_m_source_file>
AV-unprocessed.smi

> <i_m_source_file_index>
1976

> <i_lp_mmshare_version>
43012

> <i_f3d_flags>
0

> <s_epik_input>
W0NIMl0xW0NIMl1bQ0gyXVtDSDJdW0NASF0oTjEyKVtDQEBIXShbQ0gyXVtDSDJdMilbTkhdQyg9TylbQ0gyXW4zW2NIXWMoQyhGKShGKUYpW2NIXVtjSF1jMz1P

> <s_epik_cmdline>
J2VwaWtfcHl0aG9uJywgJy1waCcsICc3LjAnLCAnLXRuJywgJzgnLCAnLW1hJywgJzIwMCcsICctbWV0YWxfYmluZGluZycsICctaW1hZScsICc8aW5maWxlLm1hZT4nLCAnLW9tYWUnLCAnPG91dGZpbGUubWFlPic=

> <r_lp_tautomer_probability>
1

> <r_epik_Ionization_Penalty>
0.00171506

> <r_epik_Ionization_Penalty_Charging>
0.00171498

> <r_epik_Ionization_Penalty_Neutral>
7.81737e-08

> <r_epik_State_Penalty>
0.00115937

> <r_epik_Charging_Adjusted_Penalty>
0.00287436

> <i_epik_Tot_Q>
1

> <i_epik_Tot_abs_Q>
1

> <r_epik_Metal_State_Penalty>
-0

> <b_epik_Metal_Only>
0

> <s_lp_Force_Field>
OPLS_2005

> <r_lp_Energy>
52.9045

> <b_lp_Chiralities_Consistent>
1

> <s_lp_Variant>
AV-unprocessed.smi:1976-5

> <Gold.Version>
5.8.1

> <Gold.Id.Protein>
6NUR|6NUR_protein|mol2

> <Gold.PLP.Fitness>
45.5268

> <Gold.PLP.PLP>
-46.0823

> <Gold.PLP.part.hbond>
-1.1097

> <Gold.PLP.part.metal>
0.0000

> <Gold.PLP.part.buried>
-3.5705

> <Gold.PLP.part.nonpolar>
-41.0128

> <Gold.PLP.part.repulsive>
0.1189

> <Gold.PLP.ligand.clash>
0.0000

> <Gold.PLP.ligand.torsion>
0.3010

> <Gold.PLP.Chemscore.Hbond>
0.0000

> <Gold.PLP.Chemscore.CHOScore>
0.0000

> <Gold.PLP.Chemscore.Metal>
0.0000

> <Gold.PLP.Chemscore.Internal.Correction>
0.0465

> <Gold.Rescore>
     Score         DG    S(hbond)    S(metal)    S(lipo)     H(rot)  DE(clash)    DE(int)     intcor
     11.86     -14.27       0.00        0.00     109.72       1.58       1.94       0.47       ----

> <Gold.Chemscore.Fitness>
11.8633

> <Gold.Chemscore.DG>
-14.2670

> <Gold.Chemscore.ZeroCoef>
-5.4800

> <Gold.Chemscore.Hbond>
0.0008

> <Gold.Chemscore.Metal>
0.0000

> <Gold.Chemscore.Lipo>
109.7157

> <Gold.Chemscore.Internal_Hbond>
0.0000

> <Gold.Chemscore.DEClash>
1.9370

> <Gold.Chemscore.DEInternal>
0.4667

> <Gold.Chemscore.Rot>
1.5830

> <Gold.Chemscore.Internal.Correction>
   9.000000E+99

> <Gold.Chemscore.Hbond.Weighted>
-0.0026

> <Gold.Chemscore.Metal.Weighted>
-0.0000

> <Gold.Chemscore.Lipo.Weighted>
-12.8367

> <Gold.Chemscore.Internal_Hbond.Weighted>
0.0000

> <Gold.Chemscore.DEClash.Weighted>
1.9370

> <Gold.Chemscore.DEInternal.Weighted>
0.4667

> <Gold.Chemscore.Rot.Weighted>
4.0524

> <Gold.Chemscore.Internal.Correction.Weighted>
   9.000000E+99

> <Gold.Protein.RotatedTorsions>
[ 6907 6896 6895 6894 ] final -106.92 input  -60.11 | X-H torsion
[ 7974 7965 7964 7962 ] final  163.43 input  175.53 | X-H torsion
[ 8008 7997 7996 7995 ] final  162.67 input   59.86 | X-H torsion
[ 10167 10162 10161 10158 ] final  160.84 input  -65.29 | X-H torsion
[ 10718 10713 10712 10709 ] final -172.85 input   66.30 | X-H torsion
[ 10763 10752 10751 10750 ] final -103.48 input  -60.55 | X-H torsion
[ 11005 11000 10999 10996 ] final   35.71 input  -57.11 | X-H torsion

> <Gold.Protein.ActiveResidues>
 VAL166  LYS551  ARG553  GLY616  TRP617  ASP618  TYR619  PRO620  LYS621  CYS622 
 ASP623  PHE694  ASN695  SER759  ASP760  ASP761  ALA762  ILE779  LEU786  VAL792 
 PHE793  MET794  SER795  GLU796  ALA797  LYS798  CYS799  TRP800  GLU811  SER814 

> <Gold.Protein.RotatedAtoms>
  150.7415  133.9903  159.3604 H   0  0  0  0  0  0  0  0  0  0  0  0  # atno 6907 bound_to 6896
  151.7851  135.0749  160.0388 H   0  0  0  0  0  0  0  0  0  0  0  0  # atno 6908 bound_to 6896
  152.3247  133.5855  159.5804 H   0  0  0  0  0  0  0  0  0  0  0  0  # atno 6909 bound_to 6896
  144.7590  139.8181  143.6339 H   0  0  0  0  0  0  0  0  0  0  0  0  # atno 7974 bound_to 7965
  156.2014  140.1744  156.7891 H   0  0  0  0  0  0  0  0  0  0  0  0  # atno 8008 bound_to 7997
  154.5597  140.0702  156.8830 H   0  0  0  0  0  0  0  0  0  0  0  0  # atno 8009 bound_to 7997
  155.2871  140.3353  155.4257 H   0  0  0  0  0  0  0  0  0  0  0  0  # atno 8010 bound_to 7997
  139.4843  144.4595  151.8724 H   0  0  0  0  0  0  0  0  0  0  0  0  # atno 10167 bound_to 10162
  156.7617  130.9416  151.3118 H   0  0  0  0  0  0  0  0  0  0  0  0  # atno 10718 bound_to 10713
  154.7810  135.4822  153.9845 H   0  0  0  0  0  0  0  0  0  0  0  0  # atno 10763 bound_to 10752
  153.1494  135.6788  153.8912 H   0  0  0  0  0  0  0  0  0  0  0  0  # atno 10764 bound_to 10752
  153.8561  135.3161  155.3413 H   0  0  0  0  0  0  0  0  0  0  0  0  # atno 10765 bound_to 10752
  140.2399  134.3427  155.7930 H   0  0  0  0  0  0  0  0  0  0  0  0  # atno 11005 bound_to 11000
  146.1633  139.4755  142.9974 LP  0  0  0  0  0  0  0  0  0  0  0  0  # atno 17320 bound_to 7965
  145.6682  141.0223  143.1672 LP  0  0  0  0  0  0  0  0  0  0  0  0  # atno 17321 bound_to 7965
  140.4056  144.2436  150.5891 LP  0  0  0  0  0  0  0  0  0  0  0  0  # atno 17342 bound_to 10162
  140.5015  143.2316  151.8671 LP  0  0  0  0  0  0  0  0  0  0  0  0  # atno 17343 bound_to 10162
  157.6731  130.9070  150.0087 LP  0  0  0  0  0  0  0  0  0  0  0  0  # atno 17370 bound_to 10713
  156.1335  130.3643  149.9694 LP  0  0  0  0  0  0  0  0  0  0  0  0  # atno 17371 bound_to 10713
  141.2211  133.7293  156.8869 LP  0  0  0  0  0  0  0  0  0  0  0  0  # atno 17394 bound_to 11000
  140.1664  134.9130  157.2779 LP  0  0  0  0  0  0  0  0  0  0  0  0  # atno 17395 bound_to 11000

$$$$
