AV-unprocessed.smi:322|AV-procd|sdf|2337|dock8
  -GOLD-   2262022243D 1   1.00000     0.00000
 Structure written by MMmdl.
 44 46  0  0  0  0  0  0  0  0  2 V2000
  149.9015  140.4661  153.9902 O   0  0  0  0  0  0  0  0  0  0  0  0
  149.4020  140.2414  155.2898 C   0  0  0  0  0  0  0  0  0  0  0  0
  150.2109  140.9348  156.3356 C   0  0  0  0  0  0  0  0  0  0  0  0
  150.2594  142.2811  156.5433 N   0  3  0  0  0  0  0  0  0  0  0  0
  151.1146  142.5647  157.6089 C   0  0  0  0  0  0  0  0  0  0  0  0
  151.4825  143.7763  158.1859 C   0  0  0  0  0  0  0  0  0  0  0  0
  152.3826  143.7132  159.2699 C   0  0  0  0  0  0  0  0  0  0  0  0
  152.8809  142.4806  159.7405 C   0  0  0  0  0  0  0  0  0  0  0  0
  152.5004  141.2587  159.1475 C   0  0  0  0  0  0  0  0  0  0  0  0
  151.6110  141.3307  158.0760 C   0  0  0  0  0  0  0  0  0  0  0  0
  151.0290  140.3543  157.2608 N   0  0  0  0  0  0  0  0  0  0  0  0
  151.3494  138.9384  157.5008 C   0  0  0  0  0  0  0  0  0  0  0  0
  150.8208  138.4238  158.8544 C   0  0  2  0  0  0  0  0  0  0  0  0
  151.7008  137.4288  159.3398 O   0  0  0  0  0  0  0  0  0  0  0  0
  149.4158  137.8169  158.7277 C   0  0  0  0  0  0  0  0  0  0  0  0
  148.8716  137.6452  160.0286 O   0  0  0  0  0  0  0  0  0  0  0  0
  147.5664  137.0844  160.0357 C   0  0  0  0  0  0  0  0  0  0  0  0
  147.5367  135.6437  160.5173 C   0  0  0  0  0  0  0  0  0  0  0  0
  147.7803  134.5895  159.6116 C   0  0  0  0  0  0  0  0  0  0  0  0
  147.7596  133.2538  160.0574 C   0  0  0  0  0  0  0  0  0  0  0  0
  147.5020  132.9671  161.4123 C   0  0  0  0  0  0  0  0  0  0  0  0
  147.4769  131.3309  161.9592 Cl  0  0  0  0  0  0  0  0  0  0  0  0
  147.2667  134.0174  162.3210 C   0  0  0  0  0  0  0  0  0  0  0  0
  147.2864  135.3534  161.8750 C   0  0  0  0  0  0  0  0  0  0  0  0
  149.2918  140.1022  153.3663 H   0  0  0  0  0  0  0  0  0  0  0  0
  148.3677  140.5818  155.3409 H   0  0  0  0  0  0  0  0  0  0  0  0
  149.3963  139.1692  155.4876 H   0  0  0  0  0  0  0  0  0  0  0  0
  151.1024  144.7217  157.8273 H   0  0  0  0  0  0  0  0  0  0  0  0
  152.6972  144.6284  159.7504 H   0  0  0  0  0  0  0  0  0  0  0  0
  153.5693  142.4718  160.5731 H   0  0  0  0  0  0  0  0  0  0  0  0
  152.8879  140.3195  159.5140 H   0  0  0  0  0  0  0  0  0  0  0  0
  150.9433  138.3523  156.6752 H   0  0  0  0  0  0  0  0  0  0  0  0
  152.4331  138.8267  157.4489 H   0  0  0  0  0  0  0  0  0  0  0  0
  150.7960  139.2479  159.5680 H   0  0  0  0  0  0  0  0  0  0  0  0
  152.2647  137.8203  159.9887 H   0  0  0  0  0  0  0  0  0  0  0  0
  148.7678  138.5010  158.1774 H   0  0  0  0  0  0  0  0  0  0  0  0
  149.4451  136.8811  158.1668 H   0  0  0  0  0  0  0  0  0  0  0  0
  146.9514  137.6757  160.7144 H   0  0  0  0  0  0  0  0  0  0  0  0
  147.1109  137.1745  159.0483 H   0  0  0  0  0  0  0  0  0  0  0  0
  147.9796  134.8034  158.5717 H   0  0  0  0  0  0  0  0  0  0  0  0
  147.9430  132.4504  159.3591 H   0  0  0  0  0  0  0  0  0  0  0  0
  147.0715  133.8002  163.3608 H   0  0  0  0  0  0  0  0  0  0  0  0
  147.1063  136.1531  162.5783 H   0  0  0  0  0  0  0  0  0  0  0  0
  149.7395  142.9544  155.9955 H   0  0  0  0  0  0  0  0  0  0  0  0
  1  2  1  0  0  0  0
  1 25  1  0  0  0  0
  2  3  1  0  0  0  0
  2 26  1  0  0  0  0
  2 27  1  0  0  0  0
  3 11  1  0  0  0  0
  3  4  2  0  0  0  0
  4  5  1  0  0  0  0
  4 44  1  0  0  0  0
  5 10  2  0  0  0  0
  5  6  1  0  0  0  0
  6  7  2  0  0  0  0
  6 28  1  0  0  0  0
  7  8  1  0  0  0  0
  7 29  1  0  0  0  0
  8  9  2  0  0  0  0
  8 30  1  0  0  0  0
  9 10  1  0  0  0  0
  9 31  1  0  0  0  0
 10 11  1  0  0  0  0
 11 12  1  0  0  0  0
 12 13  1  0  0  0  0
 12 32  1  0  0  0  0
 12 33  1  0  0  0  0
 13 14  1  0  0  0  0
 13 15  1  0  0  0  0
 13 34  1  0  0  0  0
 14 35  1  0  0  0  0
 15 16  1  0  0  0  0
 15 36  1  0  0  0  0
 15 37  1  0  0  0  0
 16 17  1  0  0  0  0
 17 18  1  0  0  0  0
 17 38  1  0  0  0  0
 17 39  1  0  0  0  0
 18 24  1  0  0  0  0
 18 19  2  0  0  0  0
 19 20  1  0  0  0  0
 19 40  1  0  0  0  0
 20 21  2  0  0  0  0
 20 41  1  0  0  0  0
 21 22  1  0  0  0  0
 21 23  1  0  0  0  0
 23 24  2  0  0  0  0
 23 42  1  0  0  0  0
 24 43  1  0  0  0  0
M  CHG  1   4   1
M  END
> <s_m_source_file>
AV-unprocessed.smi

> <i_m_source_file_index>
322

> <i_lp_mmshare_version>
43012

> <i_f3d_flags>
0

> <s_epik_input>
W2NIXTFbY0hdW2NIXVtjSF1jKGMxMiluKGMobjIpW0NIMl1bT0hdKVtDSDJdW0NASF0oW09IXSlbQ0gyXU9bQ0gyXWMzW2NIXVtjSF1jKENsKVtjSF1bY0hdMw==

> <s_epik_cmdline>
J2VwaWtfcHl0aG9uJywgJy1waCcsICc3LjAnLCAnLXRuJywgJzgnLCAnLW1hJywgJzIwMCcsICctbWV0YWxfYmluZGluZycsICctaW1hZScsICc8aW5maWxlLm1hZT4nLCAnLW9tYWUnLCAnPG91dGZpbGUubWFlPic=

> <r_epik_Ionization_Penalty>
1.34314

> <r_epik_Ionization_Penalty_Charging>
1.34228

> <r_epik_Ionization_Penalty_Neutral>
0.000856898

> <r_epik_State_Penalty>
1.41963

> <r_epik_Charging_Adjusted_Penalty>
2.76191

> <i_epik_Tot_Q>
1

> <i_epik_Tot_abs_Q>
1

> <r_epik_Metal_State_Penalty>
5.45585

> <b_epik_Metal_Only>
0

> <s_lp_Force_Field>
OPLS_2005

> <r_lp_Energy>
17.7001

> <b_lp_Chiralities_Consistent>
1

> <s_lp_Variant>
AV-unprocessed.smi:322-3

> <Gold.Version>
5.8.1

> <Gold.Id.Protein>
6NUR|6NUR_protein|mol2

> <Gold.PLP.Fitness>
56.2223

> <Gold.PLP.PLP>
-47.6703

> <Gold.PLP.part.hbond>
-4.6388

> <Gold.PLP.part.metal>
0.0000

> <Gold.PLP.part.buried>
-6.1051

> <Gold.PLP.part.nonpolar>
-37.1906

> <Gold.PLP.part.repulsive>
0.0611

> <Gold.PLP.ligand.clash>
0.0000

> <Gold.PLP.ligand.torsion>
1.3218

> <Gold.PLP.Chemscore.Hbond>
3.6897

> <Gold.PLP.Chemscore.CHOScore>
0.0000

> <Gold.PLP.Chemscore.Metal>
0.0000

> <Gold.Chemscore.Hbonds>
donor molecule, donor type, donor heavy atom, donor atom, acceptor molecule, acceptor atom, score
      L1  H     1    25       P1  7957  0.25
      L1  H     4    44       P1  8028  2.00
      P1  H  6896  6908       L1    14  0.18
      P1  H  6931  6943       L1    16  0.30
      P1  H  7989  7998       L1     1  0.70

> <Gold.PLP.Chemscore.Internal.Correction>
0.1265

> <Gold.Rescore>
     Score         DG    S(hbond)    S(metal)    S(lipo)     H(rot)  DE(clash)    DE(int)     intcor
     18.03     -19.27       2.40        0.00     120.06       3.24       0.02       1.21       ----

> <Gold.Chemscore.Fitness>
18.0344

> <Gold.Chemscore.DG>
-19.2654

> <Gold.Chemscore.ZeroCoef>
-5.4800

> <Gold.Chemscore.Hbond>
2.4038

> <Gold.Chemscore.Metal>
0.0000

> <Gold.Chemscore.Lipo>
120.0577

> <Gold.Chemscore.Internal_Hbond>
0.0000

> <Gold.Chemscore.DEClash>
0.0221

> <Gold.Chemscore.DEInternal>
1.2089

> <Gold.Chemscore.Rot>
3.2383

> <Gold.Chemscore.Internal.Correction>
   9.000000E+99

> <Gold.Chemscore.Hbonds>
donor molecule, donor type, donor heavy atom, donor atom, acceptor molecule, acceptor atom, score
      L1  H     1    25       P1  7957  0.25
      L1  H     4    44       P1  8028  0.95
      P1  H  6896  6908       L1    14  0.07
      P1  H  6931  6943       L1    16  0.10
      P1  H  7989  7998       L1     1  0.68

> <Gold.Chemscore.Hbond.Weighted>
-8.0288

> <Gold.Chemscore.Metal.Weighted>
-0.0000

> <Gold.Chemscore.Lipo.Weighted>
-14.0468

> <Gold.Chemscore.Internal_Hbond.Weighted>
0.0000

> <Gold.Chemscore.DEClash.Weighted>
0.0221

> <Gold.Chemscore.DEInternal.Weighted>
1.2089

> <Gold.Chemscore.Rot.Weighted>
8.2901

> <Gold.Chemscore.Internal.Correction.Weighted>
   9.000000E+99

> <Gold.Protein.RotatedTorsions>
[ 6907 6896 6895 6894 ] final -114.58 input  -60.11 | X-H torsion
[ 7974 7965 7964 7962 ] final -141.38 input  175.53 | X-H torsion
[ 8008 7997 7996 7995 ] final  165.80 input   59.86 | X-H torsion
[ 10167 10162 10161 10158 ] final   -8.75 input  -65.29 | X-H torsion
[ 10718 10713 10712 10709 ] final -118.12 input   66.30 | X-H torsion
[ 10763 10752 10751 10750 ] final -157.65 input  -60.55 | X-H torsion
[ 11005 11000 10999 10996 ] final -121.59 input  -57.11 | X-H torsion

> <Gold.Protein.ActiveResidues>
 VAL166  LYS551  ARG553  GLY616  TRP617  ASP618  TYR619  PRO620  LYS621  CYS622 
 ASP623  PHE694  ASN695  SER759  ASP760  ASP761  ALA762  ILE779  LEU786  VAL792 
 PHE793  MET794  SER795  GLU796  ALA797  LYS798  CYS799  TRP800  GLU811  SER814 

> <Gold.Protein.RotatedAtoms>
  150.7913  133.8781  159.3277 H   0  0  0  0  0  0  0  0  0  0  0  0  # atno 6907 bound_to 6896
  151.6618  135.0986  160.0190 H   0  0  0  0  0  0  0  0  0  0  0  0  # atno 6908 bound_to 6896
  152.3987  133.6747  159.6333 H   0  0  0  0  0  0  0  0  0  0  0  0  # atno 6909 bound_to 6896
  144.8524  140.6087  143.5381 H   0  0  0  0  0  0  0  0  0  0  0  0  # atno 7974 bound_to 7965
  156.1771  140.1660  156.8343 H   0  0  0  0  0  0  0  0  0  0  0  0  # atno 8008 bound_to 7997
  154.5319  140.0755  156.8393 H   0  0  0  0  0  0  0  0  0  0  0  0  # atno 8009 bound_to 7997
  155.3390  140.3383  155.4241 H   0  0  0  0  0  0  0  0  0  0  0  0  # atno 8010 bound_to 7997
  140.7068  143.5934  150.8871 H   0  0  0  0  0  0  0  0  0  0  0  0  # atno 10167 bound_to 10162
  156.1083  130.6228  150.9251 H   0  0  0  0  0  0  0  0  0  0  0  0  # atno 10718 bound_to 10713
  154.7619  135.3120  154.8361 H   0  0  0  0  0  0  0  0  0  0  0  0  # atno 10763 bound_to 10752
  153.9119  135.6805  153.4755 H   0  0  0  0  0  0  0  0  0  0  0  0  # atno 10764 bound_to 10752
  153.1221  135.4818  154.9144 H   0  0  0  0  0  0  0  0  0  0  0  0  # atno 10765 bound_to 10752
  141.0059  134.0336  157.3478 H   0  0  0  0  0  0  0  0  0  0  0  0  # atno 11005 bound_to 11000
  145.4474  139.1528  143.3937 LP  0  0  0  0  0  0  0  0  0  0  0  0  # atno 17320 bound_to 7965
  146.2795  140.4598  142.8782 LP  0  0  0  0  0  0  0  0  0  0  0  0  # atno 17321 bound_to 7965
  139.9659  143.6111  152.2988 LP  0  0  0  0  0  0  0  0  0  0  0  0  # atno 17342 bound_to 10162
  139.6680  144.7661  151.1836 LP  0  0  0  0  0  0  0  0  0  0  0  0  # atno 17343 bound_to 10162
  157.6262  131.0925  150.8529 LP  0  0  0  0  0  0  0  0  0  0  0  0  # atno 17370 bound_to 10713
  156.8644  130.5124  149.5301 LP  0  0  0  0  0  0  0  0  0  0  0  0  # atno 17371 bound_to 10713
  139.9063  135.0180  156.7499 LP  0  0  0  0  0  0  0  0  0  0  0  0  # atno 17394 bound_to 11000
  140.6814  133.9471  155.7912 LP  0  0  0  0  0  0  0  0  0  0  0  0  # atno 17395 bound_to 11000

$$$$
