AV-unprocessed.smi:2802|AV-procd|sdf|10803|dock8
  -GOLD-   2272015233D 1   1.00000     0.00000
 Structure written by MMmdl.
 47 48  0  0  0  0  0  0  0  0  1 V2000
  148.5996  141.1534  154.1112 C   0  0  0  0  0  0  0  0  0  0  0  0
  149.5517  140.4340  155.0781 C   0  0  2  0  0  0  0  0  0  0  0  0
  150.1021  141.4049  156.1389 C   0  0  0  0  0  0  0  0  0  0  0  0
  151.0741  140.7388  157.1403 C   0  0  0  0  0  0  0  0  0  0  0  0
  151.7565  141.8462  157.9691 C   0  0  0  0  0  0  0  0  0  0  0  0
  150.3089  139.8393  158.1372 C   0  0  0  0  0  0  0  0  0  0  0  0
  152.1766  139.9613  156.3660 C   0  0  0  0  0  0  0  0  0  0  0  0
  151.6989  138.9997  155.2359 C   0  0  1  0  0  0  0  0  0  0  0  0
  152.9318  138.5541  154.4005 C   0  0  0  0  0  0  0  0  0  0  0  0
  153.8528  139.6088  154.1982 O   0  0  0  0  0  0  0  0  0  0  0  0
  151.0102  137.8188  155.7798 N   0  0  0  0  0  0  0  0  0  0  0  0
  151.5220  136.6200  156.1122 C   0  0  0  0  0  0  0  0  0  0  0  0
  152.7109  136.3234  155.9940 O   0  0  0  0  0  0  0  0  0  0  0  0
  150.5223  135.6020  156.6697 C   0  0  0  0  0  0  0  0  0  0  0  0
  150.3550  134.4177  155.7327 C   0  0  0  0  0  0  0  0  0  0  0  0
  150.5632  133.0983  156.1867 C   0  0  0  0  0  0  0  0  0  0  0  0
  150.3974  132.0344  155.2794 C   0  0  0  0  0  0  0  0  0  0  0  0
  150.0270  132.3356  153.9534 C   0  0  0  0  0  0  0  0  0  0  0  0
  149.8239  133.5940  153.5075 N   0  0  0  0  0  0  0  0  0  0  0  0
  149.9878  134.6088  154.3833 C   0  0  0  0  0  0  0  0  0  0  0  0
  150.7111  139.7627  154.3177 C   0  0  0  0  0  0  0  0  0  0  0  0
  149.1119  141.9463  153.5654 H   0  0  0  0  0  0  0  0  0  0  0  0
  147.7630  141.6042  154.6458 H   0  0  0  0  0  0  0  0  0  0  0  0
  148.1855  140.4598  153.3790 H   0  0  0  0  0  0  0  0  0  0  0  0
  148.9677  139.6607  155.5765 H   0  0  0  0  0  0  0  0  0  0  0  0
  150.6166  142.2190  155.6254 H   0  0  0  0  0  0  0  0  0  0  0  0
  149.2757  141.8696  156.6788 H   0  0  0  0  0  0  0  0  0  0  0  0
  152.4552  141.4260  158.6936 H   0  0  0  0  0  0  0  0  0  0  0  0
  151.0261  142.4374  158.5228 H   0  0  0  0  0  0  0  0  0  0  0  0
  152.3176  142.5353  157.3367 H   0  0  0  0  0  0  0  0  0  0  0  0
  150.9954  139.3187  158.8057 H   0  0  0  0  0  0  0  0  0  0  0  0
  149.6962  139.0850  157.6485 H   0  0  0  0  0  0  0  0  0  0  0  0
  149.6342  140.4283  158.7594 H   0  0  0  0  0  0  0  0  0  0  0  0
  152.8273  140.7021  155.8983 H   0  0  0  0  0  0  0  0  0  0  0  0
  152.8223  139.4385  157.0718 H   0  0  0  0  0  0  0  0  0  0  0  0
  153.4603  137.7467  154.9087 H   0  0  0  0  0  0  0  0  0  0  0  0
  152.6386  138.1551  153.4297 H   0  0  0  0  0  0  0  0  0  0  0  0
  153.8869  139.8039  153.2741 H   0  0  0  0  0  0  0  0  0  0  0  0
  150.0170  137.9327  155.9204 H   0  0  0  0  0  0  0  0  0  0  0  0
  150.8532  135.2409  157.6448 H   0  0  0  0  0  0  0  0  0  0  0  0
  149.5622  136.0955  156.8236 H   0  0  0  0  0  0  0  0  0  0  0  0
  150.8469  132.9043  157.2106 H   0  0  0  0  0  0  0  0  0  0  0  0
  150.5504  131.0119  155.5917 H   0  0  0  0  0  0  0  0  0  0  0  0
  149.8889  131.5441  153.2318 H   0  0  0  0  0  0  0  0  0  0  0  0
  149.8211  135.6026  153.9946 H   0  0  0  0  0  0  0  0  0  0  0  0
  150.3029  139.0867  153.5650 H   0  0  0  0  0  0  0  0  0  0  0  0
  151.2551  140.5298  153.7644 H   0  0  0  0  0  0  0  0  0  0  0  0
  1  2  1  0  0  0  0
  1 22  1  0  0  0  0
  1 23  1  0  0  0  0
  1 24  1  0  0  0  0
  2 21  1  0  0  0  0
  2  3  1  0  0  0  0
  2 25  1  0  0  0  0
  3  4  1  0  0  0  0
  3 26  1  0  0  0  0
  3 27  1  0  0  0  0
  4  5  1  0  0  0  0
  4  6  1  0  0  0  0
  4  7  1  0  0  0  0
  5 28  1  0  0  0  0
  5 29  1  0  0  0  0
  5 30  1  0  0  0  0
  6 31  1  0  0  0  0
  6 32  1  0  0  0  0
  6 33  1  0  0  0  0
  7  8  1  0  0  0  0
  7 34  1  0  0  0  0
  7 35  1  0  0  0  0
  8  9  1  0  0  0  0
  8 11  1  0  0  0  0
  8 21  1  0  0  0  0
  9 10  1  0  0  0  0
  9 36  1  0  0  0  0
  9 37  1  0  0  0  0
 10 38  1  0  0  0  0
 11 12  1  0  0  0  0
 11 39  1  0  0  0  0
 12 13  2  0  0  0  0
 12 14  1  0  0  0  0
 14 15  1  0  0  0  0
 14 40  1  0  0  0  0
 14 41  1  0  0  0  0
 15 20  1  0  0  0  0
 15 16  2  0  0  0  0
 16 17  1  0  0  0  0
 16 42  1  0  0  0  0
 17 18  2  0  0  0  0
 17 43  1  0  0  0  0
 18 19  1  0  0  0  0
 18 44  1  0  0  0  0
 19 20  2  0  0  0  0
 20 45  1  0  0  0  0
 21 46  1  0  0  0  0
 21 47  1  0  0  0  0
M  END
> <s_m_source_file>
AV-unprocessed.smi

> <i_m_source_file_index>
2802

> <i_lp_mmshare_version>
43012

> <i_f3d_flags>
0

> <s_epik_input>
W0NIM11DMShbQ0gzXSlbQ0gyXVtDQEBIXShbQ0gzXSlbQ0gyXVtDQF0oW0NIMl0xKShbQ0gyXVtPSF0pW05IXUMoPU8pW0NIMl1jMltjSF1bY0hdW2NIXW5bY0hdMg==

> <s_epik_cmdline>
J2VwaWtfcHl0aG9uJywgJy1waCcsICc3LjAnLCAnLXRuJywgJzgnLCAnLW1hJywgJzIwMCcsICctbWV0YWxfYmluZGluZycsICctaW1hZScsICc8aW5maWxlLm1hZT4nLCAnLW9tYWUnLCAnPG91dGZpbGUubWFlPic=

> <r_epik_Ionization_Penalty>
0.004793

> <r_epik_Ionization_Penalty_Charging>
0

> <r_epik_Ionization_Penalty_Neutral>
0.004793

> <r_epik_State_Penalty>
0.00347421

> <r_epik_Charging_Adjusted_Penalty>
0.00347421

> <i_epik_Tot_Q>
0

> <i_epik_Tot_abs_Q>
0

> <r_epik_Metal_State_Penalty>
-0

> <b_epik_Metal_Only>
0

> <s_lp_Force_Field>
OPLS_2005

> <r_lp_Energy>
18.2871

> <b_lp_Chiralities_Consistent>
1

> <s_lp_Variant>
AV-unprocessed.smi:2802-1

> <Gold.Version>
5.8.1

> <Gold.Id.Protein>
6NUR|6NUR_protein|mol2

> <Gold.PLP.Fitness>
42.4299

> <Gold.PLP.PLP>
-35.2469

> <Gold.PLP.part.hbond>
-2.7580

> <Gold.PLP.part.metal>
0.0000

> <Gold.PLP.part.buried>
-0.8635

> <Gold.PLP.part.nonpolar>
-32.2225

> <Gold.PLP.part.repulsive>
0.2168

> <Gold.PLP.ligand.clash>
0.0000

> <Gold.PLP.ligand.torsion>
0.8850

> <Gold.PLP.Chemscore.Hbond>
2.0000

> <Gold.PLP.Chemscore.CHOScore>
0.9824

> <Gold.PLP.Chemscore.Metal>
0.0000

> <Gold.Chemscore.Hbonds>
donor molecule, donor type, donor heavy atom, donor atom, acceptor molecule, acceptor atom, score
      P1  H  7997  8010       L1    10  1.00
      P1  H 10752 10764       L1    13  0.53
      L1  C    20    45       P1  7948  0.79

> <Gold.PLP.Chemscore.Internal.Correction>
0.0058

> <Gold.Rescore>
     Score         DG    S(hbond)    S(metal)    S(lipo)     H(rot)  DE(clash)    DE(int)     intcor
     15.23     -17.81       1.98        0.00      92.67       2.00       0.20       2.38       ----

> <Gold.Chemscore.Fitness>
15.2308

> <Gold.Chemscore.DG>
-17.8097

> <Gold.Chemscore.ZeroCoef>
-5.4800

> <Gold.Chemscore.Hbond>
1.9803

> <Gold.Chemscore.Metal>
0.0000

> <Gold.Chemscore.Lipo>
92.6676

> <Gold.Chemscore.Internal_Hbond>
0.0000

> <Gold.Chemscore.DEClash>
0.1979

> <Gold.Chemscore.DEInternal>
2.3810

> <Gold.Chemscore.Rot>
2.0026

> <Gold.Chemscore.Internal.Correction>
   9.000000E+99

> <Gold.Chemscore.Hbonds>
donor molecule, donor type, donor heavy atom, donor atom, acceptor molecule, acceptor atom, score
      P1  H  7997  8010       L1    10  0.96
      P1  H 10752 10764       L1    13  0.51

> <Gold.Chemscore.Hbond.Weighted>
-6.6142

> <Gold.Chemscore.Metal.Weighted>
-0.0000

> <Gold.Chemscore.Lipo.Weighted>
-10.8421

> <Gold.Chemscore.Internal_Hbond.Weighted>
0.0000

> <Gold.Chemscore.DEClash.Weighted>
0.1979

> <Gold.Chemscore.DEInternal.Weighted>
2.3810

> <Gold.Chemscore.Rot.Weighted>
5.1267

> <Gold.Chemscore.Internal.Correction.Weighted>
   9.000000E+99

> <Gold.Protein.RotatedTorsions>
[ 6907 6896 6895 6894 ] final -106.64 input  -60.11 | X-H torsion
[ 7974 7965 7964 7962 ] final   32.39 input  175.53 | X-H torsion
[ 8008 7997 7996 7995 ] final  126.36 input   59.86 | X-H torsion
[ 10167 10162 10161 10158 ] final -179.31 input  -65.29 | X-H torsion
[ 10718 10713 10712 10709 ] final -105.46 input   66.30 | X-H torsion
[ 10763 10752 10751 10750 ] final   -8.56 input  -60.55 | X-H torsion
[ 11005 11000 10999 10996 ] final   -5.26 input  -57.11 | X-H torsion

> <Gold.Protein.ActiveResidues>
 VAL166  LYS551  ARG553  GLY616  TRP617  ASP618  TYR619  PRO620  LYS621  CYS622 
 ASP623  PHE694  ASN695  SER759  ASP760  ASP761  ALA762  ILE779  LEU786  VAL792 
 PHE793  MET794  SER795  GLU796  ALA797  LYS798  CYS799  TRP800  GLU811  SER814 

> <Gold.Protein.RotatedAtoms>
  150.7400  133.9946  159.3617 H   0  0  0  0  0  0  0  0  0  0  0  0  # atno 6907 bound_to 6896
  151.7896  135.0737  160.0394 H   0  0  0  0  0  0  0  0  0  0  0  0  # atno 6908 bound_to 6896
  152.3217  133.5824  159.5785 H   0  0  0  0  0  0  0  0  0  0  0  0  # atno 6909 bound_to 6896
  146.1489  139.6532  142.9112 H   0  0  0  0  0  0  0  0  0  0  0  0  # atno 7974 bound_to 7965
  156.2861  140.2694  156.2098 H   0  0  0  0  0  0  0  0  0  0  0  0  # atno 8008 bound_to 7997
  155.0276  140.0386  157.2479 H   0  0  0  0  0  0  0  0  0  0  0  0  # atno 8009 bound_to 7997
  154.7382  140.2720  155.6401 H   0  0  0  0  0  0  0  0  0  0  0  0  # atno 8010 bound_to 7997
  139.5392  144.2411  152.0859 H   0  0  0  0  0  0  0  0  0  0  0  0  # atno 10167 bound_to 10162
  156.0347  130.5565  150.7542 H   0  0  0  0  0  0  0  0  0  0  0  0  # atno 10718 bound_to 10713
  153.4423  135.7014  153.6161 H   0  0  0  0  0  0  0  0  0  0  0  0  # atno 10763 bound_to 10752
  153.4531  135.3753  155.2295 H   0  0  0  0  0  0  0  0  0  0  0  0  # atno 10764 bound_to 10752
  154.8727  135.4002  154.3823 H   0  0  0  0  0  0  0  0  0  0  0  0  # atno 10765 bound_to 10752
  140.6892  133.9086  155.8606 H   0  0  0  0  0  0  0  0  0  0  0  0  # atno 11005 bound_to 11000
  145.4870  141.0438  143.2614 LP  0  0  0  0  0  0  0  0  0  0  0  0  # atno 17320 bound_to 7965
  144.7880  139.6387  143.7126 LP  0  0  0  0  0  0  0  0  0  0  0  0  # atno 17321 bound_to 7965
  140.1886  144.4774  150.6490 LP  0  0  0  0  0  0  0  0  0  0  0  0  # atno 17342 bound_to 10162
  140.6614  143.2253  151.5847 LP  0  0  0  0  0  0  0  0  0  0  0  0  # atno 17343 bound_to 10162
  157.5079  131.0923  151.0235 LP  0  0  0  0  0  0  0  0  0  0  0  0  # atno 17370 bound_to 10713
  157.0598  130.5821  149.5384 LP  0  0  0  0  0  0  0  0  0  0  0  0  # atno 17371 bound_to 10713
  141.0255  134.0829  157.4073 LP  0  0  0  0  0  0  0  0  0  0  0  0  # atno 17394 bound_to 11000
  139.8928  135.0127  156.6868 LP  0  0  0  0  0  0  0  0  0  0  0  0  # atno 17395 bound_to 11000

$$$$
