AV-unprocessed.smi:2063|AV-procd|sdf|8411|dock2
  -GOLD-   2272011103D 1   1.00000     0.00000
 Structure written by MMmdl.
 39 40  0  0  0  0  0  0  0  0  1 V2000
  144.3424  131.4916  151.0732 C   0  0  0  0  0  0  0  0  0  0  0  0
  143.8360  132.7827  150.4140 C   0  0  0  0  0  0  0  0  0  0  0  0
  143.8948  132.7396  148.8802 C   0  0  0  0  0  0  0  0  0  0  0  0
  144.5057  134.0004  150.9703 C   0  0  0  0  0  0  0  0  0  0  0  0
  145.3536  133.9577  152.0072 N   0  0  0  0  0  0  0  0  0  0  0  0
  145.8432  135.2122  152.3412 N   0  0  0  0  0  0  0  0  0  0  0  0
  145.3489  136.1694  151.5445 C   0  0  0  0  0  0  0  0  0  0  0  0
  145.6760  137.5455  151.6671 N   0  0  0  0  0  0  0  0  0  0  0  0
  146.2639  138.1739  152.7001 C   0  0  0  0  0  0  0  0  0  0  0  0
  146.6525  137.6326  153.7354 O   0  0  0  0  0  0  0  0  0  0  0  0
  146.3813  139.4880  152.4610 N   0  0  0  0  0  0  0  0  0  0  0  0
  146.9656  140.4684  153.3736 C   0  0  1  0  0  0  0  0  0  0  0  0
  146.2365  140.4141  154.7254 C   0  0  0  0  0  0  0  0  0  0  0  0
  148.4761  140.2054  153.5227 C   0  0  1  0  0  0  0  0  0  0  0  0
  149.2129  141.2019  154.4197 C   0  0  0  0  0  0  0  0  0  0  0  0
  150.4259  140.4210  154.8988 C   0  0  0  0  0  0  0  0  0  0  0  0
  150.0744  138.9615  154.5956 C   0  0  0  0  0  0  0  0  0  0  0  0
  148.7112  138.9783  154.1949 O   0  0  0  0  0  0  0  0  0  0  0  0
  144.2349  135.6096  150.3097 S   0  0  0  0  0  0  0  0  0  0  0  0
  144.2092  131.5253  152.1550 H   0  0  0  0  0  0  0  0  0  0  0  0
  145.4023  131.3333  150.8723 H   0  0  0  0  0  0  0  0  0  0  0  0
  143.8009  130.6217  150.7009 H   0  0  0  0  0  0  0  0  0  0  0  0
  142.7806  132.8661  150.6766 H   0  0  0  0  0  0  0  0  0  0  0  0
  143.4526  133.6366  148.4455 H   0  0  0  0  0  0  0  0  0  0  0  0
  143.3491  131.8800  148.4906 H   0  0  0  0  0  0  0  0  0  0  0  0
  144.9231  132.6685  148.5242 H   0  0  0  0  0  0  0  0  0  0  0  0
  145.4249  138.1211  150.8772 H   0  0  0  0  0  0  0  0  0  0  0  0
  146.0358  139.8420  151.5812 H   0  0  0  0  0  0  0  0  0  0  0  0
  146.8416  141.4693  152.9559 H   0  0  0  0  0  0  0  0  0  0  0  0
  146.6378  141.1533  155.4189 H   0  0  0  0  0  0  0  0  0  0  0  0
  146.3357  139.4329  155.1913 H   0  0  0  0  0  0  0  0  0  0  0  0
  145.1724  140.6212  154.6076 H   0  0  0  0  0  0  0  0  0  0  0  0
  148.9557  140.1679  152.5424 H   0  0  0  0  0  0  0  0  0  0  0  0
  149.4801  142.1217  153.8989 H   0  0  0  0  0  0  0  0  0  0  0  0
  148.5906  141.4689  155.2752 H   0  0  0  0  0  0  0  0  0  0  0  0
  151.3266  140.7172  154.3602 H   0  0  0  0  0  0  0  0  0  0  0  0
  150.6013  140.5841  155.9626 H   0  0  0  0  0  0  0  0  0  0  0  0
  150.6851  138.5824  153.7750 H   0  0  0  0  0  0  0  0  0  0  0  0
  150.2193  138.3088  155.4569 H   0  0  0  0  0  0  0  0  0  0  0  0
  1  2  1  0  0  0  0
  1 20  1  0  0  0  0
  1 21  1  0  0  0  0
  1 22  1  0  0  0  0
  2  3  1  0  0  0  0
  2  4  1  0  0  0  0
  2 23  1  0  0  0  0
  3 24  1  0  0  0  0
  3 25  1  0  0  0  0
  3 26  1  0  0  0  0
  4 19  1  0  0  0  0
  4  5  2  0  0  0  0
  5  6  1  0  0  0  0
  6  7  2  0  0  0  0
  7  8  1  0  0  0  0
  7 19  1  0  0  0  0
  8  9  1  0  0  0  0
  8 27  1  0  0  0  0
  9 10  2  0  0  0  0
  9 11  1  0  0  0  0
 11 12  1  0  0  0  0
 11 28  1  0  0  0  0
 12 13  1  0  0  0  0
 12 14  1  0  0  0  0
 12 29  1  0  0  0  0
 13 30  1  0  0  0  0
 13 31  1  0  0  0  0
 13 32  1  0  0  0  0
 14 18  1  0  0  0  0
 14 15  1  0  0  0  0
 14 33  1  0  0  0  0
 15 16  1  0  0  0  0
 15 34  1  0  0  0  0
 15 35  1  0  0  0  0
 16 17  1  0  0  0  0
 16 36  1  0  0  0  0
 16 37  1  0  0  0  0
 17 18  1  0  0  0  0
 17 38  1  0  0  0  0
 17 39  1  0  0  0  0
M  END
> <s_m_source_file>
AV-unprocessed.smi

> <i_m_source_file_index>
2063

> <i_lp_mmshare_version>
43012

> <i_f3d_flags>
0

> <s_epik_input>
W0NIM11bQ0hdKFtDSDNdKWMxbm5jKHMxKVtOSF1DKD1PKVtOSF1bQ0BIXShbQ0gzXSlbQ0BASF0yW0NIMl1bQ0gyXVtDSDJdTzI=

> <s_epik_cmdline>
J2VwaWtfcHl0aG9uJywgJy1waCcsICc3LjAnLCAnLXRuJywgJzgnLCAnLW1hJywgJzIwMCcsICctbWV0YWxfYmluZGluZycsICctaW1hZScsICc8aW5maWxlLm1hZT4nLCAnLW9tYWUnLCAnPG91dGZpbGUubWFlPic=

> <r_lp_tautomer_probability>
1

> <r_epik_Ionization_Penalty>
0.00050567

> <r_epik_Ionization_Penalty_Charging>
0

> <r_epik_Ionization_Penalty_Neutral>
0.00050567

> <r_epik_State_Penalty>
-0

> <r_epik_Charging_Adjusted_Penalty>
0

> <i_epik_Tot_Q>
0

> <i_epik_Tot_abs_Q>
0

> <r_epik_Metal_State_Penalty>
0.219912

> <b_epik_Metal_Only>
0

> <s_lp_Force_Field>
OPLS_2005

> <r_lp_Energy>
10.6247

> <b_lp_Chiralities_Consistent>
1

> <s_lp_Variant>
AV-unprocessed.smi:2063-4

> <Gold.Version>
5.8.1

> <Gold.Id.Protein>
6NUR|6NUR_protein|mol2

> <Gold.PLP.Fitness>
35.5655

> <Gold.PLP.PLP>
-33.8898

> <Gold.PLP.part.hbond>
-2.0000

> <Gold.PLP.part.metal>
0.0000

> <Gold.PLP.part.buried>
1.6005

> <Gold.PLP.part.nonpolar>
-33.5251

> <Gold.PLP.part.repulsive>
0.6228

> <Gold.PLP.ligand.clash>
0.0000

> <Gold.PLP.ligand.torsion>
0.3117

> <Gold.PLP.Chemscore.Hbond>
0.7296

> <Gold.PLP.Chemscore.CHOScore>
0.0000

> <Gold.PLP.Chemscore.Metal>
0.0000

> <Gold.Chemscore.Hbonds>
donor molecule, donor type, donor heavy atom, donor atom, acceptor molecule, acceptor atom, score
      L1  H     8    27       P1 10171  0.82

> <Gold.PLP.Chemscore.Internal.Correction>
0.1104

> <Gold.Rescore>
     Score         DG    S(hbond)    S(metal)    S(lipo)     H(rot)  DE(clash)    DE(int)     intcor
      9.41     -13.99       0.94        0.00      76.89       1.42       0.24       4.33       ----

> <Gold.Chemscore.Fitness>
9.4098

> <Gold.Chemscore.DG>
-13.9859

> <Gold.Chemscore.ZeroCoef>
-5.4800

> <Gold.Chemscore.Hbond>
0.9379

> <Gold.Chemscore.Metal>
0.0000

> <Gold.Chemscore.Lipo>
76.8898

> <Gold.Chemscore.Internal_Hbond>
0.0000

> <Gold.Chemscore.DEClash>
0.2412

> <Gold.Chemscore.DEInternal>
4.3348

> <Gold.Chemscore.Rot>
1.4152

> <Gold.Chemscore.Internal.Correction>
   9.000000E+99

> <Gold.Chemscore.Hbonds>
donor molecule, donor type, donor heavy atom, donor atom, acceptor molecule, acceptor atom, score
      L1  H     8    27       P1 10171  0.81

> <Gold.Chemscore.Hbond.Weighted>
-3.1327

> <Gold.Chemscore.Metal.Weighted>
-0.0000

> <Gold.Chemscore.Lipo.Weighted>
-8.9961

> <Gold.Chemscore.Internal_Hbond.Weighted>
0.0000

> <Gold.Chemscore.DEClash.Weighted>
0.2412

> <Gold.Chemscore.DEInternal.Weighted>
4.3348

> <Gold.Chemscore.Rot.Weighted>
3.6229

> <Gold.Chemscore.Internal.Correction.Weighted>
   9.000000E+99

> <Gold.Protein.RotatedTorsions>
[ 6907 6896 6895 6894 ] final  119.40 input  -60.11 | X-H torsion
[ 7974 7965 7964 7962 ] final -156.83 input  175.53 | X-H torsion
[ 8008 7997 7996 7995 ] final  -19.55 input   59.86 | X-H torsion
[ 10167 10162 10161 10158 ] final  140.32 input  -65.29 | X-H torsion
[ 10718 10713 10712 10709 ] final  -29.77 input   66.30 | X-H torsion
[ 10763 10752 10751 10750 ] final  -23.08 input  -60.55 | X-H torsion
[ 11005 11000 10999 10996 ] final -110.46 input  -57.11 | X-H torsion

> <Gold.Protein.ActiveResidues>
 VAL166  LYS551  ARG553  GLY616  TRP617  ASP618  TYR619  PRO620  LYS621  CYS622 
 ASP623  PHE694  ASN695  SER759  ASP760  ASP761  ALA762  ILE779  LEU786  VAL792 
 PHE793  MET794  SER795  GLU796  ALA797  LYS798  CYS799  TRP800  GLU811  SER814 

> <Gold.Protein.RotatedAtoms>
  152.4474  133.7563  159.6721 H   0  0  0  0  0  0  0  0  0  0  0  0  # atno 6907 bound_to 6896
  150.8377  133.7976  159.3079 H   0  0  0  0  0  0  0  0  0  0  0  0  # atno 6908 bound_to 6896
  151.5610  135.1068  160.0024 H   0  0  0  0  0  0  0  0  0  0  0  0  # atno 6909 bound_to 6896
  144.7575  140.4055  143.6001 H   0  0  0  0  0  0  0  0  0  0  0  0  # atno 7974 bound_to 7965
  154.4829  140.2086  155.9722 H   0  0  0  0  0  0  0  0  0  0  0  0  # atno 8008 bound_to 7997
  156.1192  140.3216  155.8153 H   0  0  0  0  0  0  0  0  0  0  0  0  # atno 8009 bound_to 7997
  155.4497  140.0516  157.2993 H   0  0  0  0  0  0  0  0  0  0  0  0  # atno 8010 bound_to 7997
  139.5052  144.6241  151.5979 H   0  0  0  0  0  0  0  0  0  0  0  0  # atno 10167 bound_to 10162
  156.4082  130.4403  149.7271 H   0  0  0  0  0  0  0  0  0  0  0  0  # atno 10718 bound_to 10713
  153.6622  135.6976  153.5174 H   0  0  0  0  0  0  0  0  0  0  0  0  # atno 10763 bound_to 10752
  153.2623  135.4241  155.0905 H   0  0  0  0  0  0  0  0  0  0  0  0  # atno 10764 bound_to 10752
  154.8449  135.3558  154.6166 H   0  0  0  0  0  0  0  0  0  0  0  0  # atno 10765 bound_to 10752
  141.0790  133.9251  157.2328 H   0  0  0  0  0  0  0  0  0  0  0  0  # atno 11005 bound_to 11000
  145.6728  139.1602  143.2744 LP  0  0  0  0  0  0  0  0  0  0  0  0  # atno 17320 bound_to 7965
  146.1603  140.6798  142.9281 LP  0  0  0  0  0  0  0  0  0  0  0  0  # atno 17321 bound_to 7965
  140.5953  143.9707  150.6350 LP  0  0  0  0  0  0  0  0  0  0  0  0  # atno 17342 bound_to 10162
  140.2901  143.3330  152.1070 LP  0  0  0  0  0  0  0  0  0  0  0  0  # atno 17343 bound_to 10162
  156.4260  130.7792  151.2811 LP  0  0  0  0  0  0  0  0  0  0  0  0  # atno 17370 bound_to 10713
  157.7506  131.0168  150.3560 LP  0  0  0  0  0  0  0  0  0  0  0  0  # atno 17371 bound_to 10713
  139.9603  135.0155  156.9243 LP  0  0  0  0  0  0  0  0  0  0  0  0  # atno 17394 bound_to 11000
  140.5509  134.0628  155.7369 LP  0  0  0  0  0  0  0  0  0  0  0  0  # atno 17395 bound_to 11000

$$$$
