AV-unprocessed.smi:379|AV-procd|sdf|2458|dock6
  -GOLD-   2262022403D 1   1.00000     0.00000
 Structure written by MMmdl.
 39 40  0  0  0  0  0  0  0  0  1 V2000
  146.8601  142.1856  153.7551 C   0  0  0  0  0  0  0  0  0  0  0  0
  147.8327  141.8627  154.8991 C   0  0  0  0  0  0  0  0  0  0  0  0
  148.7991  140.7018  154.5905 C   0  0  2  0  0  0  0  0  0  0  0  0
  148.0803  139.5360  153.8980 C   0  0  0  0  0  0  0  0  0  0  0  0
  149.4268  140.2151  155.8179 N   0  0  0  0  0  0  0  0  0  0  0  0
  150.7402  140.2289  156.0939 C   0  0  0  0  0  0  0  0  0  0  0  0
  151.5944  140.6473  155.3111 O   0  0  0  0  0  0  0  0  0  0  0  0
  151.1341  139.6822  157.4741 C   0  0  0  0  0  0  0  0  0  0  0  0
  151.8510  140.6674  158.3133 N   0  0  0  0  0  0  0  0  0  0  0  0
  153.0924  140.2880  158.8852 C   0  0  0  0  0  0  0  0  0  0  0  0
  153.5620  139.1645  158.6941 O   0  0  0  0  0  0  0  0  0  0  0  0
  153.7507  141.3103  159.6949 C   0  0  0  0  0  0  0  0  0  0  0  0
  155.0196  140.9806  160.2545 C   0  0  0  0  0  0  0  0  0  0  0  0
  156.0557  140.7006  160.6878 N   0  0  0  0  0  0  0  0  0  0  0  0
  153.1774  142.5149  159.8938 C   0  0  0  0  0  0  0  0  0  0  0  0
  151.9460  142.8452  159.3713 N   0  0  0  0  0  0  0  0  0  0  0  0
  151.4285  144.1816  159.4612 C   0  0  0  0  0  0  0  0  0  0  0  0
  152.2647  145.3307  158.9417 C   0  0  0  0  0  0  0  0  0  0  0  0
  152.0428  145.1764  160.4265 C   0  0  0  0  0  0  0  0  0  0  0  0
  151.2654  141.9388  158.5291 C   0  0  0  0  0  0  0  0  0  0  0  0
  150.1975  142.2458  157.9937 O   0  0  0  0  0  0  0  0  0  0  0  0
  146.1679  142.9757  154.0474 H   0  0  0  0  0  0  0  0  0  0  0  0
  146.2694  141.3106  153.4833 H   0  0  0  0  0  0  0  0  0  0  0  0
  147.3861  142.5252  152.8627 H   0  0  0  0  0  0  0  0  0  0  0  0
  148.4004  142.7589  155.1522 H   0  0  0  0  0  0  0  0  0  0  0  0
  147.2501  141.6144  155.7868 H   0  0  0  0  0  0  0  0  0  0  0  0
  149.5592  141.0687  153.8987 H   0  0  0  0  0  0  0  0  0  0  0  0
  147.6185  139.8588  152.9645 H   0  0  0  0  0  0  0  0  0  0  0  0
  147.2959  139.1187  154.5305 H   0  0  0  0  0  0  0  0  0  0  0  0
  148.7776  138.7328  153.6578 H   0  0  0  0  0  0  0  0  0  0  0  0
  148.8059  139.8485  156.5246 H   0  0  0  0  0  0  0  0  0  0  0  0
  150.2354  139.3332  157.9860 H   0  0  0  0  0  0  0  0  0  0  0  0
  151.7207  138.7747  157.3249 H   0  0  0  0  0  0  0  0  0  0  0  0
  153.6985  143.2486  160.4919 H   0  0  0  0  0  0  0  0  0  0  0  0
  150.3545  144.2730  159.3084 H   0  0  0  0  0  0  0  0  0  0  0  0
  153.2611  145.1114  158.5628 H   0  0  0  0  0  0  0  0  0  0  0  0
  151.7425  146.1403  158.4362 H   0  0  0  0  0  0  0  0  0  0  0  0
  151.3719  145.8823  160.9119 H   0  0  0  0  0  0  0  0  0  0  0  0
  152.8935  144.8560  161.0250 H   0  0  0  0  0  0  0  0  0  0  0  0
  1  2  1  0  0  0  0
  1 22  1  0  0  0  0
  1 23  1  0  0  0  0
  1 24  1  0  0  0  0
  2  3  1  0  0  0  0
  2 25  1  0  0  0  0
  2 26  1  0  0  0  0
  3  4  1  0  0  0  0
  3  5  1  0  0  0  0
  3 27  1  0  0  0  0
  4 28  1  0  0  0  0
  4 29  1  0  0  0  0
  4 30  1  0  0  0  0
  5  6  1  0  0  0  0
  5 31  1  0  0  0  0
  6  7  2  0  0  0  0
  6  8  1  0  0  0  0
  8  9  1  0  0  0  0
  8 32  1  0  0  0  0
  8 33  1  0  0  0  0
  9 20  1  0  0  0  0
  9 10  1  0  0  0  0
 10 11  2  0  0  0  0
 10 12  1  0  0  0  0
 12 13  1  0  0  0  0
 12 15  2  0  0  0  0
 13 14  3  0  0  0  0
 15 16  1  0  0  0  0
 15 34  1  0  0  0  0
 16 17  1  0  0  0  0
 16 20  1  0  0  0  0
 17 19  1  0  0  0  0
 17 18  1  0  0  0  0
 17 35  1  0  0  0  0
 18 19  1  0  0  0  0
 18 36  1  0  0  0  0
 18 37  1  0  0  0  0
 19 38  1  0  0  0  0
 19 39  1  0  0  0  0
 20 21  2  0  0  0  0
M  END
> <s_m_source_file>
AV-unprocessed.smi

> <i_m_source_file_index>
379

> <i_lp_mmshare_version>
43012

> <i_f3d_flags>
0

> <s_epik_input>
W0NIM11bQ0gyXVtDQEhdKFtDSDNdKVtOSF1DKD1PKVtDSDJdbjFjKD1PKWMoQyNOKVtjSF1uKGMxPU8pW0NIXTJbQ0gyXVtDSDJdMg==

> <s_epik_cmdline>
J2VwaWtfcHl0aG9uJywgJy1waCcsICc3LjAnLCAnLXRuJywgJzgnLCAnLW1hJywgJzIwMCcsICctbWV0YWxfYmluZGluZycsICctaW1hZScsICc8aW5maWxlLm1hZT4nLCAnLW9tYWUnLCAnPG91dGZpbGUubWFlPic=

> <r_lp_tautomer_probability>
1

> <r_epik_Ionization_Penalty>
1.93863e-08

> <r_epik_Ionization_Penalty_Charging>
8.45512e-11

> <r_epik_Ionization_Penalty_Neutral>
1.93017e-08

> <r_epik_State_Penalty>
-0

> <r_epik_Charging_Adjusted_Penalty>
8.45512e-11

> <i_epik_Tot_Q>
0

> <i_epik_Tot_abs_Q>
0

> <r_epik_Metal_State_Penalty>
-0

> <b_epik_Metal_Only>
0

> <s_lp_Force_Field>
OPLS_2005

> <r_lp_Energy>
29.5524

> <b_lp_Chiralities_Consistent>
1

> <s_lp_Variant>
AV-unprocessed.smi:379-1

> <Gold.Version>
5.8.1

> <Gold.Id.Protein>
6NUR|6NUR_protein|mol2

> <Gold.PLP.Fitness>
49.0456

> <Gold.PLP.PLP>
-45.6982

> <Gold.PLP.part.hbond>
-2.9089

> <Gold.PLP.part.metal>
0.0000

> <Gold.PLP.part.buried>
-4.3067

> <Gold.PLP.part.nonpolar>
-37.8476

> <Gold.PLP.part.repulsive>
0.1649

> <Gold.PLP.ligand.clash>
0.0000

> <Gold.PLP.ligand.torsion>
0.3257

> <Gold.PLP.Chemscore.Hbond>
1.2553

> <Gold.PLP.Chemscore.CHOScore>
0.0000

> <Gold.PLP.Chemscore.Metal>
0.0000

> <Gold.Chemscore.Hbonds>
donor molecule, donor type, donor heavy atom, donor atom, acceptor molecule, acceptor atom, score
      P1  H  7989  7998       L1     7  0.74
      P1  H  7997  8008       L1    11  0.31

> <Gold.PLP.Chemscore.Internal.Correction>
0.2331

> <Gold.Rescore>
     Score         DG    S(hbond)    S(metal)    S(lipo)     H(rot)  DE(clash)    DE(int)     intcor
     12.20     -14.00       0.98        0.00      88.27       1.98       0.11       1.69       ----

> <Gold.Chemscore.Fitness>
12.2041

> <Gold.Chemscore.DG>
-14.0030

> <Gold.Chemscore.ZeroCoef>
-5.4800

> <Gold.Chemscore.Hbond>
0.9755

> <Gold.Chemscore.Metal>
0.0000

> <Gold.Chemscore.Lipo>
88.2661

> <Gold.Chemscore.Internal_Hbond>
0.0000

> <Gold.Chemscore.DEClash>
0.1132

> <Gold.Chemscore.DEInternal>
1.6857

> <Gold.Chemscore.Rot>
1.9774

> <Gold.Chemscore.Internal.Correction>
   9.000000E+99

> <Gold.Chemscore.Hbonds>
donor molecule, donor type, donor heavy atom, donor atom, acceptor molecule, acceptor atom, score
      P1  H  7989  7998       L1     7  0.74
      P1  H  7997  8008       L1    11  0.01

> <Gold.Chemscore.Hbond.Weighted>
-3.2581

> <Gold.Chemscore.Metal.Weighted>
-0.0000

> <Gold.Chemscore.Lipo.Weighted>
-10.3271

> <Gold.Chemscore.Internal_Hbond.Weighted>
0.0000

> <Gold.Chemscore.DEClash.Weighted>
0.1132

> <Gold.Chemscore.DEInternal.Weighted>
1.6857

> <Gold.Chemscore.Rot.Weighted>
5.0623

> <Gold.Chemscore.Internal.Correction.Weighted>
   9.000000E+99

> <Gold.Protein.RotatedTorsions>
[ 6907 6896 6895 6894 ] final  120.54 input  -60.11 | X-H torsion
[ 7974 7965 7964 7962 ] final   50.54 input  175.53 | X-H torsion
[ 8008 7997 7996 7995 ] final -102.14 input   59.86 | X-H torsion
[ 10167 10162 10161 10158 ] final  173.69 input  -65.29 | X-H torsion
[ 10718 10713 10712 10709 ] final  142.11 input   66.30 | X-H torsion
[ 10763 10752 10751 10750 ] final  -59.86 input  -60.55 | X-H torsion
[ 11005 11000 10999 10996 ] final  169.07 input  -57.11 | X-H torsion

> <Gold.Protein.ActiveResidues>
 VAL166  LYS551  ARG553  GLY616  TRP617  ASP618  TYR619  PRO620  LYS621  CYS622 
 ASP623  PHE694  ASN695  SER759  ASP760  ASP761  ALA762  ILE779  LEU786  VAL792 
 PHE793  MET794  SER795  GLU796  ALA797  LYS798  CYS799  TRP800  GLU811  SER814 

> <Gold.Protein.RotatedAtoms>
  152.4390  133.7413  159.6642 H   0  0  0  0  0  0  0  0  0  0  0  0  # atno 6907 bound_to 6896
  150.8278  133.8132  159.3117 H   0  0  0  0  0  0  0  0  0  0  0  0  # atno 6908 bound_to 6896
  151.5795  135.1061  160.0066 H   0  0  0  0  0  0  0  0  0  0  0  0  # atno 6909 bound_to 6896
  146.0002  139.4431  143.0020 H   0  0  0  0  0  0  0  0  0  0  0  0  # atno 7974 bound_to 7965
  154.8525  140.0430  157.1613 H   0  0  0  0  0  0  0  0  0  0  0  0  # atno 8008 bound_to 7997
  154.8927  140.2989  155.5341 H   0  0  0  0  0  0  0  0  0  0  0  0  # atno 8009 bound_to 7997
  156.2996  140.2390  156.3945 H   0  0  0  0  0  0  0  0  0  0  0  0  # atno 8010 bound_to 7997
  139.5116  144.3232  152.0183 H   0  0  0  0  0  0  0  0  0  0  0  0  # atno 10167 bound_to 10162
  157.3843  131.0996  151.0709 H   0  0  0  0  0  0  0  0  0  0  0  0  # atno 10718 bound_to 10713
  154.2603  135.6309  153.5272 H   0  0  0  0  0  0  0  0  0  0  0  0  # atno 10763 bound_to 10752
  152.9897  135.5586  154.5711 H   0  0  0  0  0  0  0  0  0  0  0  0  # atno 10764 bound_to 10752
  154.5259  135.2885  155.1198 H   0  0  0  0  0  0  0  0  0  0  0  0  # atno 10765 bound_to 10752
  140.2939  134.7651  157.3861 H   0  0  0  0  0  0  0  0  0  0  0  0  # atno 11005 bound_to 11000
  145.7500  140.9976  143.1256 LP  0  0  0  0  0  0  0  0  0  0  0  0  # atno 17320 bound_to 7965
  144.6917  139.9202  143.7467 LP  0  0  0  0  0  0  0  0  0  0  0  0  # atno 17321 bound_to 7965
  140.2673  144.4002  150.6164 LP  0  0  0  0  0  0  0  0  0  0  0  0  # atno 17342 bound_to 10162
  140.6114  143.2170  151.6879 LP  0  0  0  0  0  0  0  0  0  0  0  0  # atno 17343 bound_to 10162
  157.1766  130.6291  149.5658 LP  0  0  0  0  0  0  0  0  0  0  0  0  # atno 17370 bound_to 10713
  155.9783  130.4767  150.6646 LP  0  0  0  0  0  0  0  0  0  0  0  0  # atno 17371 bound_to 10713
  140.1170  134.5270  155.8216 LP  0  0  0  0  0  0  0  0  0  0  0  0  # atno 17394 bound_to 11000
  141.2141  133.6743  156.6795 LP  0  0  0  0  0  0  0  0  0  0  0  0  # atno 17395 bound_to 11000

$$$$
