AV-unprocessed.smi:506|AV-procd|sdf|2750|dock10
  -GOLD-   2262023213D 1   1.00000     0.00000
 Structure written by MMmdl.
 40 42  0  0  0  0  0  0  0  0  1 V2000
  149.2760  141.3205  154.6892 C   0  0  0  0  0  0  0  0  0  0  0  0
  150.3767  140.4626  154.4260 O   0  0  0  0  0  0  0  0  0  0  0  0
  151.0708  139.9498  155.5008 C   0  0  0  0  0  0  0  0  0  0  0  0
  151.9835  138.9096  155.2377 C   0  0  0  0  0  0  0  0  0  0  0  0
  152.7336  138.3294  156.2777 C   0  0  0  0  0  0  0  0  0  0  0  0
  152.5879  138.7740  157.6060 C   0  0  0  0  0  0  0  0  0  0  0  0
  153.3590  138.1503  158.5620 O   0  0  0  0  0  0  0  0  0  0  0  0
  153.5306  138.7927  159.8184 C   0  0  0  0  0  0  0  0  0  0  0  0
  154.2976  140.1070  159.6143 C   0  0  0  0  0  0  0  0  0  0  0  0
  153.9426  141.1082  160.6102 N   0  0  0  0  0  0  0  0  0  0  0  0
  154.3026  141.1557  161.9174 C   0  0  0  0  0  0  0  0  0  0  0  0
  155.1672  140.1069  162.5468 C   0  0  0  0  0  0  0  0  0  0  0  0
  156.4188  140.6102  162.9624 O   0  0  0  0  0  0  0  0  0  0  0  0
  153.8367  142.1956  162.6103 N   0  0  0  0  0  0  0  0  0  0  0  0
  153.1092  142.8900  161.6635 C   0  0  0  0  0  0  0  0  0  0  0  0
  152.3717  144.0908  161.7715 C   0  0  0  0  0  0  0  0  0  0  0  0
  151.7033  144.6215  160.6487 C   0  0  0  0  0  0  0  0  0  0  0  0
  151.7620  143.9605  159.4047 C   0  0  0  0  0  0  0  0  0  0  0  0
  152.4894  142.7618  159.2759 C   0  0  0  0  0  0  0  0  0  0  0  0
  153.1552  142.2361  160.3997 C   0  0  0  0  0  0  0  0  0  0  0  0
  151.6727  139.8205  157.8763 C   0  0  0  0  0  0  0  0  0  0  0  0
  150.9225  140.4019  156.8352 C   0  0  0  0  0  0  0  0  0  0  0  0
  148.8358  141.6405  153.7447 H   0  0  0  0  0  0  0  0  0  0  0  0
  149.5886  142.2162  155.2276 H   0  0  0  0  0  0  0  0  0  0  0  0
  148.4987  140.8090  155.2586 H   0  0  0  0  0  0  0  0  0  0  0  0
  152.1106  138.5517  154.2267 H   0  0  0  0  0  0  0  0  0  0  0  0
  153.4277  137.5323  156.0534 H   0  0  0  0  0  0  0  0  0  0  0  0
  152.5600  139.0049  160.2688 H   0  0  0  0  0  0  0  0  0  0  0  0
  154.0845  138.1456  160.5000 H   0  0  0  0  0  0  0  0  0  0  0  0
  155.3709  139.9244  159.6742 H   0  0  0  0  0  0  0  0  0  0  0  0
  154.1127  140.5053  158.6169 H   0  0  0  0  0  0  0  0  0  0  0  0
  154.6528  139.6642  163.3993 H   0  0  0  0  0  0  0  0  0  0  0  0
  155.3358  139.3017  161.8309 H   0  0  0  0  0  0  0  0  0  0  0  0
  156.3943  140.7393  163.8980 H   0  0  0  0  0  0  0  0  0  0  0  0
  152.3215  144.6053  162.7195 H   0  0  0  0  0  0  0  0  0  0  0  0
  151.1439  145.5407  160.7423 H   0  0  0  0  0  0  0  0  0  0  0  0
  151.2492  144.3747  158.5489 H   0  0  0  0  0  0  0  0  0  0  0  0
  152.5396  142.2551  158.3236 H   0  0  0  0  0  0  0  0  0  0  0  0
  151.5278  140.1985  158.8768 H   0  0  0  0  0  0  0  0  0  0  0  0
  150.2372  141.1964  157.0885 H   0  0  0  0  0  0  0  0  0  0  0  0
  1  2  1  0  0  0  0
  1 23  1  0  0  0  0
  1 24  1  0  0  0  0
  1 25  1  0  0  0  0
  2  3  1  0  0  0  0
  3 22  1  0  0  0  0
  3  4  2  0  0  0  0
  4  5  1  0  0  0  0
  4 26  1  0  0  0  0
  5  6  2  0  0  0  0
  5 27  1  0  0  0  0
  6  7  1  0  0  0  0
  6 21  1  0  0  0  0
  7  8  1  0  0  0  0
  8  9  1  0  0  0  0
  8 28  1  0  0  0  0
  8 29  1  0  0  0  0
  9 10  1  0  0  0  0
  9 30  1  0  0  0  0
  9 31  1  0  0  0  0
 10 20  1  0  0  0  0
 10 11  1  0  0  0  0
 11 12  1  0  0  0  0
 11 14  2  0  0  0  0
 12 13  1  0  0  0  0
 12 32  1  0  0  0  0
 12 33  1  0  0  0  0
 13 34  1  0  0  0  0
 14 15  1  0  0  0  0
 15 20  2  0  0  0  0
 15 16  1  0  0  0  0
 16 17  2  0  0  0  0
 16 35  1  0  0  0  0
 17 18  1  0  0  0  0
 17 36  1  0  0  0  0
 18 19  2  0  0  0  0
 18 37  1  0  0  0  0
 19 20  1  0  0  0  0
 19 38  1  0  0  0  0
 21 22  2  0  0  0  0
 21 39  1  0  0  0  0
 22 40  1  0  0  0  0
M  END
> <s_m_source_file>
AV-unprocessed.smi

> <i_m_source_file_index>
506

> <i_lp_mmshare_version>
43012

> <i_f3d_flags>
0

> <s_epik_input>
W0NIM11PYzFbY0hdW2NIXWMoW2NIXVtjSF0xKU9bQ0gyXVtDSDJdbihjKG4yKVtDSDJdW09IXSljKGMyMylbY0hdW2NIXVtjSF1bY0hdMw==

> <s_epik_cmdline>
J2VwaWtfcHl0aG9uJywgJy1waCcsICc3LjAnLCAnLXRuJywgJzgnLCAnLW1hJywgJzIwMCcsICctbWV0YWxfYmluZGluZycsICctaW1hZScsICc8aW5maWxlLm1hZT4nLCAnLW9tYWUnLCAnPG91dGZpbGUubWFlPic=

> <r_lp_tautomer_probability>
1

> <r_epik_Ionization_Penalty>
0.0483634

> <r_epik_Ionization_Penalty_Charging>
0

> <r_epik_Ionization_Penalty_Neutral>
0.0483634

> <r_epik_State_Penalty>
0.0411758

> <r_epik_Charging_Adjusted_Penalty>
0.0411758

> <i_epik_Tot_Q>
0

> <i_epik_Tot_abs_Q>
0

> <r_epik_Metal_State_Penalty>
4.26388e-05

> <b_epik_Metal_Only>
0

> <s_lp_Force_Field>
OPLS_2005

> <r_lp_Energy>
17.7354

> <b_lp_Chiralities_Consistent>
1

> <s_lp_Variant>
AV-unprocessed.smi:506-1

> <Gold.Version>
5.8.1

> <Gold.Id.Protein>
6NUR|6NUR_protein|mol2

> <Gold.PLP.Fitness>
53.7863

> <Gold.PLP.PLP>
-52.2612

> <Gold.PLP.part.hbond>
-2.5974

> <Gold.PLP.part.metal>
0.0000

> <Gold.PLP.part.buried>
-4.1523

> <Gold.PLP.part.nonpolar>
-44.6982

> <Gold.PLP.part.repulsive>
0.1536

> <Gold.PLP.ligand.clash>
0.0000

> <Gold.PLP.ligand.torsion>
0.7434

> <Gold.PLP.Chemscore.Hbond>
0.9760

> <Gold.PLP.Chemscore.CHOScore>
0.0000

> <Gold.PLP.Chemscore.Metal>
0.0000

> <Gold.Chemscore.Hbonds>
donor molecule, donor type, donor heavy atom, donor atom, acceptor molecule, acceptor atom, score
      P1  H  7989  7998       L1     2  0.98

> <Gold.PLP.Chemscore.Internal.Correction>
0.0838

> <Gold.Rescore>
     Score         DG    S(hbond)    S(metal)    S(lipo)     H(rot)  DE(clash)    DE(int)     intcor
     16.58     -17.42       0.81        0.00     132.77       2.46       0.18       0.65       ----

> <Gold.Chemscore.Fitness>
16.5839

> <Gold.Chemscore.DG>
-17.4154

> <Gold.Chemscore.ZeroCoef>
-5.4800

> <Gold.Chemscore.Hbond>
0.8054

> <Gold.Chemscore.Metal>
0.0000

> <Gold.Chemscore.Lipo>
132.7651

> <Gold.Chemscore.Internal_Hbond>
0.0000

> <Gold.Chemscore.DEClash>
0.1841

> <Gold.Chemscore.DEInternal>
0.6474

> <Gold.Chemscore.Rot>
2.4562

> <Gold.Chemscore.Internal.Correction>
   9.000000E+99

> <Gold.Chemscore.Hbonds>
donor molecule, donor type, donor heavy atom, donor atom, acceptor molecule, acceptor atom, score
      P1  H  7989  7998       L1     2  0.23

> <Gold.Chemscore.Hbond.Weighted>
-2.6899

> <Gold.Chemscore.Metal.Weighted>
-0.0000

> <Gold.Chemscore.Lipo.Weighted>
-15.5335

> <Gold.Chemscore.Internal_Hbond.Weighted>
0.0000

> <Gold.Chemscore.DEClash.Weighted>
0.1841

> <Gold.Chemscore.DEInternal.Weighted>
0.6474

> <Gold.Chemscore.Rot.Weighted>
6.2880

> <Gold.Chemscore.Internal.Correction.Weighted>
   9.000000E+99

> <Gold.Protein.RotatedTorsions>
[ 6907 6896 6895 6894 ] final  -19.79 input  -60.11 | X-H torsion
[ 7974 7965 7964 7962 ] final   72.28 input  175.53 | X-H torsion
[ 8008 7997 7996 7995 ] final   61.29 input   59.86 | X-H torsion
[ 10167 10162 10161 10158 ] final -143.60 input  -65.29 | X-H torsion
[ 10718 10713 10712 10709 ] final  146.84 input   66.30 | X-H torsion
[ 10763 10752 10751 10750 ] final   -3.17 input  -60.55 | X-H torsion
[ 11005 11000 10999 10996 ] final  175.77 input  -57.11 | X-H torsion

> <Gold.Protein.ActiveResidues>
 VAL166  LYS551  ARG553  GLY616  TRP617  ASP618  TYR619  PRO620  LYS621  CYS622 
 ASP623  PHE694  ASN695  SER759  ASP760  ASP761  ALA762  ILE779  LEU786  VAL792 
 PHE793  MET794  SER795  GLU796  ALA797  LYS798  CYS799  TRP800  GLU811  SER814 

> <Gold.Protein.RotatedAtoms>
  151.2579  135.0644  159.9086 H   0  0  0  0  0  0  0  0  0  0  0  0  # atno 6907 bound_to 6896
  152.5370  134.0262  159.8014 H   0  0  0  0  0  0  0  0  0  0  0  0  # atno 6908 bound_to 6896
  151.0481  133.5598  159.2676 H   0  0  0  0  0  0  0  0  0  0  0  0  # atno 6909 bound_to 6896
  145.7554  139.2777  143.1407 H   0  0  0  0  0  0  0  0  0  0  0  0  # atno 7974 bound_to 7965
  155.5960  140.3493  155.4580 H   0  0  0  0  0  0  0  0  0  0  0  0  # atno 8008 bound_to 7997
  156.0265  140.1265  157.0328 H   0  0  0  0  0  0  0  0  0  0  0  0  # atno 8009 bound_to 7997
  154.4335  140.1052  156.6023 H   0  0  0  0  0  0  0  0  0  0  0  0  # atno 8010 bound_to 7997
  139.7978  143.7875  152.2656 H   0  0  0  0  0  0  0  0  0  0  0  0  # atno 10167 bound_to 10162
  157.3283  131.0916  151.1183 H   0  0  0  0  0  0  0  0  0  0  0  0  # atno 10718 bound_to 10713
  153.3678  135.6993  153.6662 H   0  0  0  0  0  0  0  0  0  0  0  0  # atno 10763 bound_to 10752
  153.5324  135.3589  155.2682 H   0  0  0  0  0  0  0  0  0  0  0  0  # atno 10764 bound_to 10752
  154.8677  135.4184  154.2949 H   0  0  0  0  0  0  0  0  0  0  0  0  # atno 10765 bound_to 10752
  140.3658  134.7073  157.4361 H   0  0  0  0  0  0  0  0  0  0  0  0  # atno 11005 bound_to 11000
  146.0316  140.8252  142.9873 LP  0  0  0  0  0  0  0  0  0  0  0  0  # atno 17320 bound_to 7965
  144.6841  140.2777  143.7296 LP  0  0  0  0  0  0  0  0  0  0  0  0  # atno 17321 bound_to 7965
  139.7986  144.7383  150.9856 LP  0  0  0  0  0  0  0  0  0  0  0  0  # atno 17342 bound_to 10162
  140.7820  143.4368  151.0611 LP  0  0  0  0  0  0  0  0  0  0  0  0  # atno 17343 bound_to 10162
  157.2441  130.6583  149.5903 LP  0  0  0  0  0  0  0  0  0  0  0  0  # atno 17370 bound_to 10713
  155.9693  130.4559  150.5904 LP  0  0  0  0  0  0  0  0  0  0  0  0  # atno 17371 bound_to 10713
  140.0590  134.6022  155.8771 LP  0  0  0  0  0  0  0  0  0  0  0  0  # atno 17394 bound_to 11000
  141.1970  133.6594  156.5719 LP  0  0  0  0  0  0  0  0  0  0  0  0  # atno 17395 bound_to 11000

$$$$
