AV-unprocessed.smi:3132|AV-procd|sdf|11936|dock1
  -GOLD-   2272017323D 1   1.00000     0.00000
 Structure written by MMmdl.
 33 34  0  0  0  0  0  0  0  0  1 V2000
  149.5669  140.4422  157.9980 C   0  0  0  0  0  0  0  0  0  0  0  0
  150.9822  140.6253  157.4307 C   0  0  1  0  0  0  0  0  0  0  0  0
  150.9615  141.3665  156.0805 C   0  0  0  0  0  0  0  0  0  0  0  0
  150.0498  140.7525  155.1326 N   0  0  0  0  0  0  0  0  0  0  0  0
  150.1276  139.4713  154.6023 C   0  0  0  0  0  0  0  0  0  0  0  0
  149.0492  139.3293  153.7588 C   0  0  0  0  0  0  0  0  0  0  0  0
  148.3010  140.5042  153.7521 N   0  0  0  0  0  0  0  0  0  0  0  0
  148.9545  141.3003  154.5885 C   0  0  0  0  0  0  0  0  0  0  0  0
  151.8074  141.3579  158.3890 N   0  0  0  0  0  0  0  0  0  0  0  0
  152.9736  140.9365  158.9008 C   0  0  0  0  0  0  0  0  0  0  0  0
  153.4778  139.8460  158.6304 O   0  0  0  0  0  0  0  0  0  0  0  0
  153.6823  141.9101  159.8495 C   0  0  1  0  0  0  0  0  0  0  0  0
  152.9017  143.2088  160.1278 C   0  0  0  0  0  0  0  0  0  0  0  0
  152.4632  143.0604  161.5713 C   0  0  0  0  0  0  0  0  0  0  0  0
  153.5790  142.2014  162.1487 C   0  0  0  0  0  0  0  0  0  0  0  0
  153.8315  141.2648  161.1130 O   0  0  0  0  0  0  0  0  0  0  0  0
  148.9370  139.8827  157.3059 H   0  0  0  0  0  0  0  0  0  0  0  0
  149.0856  141.4029  158.1832 H   0  0  0  0  0  0  0  0  0  0  0  0
  149.5884  139.8918  158.9391 H   0  0  0  0  0  0  0  0  0  0  0  0
  151.4072  139.6339  157.2621 H   0  0  0  0  0  0  0  0  0  0  0  0
  150.6507  142.4022  156.2236 H   0  0  0  0  0  0  0  0  0  0  0  0
  151.9594  141.3975  155.6405 H   0  0  0  0  0  0  0  0  0  0  0  0
  150.9185  138.7843  154.8648 H   0  0  0  0  0  0  0  0  0  0  0  0
  148.7568  138.4787  153.1610 H   0  0  0  0  0  0  0  0  0  0  0  0
  148.6270  142.3048  154.8136 H   0  0  0  0  0  0  0  0  0  0  0  0
  151.4778  142.2713  158.6650 H   0  0  0  0  0  0  0  0  0  0  0  0
  154.6708  142.1570  159.4584 H   0  0  0  0  0  0  0  0  0  0  0  0
  153.5700  144.0649  160.0286 H   0  0  0  0  0  0  0  0  0  0  0  0
  152.0577  143.3792  159.4581 H   0  0  0  0  0  0  0  0  0  0  0  0
  152.3485  144.0150  162.0853 H   0  0  0  0  0  0  0  0  0  0  0  0
  151.5142  142.5249  161.6230 H   0  0  0  0  0  0  0  0  0  0  0  0
  154.4754  142.7966  162.3305 H   0  0  0  0  0  0  0  0  0  0  0  0
  153.2957  141.7070  163.0782 H   0  0  0  0  0  0  0  0  0  0  0  0
  1  2  1  0  0  0  0
  1 17  1  0  0  0  0
  1 18  1  0  0  0  0
  1 19  1  0  0  0  0
  2  3  1  0  0  0  0
  2  9  1  0  0  0  0
  2 20  1  0  0  0  0
  3  4  1  0  0  0  0
  3 21  1  0  0  0  0
  3 22  1  0  0  0  0
  4  8  1  0  0  0  0
  4  5  1  0  0  0  0
  5  6  2  0  0  0  0
  5 23  1  0  0  0  0
  6  7  1  0  0  0  0
  6 24  1  0  0  0  0
  7  8  2  0  0  0  0
  8 25  1  0  0  0  0
  9 10  1  0  0  0  0
  9 26  1  0  0  0  0
 10 11  2  0  0  0  0
 10 12  1  0  0  0  0
 12 16  1  0  0  0  0
 12 13  1  0  0  0  0
 12 27  1  0  0  0  0
 13 14  1  0  0  0  0
 13 28  1  0  0  0  0
 13 29  1  0  0  0  0
 14 15  1  0  0  0  0
 14 30  1  0  0  0  0
 14 31  1  0  0  0  0
 15 16  1  0  0  0  0
 15 32  1  0  0  0  0
 15 33  1  0  0  0  0
M  END
> <s_m_source_file>
AV-unprocessed.smi

> <i_m_source_file_index>
3132

> <i_lp_mmshare_version>
43012

> <i_f3d_flags>
0

> <s_epik_input>
W2NIXTFuW2NIXVtjSF1uMVtDSDJdW0NAQEhdKFtDSDNdKVtOSF1DKD1PKVtDQEBIXTJbQ0gyXVtDSDJdW0NIMl1PMg==

> <s_epik_cmdline>
J2VwaWtfcHl0aG9uJywgJy1waCcsICc3LjAnLCAnLXRuJywgJzgnLCAnLW1hJywgJzIwMCcsICctbWV0YWxfYmluZGluZycsICctaW1hZScsICc8aW5maWxlLm1hZT4nLCAnLW9tYWUnLCAnPG91dGZpbGUubWFlPic=

> <r_lp_tautomer_probability>
1

> <r_epik_Ionization_Penalty>
0.630322

> <r_epik_Ionization_Penalty_Charging>
0.630322

> <r_epik_Ionization_Penalty_Neutral>
3.82652e-08

> <r_epik_State_Penalty>
0.647117

> <r_epik_Charging_Adjusted_Penalty>
1.27744

> <i_epik_Tot_Q>
0

> <i_epik_Tot_abs_Q>
0

> <r_epik_Metal_State_Penalty>
0.309095

> <b_epik_Metal_Only>
0

> <s_lp_Force_Field>
OPLS_2005

> <r_lp_Energy>
20.0706

> <b_lp_Chiralities_Consistent>
1

> <s_lp_Variant>
AV-unprocessed.smi:3132-8

> <Gold.Version>
5.8.1

> <Gold.Id.Protein>
6NUR|6NUR_protein|mol2

> <Gold.PLP.Fitness>
42.7563

> <Gold.PLP.PLP>
-34.2958

> <Gold.PLP.part.hbond>
-1.0000

> <Gold.PLP.part.metal>
0.0000

> <Gold.PLP.part.buried>
-1.7060

> <Gold.PLP.part.nonpolar>
-31.3358

> <Gold.PLP.part.repulsive>
1.2572

> <Gold.PLP.ligand.clash>
0.0000

> <Gold.PLP.ligand.torsion>
0.0703

> <Gold.PLP.Chemscore.Hbond>
1.0000

> <Gold.PLP.Chemscore.CHOScore>
1.8617

> <Gold.PLP.Chemscore.Metal>
0.0000

> <Gold.Chemscore.Hbonds>
donor molecule, donor type, donor heavy atom, donor atom, acceptor molecule, acceptor atom, score
      P1  H  7997  8010       L1    11  1.00
      L1  C     6    24       P1  7948  0.88
      L1  C     6    24       P1  7957  0.04
      L1  C     8    25       P1  8028  0.94

> <Gold.PLP.Chemscore.Internal.Correction>
0.0160

> <Gold.Rescore>
     Score         DG    S(hbond)    S(metal)    S(lipo)     H(rot)  DE(clash)    DE(int)     intcor
     12.43     -12.54       0.93        0.00      74.60       1.86       0.08       0.03       ----

> <Gold.Chemscore.Fitness>
12.4261

> <Gold.Chemscore.DG>
-12.5406

> <Gold.Chemscore.ZeroCoef>
-5.4800

> <Gold.Chemscore.Hbond>
0.9293

> <Gold.Chemscore.Metal>
0.0000

> <Gold.Chemscore.Lipo>
74.5954

> <Gold.Chemscore.Internal_Hbond>
0.0000

> <Gold.Chemscore.DEClash>
0.0797

> <Gold.Chemscore.DEInternal>
0.0349

> <Gold.Chemscore.Rot>
1.8636

> <Gold.Chemscore.Internal.Correction>
   9.000000E+99

> <Gold.Chemscore.Hbonds>
donor molecule, donor type, donor heavy atom, donor atom, acceptor molecule, acceptor atom, score
      P1  H  7997  8010       L1    11  0.72

> <Gold.Chemscore.Hbond.Weighted>
-3.1038

> <Gold.Chemscore.Metal.Weighted>
-0.0000

> <Gold.Chemscore.Lipo.Weighted>
-8.7277

> <Gold.Chemscore.Internal_Hbond.Weighted>
0.0000

> <Gold.Chemscore.DEClash.Weighted>
0.0797

> <Gold.Chemscore.DEInternal.Weighted>
0.0349

> <Gold.Chemscore.Rot.Weighted>
4.7709

> <Gold.Chemscore.Internal.Correction.Weighted>
   9.000000E+99

> <Gold.Protein.RotatedTorsions>
[ 6907 6896 6895 6894 ] final   67.28 input  -60.11 | X-H torsion
[ 7974 7965 7964 7962 ] final  -11.89 input  175.53 | X-H torsion
[ 8008 7997 7996 7995 ] final   12.27 input   59.86 | X-H torsion
[ 10167 10162 10161 10158 ] final   21.53 input  -65.29 | X-H torsion
[ 10718 10713 10712 10709 ] final  100.80 input   66.30 | X-H torsion
[ 10763 10752 10751 10750 ] final   65.32 input  -60.55 | X-H torsion
[ 11005 11000 10999 10996 ] final   22.55 input  -57.11 | X-H torsion

> <Gold.Protein.ActiveResidues>
 VAL166  LYS551  ARG553  GLY616  TRP617  ASP618  TYR619  PRO620  LYS621  CYS622 
 ASP623  PHE694  ASN695  SER759  ASP760  ASP761  ALA762  ILE779  LEU786  VAL792 
 PHE793  MET794  SER795  GLU796  ALA797  LYS798  CYS799  TRP800  GLU811  SER814 

> <Gold.Protein.RotatedAtoms>
  152.4540  134.5331  159.9816 H   0  0  0  0  0  0  0  0  0  0  0  0  # atno 6907 bound_to 6896
  151.5396  133.3429  159.2941 H   0  0  0  0  0  0  0  0  0  0  0  0  # atno 6908 bound_to 6896
  150.8478  134.7824  159.7048 H   0  0  0  0  0  0  0  0  0  0  0  0  # atno 6909 bound_to 6896
  146.2171  140.2978  142.8373 H   0  0  0  0  0  0  0  0  0  0  0  0  # atno 7974 bound_to 7965
  154.8183  140.2879  155.5804 H   0  0  0  0  0  0  0  0  0  0  0  0  # atno 8008 bound_to 7997
  156.2995  140.2555  156.3015 H   0  0  0  0  0  0  0  0  0  0  0  0  # atno 8009 bound_to 7997
  154.9368  140.0382  157.2065 H   0  0  0  0  0  0  0  0  0  0  0  0  # atno 8010 bound_to 7997
  140.5420  143.9661  150.6525 H   0  0  0  0  0  0  0  0  0  0  0  0  # atno 10167 bound_to 10162
  157.6845  131.0708  150.5155 H   0  0  0  0  0  0  0  0  0  0  0  0  # atno 10718 bound_to 10713
  153.0091  135.5361  154.6648 H   0  0  0  0  0  0  0  0  0  0  0  0  # atno 10763 bound_to 10752
  154.5848  135.2853  155.0698 H   0  0  0  0  0  0  0  0  0  0  0  0  # atno 10764 bound_to 10752
  154.1814  135.6515  153.5087 H   0  0  0  0  0  0  0  0  0  0  0  0  # atno 10765 bound_to 10752
  140.3793  134.1938  155.7664 H   0  0  0  0  0  0  0  0  0  0  0  0  # atno 11005 bound_to 11000
  144.9080  140.7722  143.5825 LP  0  0  0  0  0  0  0  0  0  0  0  0  # atno 17320 bound_to 7965
  145.2907  139.1885  143.4742 LP  0  0  0  0  0  0  0  0  0  0  0  0  # atno 17321 bound_to 7965
  140.3064  143.3227  152.0922 LP  0  0  0  0  0  0  0  0  0  0  0  0  # atno 17342 bound_to 10162
  139.4992  144.6664  151.6346 LP  0  0  0  0  0  0  0  0  0  0  0  0  # atno 17343 bound_to 10162
  156.5470  130.4222  149.6126 LP  0  0  0  0  0  0  0  0  0  0  0  0  # atno 17370 bound_to 10713
  156.2935  130.7137  151.1992 LP  0  0  0  0  0  0  0  0  0  0  0  0  # atno 17371 bound_to 10713
  141.1929  133.8163  157.0822 LP  0  0  0  0  0  0  0  0  0  0  0  0  # atno 17394 bound_to 11000
  140.0491  134.9815  157.1103 LP  0  0  0  0  0  0  0  0  0  0  0  0  # atno 17395 bound_to 11000

$$$$
