AV-unprocessed.smi:421|AV-procd|sdf|2535|dock2
  -GOLD-   2262022493D 1   1.00000     0.00000
 Structure written by MMmdl.
 43 45  0  0  0  0  0  0  0  0  1 V2000
  154.6238  138.5587  162.0171 C   0  0  0  0  0  0  0  0  0  0  0  0
  153.7457  138.8100  160.8807 N   0  0  0  0  0  0  0  0  0  0  0  0
  153.1007  137.8853  160.1321 C   0  0  0  0  0  0  0  0  0  0  0  0
  153.1444  136.6654  160.2908 O   0  0  0  0  0  0  0  0  0  0  0  0
  152.3928  138.5364  159.1788 N   0  0  0  0  0  0  0  0  0  0  0  0
  151.5332  137.9262  158.1659 C   0  0  0  0  0  0  0  0  0  0  0  0
  150.0474  137.9761  158.5760 C   0  0  1  0  0  0  0  0  0  0  0  0
  149.4529  139.1767  158.1269 O   0  0  0  0  0  0  0  0  0  0  0  0
  149.2236  136.8067  158.0126 C   0  0  0  0  0  0  0  0  0  0  0  0
  148.9732  135.8494  159.0301 O   0  0  0  0  0  0  0  0  0  0  0  0
  148.3385  136.4101  160.1664 C   0  0  0  0  0  0  0  0  0  0  0  0
  147.4235  135.4057  160.8365 C   0  0  0  0  0  0  0  0  0  0  0  0
  147.2729  134.1101  160.2986 C   0  0  0  0  0  0  0  0  0  0  0  0
  146.4222  133.1789  160.9256 C   0  0  0  0  0  0  0  0  0  0  0  0
  145.7203  133.5394  162.0922 C   0  0  0  0  0  0  0  0  0  0  0  0
  145.8704  134.8313  162.6328 C   0  0  0  0  0  0  0  0  0  0  0  0
  146.7212  135.7630  162.0063 C   0  0  0  0  0  0  0  0  0  0  0  0
  152.5889  139.9177  159.3246 C   0  0  0  0  0  0  0  0  0  0  0  0
  152.0760  141.0091  158.6014 C   0  0  0  0  0  0  0  0  0  0  0  0
  152.4750  142.3025  159.0133 C   0  0  0  0  0  0  0  0  0  0  0  0
  153.3563  142.4766  160.1120 C   0  0  0  0  0  0  0  0  0  0  0  0
  153.8563  141.3609  160.8235 C   0  0  0  0  0  0  0  0  0  0  0  0
  153.4427  140.0881  160.3942 C   0  0  0  0  0  0  0  0  0  0  0  0
  154.5068  137.5456  162.4042 H   0  0  0  0  0  0  0  0  0  0  0  0
  154.4052  139.2515  162.8301 H   0  0  0  0  0  0  0  0  0  0  0  0
  155.6648  138.6928  161.7229 H   0  0  0  0  0  0  0  0  0  0  0  0
  151.6898  138.3891  157.1911 H   0  0  0  0  0  0  0  0  0  0  0  0
  151.8417  136.8860  158.0489 H   0  0  0  0  0  0  0  0  0  0  0  0
  149.9581  137.9533  159.6630 H   0  0  0  0  0  0  0  0  0  0  0  0
  150.1301  139.8307  158.0436 H   0  0  0  0  0  0  0  0  0  0  0  0
  148.2692  137.1874  157.6454 H   0  0  0  0  0  0  0  0  0  0  0  0
  149.7336  136.3494  157.1629 H   0  0  0  0  0  0  0  0  0  0  0  0
  149.0873  136.7419  160.8875 H   0  0  0  0  0  0  0  0  0  0  0  0
  147.7614  137.2898  159.8762 H   0  0  0  0  0  0  0  0  0  0  0  0
  147.8097  133.8264  159.4051 H   0  0  0  0  0  0  0  0  0  0  0  0
  146.3082  132.1878  160.5115 H   0  0  0  0  0  0  0  0  0  0  0  0
  145.0678  132.8252  162.5725 H   0  0  0  0  0  0  0  0  0  0  0  0
  145.3330  135.1078  163.5278 H   0  0  0  0  0  0  0  0  0  0  0  0
  146.8343  136.7522  162.4253 H   0  0  0  0  0  0  0  0  0  0  0  0
  151.4040  140.8726  157.7674 H   0  0  0  0  0  0  0  0  0  0  0  0
  152.1038  143.1682  158.4849 H   0  0  0  0  0  0  0  0  0  0  0  0
  153.6479  143.4730  160.4096 H   0  0  0  0  0  0  0  0  0  0  0  0
  154.5260  141.4855  161.6615 H   0  0  0  0  0  0  0  0  0  0  0  0
  1  2  1  0  0  0  0
  1 24  1  0  0  0  0
  1 25  1  0  0  0  0
  1 26  1  0  0  0  0
  2 23  1  0  0  0  0
  2  3  1  0  0  0  0
  3  4  2  0  0  0  0
  3  5  1  0  0  0  0
  5  6  1  0  0  0  0
  5 18  1  0  0  0  0
  6  7  1  0  0  0  0
  6 27  1  0  0  0  0
  6 28  1  0  0  0  0
  7  8  1  0  0  0  0
  7  9  1  0  0  0  0
  7 29  1  0  0  0  0
  8 30  1  0  0  0  0
  9 10  1  0  0  0  0
  9 31  1  0  0  0  0
  9 32  1  0  0  0  0
 10 11  1  0  0  0  0
 11 12  1  0  0  0  0
 11 33  1  0  0  0  0
 11 34  1  0  0  0  0
 12 17  1  0  0  0  0
 12 13  2  0  0  0  0
 13 14  1  0  0  0  0
 13 35  1  0  0  0  0
 14 15  2  0  0  0  0
 14 36  1  0  0  0  0
 15 16  1  0  0  0  0
 15 37  1  0  0  0  0
 16 17  2  0  0  0  0
 16 38  1  0  0  0  0
 17 39  1  0  0  0  0
 18 23  2  0  0  0  0
 18 19  1  0  0  0  0
 19 20  2  0  0  0  0
 19 40  1  0  0  0  0
 20 21  1  0  0  0  0
 20 41  1  0  0  0  0
 21 22  2  0  0  0  0
 21 42  1  0  0  0  0
 22 23  1  0  0  0  0
 22 43  1  0  0  0  0
M  END
> <s_m_source_file>
AV-unprocessed.smi

> <i_m_source_file_index>
421

> <i_lp_mmshare_version>
43012

> <i_f3d_flags>
0

> <s_epik_input>
W2NIXTFbY0hdW2NIXVtjSF1jKGMxMiluKFtDSDNdKWMoPU8pbjJbQ0gyXVtDQEhdKFtPSF0pW0NIMl1PW0NIMl1jM1tjSF1bY0hdW2NIXVtjSF1bY0hdMw==

> <s_epik_cmdline>
J2VwaWtfcHl0aG9uJywgJy1waCcsICc3LjAnLCAnLXRuJywgJzgnLCAnLW1hJywgJzIwMCcsICctbWV0YWxfYmluZGluZycsICctaW1hZScsICc8aW5maWxlLm1hZT4nLCAnLW9tYWUnLCAnPG91dGZpbGUubWFlPic=

> <r_lp_tautomer_probability>
1

> <r_epik_Ionization_Penalty>
1.0795e-06

> <r_epik_Ionization_Penalty_Charging>
2.82452e-09

> <r_epik_Ionization_Penalty_Neutral>
1.07667e-06

> <r_epik_State_Penalty>
-0

> <r_epik_Charging_Adjusted_Penalty>
2.82452e-09

> <i_epik_Tot_Q>
0

> <i_epik_Tot_abs_Q>
0

> <r_epik_Metal_State_Penalty>
-0

> <b_epik_Metal_Only>
0

> <s_lp_Force_Field>
OPLS_2005

> <r_lp_Energy>
47.6123

> <b_lp_Chiralities_Consistent>
1

> <s_lp_Variant>
AV-unprocessed.smi:421-2

> <Gold.Version>
5.8.1

> <Gold.Id.Protein>
6NUR|6NUR_protein|mol2

> <Gold.PLP.Fitness>
47.8609

> <Gold.PLP.PLP>
-44.7291

> <Gold.PLP.part.hbond>
-1.9497

> <Gold.PLP.part.metal>
0.0000

> <Gold.PLP.part.buried>
-5.7218

> <Gold.PLP.part.nonpolar>
-38.2856

> <Gold.PLP.part.repulsive>
0.0000

> <Gold.PLP.ligand.clash>
0.0000

> <Gold.PLP.ligand.torsion>
1.5027

> <Gold.PLP.Chemscore.Hbond>
1.9913

> <Gold.PLP.Chemscore.CHOScore>
0.0000

> <Gold.PLP.Chemscore.Metal>
0.0000

> <Gold.Chemscore.Hbonds>
donor molecule, donor type, donor heavy atom, donor atom, acceptor molecule, acceptor atom, score
      P1  H  6896  6907       L1    10  0.46
      P1  H  6896  6908       L1     4  1.00

> <Gold.PLP.Chemscore.Internal.Correction>
0.1634

> <Gold.Rescore>
     Score         DG    S(hbond)    S(metal)    S(lipo)     H(rot)  DE(clash)    DE(int)     intcor
     18.28     -19.89       1.87        0.00     118.18       2.21       0.03       1.59       ----

> <Gold.Chemscore.Fitness>
18.2756

> <Gold.Chemscore.DG>
-19.8863

> <Gold.Chemscore.ZeroCoef>
-5.4800

> <Gold.Chemscore.Hbond>
1.8687

> <Gold.Chemscore.Metal>
0.0000

> <Gold.Chemscore.Lipo>
118.1821

> <Gold.Chemscore.Internal_Hbond>
0.0000

> <Gold.Chemscore.DEClash>
0.0251

> <Gold.Chemscore.DEInternal>
1.5857

> <Gold.Chemscore.Rot>
2.2119

> <Gold.Chemscore.Internal.Correction>
   9.000000E+99

> <Gold.Chemscore.Hbonds>
donor molecule, donor type, donor heavy atom, donor atom, acceptor molecule, acceptor atom, score
      P1  H  6896  6907       L1    10  0.37
      P1  H  6896  6908       L1     4  0.98

> <Gold.Chemscore.Hbond.Weighted>
-6.2413

> <Gold.Chemscore.Metal.Weighted>
-0.0000

> <Gold.Chemscore.Lipo.Weighted>
-13.8273

> <Gold.Chemscore.Internal_Hbond.Weighted>
0.0000

> <Gold.Chemscore.DEClash.Weighted>
0.0251

> <Gold.Chemscore.DEInternal.Weighted>
1.5857

> <Gold.Chemscore.Rot.Weighted>
5.6623

> <Gold.Chemscore.Internal.Correction.Weighted>
   9.000000E+99

> <Gold.Protein.RotatedTorsions>
[ 6907 6896 6895 6894 ] final  -82.80 input  -60.11 | X-H torsion
[ 7974 7965 7964 7962 ] final   32.61 input  175.53 | X-H torsion
[ 8008 7997 7996 7995 ] final -106.67 input   59.86 | X-H torsion
[ 10167 10162 10161 10158 ] final -119.73 input  -65.29 | X-H torsion
[ 10718 10713 10712 10709 ] final  161.27 input   66.30 | X-H torsion
[ 10763 10752 10751 10750 ] final   67.82 input  -60.55 | X-H torsion
[ 11005 11000 10999 10996 ] final -133.67 input  -57.11 | X-H torsion

> <Gold.Protein.ActiveResidues>
 VAL166  LYS551  ARG553  GLY616  TRP617  ASP618  TYR619  PRO620  LYS621  CYS622 
 ASP623  PHE694  ASN695  SER759  ASP760  ASP761  ALA762  ILE779  LEU786  VAL792 
 PHE793  MET794  SER795  GLU796  ALA797  LYS798  CYS799  TRP800  GLU811  SER814 

> <Gold.Protein.RotatedAtoms>
  150.6893  134.3609  159.4949 H   0  0  0  0  0  0  0  0  0  0  0  0  # atno 6907 bound_to 6896
  152.1438  134.9039  160.0561 H   0  0  0  0  0  0  0  0  0  0  0  0  # atno 6908 bound_to 6896
  152.0162  133.3846  159.4277 H   0  0  0  0  0  0  0  0  0  0  0  0  # atno 6909 bound_to 6896
  146.1475  139.6504  142.9121 H   0  0  0  0  0  0  0  0  0  0  0  0  # atno 7974 bound_to 7965
  154.9180  140.0408  157.1982 H   0  0  0  0  0  0  0  0  0  0  0  0  # atno 8008 bound_to 7997
  154.8282  140.2895  155.5719 H   0  0  0  0  0  0  0  0  0  0  0  0  # atno 8009 bound_to 7997
  156.2985  140.2506  156.3202 H   0  0  0  0  0  0  0  0  0  0  0  0  # atno 8010 bound_to 7997
  140.0435  143.5130  152.2118 H   0  0  0  0  0  0  0  0  0  0  0  0  # atno 10167 bound_to 10162
  157.1389  131.0535  151.2336 H   0  0  0  0  0  0  0  0  0  0  0  0  # atno 10718 bound_to 10713
  153.0204  135.5270  154.7038 H   0  0  0  0  0  0  0  0  0  0  0  0  # atno 10763 bound_to 10752
  154.6139  135.2881  155.0403 H   0  0  0  0  0  0  0  0  0  0  0  0  # atno 10764 bound_to 10752
  154.1415  135.6577  153.4995 H   0  0  0  0  0  0  0  0  0  0  0  0  # atno 10765 bound_to 10752
  140.9060  134.1630  157.4425 H   0  0  0  0  0  0  0  0  0  0  0  0  # atno 11005 bound_to 11000
  145.4902  141.0438  143.2597 LP  0  0  0  0  0  0  0  0  0  0  0  0  # atno 17320 bound_to 7965
  144.7864  139.6418  143.7132 LP  0  0  0  0  0  0  0  0  0  0  0  0  # atno 17321 bound_to 7965
  139.5998  144.7579  151.3198 LP  0  0  0  0  0  0  0  0  0  0  0  0  # atno 17342 bound_to 10162
  140.7249  143.7031  150.7829 LP  0  0  0  0  0  0  0  0  0  0  0  0  # atno 17343 bound_to 10162
  157.4325  130.7499  149.7002 LP  0  0  0  0  0  0  0  0  0  0  0  0  # atno 17370 bound_to 10713
  155.9792  130.4042  150.3598 LP  0  0  0  0  0  0  0  0  0  0  0  0  # atno 17371 bound_to 10713
  139.8749  134.9917  156.5560 LP  0  0  0  0  0  0  0  0  0  0  0  0  # atno 17394 bound_to 11000
  140.8171  133.8383  155.8862 LP  0  0  0  0  0  0  0  0  0  0  0  0  # atno 17395 bound_to 11000

$$$$
