#       Name:                AV-unprocessed.smi:20
#       Creating user name   scv26
#       Creation time:       Thu Mar 26 15:28:14 2020


#       File generated by GOLD software.
#

@<TRIPOS>MOLECULE
AV-unprocessed.smi:20
    66    70     1
SMALL
NO_CHARGES


@<TRIPOS>ATOM
      1 ****        -0.0526   6.3947   2.3380 O.2            1 S1                 0.0000
      2 ****        -0.4124   5.9269   1.2602 C.2            1 S1                 0.0000
      3 ****        -1.6270   5.0297   1.0921 C.3            1 S1                 0.0000
      4 ****        -1.4285   4.4211  -0.3161 C.3            1 S1                 0.0000
      5 ****        -2.7528   4.2410  -1.0930 C.3            1 S1                 0.0000
      6 ****        -3.6175   3.1285  -0.4786 C.3            1 S1                 0.0000
      7 ****        -2.8348   1.8105  -0.3892 C.3            1 S1                 0.0000
      8 ****        -1.5701   2.0096   0.3126 N.pl3          1 S1                 0.0000
      9 ****        -0.9395   0.9350   0.8505 C.ar           1 S1                 0.0000
     10 ****        -0.0967   1.1673   1.8903 N.ar           1 S1                 0.0000
     11 ****         0.5561   0.1584   2.4731 C.ar           1 S1                 0.0000
     12 ****         0.5192  -1.1406   2.1750 N.ar           1 S1                 0.0000
     13 ****        -0.3169  -1.3833   1.1260 C.ar           1 S1                 0.0000
     14 ****        -1.0852  -0.4164   0.4147 C.ar           1 S1                 0.0000
     15 ****        -1.8129  -1.0489  -0.5884 N.2            1 S1                 0.0000
     16 ****        -1.4974  -2.3095  -0.4745 C.2            1 S1                 0.0000
     17 ****        -0.5856  -2.5959   0.5152 N.pl3          1 S1                 0.0000
     18 ****        -0.0595  -3.9057   0.8568 C.3            1 S1                 0.0000
     19 ****         1.4731  -4.0721   0.6531 C.3            1 S1                 0.0000
     20 ****         1.9007  -5.4704   1.1619 C.3            1 S1                 0.0000
     21 ****         1.6560  -5.6134   2.5462 O.3            1 S1                 0.0000
     22 ****         1.9276  -3.8364  -0.8196 C.3            1 S1                 0.0000
     23 ****         3.3810  -4.1816  -1.1117 C.3            1 S1                 0.0000
     24 ****         3.6382  -3.4353  -2.4118 C.3            1 S1                 0.0000
     25 ****         2.9415  -2.2107  -2.2538 O.3            1 S1                 0.0000
     26 ****         1.8901  -2.3765  -1.3069 C.3            1 S1                 0.0000
     27 ****        -0.6990   3.0555  -0.2269 C.3            1 S1                 0.0000
     28 ****        -0.5032   5.4517  -1.0040 C.3            1 S1                 0.0000
     29 ****         0.1816   6.1214   0.0851 N.am           1 S1                 0.0000
     30 ****        -1.6843   4.2802   1.8823 H              1 S1                 0.0000
     31 ****        -2.5236   5.6484   1.1437 H              1 S1                 0.0000
     32 ****        -3.3130   5.1764  -1.1173 H              1 S1                 0.0000
     33 ****        -2.5337   3.9892  -2.1317 H              1 S1                 0.0000
     34 ****        -3.9478   3.4256   0.5175 H              1 S1                 0.0000
     35 ****        -4.5202   2.9845  -1.0728 H              1 S1                 0.0000
     36 ****        -3.4404   1.0651   0.1277 H              1 S1                 0.0000
     37 ****        -2.6332   1.4322  -1.3920 H              1 S1                 0.0000
     38 ****         1.2018   0.4317   3.2946 H              1 S1                 0.0000
     39 ****        -1.9115  -3.0661  -1.1247 H              1 S1                 0.0000
     40 ****        -0.3290  -4.0890   1.8972 H              1 S1                 0.0000
     41 ****        -0.5925  -4.6547   0.2697 H              1 S1                 0.0000
     42 ****         1.9872  -3.3386   1.2756 H              1 S1                 0.0000
     43 ****         1.3768  -6.2578   0.6189 H              1 S1                 0.0000
     44 ****         2.9673  -5.6388   1.0211 H              1 S1                 0.0000
     45 ****         1.9411  -6.4734   2.8153 H              1 S1                 0.0000
     46 ****         1.3061  -4.4392  -1.4839 H              1 S1                 0.0000
     47 ****         4.0330  -3.7969  -0.3260 H              1 S1                 0.0000
     48 ****         3.5584  -5.2525  -1.2140 H              1 S1                 0.0000
     49 ****         4.6987  -3.2732  -2.6050 H              1 S1                 0.0000
     50 ****         3.2141  -3.9797  -3.2567 H              1 S1                 0.0000
     51 ****         0.9372  -2.1226  -1.7691 H              1 S1                 0.0000
     52 ****         2.0659  -1.6787  -0.4875 H              1 S1                 0.0000
     53 ****        -0.3806   2.7402  -1.2216 H              1 S1                 0.0000
     54 ****         0.2112   3.1613   0.3644 H              1 S1                 0.0000
     55 ****         0.2049   4.9933  -1.6953 H              1 S1                 0.0000
     56 ****        -1.0751   6.1971  -1.5587 H              1 S1                 0.0000
     57 ****         1.0091   6.6842  -0.0500 H              1 S1                 0.0000
     58 ****         0.7560   6.9812   2.3836 LP             1 S1                 0.0000
     59 ****        -0.5685   6.1888   3.1696 LP             1 S1                 0.0000
     60 ****         0.0360   2.1012   2.2221 LP             1 S1                 0.0000
     61 ****         1.0378  -1.8458   2.6585 LP             1 S1                 0.0000
     62 ****        -2.4374  -0.6311  -1.2483 LP             1 S1                 0.0000
     63 ****         0.6780  -5.5105   2.7280 LP             1 S1                 0.0000
     64 ****         2.1642  -4.9164   3.0520 LP             1 S1                 0.0000
     65 ****         2.5561  -1.9315  -3.1332 LP             1 S1                 0.0000
     66 ****         3.5740  -1.5077  -1.9287 LP             1 S1                 0.0000
@<TRIPOS>BOND
    1    1    2 2     
    2    2   29 am    
    3    2    3 1     
    4    3    4 1     
    5    3   30 1     
    6    3   31 1     
    7    4   27 1     
    8    4    5 1     
    9    4   28 1     
   10    5    6 1     
   11    5   32 1     
   12    5   33 1     
   13    6    7 1     
   14    6   34 1     
   15    6   35 1     
   16    7    8 1     
   17    7   36 1     
   18    7   37 1     
   19    8    9 1     
   20    8   27 1     
   21    9   14 ar    
   22    9   10 ar    
   23   10   11 ar    
   24   11   12 ar    
   25   11   38 1     
   26   12   13 ar    
   27   13   17 1     
   28   13   14 ar    
   29   14   15 1     
   30   15   16 2     
   31   16   17 1     
   32   16   39 1     
   33   17   18 1     
   34   18   19 1     
   35   18   40 1     
   36   18   41 1     
   37   19   20 1     
   38   19   22 1     
   39   19   42 1     
   40   20   21 1     
   41   20   43 1     
   42   20   44 1     
   43   21   45 1     
   44   22   26 1     
   45   22   23 1     
   46   22   46 1     
   47   23   24 1     
   48   23   47 1     
   49   23   48 1     
   50   24   25 1     
   51   24   49 1     
   52   24   50 1     
   53   25   26 1     
   54   26   51 1     
   55   26   52 1     
   56   27   53 1     
   57   27   54 1     
   58   28   29 1     
   59   28   55 1     
   60   28   56 1     
   61   29   57 1     
   62    1   58 1     
   63    1   59 1     
   64   10   60 1     
   65   12   61 1     
   66   15   62 1     
   67   21   63 1     
   68   21   64 1     
   69   25   65 1     
   70   25   66 1     
@<TRIPOS>SUBSTRUCTURE
      1 S1             1
@<TRIPOS>SET
LONE_PAIRS      STATIC     ATOMS    <user>   **** ""
9 58 59 60 61 62 63 64 65 66
DONOR_HYDROGENS      STATIC     ATOMS    <user>   **** ""
2 45 57
ATOM$BLUE        STATIC     ATOMS    COLORGROUP SYSTEM
9 58 59 60 61 62 63 64 65 66
ATOM$RED        STATIC     ATOMS    COLORGROUP SYSTEM
2 45 57
