AV-unprocessed.smi:2822|AV-procd|sdf|10863|dock7
  -GOLD-   2272015303D 1   1.00000     0.00000
 Structure written by MMmdl.
 41 43  0  0  0  0  0  0  0  0  3 V2000
  148.5719  141.5482  154.8267 Cl  0  0  0  0  0  0  0  0  0  0  0  0
  149.3717  140.0174  154.7403 C   0  0  0  0  0  0  0  0  0  0  0  0
  149.1838  139.2034  153.6041 C   0  0  0  0  0  0  0  0  0  0  0  0
  149.8022  138.0064  153.5212 N   0  3  0  0  0  0  0  0  0  0  0  0
  150.6120  137.5352  154.4929 C   0  0  0  0  0  0  0  0  0  0  0  0
  150.8400  138.3036  155.6529 C   0  0  0  0  0  0  0  0  0  0  0  0
  150.2133  139.5676  155.7874 C   0  0  0  0  0  0  0  0  0  0  0  0
  150.3975  140.3823  156.9145 N   0  0  0  0  0  0  0  0  0  0  0  0
  151.1961  139.9493  158.0528 C   0  0  0  0  0  0  0  0  0  0  0  0
  152.2490  140.9956  158.4571 C   0  0  1  0  0  0  0  0  0  0  0  0
  151.7034  142.4379  158.4892 C   0  0  0  0  0  0  0  0  0  0  0  0
  152.7537  143.3829  158.9430 N   0  3  1  0  0  0  0  0  0  0  0  0
  152.3136  144.8027  158.9676 C   0  0  0  0  0  0  0  0  0  0  0  0
  151.3857  145.1057  160.1603 C   0  0  0  0  0  0  0  0  0  0  0  0
  152.0350  144.6881  161.4869 C   0  0  0  0  0  0  0  0  0  0  0  0
  152.4706  143.2168  161.4318 C   0  0  0  0  0  0  0  0  0  0  0  0
  153.3916  142.9568  160.2195 C   0  0  1  0  0  0  0  0  0  0  0  0
  153.8516  141.4887  160.1234 C   0  0  0  0  0  0  0  0  0  0  0  0
  152.7692  140.6507  159.7364 O   0  0  0  0  0  0  0  0  0  0  0  0
  148.5605  139.4731  152.7640 H   0  0  0  0  0  0  0  0  0  0  0  0
  151.0506  136.5639  154.3154 H   0  0  0  0  0  0  0  0  0  0  0  0
  151.4899  137.9094  156.4197 H   0  0  0  0  0  0  0  0  0  0  0  0
  149.9463  141.2856  156.9542 H   0  0  0  0  0  0  0  0  0  0  0  0
  150.5358  139.7507  158.8978 H   0  0  0  0  0  0  0  0  0  0  0  0
  151.6938  139.0109  157.8052 H   0  0  0  0  0  0  0  0  0  0  0  0
  153.0605  140.9420  157.7290 H   0  0  0  0  0  0  0  0  0  0  0  0
  151.3618  142.7266  157.4947 H   0  0  0  0  0  0  0  0  0  0  0  0
  150.8380  142.5003  159.1484 H   0  0  0  0  0  0  0  0  0  0  0  0
  153.2010  145.4340  159.0308 H   0  0  0  0  0  0  0  0  0  0  0  0
  151.8232  145.0571  158.0273 H   0  0  0  0  0  0  0  0  0  0  0  0
  151.1510  146.1702  160.1833 H   0  0  0  0  0  0  0  0  0  0  0  0
  150.4332  144.5895  160.0387 H   0  0  0  0  0  0  0  0  0  0  0  0
  152.9018  145.3199  161.6852 H   0  0  0  0  0  0  0  0  0  0  0  0
  151.3401  144.8446  162.3124 H   0  0  0  0  0  0  0  0  0  0  0  0
  152.9897  142.9562  162.3547 H   0  0  0  0  0  0  0  0  0  0  0  0
  151.5905  142.5743  161.3879 H   0  0  0  0  0  0  0  0  0  0  0  0
  154.2848  143.5696  160.3514 H   0  0  0  0  0  0  0  0  0  0  0  0
  154.6672  141.3894  159.4052 H   0  0  0  0  0  0  0  0  0  0  0  0
  154.2400  141.1475  161.0833 H   0  0  0  0  0  0  0  0  0  0  0  0
  153.4781  143.3301  158.2410 H   0  0  0  0  0  0  0  0  0  0  0  0
  149.6504  137.4344  152.6899 H   0  0  0  0  0  0  0  0  0  0  0  0
  1  2  1  0  0  0  0
  2  7  1  0  0  0  0
  2  3  2  0  0  0  0
  3  4  1  0  0  0  0
  3 20  1  0  0  0  0
  4  5  2  0  0  0  0
  4 41  1  0  0  0  0
  5  6  1  0  0  0  0
  5 21  1  0  0  0  0
  6  7  2  0  0  0  0
  6 22  1  0  0  0  0
  7  8  1  0  0  0  0
  8  9  1  0  0  0  0
  8 23  1  0  0  0  0
  9 10  1  0  0  0  0
  9 24  1  0  0  0  0
  9 25  1  0  0  0  0
 10 19  1  0  0  0  0
 10 11  1  0  0  0  0
 10 26  1  0  0  0  0
 11 12  1  0  0  0  0
 11 27  1  0  0  0  0
 11 28  1  0  0  0  0
 12 17  1  0  0  0  0
 12 13  1  0  0  0  0
 12 40  1  0  0  0  0
 13 14  1  0  0  0  0
 13 29  1  0  0  0  0
 13 30  1  0  0  0  0
 14 15  1  0  0  0  0
 14 31  1  0  0  0  0
 14 32  1  0  0  0  0
 15 16  1  0  0  0  0
 15 33  1  0  0  0  0
 15 34  1  0  0  0  0
 16 17  1  0  0  0  0
 16 35  1  0  0  0  0
 16 36  1  0  0  0  0
 17 18  1  0  0  0  0
 17 37  1  0  0  0  0
 18 19  1  0  0  0  0
 18 38  1  0  0  0  0
 18 39  1  0  0  0  0
M  CHG  1   4   1
M  CHG  1  12   1
M  END
> <s_m_source_file>
AV-unprocessed.smi

> <i_m_source_file_index>
2822

> <i_lp_mmshare_version>
43012

> <i_f3d_flags>
0

> <s_epik_input>
Q2xjMVtjSF1uW2NIXVtjSF1jMVtOSF1bQ0gyXVtDQEhdKFtDSDJdMilPW0NIMl1bQ0BASF0oTjIzKVtDSDJdW0NIMl1bQ0gyXVtDSDJdMw==

> <s_epik_cmdline>
J2VwaWtfcHl0aG9uJywgJy1waCcsICc3LjAnLCAnLXRuJywgJzgnLCAnLW1hJywgJzIwMCcsICctbWV0YWxfYmluZGluZycsICctaW1hZScsICc8aW5maWxlLm1hZT4nLCAnLW9tYWUnLCAnPG91dGZpbGUubWFlPic=

> <r_lp_tautomer_probability>
1

> <r_epik_Ionization_Penalty>
0.254999

> <r_epik_Ionization_Penalty_Charging>
0.254956

> <r_epik_Ionization_Penalty_Neutral>
4.33524e-05

> <r_epik_State_Penalty>
0.230978

> <r_epik_Charging_Adjusted_Penalty>
0.485934

> <i_epik_Tot_Q>
2

> <i_epik_Tot_abs_Q>
2

> <r_epik_Metal_State_Penalty>
3.47007

> <b_epik_Metal_Only>
0

> <s_lp_Force_Field>
OPLS_2005

> <r_lp_Energy>
41.3986

> <b_lp_Chiralities_Consistent>
1

> <s_lp_Variant>
AV-unprocessed.smi:2822-4

> <Gold.Version>
5.8.1

> <Gold.Id.Protein>
6NUR|6NUR_protein|mol2

> <Gold.PLP.Fitness>
45.4123

> <Gold.PLP.PLP>
-39.7468

> <Gold.PLP.part.hbond>
-2.7202

> <Gold.PLP.part.metal>
0.0000

> <Gold.PLP.part.buried>
0.2697

> <Gold.PLP.part.nonpolar>
-39.1998

> <Gold.PLP.part.repulsive>
0.1283

> <Gold.PLP.ligand.clash>
0.0000

> <Gold.PLP.ligand.torsion>
0.1442

> <Gold.PLP.Chemscore.Hbond>
1.9840

> <Gold.PLP.Chemscore.CHOScore>
0.0000

> <Gold.PLP.Chemscore.Metal>
0.0000

> <Gold.Chemscore.Hbonds>
donor molecule, donor type, donor heavy atom, donor atom, acceptor molecule, acceptor atom, score
      L1  H     4    41       P1  7948  2.00

> <Gold.PLP.Chemscore.Internal.Correction>
0.0019

> <Gold.Rescore>
     Score         DG    S(hbond)    S(metal)    S(lipo)     H(rot)  DE(clash)    DE(int)     intcor
     19.55     -20.65       0.99        0.00     127.57       1.20       0.89       0.21       ----

> <Gold.Chemscore.Fitness>
19.5472

> <Gold.Chemscore.DG>
-20.6525

> <Gold.Chemscore.ZeroCoef>
-5.4800

> <Gold.Chemscore.Hbond>
0.9906

> <Gold.Chemscore.Metal>
0.0000

> <Gold.Chemscore.Lipo>
127.5736

> <Gold.Chemscore.Internal_Hbond>
0.0000

> <Gold.Chemscore.DEClash>
0.8906

> <Gold.Chemscore.DEInternal>
0.2147

> <Gold.Chemscore.Rot>
1.1962

> <Gold.Chemscore.Internal.Correction>
   9.000000E+99

> <Gold.Chemscore.Hbonds>
donor molecule, donor type, donor heavy atom, donor atom, acceptor molecule, acceptor atom, score
      L1  H     4    41       P1  7948  0.43

> <Gold.Chemscore.Hbond.Weighted>
-3.3087

> <Gold.Chemscore.Metal.Weighted>
-0.0000

> <Gold.Chemscore.Lipo.Weighted>
-14.9261

> <Gold.Chemscore.Internal_Hbond.Weighted>
0.0000

> <Gold.Chemscore.DEClash.Weighted>
0.8906

> <Gold.Chemscore.DEInternal.Weighted>
0.2147

> <Gold.Chemscore.Rot.Weighted>
3.0623

> <Gold.Chemscore.Internal.Correction.Weighted>
   9.000000E+99

> <Gold.Protein.RotatedTorsions>
[ 6907 6896 6895 6894 ] final  -42.87 input  -60.11 | X-H torsion
[ 7974 7965 7964 7962 ] final   17.59 input  175.53 | X-H torsion
[ 8008 7997 7996 7995 ] final  -40.33 input   59.86 | X-H torsion
[ 10167 10162 10161 10158 ] final  112.49 input  -65.29 | X-H torsion
[ 10718 10713 10712 10709 ] final  -29.09 input   66.30 | X-H torsion
[ 10763 10752 10751 10750 ] final  -61.59 input  -60.55 | X-H torsion
[ 11005 11000 10999 10996 ] final   24.88 input  -57.11 | X-H torsion

> <Gold.Protein.ActiveResidues>
 VAL166  LYS551  ARG553  GLY616  TRP617  ASP618  TYR619  PRO620  LYS621  CYS622 
 ASP623  PHE694  ASN695  SER759  ASP760  ASP761  ALA762  ILE779  LEU786  VAL792 
 PHE793  MET794  SER795  GLU796  ALA797  LYS798  CYS799  TRP800  GLU811  SER814 

> <Gold.Protein.RotatedAtoms>
  150.9504  134.8904  159.7667 H   0  0  0  0  0  0  0  0  0  0  0  0  # atno 6907 bound_to 6896
  152.5117  134.3815  159.9363 H   0  0  0  0  0  0  0  0  0  0  0  0  # atno 6908 bound_to 6896
  151.3831  133.3774  159.2747 H   0  0  0  0  0  0  0  0  0  0  0  0  # atno 6909 bound_to 6896
  146.2213  139.8580  142.8610 H   0  0  0  0  0  0  0  0  0  0  0  0  # atno 7974 bound_to 7965
  154.4013  140.1528  156.3009 H   0  0  0  0  0  0  0  0  0  0  0  0  # atno 8008 bound_to 7997
  155.8702  140.3449  155.5794 H   0  0  0  0  0  0  0  0  0  0  0  0  # atno 8009 bound_to 7997
  155.7783  140.0840  157.2063 H   0  0  0  0  0  0  0  0  0  0  0  0  # atno 8010 bound_to 7997
  139.6532  144.7128  151.2008 H   0  0  0  0  0  0  0  0  0  0  0  0  # atno 10167 bound_to 10162
  156.4169  130.4419  149.7212 H   0  0  0  0  0  0  0  0  0  0  0  0  # atno 10718 bound_to 10713
  154.2869  135.6261  153.5369 H   0  0  0  0  0  0  0  0  0  0  0  0  # atno 10763 bound_to 10752
  152.9858  135.5646  154.5434 H   0  0  0  0  0  0  0  0  0  0  0  0  # atno 10764 bound_to 10752
  154.5036  135.2873  155.1376 H   0  0  0  0  0  0  0  0  0  0  0  0  # atno 10765 bound_to 10752
  140.3539  134.2199  155.7677 H   0  0  0  0  0  0  0  0  0  0  0  0  # atno 11005 bound_to 11000
  145.2733  141.0115  143.3759 LP  0  0  0  0  0  0  0  0  0  0  0  0  # atno 17320 bound_to 7965
  144.9206  139.4416  143.6543 LP  0  0  0  0  0  0  0  0  0  0  0  0  # atno 17321 bound_to 7965
  140.7547  143.6116  150.8600 LP  0  0  0  0  0  0  0  0  0  0  0  0  # atno 17342 bound_to 10162
  139.9766  143.5997  152.2956 LP  0  0  0  0  0  0  0  0  0  0  0  0  # atno 17343 bound_to 10162
  156.4168  130.7749  151.2764 LP  0  0  0  0  0  0  0  0  0  0  0  0  # atno 17370 bound_to 10713
  157.7508  131.0195  150.3669 LP  0  0  0  0  0  0  0  0  0  0  0  0  # atno 17371 bound_to 10713
  141.2004  133.7988  157.0491 LP  0  0  0  0  0  0  0  0  0  0  0  0  # atno 17394 bound_to 11000
  140.0681  134.9718  157.1420 LP  0  0  0  0  0  0  0  0  0  0  0  0  # atno 17395 bound_to 11000

$$$$
