AV-unprocessed.smi:35|AV-procd|sdf|276|dock1
  -GOLD-   2262016 43D 1   1.00000     0.00000
 Structure written by MMmdl.
 28 29  0  0  0  0  0  0  0  0  2 V2000
  152.0655  135.5386  156.4647 O   0  0  0  0  0  0  0  0  0  0  0  0
  151.7186  136.6788  156.1616 C   0  0  0  0  0  0  0  0  0  0  0  0
  152.5536  137.5704  155.5532 N   0  5  0  0  0  0  0  0  0  0  0  0
  152.1620  138.8337  155.2126 C   0  0  0  0  0  0  0  0  0  0  0  0
  152.9159  139.6539  154.6886 O   0  0  0  0  0  0  0  0  0  0  0  0
  150.8247  139.2345  155.4824 N   0  0  0  0  0  0  0  0  0  0  0  0
  150.3806  140.6321  155.1154 C   0  0  1  0  0  0  0  0  0  0  0  0
  149.2336  140.5522  154.3184 O   0  0  0  0  0  0  0  0  0  0  0  0
  148.2026  141.3775  154.8507 C   0  0  1  0  0  0  0  0  0  0  0  0
  146.8361  140.7865  154.4682 C   0  0  0  0  0  0  0  0  0  0  0  0
  146.5295  141.0689  153.1193 O   0  0  0  0  0  0  0  0  0  0  0  0
  148.5032  141.3990  156.3509 C   0  0  2  0  0  0  0  0  0  0  0  0
  147.9243  142.4951  157.0332 O   0  0  0  0  0  0  0  0  0  0  0  0
  150.0262  141.4254  156.3831 C   0  0  2  0  0  0  0  0  0  0  0  0
  150.5562  142.7369  156.3166 O   0  0  0  0  0  0  0  0  0  0  0  0
  149.9612  138.3596  156.1199 C   0  0  0  0  0  0  0  0  0  0  0  0
  150.3578  137.1170  156.4609 C   0  0  0  0  0  0  0  0  0  0  0  0
  149.0181  135.9735  157.3689 Br  0  0  0  0  0  0  0  0  0  0  0  0
  151.1916  141.0645  154.5267 H   0  0  0  0  0  0  0  0  0  0  0  0
  148.3266  142.3738  154.4222 H   0  0  0  0  0  0  0  0  0  0  0  0
  146.8526  139.7032  154.5899 H   0  0  0  0  0  0  0  0  0  0  0  0
  146.0468  141.1699  155.1155 H   0  0  0  0  0  0  0  0  0  0  0  0
  145.6349  140.8137  152.9543 H   0  0  0  0  0  0  0  0  0  0  0  0
  148.1527  140.4723  156.8074 H   0  0  0  0  0  0  0  0  0  0  0  0
  148.2232  143.2901  156.6184 H   0  0  0  0  0  0  0  0  0  0  0  0
  150.4203  140.9418  157.2783 H   0  0  0  0  0  0  0  0  0  0  0  0
  149.8355  143.3416  156.2231 H   0  0  0  0  0  0  0  0  0  0  0  0
  148.9545  138.6685  156.3577 H   0  0  0  0  0  0  0  0  0  0  0  0
  1  2  2  0  0  0  0
  2 17  1  0  0  0  0
  2  3  1  0  0  0  0
  3  4  1  0  0  0  0
  4  5  2  0  0  0  0
  4  6  1  0  0  0  0
  6  7  1  0  0  0  0
  6 16  1  0  0  0  0
  7 14  1  0  0  0  0
  7  8  1  0  0  0  0
  7 19  1  0  0  0  0
  8  9  1  0  0  0  0
  9 10  1  0  0  0  0
  9 12  1  0  0  0  0
  9 20  1  0  0  0  0
 10 11  1  0  0  0  0
 10 21  1  0  0  0  0
 10 22  1  0  0  0  0
 11 23  1  0  0  0  0
 12 13  1  0  0  0  0
 12 14  1  0  0  0  0
 12 24  1  0  0  0  0
 13 25  1  0  0  0  0
 14 15  1  0  0  0  0
 14 26  1  0  0  0  0
 15 27  1  0  0  0  0
 16 17  2  0  0  0  0
 16 28  1  0  0  0  0
 17 18  1  0  0  0  0
M  CHG  1   3  -1
M  END
> <s_m_source_file>
AV-unprocessed.smi

> <i_m_source_file_index>
35

> <i_lp_mmshare_version>
43012

> <i_f3d_flags>
0

> <s_epik_input>
Tz1jMVtuSF1jKD1PKW4oW2NIXWMxQnIpW0NAQEhdMk9bQ0BASF0oW0NIMl1bT0hdKVtDQEBIXShbT0hdKVtDQEhdMltPSF0=

> <s_epik_cmdline>
J2VwaWtfcHl0aG9uJywgJy1waCcsICc3LjAnLCAnLXRuJywgJzgnLCAnLW1hJywgJzIwMCcsICctbWV0YWxfYmluZGluZycsICctaW1hZScsICc8aW5maWxlLm1hZT4nLCAnLW9tYWUnLCAnPG91dGZpbGUubWFlPic=

> <r_epik_Ionization_Penalty>
1.06112

> <r_epik_Ionization_Penalty_Charging>
2.1796e-09

> <r_epik_Ionization_Penalty_Neutral>
1.06112

> <r_epik_State_Penalty>
1.11484

> <r_epik_Charging_Adjusted_Penalty>
1.11484

> <i_epik_Tot_Q>
-1

> <i_epik_Tot_abs_Q>
1

> <r_epik_Metal_State_Penalty>
0.0032876

> <b_epik_Metal_Only>
0

> <s_epik_Chemistry_Notes>
This compound contains an acetal/aminal-like group ( X-CH(R)-Y where X, Y are N, S, or O) that may be acid/base labile, releasing an aldehyde.

> <s_lp_Force_Field>
OPLS_2005

> <r_lp_Energy>
40.7288

> <b_lp_Chiralities_Consistent>
1

> <s_lp_Variant>
AV-unprocessed.smi:35-30

> <Gold.Version>
5.8.1

> <Gold.Id.Protein>
6NUR|6NUR_protein|mol2

> <Gold.PLP.Fitness>
39.0847

> <Gold.PLP.PLP>
-23.4685

> <Gold.PLP.part.hbond>
-7.0787

> <Gold.PLP.part.metal>
0.0000

> <Gold.PLP.part.buried>
-2.1250

> <Gold.PLP.part.nonpolar>
-14.6106

> <Gold.PLP.part.repulsive>
0.1783

> <Gold.PLP.ligand.clash>
0.0000

> <Gold.PLP.ligand.torsion>
0.1509

> <Gold.PLP.Chemscore.Hbond>
5.3015

> <Gold.PLP.Chemscore.CHOScore>
0.0000

> <Gold.PLP.Chemscore.Metal>
0.0000

> <Gold.Chemscore.Hbonds>
donor molecule, donor type, donor heavy atom, donor atom, acceptor molecule, acceptor atom, score
      L1  H    11    23       P1 10175  1.00
      L1  H    13    25       P1  8028  1.00
      L1  H    15    27       P1  8028  1.00
      P1  H  7989  7998       L1     5  0.35
      P1  H  7997  8009       L1     5  1.00
      P1  H 10752 10765       L1     1  0.94

> <Gold.PLP.Chemscore.Internal.Correction>
0.0134

> <Gold.Rescore>
     Score         DG    S(hbond)    S(metal)    S(lipo)     H(rot)  DE(clash)    DE(int)     intcor
     10.31     -10.51       3.33        0.00      27.28       3.63       0.11       0.09       ----

> <Gold.Chemscore.Fitness>
10.3125

> <Gold.Chemscore.DG>
-10.5148

> <Gold.Chemscore.ZeroCoef>
-5.4800

> <Gold.Chemscore.Hbond>
3.3310

> <Gold.Chemscore.Metal>
0.0000

> <Gold.Chemscore.Lipo>
27.2834

> <Gold.Chemscore.Internal_Hbond>
0.0000

> <Gold.Chemscore.DEClash>
0.1103

> <Gold.Chemscore.DEInternal>
0.0920

> <Gold.Chemscore.Rot>
3.6261

> <Gold.Chemscore.Internal.Correction>
   9.000000E+99

> <Gold.Chemscore.Hbonds>
donor molecule, donor type, donor heavy atom, donor atom, acceptor molecule, acceptor atom, score
      L1  H    11    23       P1 10175  0.47
      L1  H    13    25       P1  8028  0.26
      L1  H    15    27       P1  8028  1.00
      P1  H  7989  7998       L1     5  0.19
      P1  H  7997  8009       L1     5  0.77
      P1  H 10752 10765       L1     1  0.20

> <Gold.Chemscore.Hbond.Weighted>
-11.1254

> <Gold.Chemscore.Metal.Weighted>
-0.0000

> <Gold.Chemscore.Lipo.Weighted>
-3.1922

> <Gold.Chemscore.Internal_Hbond.Weighted>
0.0000

> <Gold.Chemscore.DEClash.Weighted>
0.1103

> <Gold.Chemscore.DEInternal.Weighted>
0.0920

> <Gold.Chemscore.Rot.Weighted>
9.2828

> <Gold.Chemscore.Internal.Correction.Weighted>
   9.000000E+99

> <Gold.Protein.RotatedTorsions>
[ 6907 6896 6895 6894 ] final   22.86 input  -60.11 | X-H torsion
[ 7974 7965 7964 7962 ] final  145.22 input  175.53 | X-H torsion
[ 8008 7997 7996 7995 ] final -138.01 input   59.86 | X-H torsion
[ 10167 10162 10161 10158 ] final  -70.59 input  -65.29 | X-H torsion
[ 10718 10713 10712 10709 ] final -117.55 input   66.30 | X-H torsion
[ 10763 10752 10751 10750 ] final -123.18 input  -60.55 | X-H torsion
[ 11005 11000 10999 10996 ] final   61.12 input  -57.11 | X-H torsion

> <Gold.Protein.ActiveResidues>
 VAL166  LYS551  ARG553  GLY616  TRP617  ASP618  TYR619  PRO620  LYS621  CYS622 
 ASP623  PHE694  ASN695  SER759  ASP760  ASP761  ALA762  ILE779  LEU786  VAL792 
 PHE793  MET794  SER795  GLU796  ALA797  LYS798  CYS799  TRP800  GLU811  SER814 

> <Gold.Protein.RotatedAtoms>
  151.9336  135.0245  160.0530 H   0  0  0  0  0  0  0  0  0  0  0  0  # atno 6907 bound_to 6896
  152.2097  133.4897  159.5112 H   0  0  0  0  0  0  0  0  0  0  0  0  # atno 6908 bound_to 6896
  150.6973  134.1400  159.4144 H   0  0  0  0  0  0  0  0  0  0  0  0  # atno 6909 bound_to 6896
  144.8770  139.5757  143.5860 H   0  0  0  0  0  0  0  0  0  0  0  0  # atno 7974 bound_to 7965
  155.4213  140.0519  157.3025 H   0  0  0  0  0  0  0  0  0  0  0  0  # atno 8008 bound_to 7997
  154.4901  140.2116  155.9526 H   0  0  0  0  0  0  0  0  0  0  0  0  # atno 8009 bound_to 7997
  156.1330  140.3168  155.8383 H   0  0  0  0  0  0  0  0  0  0  0  0  # atno 8010 bound_to 7997
  140.5340  143.2319  151.7210 H   0  0  0  0  0  0  0  0  0  0  0  0  # atno 10167 bound_to 10162
  156.1041  130.6196  150.9178 H   0  0  0  0  0  0  0  0  0  0  0  0  # atno 10718 bound_to 10713
  154.8703  135.4107  154.2901 H   0  0  0  0  0  0  0  0  0  0  0  0  # atno 10763 bound_to 10752
  153.3778  135.7010  153.6594 H   0  0  0  0  0  0  0  0  0  0  0  0  # atno 10764 bound_to 10752
  153.5428  135.3644  155.2697 H   0  0  0  0  0  0  0  0  0  0  0  0  # atno 10765 bound_to 10752
  140.0183  134.6191  155.9677 H   0  0  0  0  0  0  0  0  0  0  0  0  # atno 11005 bound_to 11000
  146.2969  139.7307  142.9120 LP  0  0  0  0  0  0  0  0  0  0  0  0  # atno 17320 bound_to 7965
  145.4024  141.0387  143.3063 LP  0  0  0  0  0  0  0  0  0  0  0  0  # atno 17321 bound_to 7965
  139.4964  144.4071  152.0120 LP  0  0  0  0  0  0  0  0  0  0  0  0  # atno 17342 bound_to 10162
  140.3175  144.3467  150.6018 LP  0  0  0  0  0  0  0  0  0  0  0  0  # atno 17343 bound_to 10162
  157.6216  131.0929  150.8612 LP  0  0  0  0  0  0  0  0  0  0  0  0  # atno 17370 bound_to 10713
  156.8734  130.5154  149.5295 LP  0  0  0  0  0  0  0  0  0  0  0  0  # atno 17371 bound_to 10713
  141.1757  133.6540  156.4821 LP  0  0  0  0  0  0  0  0  0  0  0  0  # atno 17394 bound_to 11000
  140.4432  134.6997  157.5002 LP  0  0  0  0  0  0  0  0  0  0  0  0  # atno 17395 bound_to 11000

$$$$
