AV-unprocessed.smi:1199|AV-procd|sdf|5020|dock5
  -GOLD-   22720 4 43D 1   1.00000     0.00000
 Structure written by MMmdl.
 42 43  0  0  0  0  0  0  0  0  2 V2000
  147.5768  141.3116  153.4205 C   0  0  0  0  0  0  0  0  0  0  0  0
  148.4469  140.3189  154.2032 C   0  0  2  0  0  0  0  0  0  0  0  0
  147.8969  138.8766  154.0984 C   0  0  0  0  0  0  0  0  0  0  0  0
  148.9315  137.8334  154.3233 N   0  3  0  0  0  0  0  0  0  0  0  0
  150.2633  138.3976  154.6458 C   0  0  0  0  0  0  0  0  0  0  0  0
  151.3018  137.2719  154.8027 C   0  0  0  0  0  0  0  0  0  0  0  0
  150.8657  136.3433  155.7880 O   0  0  0  0  0  0  0  0  0  0  0  0
  149.6274  135.7369  155.4382 C   0  0  0  0  0  0  0  0  0  0  0  0
  148.5431  136.8213  155.3350 C   0  0  0  0  0  0  0  0  0  0  0  0
  148.5280  140.7434  155.6009 N   0  0  0  0  0  0  0  0  0  0  0  0
  149.6584  140.9900  156.2817 C   0  0  0  0  0  0  0  0  0  0  0  0
  150.7785  140.9605  155.7718 O   0  0  0  0  0  0  0  0  0  0  0  0
  149.5012  141.2954  157.7762 C   0  0  0  0  0  0  0  0  0  0  0  0
  150.5950  142.1390  158.2784 N   0  0  0  0  0  0  0  0  0  0  0  0
  150.2555  143.4730  158.4430 N   0  0  0  0  0  0  0  0  0  0  0  0
  151.1423  144.3182  158.8476 C   0  0  0  0  0  0  0  0  0  0  0  0
  150.7643  145.6300  158.9941 O   0  0  0  0  0  0  0  0  0  0  0  0
  152.4965  143.9012  159.1389 C   0  0  0  0  0  0  0  0  0  0  0  0
  152.8161  142.5979  158.9827 C   0  0  0  0  0  0  0  0  0  0  0  0
  151.8344  141.6129  158.5266 C   0  0  0  0  0  0  0  0  0  0  0  0
  152.0983  140.4207  158.3670 O   0  0  0  0  0  0  0  0  0  0  0  0
  150.0426  145.7518  158.3965 H   0  0  0  0  0  0  0  0  0  0  0  0
  147.5197  141.0355  152.3673 H   0  0  0  0  0  0  0  0  0  0  0  0
  147.9875  142.3206  153.4729 H   0  0  0  0  0  0  0  0  0  0  0  0
  146.5591  141.3458  153.8108 H   0  0  0  0  0  0  0  0  0  0  0  0
  149.4403  140.3514  153.7536 H   0  0  0  0  0  0  0  0  0  0  0  0
  147.1151  138.7589  154.8505 H   0  0  0  0  0  0  0  0  0  0  0  0
  147.4149  138.7158  153.1330 H   0  0  0  0  0  0  0  0  0  0  0  0
  150.5800  139.0785  153.8547 H   0  0  0  0  0  0  0  0  0  0  0  0
  150.1997  138.9798  155.5665 H   0  0  0  0  0  0  0  0  0  0  0  0
  151.4690  136.7567  153.8566 H   0  0  0  0  0  0  0  0  0  0  0  0
  152.2615  137.6877  155.1096 H   0  0  0  0  0  0  0  0  0  0  0  0
  149.7246  135.1900  154.4985 H   0  0  0  0  0  0  0  0  0  0  0  0
  149.3606  135.0097  156.2052 H   0  0  0  0  0  0  0  0  0  0  0  0
  148.4042  137.3039  156.3036 H   0  0  0  0  0  0  0  0  0  0  0  0
  147.5921  136.3601  155.0719 H   0  0  0  0  0  0  0  0  0  0  0  0
  147.6548  140.8077  156.1046 H   0  0  0  0  0  0  0  0  0  0  0  0
  148.5370  141.7852  157.9242 H   0  0  0  0  0  0  0  0  0  0  0  0
  149.4546  140.3692  158.3522 H   0  0  0  0  0  0  0  0  0  0  0  0
  153.2268  144.6227  159.4750 H   0  0  0  0  0  0  0  0  0  0  0  0
  153.8233  142.2725  159.1983 H   0  0  0  0  0  0  0  0  0  0  0  0
  149.0388  137.3462  153.4445 H   0  0  0  0  0  0  0  0  0  0  0  0
  1  2  1  0  0  0  0
  1 23  1  0  0  0  0
  1 24  1  0  0  0  0
  1 25  1  0  0  0  0
  2  3  1  0  0  0  0
  2 10  1  0  0  0  0
  2 26  1  0  0  0  0
  3  4  1  0  0  0  0
  3 27  1  0  0  0  0
  3 28  1  0  0  0  0
  4  9  1  0  0  0  0
  4  5  1  0  0  0  0
  4 42  1  0  0  0  0
  5  6  1  0  0  0  0
  5 29  1  0  0  0  0
  5 30  1  0  0  0  0
  6  7  1  0  0  0  0
  6 31  1  0  0  0  0
  6 32  1  0  0  0  0
  7  8  1  0  0  0  0
  8  9  1  0  0  0  0
  8 33  1  0  0  0  0
  8 34  1  0  0  0  0
  9 35  1  0  0  0  0
  9 36  1  0  0  0  0
 10 11  1  0  0  0  0
 10 37  1  0  0  0  0
 11 12  2  0  0  0  0
 11 13  1  0  0  0  0
 13 38  1  0  0  0  0
 13 39  1  0  0  0  0
 13 14  1  0  0  0  0
 14 15  1  0  0  0  0
 14 20  1  0  0  0  0
 15 16  2  0  0  0  0
 16 17  1  0  0  0  0
 16 18  1  0  0  0  0
 17 22  1  0  0  0  0
 18 40  1  0  0  0  0
 18 19  2  0  0  0  0
 19 41  1  0  0  0  0
 19 20  1  0  0  0  0
 20 21  2  0  0  0  0
M  CHG  1   4   1
M  END
> <s_m_source_file>
AV-unprocessed.smi

> <i_m_source_file_index>
1199

> <i_lp_mmshare_version>
43012

> <i_f3d_flags>
0

> <s_epik_input>
W0NIMl0xW0NIMl1PW0NIMl1bQ0gyXU4xW0NIMl1bQ0BASF0oW0NIM10pW05IXUMoPU8pW0NIMl1uMltuSF1jKD1PKVtjSF1bY0hdYzI9Tw==

> <s_epik_cmdline>
J2VwaWtfcHl0aG9uJywgJy1waCcsICc3LjAnLCAnLXRuJywgJzgnLCAnLW1hJywgJzIwMCcsICctbWV0YWxfYmluZGluZycsICctaW1hZScsICc8aW5maWxlLm1hZT4nLCAnLW9tYWUnLCAnPG91dGZpbGUubWFlPic=

> <r_lp_tautomer_probability>
0.9996

> <r_epik_Ionization_Penalty>
2.86815

> <r_epik_Ionization_Penalty_Charging>
0.656653

> <r_epik_Ionization_Penalty_Neutral>
2.21149

> <r_epik_State_Penalty>
2.43136

> <r_epik_Charging_Adjusted_Penalty>
3.08801

> <i_epik_Tot_Q>
1

> <i_epik_Tot_abs_Q>
1

> <r_epik_Metal_State_Penalty>
2.43136

> <b_epik_Metal_Only>
0

> <s_lp_Force_Field>
OPLS_2005

> <r_lp_Energy>
31.3185

> <b_lp_Chiralities_Consistent>
1

> <s_lp_Variant>
AV-unprocessed.smi:1199-7

> <Gold.Version>
5.8.1

> <Gold.Id.Protein>
6NUR|6NUR_protein|mol2

> <Gold.PLP.Fitness>
42.8481

> <Gold.PLP.PLP>
-36.2505

> <Gold.PLP.part.hbond>
-5.7860

> <Gold.PLP.part.metal>
0.0000

> <Gold.PLP.part.buried>
-3.2106

> <Gold.PLP.part.nonpolar>
-28.5339

> <Gold.PLP.part.repulsive>
0.3981

> <Gold.PLP.ligand.clash>
2.4836

> <Gold.PLP.ligand.torsion>
1.6030

> <Gold.PLP.Chemscore.Hbond>
4.0754

> <Gold.PLP.Chemscore.CHOScore>
0.0000

> <Gold.PLP.Chemscore.Metal>
0.0000

> <Gold.Chemscore.Hbonds>
donor molecule, donor type, donor heavy atom, donor atom, acceptor molecule, acceptor atom, score
      L1  H     4    42       P1  7948  2.00
      L1  H    17    22       P1  8029  0.06
      P1  H  7989  7998       L1    12  0.02

> <Gold.PLP.Chemscore.Internal.Correction>
0.0613

> <Gold.Rescore>
     Score         DG    S(hbond)    S(metal)    S(lipo)     H(rot)  DE(clash)    DE(int)     intcor
     10.51     -13.57       2.25        0.00      71.32       3.03       1.47       1.59       ----

> <Gold.Chemscore.Fitness>
10.5079

> <Gold.Chemscore.DG>
-13.5668

> <Gold.Chemscore.ZeroCoef>
-5.4800

> <Gold.Chemscore.Hbond>
2.2479

> <Gold.Chemscore.Metal>
0.0000

> <Gold.Chemscore.Lipo>
71.3225

> <Gold.Chemscore.Internal_Hbond>
0.0000

> <Gold.Chemscore.DEClash>
1.4659

> <Gold.Chemscore.DEInternal>
1.5930

> <Gold.Chemscore.Rot>
3.0336

> <Gold.Chemscore.Internal.Correction>
   9.000000E+99

> <Gold.Chemscore.Hbonds>
donor molecule, donor type, donor heavy atom, donor atom, acceptor molecule, acceptor atom, score
      L1  H     4    42       P1  7948  1.00
      L1  H    17    22       P1  8029  0.06
      P1  H  7989  7998       L1    12  0.06

> <Gold.Chemscore.Hbond.Weighted>
-7.5081

> <Gold.Chemscore.Metal.Weighted>
-0.0000

> <Gold.Chemscore.Lipo.Weighted>
-8.3447

> <Gold.Chemscore.Internal_Hbond.Weighted>
0.0000

> <Gold.Chemscore.DEClash.Weighted>
1.4659

> <Gold.Chemscore.DEInternal.Weighted>
1.5930

> <Gold.Chemscore.Rot.Weighted>
7.7661

> <Gold.Chemscore.Internal.Correction.Weighted>
   9.000000E+99

> <Gold.Protein.RotatedTorsions>
[ 6907 6896 6895 6894 ] final   85.22 input  -60.11 | X-H torsion
[ 7974 7965 7964 7962 ] final  -80.08 input  175.53 | X-H torsion
[ 8008 7997 7996 7995 ] final   11.49 input   59.86 | X-H torsion
[ 10167 10162 10161 10158 ] final    7.65 input  -65.29 | X-H torsion
[ 10718 10713 10712 10709 ] final   11.71 input   66.30 | X-H torsion
[ 10763 10752 10751 10750 ] final  -40.56 input  -60.55 | X-H torsion
[ 11005 11000 10999 10996 ] final  -55.69 input  -57.11 | X-H torsion

> <Gold.Protein.ActiveResidues>
 VAL166  LYS551  ARG553  GLY616  TRP617  ASP618  TYR619  PRO620  LYS621  CYS622 
 ASP623  PHE694  ASN695  SER759  ASP760  ASP761  ALA762  ILE779  LEU786  VAL792 
 PHE793  MET794  SER795  GLU796  ALA797  LYS798  CYS799  TRP800  GLU811  SER814 

> <Gold.Protein.RotatedAtoms>
  152.5370  134.2620  159.8938 H   0  0  0  0  0  0  0  0  0  0  0  0  # atno 6907 bound_to 6896
  151.2580  133.4310  159.2622 H   0  0  0  0  0  0  0  0  0  0  0  0  # atno 6908 bound_to 6896
  151.0479  134.9667  159.8252 H   0  0  0  0  0  0  0  0  0  0  0  0  # atno 6909 bound_to 6896
  145.5647  140.9476  143.1428 H   0  0  0  0  0  0  0  0  0  0  0  0  # atno 7974 bound_to 7965
  154.8077  140.2863  155.5876 H   0  0  0  0  0  0  0  0  0  0  0  0  # atno 8008 bound_to 7997
  156.2984  140.2574  156.2888 H   0  0  0  0  0  0  0  0  0  0  0  0  # atno 8009 bound_to 7997
  154.9484  140.0380  157.2121 H   0  0  0  0  0  0  0  0  0  0  0  0  # atno 8010 bound_to 7997
  140.6359  143.7886  150.7359 H   0  0  0  0  0  0  0  0  0  0  0  0  # atno 10167 bound_to 10162
  156.9996  130.6074  149.5695 H   0  0  0  0  0  0  0  0  0  0  0  0  # atno 10718 bound_to 10713
  153.9480  135.6754  153.4744 H   0  0  0  0  0  0  0  0  0  0  0  0  # atno 10763 bound_to 10752
  153.0898  135.4880  154.8665 H   0  0  0  0  0  0  0  0  0  0  0  0  # atno 10764 bound_to 10752
  154.7341  135.3145  154.8800 H   0  0  0  0  0  0  0  0  0  0  0  0  # atno 10765 bound_to 10752
  141.1085  133.6612  156.4507 H   0  0  0  0  0  0  0  0  0  0  0  0  # atno 11005 bound_to 11000
  144.7466  139.7304  143.7290 LP  0  0  0  0  0  0  0  0  0  0  0  0  # atno 17320 bound_to 7965
  146.1826  139.5026  142.9856 LP  0  0  0  0  0  0  0  0  0  0  0  0  # atno 17321 bound_to 7965
  140.1507  143.4360  152.2133 LP  0  0  0  0  0  0  0  0  0  0  0  0  # atno 17342 bound_to 10162
  139.5570  144.7379  151.4265 LP  0  0  0  0  0  0  0  0  0  0  0  0  # atno 17343 bound_to 10162
  156.0176  130.5270  150.8181 LP  0  0  0  0  0  0  0  0  0  0  0  0  # atno 17370 bound_to 10713
  157.5400  131.0940  150.9841 LP  0  0  0  0  0  0  0  0  0  0  0  0  # atno 17371 bound_to 10713
  140.4837  134.6640  157.5182 LP  0  0  0  0  0  0  0  0  0  0  0  0  # atno 17394 bound_to 11000
  139.9967  134.6899  155.9597 LP  0  0  0  0  0  0  0  0  0  0  0  0  # atno 17395 bound_to 11000

$$$$
