AV-unprocessed.smi:153|AV-procd|sdf|1263|dock5
  -GOLD-   2262018513D 1   1.00000     0.00000
 Structure written by MMmdl.
 59 62  0  0  0  0  0  0  0  0  1 V2000
  150.7313  141.4840  155.9069 C   0  0  0  0  0  0  0  0  0  0  0  0
  150.6775  139.9514  155.7968 C   0  0  1  0  0  0  0  0  0  0  0  0
  150.8867  139.5874  154.4350 O   0  0  0  0  0  0  0  0  0  0  0  0
  151.5280  138.3250  154.3960 C   0  0  0  0  0  0  0  0  0  0  0  0
  152.5312  138.4405  155.5317 C   0  0  0  0  0  0  0  0  0  0  0  0
  151.7294  139.1559  156.6198 C   0  0  1  0  0  0  0  0  0  0  0  0
  152.6131  139.9981  157.3411 O   0  0  0  0  0  0  0  0  0  0  0  0
  151.0378  138.1953  157.6230 C   0  0  0  0  0  0  0  0  0  0  0  0
  150.0842  137.2785  157.0159 N   0  0  0  0  0  0  0  0  0  0  0  0
  148.7634  137.5320  156.7297 C   0  0  0  0  0  0  0  0  0  0  0  0
  148.1172  136.5435  156.1768 N   0  0  0  0  0  0  0  0  0  0  0  0
  149.0604  135.5268  156.0638 C   0  0  0  0  0  0  0  0  0  0  0  0
  149.0430  134.1908  155.5569 C   0  0  0  0  0  0  0  0  0  0  0  0
  147.9404  133.5718  155.0453 N   0  0  0  0  0  0  0  0  0  0  0  0
  147.8088  132.1275  155.2282 C   0  0  0  0  0  0  0  0  0  0  0  0
  146.7056  134.3409  154.8888 C   0  0  0  0  0  0  0  0  0  0  0  0
  145.7038  133.6991  153.9029 C   0  0  1  0  0  0  0  0  0  0  0  0
  144.3897  134.1644  154.1383 O   0  0  0  0  0  0  0  0  0  0  0  0
  146.0605  133.9436  152.4189 C   0  0  0  0  0  0  0  0  0  0  0  0
  145.5491  132.9717  151.4467 N   0  0  0  0  0  0  0  0  0  0  0  0
  146.2876  132.9786  150.1851 C   0  0  0  0  0  0  0  0  0  0  0  0
  145.7110  131.9717  149.1742 C   0  0  0  0  0  0  0  0  0  0  0  0
  144.3306  132.2441  148.9573 O   0  0  0  0  0  0  0  0  0  0  0  0
  143.5685  132.1972  150.1589 C   0  0  0  0  0  0  0  0  0  0  0  0
  144.1369  133.2107  151.1671 C   0  0  0  0  0  0  0  0  0  0  0  0
  150.2187  133.5060  155.5957 N   0  0  0  0  0  0  0  0  0  0  0  0
  151.3212  134.0633  156.1021 C   0  0  0  0  0  0  0  0  0  0  0  0
  151.4763  135.2825  156.6167 N   0  0  0  0  0  0  0  0  0  0  0  0
  150.3097  135.9859  156.5751 C   0  0  0  0  0  0  0  0  0  0  0  0
  150.5592  141.8117  156.9326 H   0  0  0  0  0  0  0  0  0  0  0  0
  149.9652  141.9433  155.2819 H   0  0  0  0  0  0  0  0  0  0  0  0
  151.6972  141.8735  155.5832 H   0  0  0  0  0  0  0  0  0  0  0  0
  149.6724  139.6220  156.0649 H   0  0  0  0  0  0  0  0  0  0  0  0
  150.8045  137.5307  154.5864 H   0  0  0  0  0  0  0  0  0  0  0  0
  152.0007  138.1429  153.4309 H   0  0  0  0  0  0  0  0  0  0  0  0
  152.9507  137.4806  155.8286 H   0  0  0  0  0  0  0  0  0  0  0  0
  153.3616  139.0639  155.1951 H   0  0  0  0  0  0  0  0  0  0  0  0
  152.4367  139.8943  158.2635 H   0  0  0  0  0  0  0  0  0  0  0  0
  151.7879  137.6020  158.1476 H   0  0  0  0  0  0  0  0  0  0  0  0
  150.5160  138.7665  158.3918 H   0  0  0  0  0  0  0  0  0  0  0  0
  148.2906  138.4790  156.9462 H   0  0  0  0  0  0  0  0  0  0  0  0
  148.7077  131.6099  154.8912 H   0  0  0  0  0  0  0  0  0  0  0  0
  146.9705  131.7367  154.6513 H   0  0  0  0  0  0  0  0  0  0  0  0
  147.6389  131.8829  156.2773 H   0  0  0  0  0  0  0  0  0  0  0  0
  146.2364  134.5722  155.8418 H   0  0  0  0  0  0  0  0  0  0  0  0
  146.9974  135.3130  154.4902 H   0  0  0  0  0  0  0  0  0  0  0  0
  145.6848  132.6196  154.0565 H   0  0  0  0  0  0  0  0  0  0  0  0
  143.8287  133.4159  154.2730 H   0  0  0  0  0  0  0  0  0  0  0  0
  145.6409  134.9176  152.1630 H   0  0  0  0  0  0  0  0  0  0  0  0
  147.1399  134.0582  152.3065 H   0  0  0  0  0  0  0  0  0  0  0  0
  146.2698  133.9793  149.7506 H   0  0  0  0  0  0  0  0  0  0  0  0
  147.3336  132.7279  150.3564 H   0  0  0  0  0  0  0  0  0  0  0  0
  146.2418  132.0412  148.2248 H   0  0  0  0  0  0  0  0  0  0  0  0
  145.8343  130.9498  149.5362 H   0  0  0  0  0  0  0  0  0  0  0  0
  142.5282  132.4301  149.9313 H   0  0  0  0  0  0  0  0  0  0  0  0
  143.5888  131.1875  150.5724 H   0  0  0  0  0  0  0  0  0  0  0  0
  143.5613  133.1559  152.0918 H   0  0  0  0  0  0  0  0  0  0  0  0
  144.0031  134.2207  150.7763 H   0  0  0  0  0  0  0  0  0  0  0  0
  152.2047  133.4423  156.0946 H   0  0  0  0  0  0  0  0  0  0  0  0
  1  2  1  0  0  0  0
  1 30  1  0  0  0  0
  1 31  1  0  0  0  0
  1 32  1  0  0  0  0
  2  6  1  0  0  0  0
  2  3  1  0  0  0  0
  2 33  1  0  0  0  0
  3  4  1  0  0  0  0
  4  5  1  0  0  0  0
  4 34  1  0  0  0  0
  4 35  1  0  0  0  0
  5  6  1  0  0  0  0
  5 36  1  0  0  0  0
  5 37  1  0  0  0  0
  6  7  1  0  0  0  0
  6  8  1  0  0  0  0
  7 38  1  0  0  0  0
  8  9  1  0  0  0  0
  8 39  1  0  0  0  0
  8 40  1  0  0  0  0
  9 29  1  0  0  0  0
  9 10  1  0  0  0  0
 10 11  2  0  0  0  0
 10 41  1  0  0  0  0
 11 12  1  0  0  0  0
 12 29  2  0  0  0  0
 12 13  1  0  0  0  0
 13 14  1  0  0  0  0
 13 26  2  0  0  0  0
 14 15  1  0  0  0  0
 14 16  1  0  0  0  0
 15 42  1  0  0  0  0
 15 43  1  0  0  0  0
 15 44  1  0  0  0  0
 16 17  1  0  0  0  0
 16 45  1  0  0  0  0
 16 46  1  0  0  0  0
 17 18  1  0  0  0  0
 17 19  1  0  0  0  0
 17 47  1  0  0  0  0
 18 48  1  0  0  0  0
 19 20  1  0  0  0  0
 19 49  1  0  0  0  0
 19 50  1  0  0  0  0
 20 25  1  0  0  0  0
 20 21  1  0  0  0  0
 21 22  1  0  0  0  0
 21 51  1  0  0  0  0
 21 52  1  0  0  0  0
 22 23  1  0  0  0  0
 22 53  1  0  0  0  0
 22 54  1  0  0  0  0
 23 24  1  0  0  0  0
 24 25  1  0  0  0  0
 24 55  1  0  0  0  0
 24 56  1  0  0  0  0
 25 57  1  0  0  0  0
 25 58  1  0  0  0  0
 26 27  1  0  0  0  0
 27 28  2  0  0  0  0
 27 59  1  0  0  0  0
 28 29  1  0  0  0  0
M  END
> <s_m_source_file>
AV-unprocessed.smi

> <i_m_source_file_index>
153

> <i_lp_mmshare_version>
43012

> <i_f3d_flags>
0

> <s_epik_input>
W0NIMl0xW0NIMl1PW0NAQEhdKFtDSDNdKVtDQEBdMShbT0hdKVtDSDJdbihbY0hdbjIpYyhjMjMpbltjSF1uYzNOKFtDSDNdKVtDSDJdW0NASF0oW09IXSlbQ0gyXU40W0NIMl1bQ0gyXU9bQ0gyXVtDSDJdNA==

> <s_epik_cmdline>
J2VwaWtfcHl0aG9uJywgJy1waCcsICc3LjAnLCAnLXRuJywgJzgnLCAnLW1hJywgJzIwMCcsICctbWV0YWxfYmluZGluZycsICctaW1hZScsICc8aW5maWxlLm1hZT4nLCAnLW9tYWUnLCAnPG91dGZpbGUubWFlPic=

> <r_lp_tautomer_probability>
1

> <r_epik_Ionization_Penalty>
0.424123

> <r_epik_Ionization_Penalty_Charging>
0

> <r_epik_Ionization_Penalty_Neutral>
0.424123

> <r_epik_State_Penalty>
0.421495

> <r_epik_Charging_Adjusted_Penalty>
0.421495

> <i_epik_Tot_Q>
0

> <i_epik_Tot_abs_Q>
0

> <r_epik_Metal_State_Penalty>
0.421223

> <b_epik_Metal_Only>
0

> <s_lp_Force_Field>
OPLS_2005

> <r_lp_Energy>
60.0656

> <b_lp_Chiralities_Consistent>
1

> <s_lp_Variant>
AV-unprocessed.smi:153-14

> <Gold.Version>
5.8.1

> <Gold.Id.Protein>
6NUR|6NUR_protein|mol2

> <Gold.PLP.Fitness>
44.4829

> <Gold.PLP.PLP>
-37.5730

> <Gold.PLP.part.hbond>
-4.2207

> <Gold.PLP.part.metal>
0.0000

> <Gold.PLP.part.buried>
-7.1510

> <Gold.PLP.part.nonpolar>
-26.6452

> <Gold.PLP.part.repulsive>
0.4705

> <Gold.PLP.ligand.clash>
0.0000

> <Gold.PLP.ligand.torsion>
1.3991

> <Gold.PLP.Chemscore.Hbond>
2.9880

> <Gold.PLP.Chemscore.CHOScore>
0.0000

> <Gold.PLP.Chemscore.Metal>
0.0000

> <Gold.Chemscore.Hbonds>
donor molecule, donor type, donor heavy atom, donor atom, acceptor molecule, acceptor atom, score
      L1  H    18    48       P1 10957  0.86
      P1  H  7989  7998       L1     3  1.00
      P1  H  7997  8008       L1     7  1.00
      P1  H 10752 10763       L1    28  0.06

> <Gold.PLP.Chemscore.Internal.Correction>
0.7442

> <Gold.Rescore>
     Score         DG    S(hbond)    S(metal)    S(lipo)     H(rot)  DE(clash)    DE(int)     intcor
     13.58     -16.30       2.96        0.00      84.87       3.52       0.07       2.64       ----

> <Gold.Chemscore.Fitness>
13.5804

> <Gold.Chemscore.DG>
-16.2962

> <Gold.Chemscore.ZeroCoef>
-5.4800

> <Gold.Chemscore.Hbond>
2.9612

> <Gold.Chemscore.Metal>
0.0000

> <Gold.Chemscore.Lipo>
84.8653

> <Gold.Chemscore.Internal_Hbond>
0.0000

> <Gold.Chemscore.DEClash>
0.0720

> <Gold.Chemscore.DEInternal>
2.6438

> <Gold.Chemscore.Rot>
3.5170

> <Gold.Chemscore.Internal.Correction>
   9.000000E+99

> <Gold.Chemscore.Hbonds>
donor molecule, donor type, donor heavy atom, donor atom, acceptor molecule, acceptor atom, score
      L1  H    18    48       P1 10957  0.84
      P1  H  7989  7998       L1     3  0.79
      P1  H  7997  8008       L1     7  0.86

> <Gold.Chemscore.Hbond.Weighted>
-9.8905

> <Gold.Chemscore.Metal.Weighted>
-0.0000

> <Gold.Chemscore.Lipo.Weighted>
-9.9292

> <Gold.Chemscore.Internal_Hbond.Weighted>
0.0000

> <Gold.Chemscore.DEClash.Weighted>
0.0720

> <Gold.Chemscore.DEInternal.Weighted>
2.6438

> <Gold.Chemscore.Rot.Weighted>
9.0036

> <Gold.Chemscore.Internal.Correction.Weighted>
   9.000000E+99

> <Gold.Protein.RotatedTorsions>
[ 6907 6896 6895 6894 ] final  112.71 input  -60.11 | X-H torsion
[ 7974 7965 7964 7962 ] final   41.65 input  175.53 | X-H torsion
[ 8008 7997 7996 7995 ] final  -57.84 input   59.86 | X-H torsion
[ 10167 10162 10161 10158 ] final  128.02 input  -65.29 | X-H torsion
[ 10718 10713 10712 10709 ] final  -79.34 input   66.30 | X-H torsion
[ 10763 10752 10751 10750 ] final  106.45 input  -60.55 | X-H torsion
[ 11005 11000 10999 10996 ] final  113.59 input  -57.11 | X-H torsion

> <Gold.Protein.ActiveResidues>
 VAL166  LYS551  ARG553  GLY616  TRP617  ASP618  TYR619  PRO620  LYS621  CYS622 
 ASP623  PHE694  ASN695  SER759  ASP760  ASP761  ALA762  ILE779  LEU786  VAL792 
 PHE793  MET794  SER795  GLU796  ALA797  LYS798  CYS799  TRP800  GLU811  SER814 

> <Gold.Protein.RotatedAtoms>
  152.4901  133.8478  159.7185 H   0  0  0  0  0  0  0  0  0  0  0  0  # atno 6907 bound_to 6896
  150.9023  133.7093  159.2882 H   0  0  0  0  0  0  0  0  0  0  0  0  # atno 6908 bound_to 6896
  151.4530  135.1035  159.9755 H   0  0  0  0  0  0  0  0  0  0  0  0  # atno 6909 bound_to 6896
  146.0806  139.5392  142.9539 H   0  0  0  0  0  0  0  0  0  0  0  0  # atno 7974 bound_to 7965
  154.4284  140.1097  156.5862 H   0  0  0  0  0  0  0  0  0  0  0  0  # atno 8008 bound_to 7997
  155.6060  140.3494  155.4589 H   0  0  0  0  0  0  0  0  0  0  0  0  # atno 8009 bound_to 7997
  156.0136  140.1224  157.0418 H   0  0  0  0  0  0  0  0  0  0  0  0  # atno 8010 bound_to 7997
  139.5548  144.6840  151.4215 H   0  0  0  0  0  0  0  0  0  0  0  0  # atno 10167 bound_to 10162
  156.0095  130.4543  150.3633 H   0  0  0  0  0  0  0  0  0  0  0  0  # atno 10718 bound_to 10713
  153.3932  135.3876  155.1937 H   0  0  0  0  0  0  0  0  0  0  0  0  # atno 10763 bound_to 10752
  154.8721  135.3753  154.4711 H   0  0  0  0  0  0  0  0  0  0  0  0  # atno 10764 bound_to 10752
  153.5200  135.7087  153.5798 H   0  0  0  0  0  0  0  0  0  0  0  0  # atno 10765 bound_to 10752
  139.8957  134.9552  156.6762 H   0  0  0  0  0  0  0  0  0  0  0  0  # atno 11005 bound_to 11000
  145.6224  141.0320  143.1907 LP  0  0  0  0  0  0  0  0  0  0  0  0  # atno 17320 bound_to 7965
  144.7291  139.7782  143.7354 LP  0  0  0  0  0  0  0  0  0  0  0  0  # atno 17321 bound_to 7965
  140.6819  143.8063  150.7132 LP  0  0  0  0  0  0  0  0  0  0  0  0  # atno 17342 bound_to 10162
  140.1519  143.4350  152.2126 LP  0  0  0  0  0  0  0  0  0  0  0  0  # atno 17343 bound_to 10162
  157.1721  131.0371  151.2790 LP  0  0  0  0  0  0  0  0  0  0  0  0  # atno 17370 bound_to 10713
  157.4220  130.7442  149.6920 LP  0  0  0  0  0  0  0  0  0  0  0  0  # atno 17371 bound_to 10713
  140.7335  133.9039  155.8227 LP  0  0  0  0  0  0  0  0  0  0  0  0  # atno 17394 bound_to 11000
  141.0135  134.0988  157.4197 LP  0  0  0  0  0  0  0  0  0  0  0  0  # atno 17395 bound_to 11000

$$$$
