#       Name:                AV-unprocessed.smi:730
#       Creating user name   scv26
#       Creation time:       Fri Mar 27 00:51:36 2020


#       File generated by GOLD software.
#

@<TRIPOS>MOLECULE
AV-unprocessed.smi:730
    47    48     1
SMALL
NO_CHARGES


@<TRIPOS>ATOM
      1 ****        -4.2593  -3.0648  -0.0467 C.3            1 S1                 0.0000
      2 ****        -4.4939  -1.5456   0.0706 C.3            1 S1                 0.0000
      3 ****        -5.2973  -1.0822  -1.1590 C.3            1 S1                 0.0000
      4 ****        -5.3170  -1.2786   1.3448 C.3            1 S1                 0.0000
      5 ****        -3.1869  -0.8059   0.1370 C.2            1 S1                 0.0000
      6 ****        -1.8771  -1.2017   0.1030 C.2            1 S1                 0.0000
      7 ****        -1.1640   0.0218   0.2054 C.2            1 S1                 0.0000
      8 ****         0.2541   0.0404   0.2046 N.am           1 S1                 0.0000
      9 ****         1.0583   1.1130   0.2972 C.2            1 S1                 0.0000
     10 ****         0.6773   2.2794   0.3998 O.2            1 S1                 0.0000
     11 ****         2.3507   0.7576   0.2621 N.am           1 S1                 0.0000
     12 ****         3.4784   1.6829   0.3491 C.3            1 S1                 0.0000
     13 ****         3.7689   2.3143  -1.0257 C.3            1 S1                 0.0000
     14 ****         4.9430   1.5227  -1.5983 C.3            1 S1                 0.0000
     15 ****         5.7874   1.1928  -0.3721 C.3            1 S1                 0.0000
     16 ****         4.7672   0.9258   0.7437 C.3            1 S1                 0.0000
     17 ****         5.2745   1.3738   1.9838 O.3            1 S1                 0.0000
     18 ****        -1.9614   1.0740   0.2945 N.2            1 S1                 0.0000
     19 ****        -3.2581   0.5505   0.2505 O.3            1 S1                 0.0000
     20 ****        -5.2021  -3.6106  -0.0981 H              1 S1                 0.0000
     21 ****        -3.7061  -3.4496   0.8110 H              1 S1                 0.0000
     22 ****        -3.6907  -3.3119  -0.9440 H              1 S1                 0.0000
     23 ****        -4.7460  -1.2629  -2.0824 H              1 S1                 0.0000
     24 ****        -5.5181  -0.0150  -1.1134 H              1 S1                 0.0000
     25 ****        -6.2491  -1.6088  -1.2355 H              1 S1                 0.0000
     26 ****        -6.2674  -1.8129   1.3250 H              1 S1                 0.0000
     27 ****        -5.5426  -0.2178   1.4605 H              1 S1                 0.0000
     28 ****        -4.7788  -1.5981   2.2379 H              1 S1                 0.0000
     29 ****        -1.4917  -2.2068   0.0169 H              1 S1                 0.0000
     30 ****         0.7040  -0.8593   0.1247 H              1 S1                 0.0000
     31 ****         2.5737  -0.2230   0.1743 H              1 S1                 0.0000
     32 ****         3.2471   2.4674   1.0728 H              1 S1                 0.0000
     33 ****         2.9084   2.3235  -1.6961 H              1 S1                 0.0000
     34 ****         4.0746   3.3518  -0.8841 H              1 S1                 0.0000
     35 ****         4.5800   0.6028  -2.0584 H              1 S1                 0.0000
     36 ****         5.4971   2.0806  -2.3537 H              1 S1                 0.0000
     37 ****         6.4584   0.3494  -0.5375 H              1 S1                 0.0000
     38 ****         6.4036   2.0598  -0.1270 H              1 S1                 0.0000
     39 ****         4.5817  -0.1476   0.8124 H              1 S1                 0.0000
     40 ****         4.6203   1.2207   2.6486 H              1 S1                 0.0000
     41 ****        -0.3010   2.4859   0.4194 LP             1 S1                 0.0000
     42 ****         1.3461   3.0200   0.4636 LP             1 S1                 0.0000
     43 ****         5.4795   2.3511   1.9311 LP             1 S1                 0.0000
     44 ****         6.1084   0.8699   2.2089 LP             1 S1                 0.0000
     45 ****        -1.6951   2.0344   0.3757 LP             1 S1                 0.0000
     46 ****        -3.7453   0.7913   1.0900 LP             1 S1                 0.0000
     47 ****        -3.7451   0.9275  -0.5373 LP             1 S1                 0.0000
@<TRIPOS>BOND
    1    1    2 1     
    2    1   20 1     
    3    1   21 1     
    4    1   22 1     
    5    2    3 1     
    6    2    4 1     
    7    2    5 1     
    8    3   23 1     
    9    3   24 1     
   10    3   25 1     
   11    4   26 1     
   12    4   27 1     
   13    4   28 1     
   14    5   19 1     
   15    5    6 2     
   16    6    7 1     
   17    6   29 1     
   18    7    8 1     
   19    7   18 2     
   20    8    9 am    
   21    8   30 1     
   22    9   10 2     
   23    9   11 am    
   24   11   12 1     
   25   11   31 1     
   26   12   16 1     
   27   12   13 1     
   28   12   32 1     
   29   13   14 1     
   30   13   33 1     
   31   13   34 1     
   32   14   15 1     
   33   14   35 1     
   34   14   36 1     
   35   15   16 1     
   36   15   37 1     
   37   15   38 1     
   38   16   17 1     
   39   16   39 1     
   40   17   40 1     
   41   18   19 1     
   42   10   41 1     
   43   10   42 1     
   44   17   43 1     
   45   17   44 1     
   46   18   45 1     
   47   19   46 1     
   48   19   47 1     
@<TRIPOS>SUBSTRUCTURE
      1 S1             1
@<TRIPOS>SET
LONE_PAIRS      STATIC     ATOMS    <user>   **** ""
7 41 42 43 44 45 46 47
DONOR_HYDROGENS      STATIC     ATOMS    <user>   **** ""
3 30 31 40
ATOM$BLUE        STATIC     ATOMS    COLORGROUP SYSTEM
7 41 42 43 44 45 46 47
ATOM$RED        STATIC     ATOMS    COLORGROUP SYSTEM
3 30 31 40
