#       Name:                AV-unprocessed.smi:609
#       Creating user name   scv26
#       Creation time:       Thu Mar 26 23:57:13 2020


#       File generated by GOLD software.
#

@<TRIPOS>MOLECULE
AV-unprocessed.smi:609
    46    48     1
SMALL
NO_CHARGES


@<TRIPOS>ATOM
      1 ****        -1.7229   5.0892   3.0121 C.3            1 S1                 0.0000
      2 ****        -1.7256   3.9836   1.9700 C.ar           1 S1                 0.0000
      3 ****        -2.1528   4.2939   0.6590 C.ar           1 S1                 0.0000
      4 ****        -2.1425   3.2624  -0.2722 C.ar           1 S1                 0.0000
      5 ****        -2.4957   3.2448  -1.6235 N.pl3          1 S1                 1.0000
      6 ****        -2.3138   1.9912  -2.1241 C.2            1 S1                 0.0000
      7 ****        -1.8511   1.2091  -1.1117 N.pl3          1 S1                 0.0000
      8 ****        -1.4888  -0.2141  -1.1084 C.3            1 S1                 0.0000
      9 ****         0.0308  -0.4451  -1.2194 C.3            1 S1                 0.0000
     10 ****         0.5141   0.1604  -2.4033 O.3            1 S1                 0.0000
     11 ****         0.3843  -1.9404  -1.2333 C.3            1 S1                 0.0000
     12 ****         2.1812  -2.2157  -1.1644 S.3            1 S1                 0.0000
     13 ****         2.2222  -3.9837  -1.1756 C.2            1 S1                 0.0000
     14 ****         1.1559  -4.7756  -1.2634 N.2            1 S1                 0.0000
     15 ****         1.6625  -6.0702  -1.2348 C.2            1 S1                 0.0000
     16 ****         3.0308  -6.0195  -1.1299 C.2            1 S1                 0.0000
     17 ****         3.3751  -4.6748  -1.0934 N.pl3          1 S1                 0.0000
     18 ****         4.7191  -4.1413  -0.9865 C.3            1 S1                 0.0000
     19 ****        -1.7285   1.9587   0.0624 C.ar           1 S1                 0.0000
     20 ****        -1.3054   1.6348   1.3490 C.ar           1 S1                 0.0000
     21 ****        -1.3075   2.6707   2.3105 C.ar           1 S1                 0.0000
     22 ****        -0.8487   2.3487   3.7226 C.3            1 S1                 0.0000
     23 ****        -2.0275   6.0441   2.5822 H              1 S1                 0.0000
     24 ****        -0.7257   5.2175   3.4334 H              1 S1                 0.0000
     25 ****        -2.4137   4.8524   3.8216 H              1 S1                 0.0000
     26 ****        -2.4720   5.2909   0.3924 H              1 S1                 0.0000
     27 ****        -2.4984   1.6751  -3.1407 H              1 S1                 0.0000
     28 ****        -1.8899  -0.6696  -0.2021 H              1 S1                 0.0000
     29 ****        -2.0051  -0.6849  -1.9461 H              1 S1                 0.0000
     30 ****         0.5287   0.0287  -0.3727 H              1 S1                 0.0000
     31 ****         1.4463   0.0111  -2.4556 H              1 S1                 0.0000
     32 ****        -0.0682  -2.4307  -0.3705 H              1 S1                 0.0000
     33 ****        -0.0236  -2.4170  -2.1257 H              1 S1                 0.0000
     34 ****         1.0097  -6.9289  -1.2913 H              1 S1                 0.0000
     35 ****         3.7678  -6.8076  -1.0792 H              1 S1                 0.0000
     36 ****         5.4453  -4.9537  -0.9451 H              1 S1                 0.0000
     37 ****         4.8072  -3.5425  -0.0795 H              1 S1                 0.0000
     38 ****         4.9379  -3.5161  -1.8527 H              1 S1                 0.0000
     39 ****        -0.9860   0.6356   1.6060 H              1 S1                 0.0000
     40 ****        -0.6142   1.2896   3.8340 H              1 S1                 0.0000
     41 ****        -1.6272   2.5936   4.4455 H              1 S1                 0.0000
     42 ****         0.0476   2.9170   3.9714 H              1 S1                 0.0000
     43 ****        -2.8332   4.0288  -2.1672 H              1 S1                 0.0000
     44 ****         0.3303   1.1430  -2.3794 LP             1 S1                 0.0000
     45 ****         0.0621  -0.2441  -3.1983 LP             1 S1                 0.0000
     46 ****         0.1975  -4.4992  -1.3346 LP             1 S1                 0.0000
@<TRIPOS>BOND
    1    1    2 1     
    2    1   23 1     
    3    1   24 1     
    4    1   25 1     
    5    2   21 ar    
    6    2    3 ar    
    7    3    4 ar    
    8    3   26 1     
    9    4   19 ar    
   10    4    5 1     
   11    5    6 2     
   12    5   43 1     
   13    6    7 1     
   14    6   27 1     
   15    7    8 1     
   16    7   19 1     
   17    8    9 1     
   18    8   28 1     
   19    8   29 1     
   20    9   10 1     
   21    9   11 1     
   22    9   30 1     
   23   10   31 1     
   24   11   12 1     
   25   11   32 1     
   26   11   33 1     
   27   12   13 1     
   28   13   17 1     
   29   13   14 2     
   30   14   15 1     
   31   15   16 2     
   32   15   34 1     
   33   16   17 1     
   34   16   35 1     
   35   17   18 1     
   36   18   36 1     
   37   18   37 1     
   38   18   38 1     
   39   19   20 ar    
   40   20   21 ar    
   41   20   39 1     
   42   21   22 1     
   43   22   40 1     
   44   22   41 1     
   45   22   42 1     
   46   10   44 1     
   47   10   45 1     
   48   14   46 1     
@<TRIPOS>SUBSTRUCTURE
      1 S1             1
@<TRIPOS>SET
LONE_PAIRS      STATIC     ATOMS    <user>   **** ""
3 44 45 46
DONOR_HYDROGENS      STATIC     ATOMS    <user>   **** ""
2 43 31
ATOM$BLUE        STATIC     ATOMS    COLORGROUP SYSTEM
3 44 45 46
ATOM$RED        STATIC     ATOMS    COLORGROUP SYSTEM
2 43 31
