AV-unprocessed.smi:1558|AV-procd|sdf|6272|dock3
  -GOLD-   22720 6463D 1   1.00000     0.00000
 Structure written by MMmdl.
 36 37  0  0  0  0  0  0  0  0  1 V2000
  142.3326  132.4026  147.7446 N   0  0  0  0  0  0  0  0  0  0  0  0
  143.4722  132.9927  148.1148 C   0  0  0  0  0  0  0  0  0  0  0  0
  143.9897  133.8933  147.4576 O   0  0  0  0  0  0  0  0  0  0  0  0
  144.1256  132.5019  149.4080 C   0  0  0  0  0  0  0  0  0  0  0  0
  144.6675  133.6098  150.1747 N   0  0  0  0  0  0  0  0  0  0  0  0
  144.0255  134.7662  150.5736 C   0  0  0  0  0  0  0  0  0  0  0  0
  144.9565  135.4869  151.2663 C   0  0  0  0  0  0  0  0  0  0  0  0
  144.8295  136.7516  151.8941 N   0  0  0  0  0  0  0  0  0  0  0  0
  145.2994  137.1139  153.0989 C   0  0  0  0  0  0  0  0  0  0  0  0
  145.9373  136.3839  153.8577 O   0  0  0  0  0  0  0  0  0  0  0  0
  144.9901  138.3878  153.3785 N   0  0  0  0  0  0  0  0  0  0  0  0
  145.3578  139.0994  154.5985 C   0  0  0  0  0  0  0  0  0  0  0  0
  146.0542  140.4362  154.2924 C   0  0  2  0  0  0  0  0  0  0  0  0
  147.3594  140.3252  153.5044 C   0  0  0  0  0  0  0  0  0  0  0  0
  148.0418  141.6233  153.8693 C   0  0  0  0  0  0  0  0  0  0  0  0
  147.6569  141.7814  155.3382 C   0  0  0  0  0  0  0  0  0  0  0  0
  146.4212  141.0888  155.5039 O   0  0  0  0  0  0  0  0  0  0  0  0
  146.1424  134.7082  151.2462 C   0  0  0  0  0  0  0  0  0  0  0  0
  145.9603  133.5755  150.5846 N   0  0  0  0  0  0  0  0  0  0  0  0
  141.8697  132.6971  146.8969 H   0  0  0  0  0  0  0  0  0  0  0  0
  141.9374  131.6656  148.3102 H   0  0  0  0  0  0  0  0  0  0  0  0
  143.3922  131.9646  150.0116 H   0  0  0  0  0  0  0  0  0  0  0  0
  144.9314  131.8009  149.1856 H   0  0  0  0  0  0  0  0  0  0  0  0
  142.9908  134.9586  150.3321 H   0  0  0  0  0  0  0  0  0  0  0  0
  144.3276  137.4540  151.3708 H   0  0  0  0  0  0  0  0  0  0  0  0
  144.4624  138.9087  152.6934 H   0  0  0  0  0  0  0  0  0  0  0  0
  144.4417  139.2895  155.1581 H   0  0  0  0  0  0  0  0  0  0  0  0
  145.9839  138.4796  155.2427 H   0  0  0  0  0  0  0  0  0  0  0  0
  145.3695  141.0993  153.7606 H   0  0  0  0  0  0  0  0  0  0  0  0
  147.9521  139.4799  153.8570 H   0  0  0  0  0  0  0  0  0  0  0  0
  147.2025  140.2110  152.4314 H   0  0  0  0  0  0  0  0  0  0  0  0
  149.1203  141.6024  153.7098 H   0  0  0  0  0  0  0  0  0  0  0  0
  147.6242  142.4415  153.2811 H   0  0  0  0  0  0  0  0  0  0  0  0
  148.4029  141.3146  155.9821 H   0  0  0  0  0  0  0  0  0  0  0  0
  147.5664  142.8281  155.6292 H   0  0  0  0  0  0  0  0  0  0  0  0
  147.1082  134.9215  151.6795 H   0  0  0  0  0  0  0  0  0  0  0  0
  1  2  1  0  0  0  0
  1 20  1  0  0  0  0
  1 21  1  0  0  0  0
  2  3  2  0  0  0  0
  2  4  1  0  0  0  0
  4  5  1  0  0  0  0
  4 22  1  0  0  0  0
  4 23  1  0  0  0  0
  5 19  1  0  0  0  0
  5  6  1  0  0  0  0
  6  7  2  0  0  0  0
  6 24  1  0  0  0  0
  7  8  1  0  0  0  0
  7 18  1  0  0  0  0
  8  9  1  0  0  0  0
  8 25  1  0  0  0  0
  9 10  2  0  0  0  0
  9 11  1  0  0  0  0
 11 12  1  0  0  0  0
 11 26  1  0  0  0  0
 12 13  1  0  0  0  0
 12 27  1  0  0  0  0
 12 28  1  0  0  0  0
 13 17  1  0  0  0  0
 13 14  1  0  0  0  0
 13 29  1  0  0  0  0
 14 15  1  0  0  0  0
 14 30  1  0  0  0  0
 14 31  1  0  0  0  0
 15 16  1  0  0  0  0
 15 32  1  0  0  0  0
 15 33  1  0  0  0  0
 16 17  1  0  0  0  0
 16 34  1  0  0  0  0
 16 35  1  0  0  0  0
 18 19  2  0  0  0  0
 18 36  1  0  0  0  0
M  END
> <s_m_source_file>
AV-unprocessed.smi

> <i_m_source_file_index>
1558

> <i_lp_mmshare_version>
43012

> <i_f3d_flags>
0

> <s_epik_input>
W05IMl1DKD1PKVtDSDJdbjFbY0hdYyhbY0hdbjEpW05IXUMoPU8pW05IXVtDSDJdW0NAQEhdMltDSDJdW0NIMl1bQ0gyXU8y

> <s_epik_cmdline>
J2VwaWtfcHl0aG9uJywgJy1waCcsICc3LjAnLCAnLXRuJywgJzgnLCAnLW1hJywgJzIwMCcsICctbWV0YWxfYmluZGluZycsICctaW1hZScsICc8aW5maWxlLm1hZT4nLCAnLW9tYWUnLCAnPG91dGZpbGUubWFlPic=

> <r_lp_tautomer_probability>
1

> <r_epik_Ionization_Penalty>
4.01684e-05

> <r_epik_Ionization_Penalty_Charging>
0

> <r_epik_Ionization_Penalty_Neutral>
4.01684e-05

> <r_epik_State_Penalty>
-0

> <r_epik_Charging_Adjusted_Penalty>
0

> <i_epik_Tot_Q>
0

> <i_epik_Tot_abs_Q>
0

> <r_epik_Metal_State_Penalty>
-0

> <b_epik_Metal_Only>
0

> <s_lp_Force_Field>
OPLS_2005

> <r_lp_Energy>
20.4808

> <b_lp_Chiralities_Consistent>
1

> <s_lp_Variant>
AV-unprocessed.smi:1558-1

> <Gold.Version>
5.8.1

> <Gold.Id.Protein>
6NUR|6NUR_protein|mol2

> <Gold.PLP.Fitness>
46.1632

> <Gold.PLP.PLP>
-26.3307

> <Gold.PLP.part.hbond>
-6.1364

> <Gold.PLP.part.metal>
0.0000

> <Gold.PLP.part.buried>
0.6818

> <Gold.PLP.part.nonpolar>
-25.3635

> <Gold.PLP.part.repulsive>
6.4814

> <Gold.PLP.ligand.clash>
0.0000

> <Gold.PLP.ligand.torsion>
0.7108

> <Gold.PLP.Chemscore.Hbond>
5.1235

> <Gold.PLP.Chemscore.CHOScore>
1.9484

> <Gold.PLP.Chemscore.Metal>
0.0000

> <Gold.Chemscore.Hbonds>
donor molecule, donor type, donor heavy atom, donor atom, acceptor molecule, acceptor atom, score
      L1  H     1    20       P1 10195  0.76
      L1  H     1    21       P1 10952  0.80
      L1  H     8    25       P1 10171  1.00
      L1  H    11    26       P1 10175  0.83
      P1  H  7918  7932       L1     3  0.94
      P1  H 10192 10197       L1     3  0.15
      L1  C     6    24       P1 10186  0.96
      L1  C    18    36       P1  7948  1.00

> <Gold.PLP.Chemscore.Internal.Correction>
0.0384

> <Gold.Rescore>
     Score         DG    S(hbond)    S(metal)    S(lipo)     H(rot)  DE(clash)    DE(int)     intcor
     17.30     -20.29       4.35        0.00      53.36       2.33       2.35       0.64       ----

> <Gold.Chemscore.Fitness>
17.2991

> <Gold.Chemscore.DG>
-20.2912

> <Gold.Chemscore.ZeroCoef>
-5.4800

> <Gold.Chemscore.Hbond>
4.3515

> <Gold.Chemscore.Metal>
0.0000

> <Gold.Chemscore.Lipo>
53.3571

> <Gold.Chemscore.Internal_Hbond>
0.0000

> <Gold.Chemscore.DEClash>
2.3530

> <Gold.Chemscore.DEInternal>
0.6391

> <Gold.Chemscore.Rot>
2.3303

> <Gold.Chemscore.Internal.Correction>
   9.000000E+99

> <Gold.Chemscore.Hbonds>
donor molecule, donor type, donor heavy atom, donor atom, acceptor molecule, acceptor atom, score
      L1  H     1    20       P1 10195  0.73
      L1  H     1    21       P1 10952  0.79
      L1  H     8    25       P1 10171  0.97
      L1  H    11    26       P1 10175  0.83
      P1  H  7918  7932       L1     3  0.80
      P1  H 10192 10197       L1     3  0.03

> <Gold.Chemscore.Hbond.Weighted>
-14.5340

> <Gold.Chemscore.Metal.Weighted>
-0.0000

> <Gold.Chemscore.Lipo.Weighted>
-6.2428

> <Gold.Chemscore.Internal_Hbond.Weighted>
0.0000

> <Gold.Chemscore.DEClash.Weighted>
2.3530

> <Gold.Chemscore.DEInternal.Weighted>
0.6391

> <Gold.Chemscore.Rot.Weighted>
5.9656

> <Gold.Chemscore.Internal.Correction.Weighted>
   9.000000E+99

> <Gold.Protein.RotatedTorsions>
[ 6907 6896 6895 6894 ] final  -17.73 input  -60.11 | X-H torsion
[ 7974 7965 7964 7962 ] final -135.56 input  175.53 | X-H torsion
[ 8008 7997 7996 7995 ] final -136.49 input   59.86 | X-H torsion
[ 10167 10162 10161 10158 ] final  -56.26 input  -65.29 | X-H torsion
[ 10718 10713 10712 10709 ] final    3.43 input   66.30 | X-H torsion
[ 10763 10752 10751 10750 ] final  -51.07 input  -60.55 | X-H torsion
[ 11005 11000 10999 10996 ] final  -10.52 input  -57.11 | X-H torsion

> <Gold.Protein.ActiveResidues>
 VAL166  LYS551  ARG553  GLY616  TRP617  ASP618  TYR619  PRO620  LYS621  CYS622 
 ASP623  PHE694  ASN695  SER759  ASP760  ASP761  ALA762  ILE779  LEU786  VAL792 
 PHE793  MET794  SER795  GLU796  ALA797  LYS798  CYS799  TRP800  GLU811  SER814 

> <Gold.Protein.RotatedAtoms>
  151.2889  135.0736  159.9196 H   0  0  0  0  0  0  0  0  0  0  0  0  # atno 6907 bound_to 6896
  152.5320  133.9952  159.7880 H   0  0  0  0  0  0  0  0  0  0  0  0  # atno 6908 bound_to 6896
  151.0219  133.5818  159.2701 H   0  0  0  0  0  0  0  0  0  0  0  0  # atno 6909 bound_to 6896
  144.9003  140.6762  143.5089 H   0  0  0  0  0  0  0  0  0  0  0  0  # atno 7974 bound_to 7965
  155.3961  140.0503  157.3039 H   0  0  0  0  0  0  0  0  0  0  0  0  # atno 8008 bound_to 7997
  154.5013  140.2157  155.9303 H   0  0  0  0  0  0  0  0  0  0  0  0  # atno 8009 bound_to 7997
  156.1470  140.3143  155.8592 H   0  0  0  0  0  0  0  0  0  0  0  0  # atno 8010 bound_to 7997
  140.6327  143.2467  151.5198 H   0  0  0  0  0  0  0  0  0  0  0  0  # atno 10167 bound_to 10162
  156.8777  130.5642  149.5654 H   0  0  0  0  0  0  0  0  0  0  0  0  # atno 10718 bound_to 10713
  154.1207  135.6535  153.4902 H   0  0  0  0  0  0  0  0  0  0  0  0  # atno 10763 bound_to 10752
  153.0226  135.5269  154.7100 H   0  0  0  0  0  0  0  0  0  0  0  0  # atno 10764 bound_to 10752
  154.6306  135.2976  155.0190 H   0  0  0  0  0  0  0  0  0  0  0  0  # atno 10765 bound_to 10752
  140.7456  133.8634  155.9003 H   0  0  0  0  0  0  0  0  0  0  0  0  # atno 11005 bound_to 11000
  145.3628  139.1677  143.4374 LP  0  0  0  0  0  0  0  0  0  0  0  0  # atno 17320 bound_to 7965
  146.3105  140.3691  142.8672 LP  0  0  0  0  0  0  0  0  0  0  0  0  # atno 17321 bound_to 7965
  139.5540  144.2323  152.1580 LP  0  0  0  0  0  0  0  0  0  0  0  0  # atno 17342 bound_to 10162
  140.1571  144.5060  150.6654 LP  0  0  0  0  0  0  0  0  0  0  0  0  # atno 17343 bound_to 10162
  156.0693  130.5730  150.9352 LP  0  0  0  0  0  0  0  0  0  0  0  0  # atno 17370 bound_to 10713
  157.6159  131.0933  150.8712 LP  0  0  0  0  0  0  0  0  0  0  0  0  # atno 17371 bound_to 10713
  140.9797  134.1421  157.4505 LP  0  0  0  0  0  0  0  0  0  0  0  0  # atno 17394 bound_to 11000
  139.8797  135.0006  156.6022 LP  0  0  0  0  0  0  0  0  0  0  0  0  # atno 17395 bound_to 11000

$$$$
