#       Name:                AV-unprocessed.smi:2414
#       Creating user name   scv26
#       Creation time:       Fri Mar 27 13:17:24 2020


#       File generated by GOLD software.
#

@<TRIPOS>MOLECULE
AV-unprocessed.smi:2414
    48    49     1
SMALL
NO_CHARGES


@<TRIPOS>ATOM
      1 ****        -4.5068   0.0211  -3.2934 C.3            1 S1                 0.0000
      2 ****        -3.6998   1.0445  -2.5688 C.2            1 S1                 0.0000
      3 ****        -2.9234   2.0357  -3.1158 C.2            1 S1                 0.0000
      4 ****        -2.2845   2.8390  -2.1690 N.2            1 S1                 0.0000
      5 ****        -2.5670   2.4755  -0.9148 C.2            1 S1                 0.0000
      6 ****        -2.0049   3.1575   0.2958 C.3            1 S1                 0.0000
      7 ****        -2.4687   4.6176   0.4011 C.3            1 S1                 0.0000
      8 ****        -0.4766   3.0023   0.4193 C.3            1 S1                 0.0000
      9 ****        -0.0671   1.6045   0.3422 N.am           1 S1                 0.0000
     10 ****         1.2038   1.1859   0.3757 C.2            1 S1                 0.0000
     11 ****         2.1724   1.9374   0.4880 O.2            1 S1                 0.0000
     12 ****         1.2881  -0.1470   0.2737 N.am           1 S1                 0.0000
     13 ****         2.5241  -0.9237   0.2985 C.3            1 S1                 0.0000
     14 ****         2.3981  -2.1694   1.2016 C.3            1 S1                 0.0000
     15 ****         2.0065  -1.8121   2.6488 C.3            1 S1                 0.0000
     16 ****         3.6791  -3.0228   1.1697 C.3            1 S1                 0.0000
     17 ****         3.1538  -4.4407   1.1195 C.3            1 S1                 0.0000
     18 ****         1.9108  -4.2628   0.2615 C.3            1 S1                 0.0000
     19 ****         1.3701  -3.0164   0.6802 O.3            1 S1                 0.0000
     20 ****        -3.6554   1.0951  -0.8257 S.3            1 S1                 0.0000
     21 ****        -3.9291  -0.4253  -4.1030 H              1 S1                 0.0000
     22 ****        -5.4016   0.4701  -3.7245 H              1 S1                 0.0000
     23 ****        -4.8203  -0.7803  -2.6242 H              1 S1                 0.0000
     24 ****        -2.7678   2.2399  -4.1649 H              1 S1                 0.0000
     25 ****        -2.4343   2.6433   1.1570 H              1 S1                 0.0000
     26 ****        -3.5571   4.6836   0.4133 H              1 S1                 0.0000
     27 ****        -2.1081   5.2101  -0.4403 H              1 S1                 0.0000
     28 ****        -2.0993   5.0817   1.3158 H              1 S1                 0.0000
     29 ****         0.0149   3.5570  -0.3818 H              1 S1                 0.0000
     30 ****        -0.1303   3.4300   1.3614 H              1 S1                 0.0000
     31 ****        -0.7984   0.9150   0.2473 H              1 S1                 0.0000
     32 ****         0.4303  -0.6721   0.1847 H              1 S1                 0.0000
     33 ****         2.7538  -1.2217  -0.7251 H              1 S1                 0.0000
     34 ****         3.3635  -0.3155   0.6400 H              1 S1                 0.0000
     35 ****         2.7467  -1.1540   3.1046 H              1 S1                 0.0000
     36 ****         1.9313  -2.7053   3.2694 H              1 S1                 0.0000
     37 ****         1.0414  -1.3072   2.6947 H              1 S1                 0.0000
     38 ****         4.2531  -2.8250   0.2633 H              1 S1                 0.0000
     39 ****         4.3396  -2.8456   2.0193 H              1 S1                 0.0000
     40 ****         3.8670  -5.1490   0.6974 H              1 S1                 0.0000
     41 ****         2.8798  -4.7807   2.1190 H              1 S1                 0.0000
     42 ****         2.1789  -4.1972  -0.7940 H              1 S1                 0.0000
     43 ****         1.1927  -5.0739   0.3836 H              1 S1                 0.0000
     44 ****        -1.6821   3.6020  -2.4038 LP             1 S1                 0.0000
     45 ****         2.0332   2.9250   0.5606 LP             1 S1                 0.0000
     46 ****         3.0984   1.5603   0.5065 LP             1 S1                 0.0000
     47 ****         0.9390  -2.5662  -0.1018 LP             1 S1                 0.0000
     48 ****         0.6855  -3.1776   1.3911 LP             1 S1                 0.0000
@<TRIPOS>BOND
    1    1    2 1     
    2    1   21 1     
    3    1   22 1     
    4    1   23 1     
    5    2   20 1     
    6    2    3 2     
    7    3    4 1     
    8    3   24 1     
    9    4    5 2     
   10    5    6 1     
   11    5   20 1     
   12    6    7 1     
   13    6    8 1     
   14    6   25 1     
   15    7   26 1     
   16    7   27 1     
   17    7   28 1     
   18    8    9 1     
   19    8   29 1     
   20    8   30 1     
   21    9   10 am    
   22    9   31 1     
   23   10   11 2     
   24   10   12 am    
   25   12   13 1     
   26   12   32 1     
   27   13   14 1     
   28   13   33 1     
   29   13   34 1     
   30   14   19 1     
   31   14   15 1     
   32   14   16 1     
   33   15   35 1     
   34   15   36 1     
   35   15   37 1     
   36   16   17 1     
   37   16   38 1     
   38   16   39 1     
   39   17   18 1     
   40   17   40 1     
   41   17   41 1     
   42   18   19 1     
   43   18   42 1     
   44   18   43 1     
   45    4   44 1     
   46   11   45 1     
   47   11   46 1     
   48   19   47 1     
   49   19   48 1     
@<TRIPOS>SUBSTRUCTURE
      1 S1             1
@<TRIPOS>SET
LONE_PAIRS      STATIC     ATOMS    <user>   **** ""
5 44 45 46 47 48
DONOR_HYDROGENS      STATIC     ATOMS    <user>   **** ""
2 31 32
ATOM$BLUE        STATIC     ATOMS    COLORGROUP SYSTEM
5 44 45 46 47 48
ATOM$RED        STATIC     ATOMS    COLORGROUP SYSTEM
2 31 32
