#       Name:                AV-unprocessed.smi:1216
#       Creating user name   scv26
#       Creation time:       Fri Mar 27 04:15:08 2020


#       File generated by GOLD software.
#

@<TRIPOS>MOLECULE
AV-unprocessed.smi:1216
    47    48     1
SMALL
NO_CHARGES


@<TRIPOS>ATOM
      1 ****        -2.9135  -2.3364   3.0064 C.3            1 S1                 0.0000
      2 ****        -2.6023  -1.3417   1.8803 C.3            1 S1                 0.0000
      3 ****        -3.4042  -1.6715   0.6028 C.3            1 S1                 0.0000
      4 ****        -3.2377  -0.6650  -0.4519 N.pl3          1 S1                 0.0000
      5 ****        -3.7836   0.5921  -0.4953 C.2            1 S1                 0.0000
      6 ****        -3.3343   1.1738  -1.6528 C.2            1 S1                 0.0000
      7 ****        -2.5389   0.2458  -2.2696 N.pl3          1 S1                 1.0000
      8 ****        -2.4868  -0.8738  -1.5412 C.2            1 S1                 0.0000
      9 ****        -1.1647  -1.3615   1.6124 N.am           1 S1                 0.0000
     10 ****        -0.4074  -0.2906   1.3267 C.2            1 S1                 0.0000
     11 ****        -0.8466   0.8599   1.2968 O.2            1 S1                 0.0000
     12 ****         1.0695  -0.5717   1.0223 C.3            1 S1                 0.0000
     13 ****         1.6656   0.4251   0.1195 N.am           1 S1                 0.0000
     14 ****         2.4725   1.4854   0.7443 C.3            1 S1                 0.0000
     15 ****         3.9849   1.3772   0.4421 C.3            1 S1                 0.0000
     16 ****         4.3643   0.7571  -0.9173 C.3            1 S1                 0.0000
     17 ****         3.6670   1.3883  -2.1404 C.3            1 S1                 0.0000
     18 ****         2.1214   1.4526  -2.0990 C.3            1 S1                 0.0000
     19 ****         1.4622   0.3759  -1.2215 C.2            1 S1                 0.0000
     20 ****         0.7713  -0.4877  -1.7639 O.2            1 S1                 0.0000
     21 ****        -3.9760  -2.3320   3.2514 H              1 S1                 0.0000
     22 ****        -2.3670  -2.0836   3.9157 H              1 S1                 0.0000
     23 ****        -2.6412  -3.3545   2.7256 H              1 S1                 0.0000
     24 ****        -2.8991  -0.3527   2.2345 H              1 S1                 0.0000
     25 ****        -3.1168  -2.6458   0.2040 H              1 S1                 0.0000
     26 ****        -4.4700  -1.7252   0.8286 H              1 S1                 0.0000
     27 ****        -4.4261   0.9728   0.2852 H              1 S1                 0.0000
     28 ****        -3.5147   2.1532  -2.0714 H              1 S1                 0.0000
     29 ****        -1.9311  -1.7634  -1.7789 H              1 S1                 0.0000
     30 ****        -0.7140  -2.2652   1.6254 H              1 S1                 0.0000
     31 ****         1.6150  -0.6091   1.9659 H              1 S1                 0.0000
     32 ****         1.1725  -1.5688   0.5898 H              1 S1                 0.0000
     33 ****         2.0995   2.4573   0.4214 H              1 S1                 0.0000
     34 ****         2.3256   1.4970   1.8249 H              1 S1                 0.0000
     35 ****         4.4328   2.3675   0.5300 H              1 S1                 0.0000
     36 ****         4.4514   0.7745   1.2222 H              1 S1                 0.0000
     37 ****         5.4441   0.8347  -1.0488 H              1 S1                 0.0000
     38 ****         4.1602  -0.3143  -0.8957 H              1 S1                 0.0000
     39 ****         4.0515   2.3987  -2.2831 H              1 S1                 0.0000
     40 ****         3.9706   0.8330  -3.0286 H              1 S1                 0.0000
     41 ****         1.7962   2.4349  -1.7567 H              1 S1                 0.0000
     42 ****         1.7337   1.3720  -3.1152 H              1 S1                 0.0000
     43 ****        -2.0544   0.3849  -3.1474 H              1 S1                 0.0000
     44 ****        -1.8124   1.0317   1.4914 LP             1 S1                 0.0000
     45 ****        -0.2374   1.6221   1.0779 LP             1 S1                 0.0000
     46 ****         0.3302  -1.1950  -1.2114 LP             1 S1                 0.0000
     47 ****         0.6514  -0.4815  -2.7567 LP             1 S1                 0.0000
@<TRIPOS>BOND
    1    1    2 1     
    2    1   21 1     
    3    1   22 1     
    4    1   23 1     
    5    2    3 1     
    6    2    9 1     
    7    2   24 1     
    8    3    4 1     
    9    3   25 1     
   10    3   26 1     
   11    4    8 1     
   12    4    5 1     
   13    5    6 2     
   14    5   27 1     
   15    6    7 1     
   16    6   28 1     
   17    7    8 2     
   18    7   43 1     
   19    8   29 1     
   20    9   10 am    
   21    9   30 1     
   22   10   11 2     
   23   10   12 1     
   24   12   13 1     
   25   12   31 1     
   26   12   32 1     
   27   13   19 am    
   28   13   14 1     
   29   14   15 1     
   30   14   33 1     
   31   14   34 1     
   32   15   16 1     
   33   15   35 1     
   34   15   36 1     
   35   16   17 1     
   36   16   37 1     
   37   16   38 1     
   38   17   18 1     
   39   17   39 1     
   40   17   40 1     
   41   18   19 1     
   42   18   41 1     
   43   18   42 1     
   44   19   20 2     
   45   11   44 1     
   46   11   45 1     
   47   20   46 1     
   48   20   47 1     
@<TRIPOS>SUBSTRUCTURE
      1 S1             1
@<TRIPOS>SET
LONE_PAIRS      STATIC     ATOMS    <user>   **** ""
4 44 45 46 47
DONOR_HYDROGENS      STATIC     ATOMS    <user>   **** ""
2 43 30
ATOM$BLUE        STATIC     ATOMS    COLORGROUP SYSTEM
4 44 45 46 47
ATOM$RED        STATIC     ATOMS    COLORGROUP SYSTEM
2 43 30
