#       Name:                AV-unprocessed.smi:845
#       Creating user name   scv26
#       Creation time:       Fri Mar 27 01:39:26 2020


#       File generated by GOLD software.
#

@<TRIPOS>MOLECULE
AV-unprocessed.smi:845
    48    49     1
SMALL
NO_CHARGES


@<TRIPOS>ATOM
      1 ****        -3.5286  -0.6753  -0.7974 C.3            1 S1                 0.0000
      2 ****        -2.8750   0.1742   0.3112 C.3            1 S1                 0.0000
      3 ****        -3.4801   1.5907   0.2730 C.3            1 S1                 0.0000
      4 ****        -1.3221   0.1723   0.2052 C.3            1 S1                 0.0000
      5 ****        -0.6490   1.0733   1.2835 C.3            1 S1                 0.0000
      6 ****         0.8088   1.0839   1.2234 N.am           1 S1                 0.0000
      7 ****         1.5504   1.7250   0.3096 C.2            1 S1                 0.0000
      8 ****         1.0022   2.4008  -0.5639 O.2            1 S1                 0.0000
      9 ****         2.8785   1.5222   0.4545 N.pl3          1 S1                -1.0000
     10 ****         3.7398   2.0646  -0.4212 C.2            1 S1                 0.0000
     11 ****         4.4282   3.1838  -0.1704 N.2            1 S1                 0.0000
     12 ****         5.2715   3.5622  -1.2165 C.2            1 S1                 0.0000
     13 ****         5.2291   2.7068  -2.2856 C.2            1 S1                 0.0000
     14 ****         4.1220   1.3924  -2.0087 S.3            1 S1                 0.0000
     15 ****        -0.8203  -1.2384   0.1874 N.4            1 S1                 1.0000
     16 ****         0.3429  -1.4970  -0.6968 C.3            1 S1                 0.0000
     17 ****         0.5793  -3.0111  -0.8174 C.3            1 S1                 0.0000
     18 ****         0.7630  -3.5733   0.4774 O.3            1 S1                 0.0000
     19 ****        -0.3786  -3.3958   1.3085 C.3            1 S1                 0.0000
     20 ****        -0.6473  -1.8952   1.5067 C.3            1 S1                 0.0000
     21 ****        -3.2574  -0.3086  -1.7881 H              1 S1                 0.0000
     22 ****        -4.6161  -0.6495  -0.7222 H              1 S1                 0.0000
     23 ****        -3.2354  -1.7235  -0.7378 H              1 S1                 0.0000
     24 ****        -3.1571  -0.2661   1.2682 H              1 S1                 0.0000
     25 ****        -3.1549   2.1379  -0.6126 H              1 S1                 0.0000
     26 ****        -3.2073   2.1752   1.1510 H              1 S1                 0.0000
     27 ****        -4.5697   1.5520   0.2557 H              1 S1                 0.0000
     28 ****        -1.0901   0.6061  -0.7687 H              1 S1                 0.0000
     29 ****        -0.9871   2.1054   1.1927 H              1 S1                 0.0000
     30 ****        -0.9430   0.7531   2.2831 H              1 S1                 0.0000
     31 ****         1.3002   0.5501   1.9255 H              1 S1                 0.0000
     32 ****         5.8684   4.4561  -1.1142 H              1 S1                 0.0000
     33 ****         5.7782   2.7684  -3.2129 H              1 S1                 0.0000
     34 ****         0.1664  -1.0737  -1.6863 H              1 S1                 0.0000
     35 ****         1.2420  -1.0288  -0.3005 H              1 S1                 0.0000
     36 ****        -0.2578  -3.4967  -1.3215 H              1 S1                 0.0000
     37 ****         1.4688  -3.2057  -1.4170 H              1 S1                 0.0000
     38 ****        -1.2449  -3.8913   0.8670 H              1 S1                 0.0000
     39 ****        -0.1937  -3.8742   2.2704 H              1 S1                 0.0000
     40 ****         0.1873  -1.4483   2.0476 H              1 S1                 0.0000
     41 ****        -1.5397  -1.7585   2.1174 H              1 S1                 0.0000
     42 ****        -1.5710  -1.7461  -0.2578 H              1 S1                 0.0000
     43 ****         0.0049   2.4702  -0.5901 LP             1 S1                 0.0000
     44 ****         1.5548   2.8795  -1.2462 LP             1 S1                 0.0000
     45 ****         3.2198   0.9682   1.2138 LP             1 S1                 0.0000
     46 ****         4.3467   3.6989   0.6828 LP             1 S1                 0.0000
     47 ****         1.5487  -3.1323   0.9112 LP             1 S1                 0.0000
     48 ****         0.9417  -4.5524   0.3807 LP             1 S1                 0.0000
@<TRIPOS>BOND
    1    1    2 1     
    2    1   21 1     
    3    1   22 1     
    4    1   23 1     
    5    2    3 1     
    6    2    4 1     
    7    2   24 1     
    8    3   25 1     
    9    3   26 1     
   10    3   27 1     
   11    4    5 1     
   12    4   15 1     
   13    4   28 1     
   14    5    6 1     
   15    5   29 1     
   16    5   30 1     
   17    6    7 am    
   18    6   31 1     
   19    7    8 2     
   20    7    9 1     
   21    9   10 1     
   22   10   14 1     
   23   10   11 2     
   24   11   12 1     
   25   12   13 2     
   26   12   32 1     
   27   13   14 1     
   28   13   33 1     
   29   15   20 1     
   30   15   16 1     
   31   15   42 1     
   32   16   17 1     
   33   16   34 1     
   34   16   35 1     
   35   17   18 1     
   36   17   36 1     
   37   17   37 1     
   38   18   19 1     
   39   19   20 1     
   40   19   38 1     
   41   19   39 1     
   42   20   40 1     
   43   20   41 1     
   44    8   43 1     
   45    8   44 1     
   46    9   45 1     
   47   11   46 1     
   48   18   47 1     
   49   18   48 1     
@<TRIPOS>SUBSTRUCTURE
      1 S1             1
@<TRIPOS>SET
LONE_PAIRS      STATIC     ATOMS    <user>   **** ""
6 43 44 45 46 47 48
DONOR_HYDROGENS      STATIC     ATOMS    <user>   **** ""
2 31 42
ATOM$BLUE        STATIC     ATOMS    COLORGROUP SYSTEM
6 43 44 45 46 47 48
ATOM$RED        STATIC     ATOMS    COLORGROUP SYSTEM
2 31 42
