AV-unprocessed.smi:856|AV-procd|sdf|3960|dock9
  -GOLD-   22720 1433D 1   1.00000     0.00000
 Structure written by MMmdl.
 42 44  0  0  0  0  0  0  0  0  1 V2000
  155.0704  140.7983  160.8448 C   0  0  0  0  0  0  0  0  0  0  0  0
  153.9373  141.5334  160.2518 N   0  0  0  0  0  0  0  0  0  0  0  0
  153.4107  141.0712  159.0741 C   0  0  0  0  0  0  0  0  0  0  0  0
  153.8236  140.0894  158.4557 O   0  0  0  0  0  0  0  0  0  0  0  0
  152.2778  141.8614  158.5806 C   0  0  0  0  0  0  0  0  0  0  0  0
  151.8126  142.9613  159.2205 C   0  0  0  0  0  0  0  0  0  0  0  0
  150.7419  143.5294  158.5395 N   0  0  0  0  0  0  0  0  0  0  0  0
  150.6143  142.7133  157.4924 C   0  0  0  0  0  0  0  0  0  0  0  0
  151.4911  141.6899  157.4417 N   0  0  0  0  0  0  0  0  0  0  0  0
  151.5576  140.6665  156.4096 C   0  0  0  0  0  0  0  0  0  0  0  0
  150.5628  140.9180  155.2572 C   0  0  1  0  0  0  0  0  0  0  0  0
  151.0415  140.4263  154.0211 O   0  0  0  0  0  0  0  0  0  0  0  0
  149.1674  140.3282  155.5143 C   0  0  0  0  0  0  0  0  0  0  0  0
  148.2238  141.3803  155.6298 O   0  0  0  0  0  0  0  0  0  0  0  0
  148.0236  142.0878  154.4174 C   0  0  0  0  0  0  0  0  0  0  0  0
  147.0196  143.1660  154.6790 C   0  0  0  0  0  0  0  0  0  0  0  0
  146.4355  144.1072  153.8769 C   0  0  0  0  0  0  0  0  0  0  0  0
  145.5495  144.8507  154.7049 C   0  0  0  0  0  0  0  0  0  0  0  0
  145.6568  144.3083  155.9534 C   0  0  0  0  0  0  0  0  0  0  0  0
  146.5478  143.2805  155.9554 O   0  0  0  0  0  0  0  0  0  0  0  0
  152.4396  143.3633  160.4261 N   0  0  0  0  0  0  0  0  0  0  0  0
  151.9124  144.5609  161.0874 C   0  0  0  0  0  0  0  0  0  0  0  0
  153.4942  142.6493  160.9424 C   0  0  0  0  0  0  0  0  0  0  0  0
  154.0332  142.9962  161.9970 O   0  0  0  0  0  0  0  0  0  0  0  0
  155.3820  139.9109  160.2929 H   0  0  0  0  0  0  0  0  0  0  0  0
  154.8203  140.4606  161.8521 H   0  0  0  0  0  0  0  0  0  0  0  0
  155.9471  141.4439  160.9160 H   0  0  0  0  0  0  0  0  0  0  0  0
  149.8569  142.8647  156.7370 H   0  0  0  0  0  0  0  0  0  0  0  0
  152.5812  140.5943  156.0450 H   0  0  0  0  0  0  0  0  0  0  0  0
  151.3420  139.7031  156.8733 H   0  0  0  0  0  0  0  0  0  0  0  0
  150.4536  141.9956  155.1287 H   0  0  0  0  0  0  0  0  0  0  0  0
  150.4104  140.6426  153.3509 H   0  0  0  0  0  0  0  0  0  0  0  0
  148.8842  139.6865  154.6786 H   0  0  0  0  0  0  0  0  0  0  0  0
  149.1696  139.7075  156.4121 H   0  0  0  0  0  0  0  0  0  0  0  0
  148.9621  142.5228  154.0710 H   0  0  0  0  0  0  0  0  0  0  0  0
  147.6551  141.4165  153.6405 H   0  0  0  0  0  0  0  0  0  0  0  0
  146.6227  144.2431  152.8219 H   0  0  0  0  0  0  0  0  0  0  0  0
  144.9136  145.6768  154.4230 H   0  0  0  0  0  0  0  0  0  0  0  0
  145.1951  144.5197  156.9067 H   0  0  0  0  0  0  0  0  0  0  0  0
  152.4166  144.8223  162.0181 H   0  0  0  0  0  0  0  0  0  0  0  0
  150.8560  144.4227  161.3203 H   0  0  0  0  0  0  0  0  0  0  0  0
  151.9977  145.4200  160.4210 H   0  0  0  0  0  0  0  0  0  0  0  0
  1  2  1  0  0  0  0
  1 25  1  0  0  0  0
  1 26  1  0  0  0  0
  1 27  1  0  0  0  0
  2 23  1  0  0  0  0
  2  3  1  0  0  0  0
  3  4  2  0  0  0  0
  3  5  1  0  0  0  0
  5  9  1  0  0  0  0
  5  6  2  0  0  0  0
  6  7  1  0  0  0  0
  6 21  1  0  0  0  0
  7  8  2  0  0  0  0
  8  9  1  0  0  0  0
  8 28  1  0  0  0  0
  9 10  1  0  0  0  0
 10 11  1  0  0  0  0
 10 29  1  0  0  0  0
 10 30  1  0  0  0  0
 11 12  1  0  0  0  0
 11 13  1  0  0  0  0
 11 31  1  0  0  0  0
 12 32  1  0  0  0  0
 13 14  1  0  0  0  0
 13 33  1  0  0  0  0
 13 34  1  0  0  0  0
 14 15  1  0  0  0  0
 15 16  1  0  0  0  0
 15 35  1  0  0  0  0
 15 36  1  0  0  0  0
 16 20  1  0  0  0  0
 16 17  2  0  0  0  0
 17 18  1  0  0  0  0
 17 37  1  0  0  0  0
 18 19  2  0  0  0  0
 18 38  1  0  0  0  0
 19 20  1  0  0  0  0
 19 39  1  0  0  0  0
 21 22  1  0  0  0  0
 21 23  1  0  0  0  0
 22 40  1  0  0  0  0
 22 41  1  0  0  0  0
 22 42  1  0  0  0  0
 23 24  2  0  0  0  0
M  END
> <s_m_source_file>
AV-unprocessed.smi

> <i_m_source_file_index>
856

> <i_lp_mmshare_version>
43012

> <i_f3d_flags>
0

> <s_epik_input>
Tz1jMW4oW0NIM10pYyg9TyluKFtDSDNdKWMoYzEyKW5bY0hdbjJbQ0gyXVtDQEhdKFtPSF0pW0NIMl1PW0NIMl1jM1tjSF1bY0hdW2NIXW8z

> <s_epik_cmdline>
J2VwaWtfcHl0aG9uJywgJy1waCcsICc3LjAnLCAnLXRuJywgJzgnLCAnLW1hJywgJzIwMCcsICctbWV0YWxfYmluZGluZycsICctaW1hZScsICc8aW5maWxlLm1hZT4nLCAnLW9tYWUnLCAnPG91dGZpbGUubWFlPic=

> <r_lp_tautomer_probability>
1

> <r_epik_Ionization_Penalty>
1.33189e-06

> <r_epik_Ionization_Penalty_Charging>
3.64616e-09

> <r_epik_Ionization_Penalty_Neutral>
1.32824e-06

> <r_epik_State_Penalty>
-0

> <r_epik_Charging_Adjusted_Penalty>
3.64616e-09

> <i_epik_Tot_Q>
0

> <i_epik_Tot_abs_Q>
0

> <r_epik_Metal_State_Penalty>
-0

> <b_epik_Metal_Only>
0

> <s_lp_Force_Field>
OPLS_2005

> <r_lp_Energy>
33.5774

> <b_lp_Chiralities_Consistent>
1

> <s_lp_Variant>
AV-unprocessed.smi:856-2

> <Gold.Version>
5.8.1

> <Gold.Id.Protein>
6NUR|6NUR_protein|mol2

> <Gold.PLP.Fitness>
53.6716

> <Gold.PLP.PLP>
-45.1845

> <Gold.PLP.part.hbond>
-2.8367

> <Gold.PLP.part.metal>
0.0000

> <Gold.PLP.part.buried>
-1.3225

> <Gold.PLP.part.nonpolar>
-39.2736

> <Gold.PLP.part.repulsive>
0.4214

> <Gold.PLP.ligand.clash>
0.0000

> <Gold.PLP.ligand.torsion>
1.1345

> <Gold.PLP.Chemscore.Hbond>
2.8620

> <Gold.PLP.Chemscore.CHOScore>
0.6881

> <Gold.PLP.Chemscore.Metal>
0.0000

> <Gold.Chemscore.Hbonds>
donor molecule, donor type, donor heavy atom, donor atom, acceptor molecule, acceptor atom, score
      L1  H    12    32       P1  7957  0.07
      P1  H  7997  8010       L1     4  0.98
      L1  C     8    28       P1  8028  1.00

> <Gold.PLP.Chemscore.Internal.Correction>
0.1057

> <Gold.Rescore>
     Score         DG    S(hbond)    S(metal)    S(lipo)     H(rot)  DE(clash)    DE(int)     intcor
      9.37     -11.93       1.91        0.00      69.64       3.16       1.36       1.20       ----

> <Gold.Chemscore.Fitness>
9.3700

> <Gold.Chemscore.DG>
-11.9298

> <Gold.Chemscore.ZeroCoef>
-5.4800

> <Gold.Chemscore.Hbond>
1.9136

> <Gold.Chemscore.Metal>
0.0000

> <Gold.Chemscore.Lipo>
69.6376

> <Gold.Chemscore.Internal_Hbond>
0.0000

> <Gold.Chemscore.DEClash>
1.3619

> <Gold.Chemscore.DEInternal>
1.1980

> <Gold.Chemscore.Rot>
3.1599

> <Gold.Chemscore.Internal.Correction>
   9.000000E+99

> <Gold.Chemscore.Hbonds>
donor molecule, donor type, donor heavy atom, donor atom, acceptor molecule, acceptor atom, score
      L1  H    12    32       P1  7957  0.10
      P1  H  7997  8010       L1     4  0.91

> <Gold.Chemscore.Hbond.Weighted>
-6.3915

> <Gold.Chemscore.Metal.Weighted>
-0.0000

> <Gold.Chemscore.Lipo.Weighted>
-8.1476

> <Gold.Chemscore.Internal_Hbond.Weighted>
0.0000

> <Gold.Chemscore.DEClash.Weighted>
1.3619

> <Gold.Chemscore.DEInternal.Weighted>
1.1980

> <Gold.Chemscore.Rot.Weighted>
8.0893

> <Gold.Chemscore.Internal.Correction.Weighted>
   9.000000E+99

> <Gold.Protein.RotatedTorsions>
[ 6907 6896 6895 6894 ] final   -9.09 input  -60.11 | X-H torsion
[ 7974 7965 7964 7962 ] final  -13.78 input  175.53 | X-H torsion
[ 8008 7997 7996 7995 ] final   27.47 input   59.86 | X-H torsion
[ 10167 10162 10161 10158 ] final -162.90 input  -65.29 | X-H torsion
[ 10718 10713 10712 10709 ] final -125.81 input   66.30 | X-H torsion
[ 10763 10752 10751 10750 ] final  -23.27 input  -60.55 | X-H torsion
[ 11005 11000 10999 10996 ] final    8.20 input  -57.11 | X-H torsion

> <Gold.Protein.ActiveResidues>
 VAL166  LYS551  ARG553  GLY616  TRP617  ASP618  TYR619  PRO620  LYS621  CYS622 
 ASP623  PHE694  ASN695  SER759  ASP760  ASP761  ALA762  ILE779  LEU786  VAL792 
 PHE793  MET794  SER795  GLU796  ALA797  LYS798  CYS799  TRP800  GLU811  SER814 

> <Gold.Protein.RotatedAtoms>
  151.4232  135.1000  159.9619 H   0  0  0  0  0  0  0  0  0  0  0  0  # atno 6907 bound_to 6896
  152.4981  133.8687  159.7298 H   0  0  0  0  0  0  0  0  0  0  0  0  # atno 6908 bound_to 6896
  150.9208  133.6825  159.2860 H   0  0  0  0  0  0  0  0  0  0  0  0  # atno 6909 bound_to 6896
  146.2100  140.3253  142.8394 H   0  0  0  0  0  0  0  0  0  0  0  0  # atno 7974 bound_to 7965
  155.0434  140.3172  155.4716 H   0  0  0  0  0  0  0  0  0  0  0  0  # atno 8008 bound_to 7997
  156.2850  140.2159  156.5502 H   0  0  0  0  0  0  0  0  0  0  0  0  # atno 8009 bound_to 7997
  154.7270  140.0484  157.0680 H   0  0  0  0  0  0  0  0  0  0  0  0  # atno 8010 bound_to 7997
  139.6359  144.0351  152.2053 H   0  0  0  0  0  0  0  0  0  0  0  0  # atno 10167 bound_to 10162
  156.1709  130.6667  151.0178 H   0  0  0  0  0  0  0  0  0  0  0  0  # atno 10718 bound_to 10713
  153.6652  135.6974  153.5164 H   0  0  0  0  0  0  0  0  0  0  0  0  # atno 10763 bound_to 10752
  153.2600  135.4247  155.0884 H   0  0  0  0  0  0  0  0  0  0  0  0  # atno 10764 bound_to 10752
  154.8441  135.3552  154.6196 H   0  0  0  0  0  0  0  0  0  0  0  0  # atno 10765 bound_to 10752
  140.5396  134.0387  155.7900 H   0  0  0  0  0  0  0  0  0  0  0  0  # atno 11005 bound_to 11000
  144.8891  140.7500  143.5938 LP  0  0  0  0  0  0  0  0  0  0  0  0  # atno 17320 bound_to 7965
  145.3175  139.1799  143.4605 LP  0  0  0  0  0  0  0  0  0  0  0  0  # atno 17321 bound_to 7965
  140.0028  144.6281  150.7714 LP  0  0  0  0  0  0  0  0  0  0  0  0  # atno 17342 bound_to 10162
  140.7465  143.2891  151.3379 LP  0  0  0  0  0  0  0  0  0  0  0  0  # atno 17343 bound_to 10162
  157.6802  131.0840  150.7390 LP  0  0  0  0  0  0  0  0  0  0  0  0  # atno 17370 bound_to 10713
  156.7449  130.4751  149.5469 LP  0  0  0  0  0  0  0  0  0  0  0  0  # atno 17371 bound_to 10713
  141.1234  133.9423  157.2683 LP  0  0  0  0  0  0  0  0  0  0  0  0  # atno 17394 bound_to 11000
  139.9511  135.0175  156.8995 LP  0  0  0  0  0  0  0  0  0  0  0  0  # atno 17395 bound_to 11000

$$$$
