AV-unprocessed.smi:2353|AV-procd|sdf|9381|dock1
  -GOLD-   2272013 13D 1   1.00000     0.00000
 Structure written by MMmdl.
 45 47  0  0  0  0  0  0  0  0  1 V2000
  148.8946  132.0964  153.6036 C   0  0  0  0  0  0  0  0  0  0  0  0
  148.5172  133.4745  154.1071 C   0  0  0  0  0  0  0  0  0  0  0  0
  147.2017  133.9523  153.9523 C   0  0  0  0  0  0  0  0  0  0  0  0
  146.8606  135.2337  154.4204 C   0  0  0  0  0  0  0  0  0  0  0  0
  147.8306  136.0448  155.0450 C   0  0  0  0  0  0  0  0  0  0  0  0
  147.4433  137.4235  155.5455 C   0  0  0  0  0  0  0  0  0  0  0  0
  149.1556  135.5776  155.2074 C   0  0  0  0  0  0  0  0  0  0  0  0
  150.0543  136.4206  155.8286 O   0  0  0  0  0  0  0  0  0  0  0  0
  151.4363  136.0900  155.7908 C   0  0  0  0  0  0  0  0  0  0  0  0
  152.2218  137.1640  156.5633 C   0  0  1  0  0  0  0  0  0  0  0  0
  153.4423  136.5711  156.9624 O   0  0  0  0  0  0  0  0  0  0  0  0
  152.5471  138.3890  155.6798 C   0  0  0  0  0  0  0  0  0  0  0  0
  152.0163  139.6330  156.2515 N   0  0  0  0  0  0  0  0  0  0  0  0
  152.5813  139.9825  157.4667 N   0  0  0  0  0  0  0  0  0  0  0  0
  152.2174  141.0635  158.0782 C   0  0  0  0  0  0  0  0  0  0  0  0
  152.7658  141.4892  159.3503 N   0  0  0  0  0  0  0  0  0  0  0  0
  152.3408  142.6898  159.9158 C   0  0  0  0  0  0  0  0  0  0  0  0
  153.0328  142.8149  161.1002 C   0  0  0  0  0  0  0  0  0  0  0  0
  153.8748  141.7174  161.2779 N   0  0  0  0  0  0  0  0  0  0  0  0
  153.6639  140.9713  160.2008 C   0  0  0  0  0  0  0  0  0  0  0  0
  151.2060  141.9256  157.4911 C   0  0  0  0  0  0  0  0  0  0  0  0
  150.6615  141.5769  156.3056 C   0  0  0  0  0  0  0  0  0  0  0  0
  151.0621  140.3610  155.5992 C   0  0  0  0  0  0  0  0  0  0  0  0
  150.5875  140.0271  154.5143 O   0  0  0  0  0  0  0  0  0  0  0  0
  149.4886  134.2841  154.7299 C   0  0  0  0  0  0  0  0  0  0  0  0
  148.0101  131.5067  153.3608 H   0  0  0  0  0  0  0  0  0  0  0  0
  149.4632  131.5563  154.3612 H   0  0  0  0  0  0  0  0  0  0  0  0
  149.5086  132.1793  152.7066 H   0  0  0  0  0  0  0  0  0  0  0  0
  146.4504  133.3405  153.4748 H   0  0  0  0  0  0  0  0  0  0  0  0
  145.8488  135.5914  154.2983 H   0  0  0  0  0  0  0  0  0  0  0  0
  147.5240  137.4657  156.6318 H   0  0  0  0  0  0  0  0  0  0  0  0
  146.4185  137.6754  155.2709 H   0  0  0  0  0  0  0  0  0  0  0  0
  148.1025  138.1814  155.1213 H   0  0  0  0  0  0  0  0  0  0  0  0
  151.6282  135.0975  156.2030 H   0  0  0  0  0  0  0  0  0  0  0  0
  151.7530  136.0849  154.7466 H   0  0  0  0  0  0  0  0  0  0  0  0
  151.6503  137.4740  157.4396 H   0  0  0  0  0  0  0  0  0  0  0  0
  153.5929  136.7763  157.8728 H   0  0  0  0  0  0  0  0  0  0  0  0
  153.6177  138.4550  155.4755 H   0  0  0  0  0  0  0  0  0  0  0  0
  152.0875  138.2591  154.6983 H   0  0  0  0  0  0  0  0  0  0  0  0
  151.6107  143.3445  159.4615 H   0  0  0  0  0  0  0  0  0  0  0  0
  152.9905  143.6061  161.8343 H   0  0  0  0  0  0  0  0  0  0  0  0
  154.1771  140.0350  160.0384 H   0  0  0  0  0  0  0  0  0  0  0  0
  150.8888  142.8304  157.9865 H   0  0  0  0  0  0  0  0  0  0  0  0
  149.9093  142.2139  155.8639 H   0  0  0  0  0  0  0  0  0  0  0  0
  150.4879  133.8889  154.8304 H   0  0  0  0  0  0  0  0  0  0  0  0
  1  2  1  0  0  0  0
  1 26  1  0  0  0  0
  1 27  1  0  0  0  0
  1 28  1  0  0  0  0
  2 25  1  0  0  0  0
  2  3  2  0  0  0  0
  3  4  1  0  0  0  0
  3 29  1  0  0  0  0
  4  5  2  0  0  0  0
  4 30  1  0  0  0  0
  5  6  1  0  0  0  0
  5  7  1  0  0  0  0
  6 31  1  0  0  0  0
  6 32  1  0  0  0  0
  6 33  1  0  0  0  0
  7  8  1  0  0  0  0
  7 25  2  0  0  0  0
  8  9  1  0  0  0  0
  9 10  1  0  0  0  0
  9 34  1  0  0  0  0
  9 35  1  0  0  0  0
 10 11  1  0  0  0  0
 10 12  1  0  0  0  0
 10 36  1  0  0  0  0
 11 37  1  0  0  0  0
 12 13  1  0  0  0  0
 12 38  1  0  0  0  0
 12 39  1  0  0  0  0
 13 23  1  0  0  0  0
 13 14  1  0  0  0  0
 14 15  2  0  0  0  0
 15 16  1  0  0  0  0
 15 21  1  0  0  0  0
 16 20  1  0  0  0  0
 16 17  1  0  0  0  0
 17 18  2  0  0  0  0
 17 40  1  0  0  0  0
 18 19  1  0  0  0  0
 18 41  1  0  0  0  0
 19 20  2  0  0  0  0
 20 42  1  0  0  0  0
 21 22  2  0  0  0  0
 21 43  1  0  0  0  0
 22 23  1  0  0  0  0
 22 44  1  0  0  0  0
 23 24  2  0  0  0  0
 25 45  1  0  0  0  0
M  END
> <s_m_source_file>
AV-unprocessed.smi

> <i_m_source_file_index>
2353

> <i_lp_mmshare_version>
43012

> <i_f3d_flags>
0

> <s_epik_input>
W0NIM11jMVtjSF1bY0hdYyhbQ0gzXSljKFtjSF0xKU9bQ0gyXVtDQEhdKFtPSF0pW0NIMl1uMm5jKFtjSF1bY0hdYzI9TyktbjNbY0hdW2NIXW5bY0hdMw==

> <s_epik_cmdline>
J2VwaWtfcHl0aG9uJywgJy1waCcsICc3LjAnLCAnLXRuJywgJzgnLCAnLW1hJywgJzIwMCcsICctbWV0YWxfYmluZGluZycsICctaW1hZScsICc8aW5maWxlLm1hZT4nLCAnLW9tYWUnLCAnPG91dGZpbGUubWFlPic=

> <r_lp_tautomer_probability>
1

> <r_epik_Ionization_Penalty>
0.03707

> <r_epik_Ionization_Penalty_Charging>
0.0370699

> <r_epik_Ionization_Penalty_Neutral>
1.17174e-07

> <r_epik_State_Penalty>
0.0310055

> <r_epik_Charging_Adjusted_Penalty>
0.0680754

> <i_epik_Tot_Q>
0

> <i_epik_Tot_abs_Q>
0

> <r_epik_Metal_State_Penalty>
0.0291724

> <b_epik_Metal_Only>
0

> <s_lp_Force_Field>
OPLS_2005

> <r_lp_Energy>
35.5456

> <b_lp_Chiralities_Consistent>
1

> <s_lp_Variant>
AV-unprocessed.smi:2353-2

> <Gold.Version>
5.8.1

> <Gold.Id.Protein>
6NUR|6NUR_protein|mol2

> <Gold.PLP.Fitness>
49.7228

> <Gold.PLP.PLP>
-42.7686

> <Gold.PLP.part.hbond>
-3.0000

> <Gold.PLP.part.metal>
0.0000

> <Gold.PLP.part.buried>
-3.4684

> <Gold.PLP.part.nonpolar>
-37.2147

> <Gold.PLP.part.repulsive>
0.1687

> <Gold.PLP.ligand.clash>
0.0000

> <Gold.PLP.ligand.torsion>
1.1330

> <Gold.PLP.Chemscore.Hbond>
2.9760

> <Gold.PLP.Chemscore.CHOScore>
0.0000

> <Gold.PLP.Chemscore.Metal>
0.0000

> <Gold.Chemscore.Hbonds>
donor molecule, donor type, donor heavy atom, donor atom, acceptor molecule, acceptor atom, score
      P1  H  7989  7998       L1    24  0.95
      P1  H  7997  8010       L1    14  0.96
      P1  H 10752 10765       L1    11  1.00

> <Gold.PLP.Chemscore.Internal.Correction>
0.2922

> <Gold.Rescore>
     Score         DG    S(hbond)    S(metal)    S(lipo)     H(rot)  DE(clash)    DE(int)     intcor
     12.53     -13.77       1.79        0.00      76.59       2.60       0.07       1.17       ----

> <Gold.Chemscore.Fitness>
12.5252

> <Gold.Chemscore.DG>
-13.7695

> <Gold.Chemscore.ZeroCoef>
-5.4800

> <Gold.Chemscore.Hbond>
1.7906

> <Gold.Chemscore.Metal>
0.0000

> <Gold.Chemscore.Lipo>
76.5915

> <Gold.Chemscore.Internal_Hbond>
0.0000

> <Gold.Chemscore.DEClash>
0.0696

> <Gold.Chemscore.DEInternal>
1.1747

> <Gold.Chemscore.Rot>
2.5986

> <Gold.Chemscore.Internal.Correction>
   9.000000E+99

> <Gold.Chemscore.Hbonds>
donor molecule, donor type, donor heavy atom, donor atom, acceptor molecule, acceptor atom, score
      P1  H  7989  7998       L1    24  0.22
      P1  H  7997  8010       L1    14  0.17
      P1  H 10752 10765       L1    11  0.27

> <Gold.Chemscore.Hbond.Weighted>
-5.9807

> <Gold.Chemscore.Metal.Weighted>
-0.0000

> <Gold.Chemscore.Lipo.Weighted>
-8.9612

> <Gold.Chemscore.Internal_Hbond.Weighted>
0.0000

> <Gold.Chemscore.DEClash.Weighted>
0.0696

> <Gold.Chemscore.DEInternal.Weighted>
1.1747

> <Gold.Chemscore.Rot.Weighted>
6.6524

> <Gold.Chemscore.Internal.Correction.Weighted>
   9.000000E+99

> <Gold.Protein.RotatedTorsions>
[ 6907 6896 6895 6894 ] final  178.51 input  -60.11 | X-H torsion
[ 7974 7965 7964 7962 ] final  162.58 input  175.53 | X-H torsion
[ 8008 7997 7996 7995 ] final   38.50 input   59.86 | X-H torsion
[ 10167 10162 10161 10158 ] final  -91.88 input  -65.29 | X-H torsion
[ 10718 10713 10712 10709 ] final   38.11 input   66.30 | X-H torsion
[ 10763 10752 10751 10750 ] final -105.40 input  -60.55 | X-H torsion
[ 11005 11000 10999 10996 ] final  171.66 input  -57.11 | X-H torsion

> <Gold.Protein.ActiveResidues>
 VAL166  LYS551  ARG553  GLY616  TRP617  ASP618  TYR619  PRO620  LYS621  CYS622 
 ASP623  PHE694  ASN695  SER759  ASP760  ASP761  ALA762  ILE779  LEU786  VAL792 
 PHE793  MET794  SER795  GLU796  ALA797  LYS798  CYS799  TRP800  GLU811  SER814 

> <Gold.Protein.RotatedAtoms>
  151.6867  133.3311  159.3232 H   0  0  0  0  0  0  0  0  0  0  0  0  # atno 6907 bound_to 6896
  150.7798  134.6734  159.6413 H   0  0  0  0  0  0  0  0  0  0  0  0  # atno 6908 bound_to 6896
  152.3852  134.6532  160.0180 H   0  0  0  0  0  0  0  0  0  0  0  0  # atno 6909 bound_to 6896
  144.7630  139.8060  143.6325 H   0  0  0  0  0  0  0  0  0  0  0  0  # atno 7974 bound_to 7965
  155.2213  140.3331  155.4315 H   0  0  0  0  0  0  0  0  0  0  0  0  # atno 8008 bound_to 7997
  156.2332  140.1860  156.7235 H   0  0  0  0  0  0  0  0  0  0  0  0  # atno 8009 bound_to 7997
  154.6014  140.0622  156.9358 H   0  0  0  0  0  0  0  0  0  0  0  0  # atno 8010 bound_to 7997
  140.3404  143.2945  151.9842 H   0  0  0  0  0  0  0  0  0  0  0  0  # atno 10167 bound_to 10162
  157.3550  130.7618  149.7005 H   0  0  0  0  0  0  0  0  0  0  0  0  # atno 10718 bound_to 10713
  154.7944  135.4750  154.0126 H   0  0  0  0  0  0  0  0  0  0  0  0  # atno 10763 bound_to 10752
  153.1680  135.6820  153.8655 H   0  0  0  0  0  0  0  0  0  0  0  0  # atno 10764 bound_to 10752
  153.8247  135.3199  155.3391 H   0  0  0  0  0  0  0  0  0  0  0  0  # atno 10765 bound_to 10752
  140.3213  134.7435  157.4066 H   0  0  0  0  0  0  0  0  0  0  0  0  # atno 11005 bound_to 11000
  146.1711  139.4862  142.9927 LP  0  0  0  0  0  0  0  0  0  0  0  0  # atno 17320 bound_to 7965
  145.6559  141.0252  143.1735 LP  0  0  0  0  0  0  0  0  0  0  0  0  # atno 17321 bound_to 7965
  139.4841  144.6161  151.7343 LP  0  0  0  0  0  0  0  0  0  0  0  0  # atno 17342 bound_to 10162
  140.5314  144.0724  150.6055 LP  0  0  0  0  0  0  0  0  0  0  0  0  # atno 17343 bound_to 10162
  155.9727  130.4130  150.4060 LP  0  0  0  0  0  0  0  0  0  0  0  0  # atno 17370 bound_to 10713
  157.2128  131.0464  151.2590 LP  0  0  0  0  0  0  0  0  0  0  0  0  # atno 17371 bound_to 10713
  140.0939  134.5563  155.8417 LP  0  0  0  0  0  0  0  0  0  0  0  0  # atno 17394 bound_to 11000
  141.2086  133.6675  156.6380 LP  0  0  0  0  0  0  0  0  0  0  0  0  # atno 17395 bound_to 11000

$$$$
