#       Name:                AV-unprocessed.smi:315
#       Creating user name   scv26
#       Creation time:       Thu Mar 26 22:22:18 2020


#       File generated by GOLD software.
#

@<TRIPOS>MOLECULE
AV-unprocessed.smi:315
    52    54     1
SMALL
NO_CHARGES


@<TRIPOS>ATOM
      1 ****        -1.8051   3.9565   0.5293 C.3            1 S1                 0.0000
      2 ****        -0.3298   4.3630   0.5582 C.3            1 S1                 0.0000
      3 ****         0.4638   3.1856   0.4573 O.3            1 S1                 0.0000
      4 ****         1.8404   3.3049   0.4835 C.ar           1 S1                 0.0000
      5 ****         2.3820   4.5421   0.6078 N.ar           1 S1                 0.0000
      6 ****         3.7262   4.6540   0.6312 C.ar           1 S1                 0.0000
      7 ****         4.5934   3.5506   0.5254 C.ar           1 S1                 0.0000
      8 ****         4.0334   2.2661   0.3957 C.ar           1 S1                 0.0000
      9 ****         2.6242   2.1326   0.3847 C.ar           1 S1                 0.0000
     10 ****         1.9444   0.8934   0.2430 N.am           1 S1                 0.0000
     11 ****         2.3775  -0.3514   0.5188 C.2            1 S1                 0.0000
     12 ****         3.5131  -0.6358   0.8914 O.2            1 S1                 0.0000
     13 ****         1.4371  -1.3003   0.3635 N.am           1 S1                 0.0000
     14 ****         1.5738  -2.7421   0.5780 C.3            1 S1                 0.0000
     15 ****         2.4115  -3.4667  -0.4959 C.3            1 S1                 0.0000
     16 ****         1.7022  -4.8146  -0.7304 C.3            1 S1                 0.0000
     17 ****         0.6011  -4.8512   0.2506 N.4            1 S1                 1.0000
     18 ****        -0.5586  -5.7125  -0.0674 C.3            1 S1                 0.0000
     19 ****        -1.5563  -5.6756   1.1081 C.3            1 S1                 0.0000
     20 ****        -1.9452  -4.2310   1.4847 C.3            1 S1                 0.0000
     21 ****        -0.6949  -3.3602   1.7138 C.3            1 S1                 0.0000
     22 ****         0.2228  -3.4494   0.4839 C.3            1 S1                 0.0000
     23 ****        -2.4518   4.8307   0.6044 H              1 S1                 0.0000
     24 ****        -2.0431   3.2918   1.3600 H              1 S1                 0.0000
     25 ****        -2.0501   3.4374  -0.3976 H              1 S1                 0.0000
     26 ****        -0.1175   5.0374  -0.2730 H              1 S1                 0.0000
     27 ****        -0.1142   4.8914   1.4883 H              1 S1                 0.0000
     28 ****         4.1227   5.6535   0.7313 H              1 S1                 0.0000
     29 ****         5.6646   3.6869   0.5391 H              1 S1                 0.0000
     30 ****         4.6922   1.4180   0.2946 H              1 S1                 0.0000
     31 ****         0.9684   0.9715  -0.0023 H              1 S1                 0.0000
     32 ****         0.5265  -0.9826   0.0634 H              1 S1                 0.0000
     33 ****         2.0028  -2.9339   1.5638 H              1 S1                 0.0000
     34 ****         2.4409  -2.8995  -1.4274 H              1 S1                 0.0000
     35 ****         3.4415  -3.6047  -0.1645 H              1 S1                 0.0000
     36 ****         1.3029  -4.8547  -1.7451 H              1 S1                 0.0000
     37 ****         2.3703  -5.6655  -0.5947 H              1 S1                 0.0000
     38 ****        -1.0371  -5.3679  -0.9855 H              1 S1                 0.0000
     39 ****        -0.2197  -6.7339  -0.2430 H              1 S1                 0.0000
     40 ****        -2.4488  -6.2503   0.8593 H              1 S1                 0.0000
     41 ****        -1.1089  -6.1634   1.9751 H              1 S1                 0.0000
     42 ****        -2.5464  -3.7980   0.6840 H              1 S1                 0.0000
     43 ****        -2.5721  -4.2307   2.3769 H              1 S1                 0.0000
     44 ****        -0.9863  -2.3254   1.8959 H              1 S1                 0.0000
     45 ****        -0.1653  -3.6991   2.6053 H              1 S1                 0.0000
     46 ****        -0.3125  -3.0840  -0.3961 H              1 S1                 0.0000
     47 ****         0.9985  -5.1877   1.1161 H              1 S1                 0.0000
     48 ****         0.2238   2.7428  -0.4066 LP             1 S1                 0.0000
     49 ****         0.2060   2.5915   1.2193 LP             1 S1                 0.0000
     50 ****         1.7992   5.3515   0.6804 LP             1 S1                 0.0000
     51 ****         4.1956   0.0853   1.0104 LP             1 S1                 0.0000
     52 ****         3.7550  -1.5884   1.0758 LP             1 S1                 0.0000
@<TRIPOS>BOND
    1    1    2 1     
    2    1   23 1     
    3    1   24 1     
    4    1   25 1     
    5    2    3 1     
    6    2   26 1     
    7    2   27 1     
    8    3    4 1     
    9    4    9 ar    
   10    4    5 ar    
   11    5    6 ar    
   12    6    7 ar    
   13    6   28 1     
   14    7    8 ar    
   15    7   29 1     
   16    8    9 ar    
   17    8   30 1     
   18    9   10 1     
   19   10   11 am    
   20   10   31 1     
   21   11   12 2     
   22   11   13 am    
   23   13   14 1     
   24   13   32 1     
   25   14   22 1     
   26   14   15 1     
   27   14   33 1     
   28   15   16 1     
   29   15   34 1     
   30   15   35 1     
   31   16   17 1     
   32   16   36 1     
   33   16   37 1     
   34   17   22 1     
   35   17   18 1     
   36   17   47 1     
   37   18   19 1     
   38   18   38 1     
   39   18   39 1     
   40   19   20 1     
   41   19   40 1     
   42   19   41 1     
   43   20   21 1     
   44   20   42 1     
   45   20   43 1     
   46   21   22 1     
   47   21   44 1     
   48   21   45 1     
   49   22   46 1     
   50    3   48 1     
   51    3   49 1     
   52    5   50 1     
   53   12   51 1     
   54   12   52 1     
@<TRIPOS>SUBSTRUCTURE
      1 S1             1
@<TRIPOS>SET
LONE_PAIRS      STATIC     ATOMS    <user>   **** ""
5 48 49 50 51 52
DONOR_HYDROGENS      STATIC     ATOMS    <user>   **** ""
3 31 32 47
ATOM$BLUE        STATIC     ATOMS    COLORGROUP SYSTEM
5 48 49 50 51 52
ATOM$RED        STATIC     ATOMS    COLORGROUP SYSTEM
3 31 32 47
