#       Name:                AV-unprocessed.smi:1736
#       Creating user name   scv26
#       Creation time:       Fri Mar 27 08:20:43 2020


#       File generated by GOLD software.
#

@<TRIPOS>MOLECULE
AV-unprocessed.smi:1736
    49    50     1
SMALL
NO_CHARGES


@<TRIPOS>ATOM
      1 ****        -2.5625  -3.6733   2.3290 C.3            1 S1                 0.0000
      2 ****        -2.1711  -3.0761   1.0615 N.3            1 S1                 0.0000
      3 ****        -2.7927  -1.7693   0.8686 C.3            1 S1                 0.0000
      4 ****        -2.3872  -1.1443  -0.4790 C.3            1 S1                 0.0000
      5 ****        -0.9275  -0.9877  -0.5933 N.3            1 S1                 0.0000
      6 ****        -0.4685  -0.2687  -1.8153 C.3            1 S1                 0.0000
      7 ****        -0.8166  -1.0169  -3.1249 C.3            1 S1                 0.0000
      8 ****        -1.1154   1.1367  -1.9080 C.3            1 S1                 0.0000
      9 ****         1.0737  -0.0498  -1.8098 C.3            1 S1                 0.0000
     10 ****         1.5567   0.5704  -0.5763 N.am           1 S1                 0.0000
     11 ****         1.9520   1.8440  -0.4415 C.2            1 S1                 0.0000
     12 ****         1.9693   2.6561  -1.3665 O.2            1 S1                 0.0000
     13 ****         2.3131   2.1081   0.8244 N.am           1 S1                 0.0000
     14 ****         2.7797   3.3412   1.3440 C.2            1 S1                 0.0000
     15 ****         2.9947   4.5804   0.6722 C.2            1 S1                 0.0000
     16 ****         3.4410   5.5077   1.5079 N.2            1 S1                 0.0000
     17 ****         3.5126   4.8755   2.7009 N.pl3          1 S1                 0.0000
     18 ****         3.1203   3.5564   2.6460 C.2            1 S1                 0.0000
     19 ****        -0.3106  -2.3079  -0.3848 C.3            1 S1                 0.0000
     20 ****        -0.7227  -2.9240   0.9645 C.3            1 S1                 0.0000
     21 ****         3.8275   5.3529   3.5335 H              1 S1                 0.0000
     22 ****        -3.6446  -3.7983   2.3790 H              1 S1                 0.0000
     23 ****        -2.2527  -3.0523   3.1705 H              1 S1                 0.0000
     24 ****        -2.1090  -4.6579   2.4479 H              1 S1                 0.0000
     25 ****        -3.8781  -1.8695   0.9061 H              1 S1                 0.0000
     26 ****        -2.5135  -1.0974   1.6820 H              1 S1                 0.0000
     27 ****        -2.7692  -1.7654  -1.2894 H              1 S1                 0.0000
     28 ****        -2.8875  -0.1807  -0.5562 H              1 S1                 0.0000
     29 ****        -0.4779  -0.4561  -3.9970 H              1 S1                 0.0000
     30 ****        -1.8899  -1.1623  -3.2447 H              1 S1                 0.0000
     31 ****        -0.3416  -1.9961  -3.1788 H              1 S1                 0.0000
     32 ****        -0.6502   1.7411  -2.6877 H              1 S1                 0.0000
     33 ****        -1.0204   1.6870  -0.9713 H              1 S1                 0.0000
     34 ****        -2.1760   1.0884  -2.1540 H              1 S1                 0.0000
     35 ****         1.6026  -0.9946  -1.9331 H              1 S1                 0.0000
     36 ****         1.3744   0.5407  -2.6773 H              1 S1                 0.0000
     37 ****         1.5682  -0.0170   0.2445 H              1 S1                 0.0000
     38 ****         2.2437   1.3489   1.4858 H              1 S1                 0.0000
     39 ****         2.8486   4.8414  -0.3655 H              1 S1                 0.0000
     40 ****         3.1187   2.9095   3.5111 H              1 S1                 0.0000
     41 ****        -0.5887  -2.9901  -1.1884 H              1 S1                 0.0000
     42 ****         0.7751  -2.2349  -0.3938 H              1 S1                 0.0000
     43 ****        -0.3558  -2.2985   1.7800 H              1 S1                 0.0000
     44 ****        -0.2421  -3.8964   1.0774 H              1 S1                 0.0000
     45 ****        -2.4869  -3.7011   0.3475 LP             1 S1                 0.0000
     46 ****        -0.6121  -0.3661   0.1238 LP             1 S1                 0.0000
     47 ****         1.6773   2.3779  -2.2816 LP             1 S1                 0.0000
     48 ****         2.2753   3.5939  -1.2028 LP             1 S1                 0.0000
     49 ****         3.6722   6.4587   1.3026 LP             1 S1                 0.0000
@<TRIPOS>BOND
    1    1    2 1     
    2    1   22 1     
    3    1   23 1     
    4    1   24 1     
    5    2   20 1     
    6    2    3 1     
    7    3    4 1     
    8    3   25 1     
    9    3   26 1     
   10    4    5 1     
   11    4   27 1     
   12    4   28 1     
   13    5    6 1     
   14    5   19 1     
   15    6    7 1     
   16    6    8 1     
   17    6    9 1     
   18    7   29 1     
   19    7   30 1     
   20    7   31 1     
   21    8   32 1     
   22    8   33 1     
   23    8   34 1     
   24    9   10 1     
   25    9   35 1     
   26    9   36 1     
   27   10   11 am    
   28   10   37 1     
   29   11   12 2     
   30   11   13 am    
   31   13   14 1     
   32   13   38 1     
   33   14   18 2     
   34   14   15 1     
   35   15   16 2     
   36   15   39 1     
   37   16   17 1     
   38   17   21 1     
   39   17   18 1     
   40   18   40 1     
   41   19   20 1     
   42   19   41 1     
   43   19   42 1     
   44   20   43 1     
   45   20   44 1     
   46    2   45 1     
   47    5   46 1     
   48   12   47 1     
   49   12   48 1     
   50   16   49 1     
@<TRIPOS>SUBSTRUCTURE
      1 S1             1
@<TRIPOS>SET
LONE_PAIRS      STATIC     ATOMS    <user>   **** ""
5 45 46 47 48 49
DONOR_HYDROGENS      STATIC     ATOMS    <user>   **** ""
3 37 38 21
ATOM$BLUE        STATIC     ATOMS    COLORGROUP SYSTEM
5 45 46 47 48 49
ATOM$RED        STATIC     ATOMS    COLORGROUP SYSTEM
3 37 38 21
