#       Name:                AV-unprocessed.smi:3023
#       Creating user name   scv26
#       Creation time:       Fri Mar 27 16:43:50 2020


#       File generated by GOLD software.
#

@<TRIPOS>MOLECULE
AV-unprocessed.smi:3023
    46    47     1
SMALL
NO_CHARGES


@<TRIPOS>ATOM
      1 ****        -3.9790   2.8077   2.9294 C.3            1 S1                 0.0000
      2 ****        -3.4563   1.8093   1.9692 N.4            1 S1                 1.0000
      3 ****        -2.3827   0.9712   2.5701 C.3            1 S1                 0.0000
      4 ****        -2.4283  -0.5016   2.1051 C.3            1 S1                 0.0000
      5 ****        -2.6010  -0.7224   0.5885 C.3            1 S1                 0.0000
      6 ****        -1.9958   0.3671  -0.1926 N.am           1 S1                 0.0000
      7 ****        -0.6768   0.4764  -0.4934 C.2            1 S1                 0.0000
      8 ****        -0.1896   1.4774  -1.0204 O.2            1 S1                 0.0000
      9 ****         0.0611  -0.6025  -0.1793 N.am           1 S1                 0.0000
     10 ****         1.4983  -0.7269  -0.3919 C.3            1 S1                 0.0000
     11 ****         1.8281  -1.1023  -1.8454 C.3            1 S1                 0.0000
     12 ****         3.3104  -1.2320  -2.0537 C.2            1 S1                 0.0000
     13 ****         4.2256  -0.2187  -2.4584 C.2            1 S1                 0.0000
     14 ****         5.4715  -0.6554  -2.5447 N.2            1 S1                 0.0000
     15 ****         5.3953  -1.9577  -2.2018 N.pl3          1 S1                 0.0000
     16 ****         6.5977  -2.7630  -2.1854 C.3            1 S1                 0.0000
     17 ****         4.1041  -2.3335  -1.8996 C.2            1 S1                 0.0000
     18 ****        -2.9390   1.4528  -0.4903 C.3            1 S1                 0.0000
     19 ****        -3.0603   2.4481   0.6816 C.3            1 S1                 0.0000
     20 ****        -3.2027   3.5195   3.2140 H              1 S1                 0.0000
     21 ****        -4.3473   2.3206   3.8330 H              1 S1                 0.0000
     22 ****        -4.8119   3.3638   2.4976 H              1 S1                 0.0000
     23 ****        -1.4063   1.4120   2.3630 H              1 S1                 0.0000
     24 ****        -2.4721   0.9700   3.6574 H              1 S1                 0.0000
     25 ****        -1.5067  -0.9848   2.4310 H              1 S1                 0.0000
     26 ****        -3.2322  -1.0236   2.6254 H              1 S1                 0.0000
     27 ****        -2.2094  -1.6981   0.2968 H              1 S1                 0.0000
     28 ****        -3.6670  -0.7891   0.3689 H              1 S1                 0.0000
     29 ****        -0.4074  -1.3917   0.2414 H              1 S1                 0.0000
     30 ****         1.9980   0.2027  -0.1133 H              1 S1                 0.0000
     31 ****         1.8745  -1.4954   0.2841 H              1 S1                 0.0000
     32 ****         1.3234  -2.0349  -2.1008 H              1 S1                 0.0000
     33 ****         1.4180  -0.3501  -2.5203 H              1 S1                 0.0000
     34 ****         4.0211   0.8163  -2.6893 H              1 S1                 0.0000
     35 ****         6.3388  -3.8191  -2.1049 H              1 S1                 0.0000
     36 ****         7.2159  -2.4822  -1.3324 H              1 S1                 0.0000
     37 ****         7.1631  -2.6070  -3.1049 H              1 S1                 0.0000
     38 ****         3.8591  -3.3423  -1.6012 H              1 S1                 0.0000
     39 ****        -2.6403   1.9886  -1.3930 H              1 S1                 0.0000
     40 ****        -3.9234   1.0485  -0.7289 H              1 S1                 0.0000
     41 ****        -3.8085   3.1922   0.4052 H              1 S1                 0.0000
     42 ****        -2.1261   2.9963   0.8144 H              1 S1                 0.0000
     43 ****        -4.2318   1.1936   1.7694 H              1 S1                 0.0000
     44 ****        -0.7729   2.2577  -1.2461 LP             1 S1                 0.0000
     45 ****         0.7892   1.5098  -1.2225 LP             1 S1                 0.0000
     46 ****         6.2859  -0.1370  -2.8053 LP             1 S1                 0.0000
@<TRIPOS>BOND
    1    1    2 1     
    2    1   20 1     
    3    1   21 1     
    4    1   22 1     
    5    2   19 1     
    6    2    3 1     
    7    2   43 1     
    8    3    4 1     
    9    3   23 1     
   10    3   24 1     
   11    4    5 1     
   12    4   25 1     
   13    4   26 1     
   14    5    6 1     
   15    5   27 1     
   16    5   28 1     
   17    6    7 am    
   18    6   18 1     
   19    7    8 2     
   20    7    9 am    
   21    9   10 1     
   22    9   29 1     
   23   10   11 1     
   24   10   30 1     
   25   10   31 1     
   26   11   12 1     
   27   11   32 1     
   28   11   33 1     
   29   12   17 2     
   30   12   13 1     
   31   13   14 2     
   32   13   34 1     
   33   14   15 1     
   34   15   16 1     
   35   15   17 1     
   36   16   35 1     
   37   16   36 1     
   38   16   37 1     
   39   17   38 1     
   40   18   19 1     
   41   18   39 1     
   42   18   40 1     
   43   19   41 1     
   44   19   42 1     
   45    8   44 1     
   46    8   45 1     
   47   14   46 1     
@<TRIPOS>SUBSTRUCTURE
      1 S1             1
@<TRIPOS>SET
LONE_PAIRS      STATIC     ATOMS    <user>   **** ""
3 44 45 46
DONOR_HYDROGENS      STATIC     ATOMS    <user>   **** ""
2 43 29
ATOM$BLUE        STATIC     ATOMS    COLORGROUP SYSTEM
3 44 45 46
ATOM$RED        STATIC     ATOMS    COLORGROUP SYSTEM
2 43 29
