AV-unprocessed.smi:1994|AV-procd|sdf|8073|dock3
  -GOLD-   2272010283D 1   1.00000     0.00000
 Structure written by MMmdl.
 39 41  0  0  0  0  0  0  0  0  1 V2000
  149.5122  136.3878  155.2846 C   0  0  0  0  0  0  0  0  0  0  0  0
  148.9072  137.7304  155.0223 C   0  0  0  0  0  0  0  0  0  0  0  0
  147.5961  137.9507  155.1249 N   0  0  0  0  0  0  0  0  0  0  0  0
  147.4869  139.2886  154.7977 C   0  0  0  0  0  0  0  0  0  0  0  0
  146.3514  140.1267  154.7209 C   0  0  0  0  0  0  0  0  0  0  0  0
  146.4880  141.4827  154.3579 C   0  0  0  0  0  0  0  0  0  0  0  0
  147.7591  142.0195  154.0672 C   0  0  0  0  0  0  0  0  0  0  0  0
  148.9035  141.2020  154.1377 C   0  0  0  0  0  0  0  0  0  0  0  0
  148.7616  139.8493  154.5005 C   0  0  0  0  0  0  0  0  0  0  0  0
  149.6596  138.7992  154.6608 N   0  0  0  0  0  0  0  0  0  0  0  0
  151.1017  138.8659  154.4682 C   0  0  0  0  0  0  0  0  0  0  0  0
  151.8499  139.2674  155.7557 C   0  0  1  0  0  0  0  0  0  0  0  0
  153.2520  139.2139  155.5822 O   0  0  0  0  0  0  0  0  0  0  0  0
  151.4540  140.6529  156.2921 C   0  0  0  0  0  0  0  0  0  0  0  0
  151.9726  140.8337  157.6041 O   0  0  0  0  0  0  0  0  0  0  0  0
  151.9858  142.1057  158.1357 C   0  0  0  0  0  0  0  0  0  0  0  0
  151.3514  143.2247  157.5379 C   0  0  0  0  0  0  0  0  0  0  0  0
  151.4173  144.4925  158.1483 C   0  0  0  0  0  0  0  0  0  0  0  0
  152.1141  144.6589  159.3593 C   0  0  0  0  0  0  0  0  0  0  0  0
  152.7453  143.5544  159.9603 C   0  0  0  0  0  0  0  0  0  0  0  0
  152.6806  142.2863  159.3510 C   0  0  0  0  0  0  0  0  0  0  0  0
  153.2938  141.2315  159.9395 F   0  0  0  0  0  0  0  0  0  0  0  0
  148.7573  135.6935  155.6554 H   0  0  0  0  0  0  0  0  0  0  0  0
  150.3020  136.4651  156.0318 H   0  0  0  0  0  0  0  0  0  0  0  0
  149.9332  135.9796  154.3656 H   0  0  0  0  0  0  0  0  0  0  0  0
  145.3734  139.7248  154.9410 H   0  0  0  0  0  0  0  0  0  0  0  0
  145.6133  142.1141  154.3020 H   0  0  0  0  0  0  0  0  0  0  0  0
  147.8548  143.0590  153.7897 H   0  0  0  0  0  0  0  0  0  0  0  0
  149.8789  141.6088  153.9157 H   0  0  0  0  0  0  0  0  0  0  0  0
  151.4625  137.9087  154.0921 H   0  0  0  0  0  0  0  0  0  0  0  0
  151.3031  139.5941  153.6817 H   0  0  0  0  0  0  0  0  0  0  0  0
  151.6170  138.5380  156.5324 H   0  0  0  0  0  0  0  0  0  0  0  0
  153.4429  138.6553  154.8444 H   0  0  0  0  0  0  0  0  0  0  0  0
  151.8782  141.4134  155.6347 H   0  0  0  0  0  0  0  0  0  0  0  0
  150.3690  140.7705  156.2791 H   0  0  0  0  0  0  0  0  0  0  0  0
  150.8079  143.1378  156.6096 H   0  0  0  0  0  0  0  0  0  0  0  0
  150.9322  145.3391  157.6850 H   0  0  0  0  0  0  0  0  0  0  0  0
  152.1647  145.6314  159.8261 H   0  0  0  0  0  0  0  0  0  0  0  0
  153.2814  143.6794  160.8897 H   0  0  0  0  0  0  0  0  0  0  0  0
  1  2  1  0  0  0  0
  1 23  1  0  0  0  0
  1 24  1  0  0  0  0
  1 25  1  0  0  0  0
  2 10  1  0  0  0  0
  2  3  2  0  0  0  0
  3  4  1  0  0  0  0
  4  9  2  0  0  0  0
  4  5  1  0  0  0  0
  5  6  2  0  0  0  0
  5 26  1  0  0  0  0
  6  7  1  0  0  0  0
  6 27  1  0  0  0  0
  7  8  2  0  0  0  0
  7 28  1  0  0  0  0
  8  9  1  0  0  0  0
  8 29  1  0  0  0  0
  9 10  1  0  0  0  0
 10 11  1  0  0  0  0
 11 12  1  0  0  0  0
 11 30  1  0  0  0  0
 11 31  1  0  0  0  0
 12 13  1  0  0  0  0
 12 14  1  0  0  0  0
 12 32  1  0  0  0  0
 13 33  1  0  0  0  0
 14 15  1  0  0  0  0
 14 34  1  0  0  0  0
 14 35  1  0  0  0  0
 15 16  1  0  0  0  0
 16 21  1  0  0  0  0
 16 17  2  0  0  0  0
 17 18  1  0  0  0  0
 17 36  1  0  0  0  0
 18 19  2  0  0  0  0
 18 37  1  0  0  0  0
 19 20  1  0  0  0  0
 19 38  1  0  0  0  0
 20 21  2  0  0  0  0
 20 39  1  0  0  0  0
 21 22  1  0  0  0  0
M  END
> <s_m_source_file>
AV-unprocessed.smi

> <i_m_source_file_index>
1994

> <i_lp_mmshare_version>
43012

> <i_f3d_flags>
0

> <s_epik_input>
W2NIXTFbY0hdW2NIXVtjSF1jKGMxMiluKGMobjIpW0NIM10pW0NIMl1bQ0BIXShbT0hdKVtDSDJdT2MzW2NIXVtjSF1bY0hdW2NIXWMzRg==

> <s_epik_cmdline>
J2VwaWtfcHl0aG9uJywgJy1waCcsICc3LjAnLCAnLXRuJywgJzgnLCAnLW1hJywgJzIwMCcsICctbWV0YWxfYmluZGluZycsICctaW1hZScsICc8aW5maWxlLm1hZT4nLCAnLW9tYWUnLCAnPG91dGZpbGUubWFlPic=

> <r_lp_tautomer_probability>
1

> <r_epik_Ionization_Penalty>
0.112614

> <r_epik_Ionization_Penalty_Charging>
0

> <r_epik_Ionization_Penalty_Neutral>
0.112614

> <r_epik_State_Penalty>
0.10231

> <r_epik_Charging_Adjusted_Penalty>
0.10231

> <i_epik_Tot_Q>
0

> <i_epik_Tot_abs_Q>
0

> <r_epik_Metal_State_Penalty>
0.000111664

> <b_epik_Metal_Only>
0

> <s_lp_Force_Field>
OPLS_2005

> <r_lp_Energy>
17.3721

> <b_lp_Chiralities_Consistent>
1

> <s_lp_Variant>
AV-unprocessed.smi:1994-2

> <Gold.Version>
5.8.1

> <Gold.Id.Protein>
6NUR|6NUR_protein|mol2

> <Gold.PLP.Fitness>
50.5507

> <Gold.PLP.PLP>
-48.5791

> <Gold.PLP.part.hbond>
-0.9880

> <Gold.PLP.part.metal>
0.0000

> <Gold.PLP.part.buried>
-4.9743

> <Gold.PLP.part.nonpolar>
-42.7033

> <Gold.PLP.part.repulsive>
0.0596

> <Gold.PLP.ligand.clash>
0.0000

> <Gold.PLP.ligand.torsion>
0.5525

> <Gold.PLP.Chemscore.Hbond>
1.0000

> <Gold.PLP.Chemscore.CHOScore>
0.0000

> <Gold.PLP.Chemscore.Metal>
0.0000

> <Gold.Chemscore.Hbonds>
donor molecule, donor type, donor heavy atom, donor atom, acceptor molecule, acceptor atom, score
      P1  H  7997  8010       L1    13  1.00

> <Gold.PLP.Chemscore.Internal.Correction>
0.0766

> <Gold.Rescore>
     Score         DG    S(hbond)    S(metal)    S(lipo)     H(rot)  DE(clash)    DE(int)     intcor
     16.16     -16.74       0.71        0.00     123.81       2.19       0.06       0.51       ----

> <Gold.Chemscore.Fitness>
16.1616

> <Gold.Chemscore.DG>
-16.7358

> <Gold.Chemscore.ZeroCoef>
-5.4800

> <Gold.Chemscore.Hbond>
0.7103

> <Gold.Chemscore.Metal>
0.0000

> <Gold.Chemscore.Lipo>
123.8142

> <Gold.Chemscore.Internal_Hbond>
0.0000

> <Gold.Chemscore.DEClash>
0.0595

> <Gold.Chemscore.DEInternal>
0.5147

> <Gold.Chemscore.Rot>
2.1886

> <Gold.Chemscore.Internal.Correction>
   9.000000E+99

> <Gold.Chemscore.Hbonds>
donor molecule, donor type, donor heavy atom, donor atom, acceptor molecule, acceptor atom, score
      P1  H  7997  8010       L1    13  0.94

> <Gold.Chemscore.Hbond.Weighted>
-2.3724

> <Gold.Chemscore.Metal.Weighted>
-0.0000

> <Gold.Chemscore.Lipo.Weighted>
-14.4863

> <Gold.Chemscore.Internal_Hbond.Weighted>
0.0000

> <Gold.Chemscore.DEClash.Weighted>
0.0595

> <Gold.Chemscore.DEInternal.Weighted>
0.5147

> <Gold.Chemscore.Rot.Weighted>
5.6028

> <Gold.Chemscore.Internal.Correction.Weighted>
   9.000000E+99

> <Gold.Protein.RotatedTorsions>
[ 6907 6896 6895 6894 ] final   30.61 input  -60.11 | X-H torsion
[ 7974 7965 7964 7962 ] final  -33.60 input  175.53 | X-H torsion
[ 8008 7997 7996 7995 ] final   83.38 input   59.86 | X-H torsion
[ 10167 10162 10161 10158 ] final -100.43 input  -65.29 | X-H torsion
[ 10718 10713 10712 10709 ] final   85.96 input   66.30 | X-H torsion
[ 10763 10752 10751 10750 ] final  175.57 input  -60.55 | X-H torsion
[ 11005 11000 10999 10996 ] final -171.43 input  -57.11 | X-H torsion

> <Gold.Protein.ActiveResidues>
 VAL166  LYS551  ARG553  GLY616  TRP617  ASP618  TYR619  PRO620  LYS621  CYS622 
 ASP623  PHE694  ASN695  SER759  ASP760  ASP761  ALA762  ILE779  LEU786  VAL792 
 PHE793  MET794  SER795  GLU796  ALA797  LYS798  CYS799  TRP800  GLU811  SER814 

> <Gold.Protein.RotatedAtoms>
  152.0484  134.9668  160.0574 H   0  0  0  0  0  0  0  0  0  0  0  0  # atno 6907 bound_to 6896
  152.1079  133.4280  159.4625 H   0  0  0  0  0  0  0  0  0  0  0  0  # atno 6908 bound_to 6896
  150.6842  134.2602  159.4589 H   0  0  0  0  0  0  0  0  0  0  0  0  # atno 6909 bound_to 6896
  146.0897  140.5936  142.8870 H   0  0  0  0  0  0  0  0  0  0  0  0  # atno 7974 bound_to 7965
  155.9231  140.3420  155.6189 H   0  0  0  0  0  0  0  0  0  0  0  0  # atno 8008 bound_to 7997
  155.7249  140.0788  157.2333 H   0  0  0  0  0  0  0  0  0  0  0  0  # atno 8009 bound_to 7997
  154.4073  140.1598  156.2431 H   0  0  0  0  0  0  0  0  0  0  0  0  # atno 8010 bound_to 7997
  140.2519  143.3466  152.0706 H   0  0  0  0  0  0  0  0  0  0  0  0  # atno 10167 bound_to 10162
  157.6922  131.0196  150.2901 H   0  0  0  0  0  0  0  0  0  0  0  0  # atno 10718 bound_to 10713
  154.4694  135.2770  155.1653 H   0  0  0  0  0  0  0  0  0  0  0  0  # atno 10763 bound_to 10752
  154.3408  135.6170  153.5599 H   0  0  0  0  0  0  0  0  0  0  0  0  # atno 10764 bound_to 10752
  152.9862  135.5788  154.5073 H   0  0  0  0  0  0  0  0  0  0  0  0  # atno 10765 bound_to 10752
  140.5084  134.5826  157.5011 H   0  0  0  0  0  0  0  0  0  0  0  0  # atno 11005 bound_to 11000
  144.7351  140.4786  143.6909 LP  0  0  0  0  0  0  0  0  0  0  0  0  # atno 17320 bound_to 7965
  145.6062  139.1508  143.3101 LP  0  0  0  0  0  0  0  0  0  0  0  0  # atno 17321 bound_to 7965
  139.5043  144.6773  151.6096 LP  0  0  0  0  0  0  0  0  0  0  0  0  # atno 17342 bound_to 10162
  140.6034  143.9569  150.6401 LP  0  0  0  0  0  0  0  0  0  0  0  0  # atno 17343 bound_to 10162
  156.3434  130.3819  149.7390 LP  0  0  0  0  0  0  0  0  0  0  0  0  # atno 17370 bound_to 10713
  156.4891  130.8077  151.3087 LP  0  0  0  0  0  0  0  0  0  0  0  0  # atno 17371 bound_to 10713
  139.9673  134.7351  156.0112 LP  0  0  0  0  0  0  0  0  0  0  0  0  # atno 17394 bound_to 11000
  141.1399  133.6567  156.3699 LP  0  0  0  0  0  0  0  0  0  0  0  0  # atno 17395 bound_to 11000

$$$$
