AV-unprocessed.smi:2087|AV-procd|sdf|8523|dock3
  -GOLD-   2272011243D 1   1.00000     0.00000
 Structure written by MMmdl.
 51 52  0  0  0  0  0  0  0  0  2 V2000
  143.5728  132.2157  149.5043 C   0  0  0  0  0  0  0  0  0  0  0  0
  144.5106  132.7986  150.5753 C   0  0  0  0  0  0  0  0  0  0  0  0
  144.1543  134.2660  150.8567 C   0  0  0  0  0  0  0  0  0  0  0  0
  145.9953  132.6681  150.1722 C   0  0  0  0  0  0  0  0  0  0  0  0
  146.9036  132.5292  151.3392 N   0  3  2  0  0  0  0  0  0  0  0  0
  146.9578  131.1537  151.8941 C   0  0  0  0  0  0  0  0  0  0  0  0
  147.9471  131.0871  153.0698 C   0  0  0  0  0  0  0  0  0  0  0  0
  147.5818  132.0459  154.0541 O   0  0  0  0  0  0  0  0  0  0  0  0
  147.6337  133.3777  153.5514 C   0  0  2  0  0  0  0  0  0  0  0  0
  147.3537  134.3517  154.7109 C   0  0  0  0  0  0  0  0  0  0  0  0
  147.7209  135.7163  154.3517 N   0  0  0  0  0  0  0  0  0  0  0  0
  147.4651  136.8015  155.0970 C   0  0  0  0  0  0  0  0  0  0  0  0
  146.9733  136.7466  156.2249 O   0  0  0  0  0  0  0  0  0  0  0  0
  147.8092  138.1552  154.4638 C   0  0  0  0  0  0  0  0  0  0  0  0
  149.1618  138.6098  154.8141 N   0  0  0  0  0  0  0  0  0  0  0  0
  150.2606  137.8829  154.3923 C   0  0  0  0  0  0  0  0  0  0  0  0
  151.5357  138.2296  154.6731 C   0  0  0  0  0  0  0  0  0  0  0  0
  151.8304  139.4187  155.4630 C   0  0  0  0  0  0  0  0  0  0  0  0
  152.9753  139.7850  155.7316 O   0  0  0  0  0  0  0  0  0  0  0  0
  150.6907  140.1364  155.8946 N   0  0  0  0  0  0  0  0  0  0  0  0
  150.9232  141.3318  156.6790 C   0  0  0  0  0  0  0  0  0  0  0  0
  149.3589  139.7819  155.5790 C   0  0  0  0  0  0  0  0  0  0  0  0
  148.3936  140.4573  155.9461 O   0  0  0  0  0  0  0  0  0  0  0  0
  146.6069  133.5086  152.4117 C   0  0  0  0  0  0  0  0  0  0  0  0
  143.6998  132.7234  148.5476 H   0  0  0  0  0  0  0  0  0  0  0  0
  142.5279  132.3202  149.7987 H   0  0  0  0  0  0  0  0  0  0  0  0
  143.7579  131.1533  149.3446 H   0  0  0  0  0  0  0  0  0  0  0  0
  144.3421  132.2518  151.5028 H   0  0  0  0  0  0  0  0  0  0  0  0
  144.2869  134.8840  149.9681 H   0  0  0  0  0  0  0  0  0  0  0  0
  144.7818  134.6800  151.6466 H   0  0  0  0  0  0  0  0  0  0  0  0
  143.1168  134.3644  151.1783 H   0  0  0  0  0  0  0  0  0  0  0  0
  146.0975  131.7936  149.5278 H   0  0  0  0  0  0  0  0  0  0  0  0
  146.3097  133.5242  149.5727 H   0  0  0  0  0  0  0  0  0  0  0  0
  145.9633  130.8544  152.2285 H   0  0  0  0  0  0  0  0  0  0  0  0
  147.2642  130.4430  151.1275 H   0  0  0  0  0  0  0  0  0  0  0  0
  147.9298  130.0946  153.5206 H   0  0  0  0  0  0  0  0  0  0  0  0
  148.9695  131.2647  152.7324 H   0  0  0  0  0  0  0  0  0  0  0  0
  148.6310  133.5738  153.1531 H   0  0  0  0  0  0  0  0  0  0  0  0
  146.3005  134.3165  154.9946 H   0  0  0  0  0  0  0  0  0  0  0  0
  147.9241  134.0614  155.5937 H   0  0  0  0  0  0  0  0  0  0  0  0
  148.1379  135.8525  153.4419 H   0  0  0  0  0  0  0  0  0  0  0  0
  147.7065  138.0600  153.3821 H   0  0  0  0  0  0  0  0  0  0  0  0
  147.0817  138.9106  154.7671 H   0  0  0  0  0  0  0  0  0  0  0  0
  150.0958  136.9905  153.8062 H   0  0  0  0  0  0  0  0  0  0  0  0
  152.3488  137.6190  154.3087 H   0  0  0  0  0  0  0  0  0  0  0  0
  150.0287  141.6024  157.2403 H   0  0  0  0  0  0  0  0  0  0  0  0
  151.2036  142.1205  155.9795 H   0  0  0  0  0  0  0  0  0  0  0  0
  151.7232  141.1282  157.3929 H   0  0  0  0  0  0  0  0  0  0  0  0
  146.6399  134.5203  152.0050 H   0  0  0  0  0  0  0  0  0  0  0  0
  145.5960  133.3455  152.7892 H   0  0  0  0  0  0  0  0  0  0  0  0
  147.8315  132.7514  151.0072 H   0  0  0  0  0  0  0  0  0  0  0  0
  1  2  1  0  0  0  0
  1 25  1  0  0  0  0
  1 26  1  0  0  0  0
  1 27  1  0  0  0  0
  2  3  1  0  0  0  0
  2  4  1  0  0  0  0
  2 28  1  0  0  0  0
  3 29  1  0  0  0  0
  3 30  1  0  0  0  0
  3 31  1  0  0  0  0
  4  5  1  0  0  0  0
  4 32  1  0  0  0  0
  4 33  1  0  0  0  0
  5 24  1  0  0  0  0
  5  6  1  0  0  0  0
  5 51  1  0  0  0  0
  6  7  1  0  0  0  0
  6 34  1  0  0  0  0
  6 35  1  0  0  0  0
  7  8  1  0  0  0  0
  7 36  1  0  0  0  0
  7 37  1  0  0  0  0
  8  9  1  0  0  0  0
  9 10  1  0  0  0  0
  9 24  1  0  0  0  0
  9 38  1  0  0  0  0
 10 11  1  0  0  0  0
 10 39  1  0  0  0  0
 10 40  1  0  0  0  0
 11 12  1  0  0  0  0
 11 41  1  0  0  0  0
 12 13  2  0  0  0  0
 12 14  1  0  0  0  0
 14 15  1  0  0  0  0
 14 42  1  0  0  0  0
 14 43  1  0  0  0  0
 15 22  1  0  0  0  0
 15 16  1  0  0  0  0
 16 17  2  0  0  0  0
 16 44  1  0  0  0  0
 17 18  1  0  0  0  0
 17 45  1  0  0  0  0
 18 19  2  0  0  0  0
 18 20  1  0  0  0  0
 20 21  1  0  0  0  0
 20 22  1  0  0  0  0
 21 46  1  0  0  0  0
 21 47  1  0  0  0  0
 21 48  1  0  0  0  0
 22 23  2  0  0  0  0
 24 49  1  0  0  0  0
 24 50  1  0  0  0  0
M  CHG  1   5   1
M  END
> <s_m_source_file>
AV-unprocessed.smi

> <i_m_source_file_index>
2087

> <i_lp_mmshare_version>
43012

> <i_f3d_flags>
0

> <s_epik_input>
W0NIM11bQ0hdKFtDSDNdKVtDSDJdTjFbQ0gyXVtDSDJdT1tDQEhdKFtDSDJdMSlbQ0gyXVtOSF1DKD1PKVtDSDJdbjJbY0hdW2NIXWMoPU8pbihbQ0gzXSljMj1P

> <s_epik_cmdline>
J2VwaWtfcHl0aG9uJywgJy1waCcsICc3LjAnLCAnLXRuJywgJzgnLCAnLW1hJywgJzIwMCcsICctbWV0YWxfYmluZGluZycsICctaW1hZScsICc8aW5maWxlLm1hZT4nLCAnLW9tYWUnLCAnPG91dGZpbGUubWFlPic=

> <r_lp_tautomer_probability>
1

> <r_epik_Ionization_Penalty>
0.097593

> <r_epik_Ionization_Penalty_Charging>
0.097593

> <r_epik_Ionization_Penalty_Neutral>
6.27044e-08

> <r_epik_State_Penalty>
0.0877056

> <r_epik_Charging_Adjusted_Penalty>
0.185299

> <i_epik_Tot_Q>
1

> <i_epik_Tot_abs_Q>
1

> <r_epik_Metal_State_Penalty>
0.0877109

> <b_epik_Metal_Only>
0

> <s_lp_Force_Field>
OPLS_2005

> <r_lp_Energy>
25.7141

> <b_lp_Chiralities_Consistent>
1

> <s_lp_Variant>
AV-unprocessed.smi:2087-4

> <Gold.Version>
5.8.1

> <Gold.Id.Protein>
6NUR|6NUR_protein|mol2

> <Gold.PLP.Fitness>
46.2946

> <Gold.PLP.PLP>
-38.9021

> <Gold.PLP.part.hbond>
-2.5868

> <Gold.PLP.part.metal>
0.0000

> <Gold.PLP.part.buried>
-2.0868

> <Gold.PLP.part.nonpolar>
-34.2167

> <Gold.PLP.part.repulsive>
0.2115

> <Gold.PLP.ligand.clash>
0.0000

> <Gold.PLP.ligand.torsion>
1.0041

> <Gold.PLP.Chemscore.Hbond>
2.0000

> <Gold.PLP.Chemscore.CHOScore>
1.0056

> <Gold.PLP.Chemscore.Metal>
0.0000

> <Gold.Chemscore.Hbonds>
donor molecule, donor type, donor heavy atom, donor atom, acceptor molecule, acceptor atom, score
      L1  H     5    51       P1 10747  0.07
      L1  H    11    41       P1  7948  1.00
      P1  H  7997  8009       L1    19  0.89
      L1  C    16    44       P1  7948  1.00
      L1  C    16    44       P1  7949  0.06

> <Gold.PLP.Chemscore.Internal.Correction>
0.3839

> <Gold.Rescore>
     Score         DG    S(hbond)    S(metal)    S(lipo)     H(rot)  DE(clash)    DE(int)     intcor
     14.63     -17.05       2.02        0.00      89.98       2.22       0.25       2.16       ----

> <Gold.Chemscore.Fitness>
14.6308

> <Gold.Chemscore.DG>
-17.0453

> <Gold.Chemscore.ZeroCoef>
-5.4800

> <Gold.Chemscore.Hbond>
2.0160

> <Gold.Chemscore.Metal>
0.0000

> <Gold.Chemscore.Lipo>
89.9798

> <Gold.Chemscore.Internal_Hbond>
0.0000

> <Gold.Chemscore.DEClash>
0.2536

> <Gold.Chemscore.DEInternal>
2.1609

> <Gold.Chemscore.Rot>
2.2249

> <Gold.Chemscore.Internal.Correction>
   9.000000E+99

> <Gold.Chemscore.Hbonds>
donor molecule, donor type, donor heavy atom, donor atom, acceptor molecule, acceptor atom, score
      L1  H     5    51       P1 10747  0.07
      L1  H    11    41       P1  7948  1.00
      P1  H  7997  8009       L1    19  0.86

> <Gold.Chemscore.Hbond.Weighted>
-6.7334

> <Gold.Chemscore.Metal.Weighted>
-0.0000

> <Gold.Chemscore.Lipo.Weighted>
-10.5276

> <Gold.Chemscore.Internal_Hbond.Weighted>
0.0000

> <Gold.Chemscore.DEClash.Weighted>
0.2536

> <Gold.Chemscore.DEInternal.Weighted>
2.1609

> <Gold.Chemscore.Rot.Weighted>
5.6957

> <Gold.Chemscore.Internal.Correction.Weighted>
   9.000000E+99

> <Gold.Protein.RotatedTorsions>
[ 6907 6896 6895 6894 ] final   35.56 input  -60.11 | X-H torsion
[ 7974 7965 7964 7962 ] final   41.75 input  175.53 | X-H torsion
[ 8008 7997 7996 7995 ] final -150.30 input   59.86 | X-H torsion
[ 10167 10162 10161 10158 ] final   14.35 input  -65.29 | X-H torsion
[ 10718 10713 10712 10709 ] final   95.99 input   66.30 | X-H torsion
[ 10763 10752 10751 10750 ] final   59.58 input  -60.55 | X-H torsion
[ 11005 11000 10999 10996 ] final  121.42 input  -57.11 | X-H torsion

> <Gold.Protein.ActiveResidues>
 VAL166  LYS551  ARG553  GLY616  TRP617  ASP618  TYR619  PRO620  LYS621  CYS622 
 ASP623  PHE694  ASN695  SER759  ASP760  ASP761  ALA762  ILE779  LEU786  VAL792 
 PHE793  MET794  SER795  GLU796  ALA797  LYS798  CYS799  TRP800  GLU811  SER814 

> <Gold.Protein.RotatedAtoms>
  152.1178  134.9227  160.0564 H   0  0  0  0  0  0  0  0  0  0  0  0  # atno 6907 bound_to 6896
  152.0380  133.3960  159.4333 H   0  0  0  0  0  0  0  0  0  0  0  0  # atno 6908 bound_to 6896
  150.6847  134.3368  159.4894 H   0  0  0  0  0  0  0  0  0  0  0  0  # atno 6909 bound_to 6896
  146.0797  139.5379  142.9545 H   0  0  0  0  0  0  0  0  0  0  0  0  # atno 7974 bound_to 7965
  155.6214  140.0682  157.2677 H   0  0  0  0  0  0  0  0  0  0  0  0  # atno 8008 bound_to 7997
  154.4228  140.1784  156.1424 H   0  0  0  0  0  0  0  0  0  0  0  0  # atno 8009 bound_to 7997
  156.0006  140.3336  155.6845 H   0  0  0  0  0  0  0  0  0  0  0  0  # atno 8010 bound_to 7997
  140.5941  143.8736  150.6902 H   0  0  0  0  0  0  0  0  0  0  0  0  # atno 10167 bound_to 10162
  157.6932  131.0564  150.4424 H   0  0  0  0  0  0  0  0  0  0  0  0  # atno 10718 bound_to 10713
  152.9898  135.5566  154.5737 H   0  0  0  0  0  0  0  0  0  0  0  0  # atno 10763 bound_to 10752
  154.5132  135.2803  155.1327 H   0  0  0  0  0  0  0  0  0  0  0  0  # atno 10764 bound_to 10752
  154.2711  135.6363  153.5363 H   0  0  0  0  0  0  0  0  0  0  0  0  # atno 10765 bound_to 10752
  139.9225  134.9639  156.7956 H   0  0  0  0  0  0  0  0  0  0  0  0  # atno 11005 bound_to 11000
  145.6240  141.0317  143.1899 LP  0  0  0  0  0  0  0  0  0  0  0  0  # atno 17320 bound_to 7965
  144.7285  139.7799  143.7356 LP  0  0  0  0  0  0  0  0  0  0  0  0  # atno 17321 bound_to 7965
  140.2266  143.3768  152.1600 LP  0  0  0  0  0  0  0  0  0  0  0  0  # atno 17342 bound_to 10162
  139.5247  144.7087  151.5275 LP  0  0  0  0  0  0  0  0  0  0  0  0  # atno 17343 bound_to 10162
  156.4781  130.4067  149.6478 LP  0  0  0  0  0  0  0  0  0  0  0  0  # atno 17370 bound_to 10713
  156.3533  130.7443  151.2406 LP  0  0  0  0  0  0  0  0  0  0  0  0  # atno 17371 bound_to 10713
  140.6432  133.9799  155.7717 LP  0  0  0  0  0  0  0  0  0  0  0  0  # atno 17394 bound_to 11000
  141.0758  134.0138  157.3460 LP  0  0  0  0  0  0  0  0  0  0  0  0  # atno 17395 bound_to 11000

$$$$
