AV-unprocessed.smi:891|AV-procd|sdf|4063|dock4
  -GOLD-   22720 1553D 1   1.00000     0.00000
 Structure written by MMmdl.
 38 38  0  0  0  0  0  0  0  0  1 V2000
  153.6232  140.8729  160.5137 C   0  0  0  0  0  0  0  0  0  0  0  0
  152.8322  141.9456  159.8238 C   0  0  0  0  0  0  0  0  0  0  0  0
  152.5230  141.8272  158.5416 N   0  0  0  0  0  0  0  0  0  0  0  0
  151.8338  142.9546  158.2279 N   0  0  0  0  0  0  0  0  0  0  0  0
  151.4061  143.1512  156.8493 C   0  0  0  0  0  0  0  0  0  0  0  0
  150.5402  141.9755  156.3950 C   0  0  0  0  0  0  0  0  0  0  0  0
  150.8224  140.8294  156.7424 O   0  0  0  0  0  0  0  0  0  0  0  0
  149.5263  142.2773  155.5699 N   0  0  0  0  0  0  0  0  0  0  0  0
  148.7718  141.3241  154.7638 C   0  0  0  0  0  0  0  0  0  0  0  0
  147.2508  141.5256  154.9482 C   0  0  2  0  0  0  0  0  0  0  0  0
  146.5150  140.1900  154.7463 C   0  0  0  0  0  0  0  0  0  0  0  0
  146.6832  142.6364  154.0301 C   0  0  0  0  0  0  0  0  0  0  0  0
  145.3971  143.2902  154.5586 C   0  0  0  0  0  0  0  0  0  0  0  0
  144.7500  143.9782  153.5096 O   0  0  0  0  0  0  0  0  0  0  0  0
  151.6841  143.7945  159.3230 C   0  0  0  0  0  0  0  0  0  0  0  0
  150.9740  145.1089  159.2747 C   0  0  0  0  0  0  0  0  0  0  0  0
  152.3239  143.1617  160.3469 C   0  0  0  0  0  0  0  0  0  0  0  0
  152.5005  143.7369  161.9646 Cl  0  0  0  0  0  0  0  0  0  0  0  0
  152.9672  140.2019  161.0681 H   0  0  0  0  0  0  0  0  0  0  0  0
  154.3327  141.3040  161.2200 H   0  0  0  0  0  0  0  0  0  0  0  0
  154.1909  140.2725  159.8021 H   0  0  0  0  0  0  0  0  0  0  0  0
  150.8426  144.0827  156.7756 H   0  0  0  0  0  0  0  0  0  0  0  0
  152.2781  143.2538  156.2030 H   0  0  0  0  0  0  0  0  0  0  0  0
  149.3644  143.2539  155.3725 H   0  0  0  0  0  0  0  0  0  0  0  0
  149.0339  141.3934  153.7067 H   0  0  0  0  0  0  0  0  0  0  0  0
  149.0573  140.3222  155.0860 H   0  0  0  0  0  0  0  0  0  0  0  0
  147.0910  141.8342  155.9824 H   0  0  0  0  0  0  0  0  0  0  0  0
  146.6065  139.8397  153.7178 H   0  0  0  0  0  0  0  0  0  0  0  0
  145.4534  140.2748  154.9772 H   0  0  0  0  0  0  0  0  0  0  0  0
  146.9226  139.4157  155.3968 H   0  0  0  0  0  0  0  0  0  0  0  0
  147.4181  143.4311  153.9110 H   0  0  0  0  0  0  0  0  0  0  0  0
  146.5149  142.2368  153.0290 H   0  0  0  0  0  0  0  0  0  0  0  0
  144.7118  142.5470  154.9650 H   0  0  0  0  0  0  0  0  0  0  0  0
  145.6257  144.0001  155.3542 H   0  0  0  0  0  0  0  0  0  0  0  0
  144.0765  143.4192  153.1530 H   0  0  0  0  0  0  0  0  0  0  0  0
  150.7679  145.4776  160.2793 H   0  0  0  0  0  0  0  0  0  0  0  0
  150.0209  145.0249  158.7534 H   0  0  0  0  0  0  0  0  0  0  0  0
  151.5793  145.8579  158.7650 H   0  0  0  0  0  0  0  0  0  0  0  0
  1  2  1  0  0  0  0
  1 19  1  0  0  0  0
  1 20  1  0  0  0  0
  1 21  1  0  0  0  0
  2 17  1  0  0  0  0
  2  3  2  0  0  0  0
  3  4  1  0  0  0  0
  4  5  1  0  0  0  0
  4 15  1  0  0  0  0
  5  6  1  0  0  0  0
  5 22  1  0  0  0  0
  5 23  1  0  0  0  0
  6  7  2  0  0  0  0
  6  8  1  0  0  0  0
  8  9  1  0  0  0  0
  8 24  1  0  0  0  0
  9 10  1  0  0  0  0
  9 25  1  0  0  0  0
  9 26  1  0  0  0  0
 10 11  1  0  0  0  0
 10 12  1  0  0  0  0
 10 27  1  0  0  0  0
 11 28  1  0  0  0  0
 11 29  1  0  0  0  0
 11 30  1  0  0  0  0
 12 13  1  0  0  0  0
 12 31  1  0  0  0  0
 12 32  1  0  0  0  0
 13 14  1  0  0  0  0
 13 33  1  0  0  0  0
 13 34  1  0  0  0  0
 14 35  1  0  0  0  0
 15 16  1  0  0  0  0
 15 17  2  0  0  0  0
 16 36  1  0  0  0  0
 16 37  1  0  0  0  0
 16 38  1  0  0  0  0
 17 18  1  0  0  0  0
M  END
> <s_m_source_file>
AV-unprocessed.smi

> <i_m_source_file_index>
891

> <i_lp_mmshare_version>
43012

> <i_f3d_flags>
0

> <s_epik_input>
W0NIM11jMW5uKGMoW0NIM10pYzFDbClbQ0gyXUMoPU8pW05IXVtDSDJdW0NASF0oW0NIM10pW0NIMl1bQ0gyXVtPSF0=

> <s_epik_cmdline>
J2VwaWtfcHl0aG9uJywgJy1waCcsICc3LjAnLCAnLXRuJywgJzgnLCAnLW1hJywgJzIwMCcsICctbWV0YWxfYmluZGluZycsICctaW1hZScsICc8aW5maWxlLm1hZT4nLCAnLW9tYWUnLCAnPG91dGZpbGUubWFlPic=

> <r_lp_tautomer_probability>
1

> <r_epik_Ionization_Penalty>
4.9564e-06

> <r_epik_Ionization_Penalty_Charging>
0

> <r_epik_Ionization_Penalty_Neutral>
4.9564e-06

> <r_epik_State_Penalty>
-0

> <r_epik_Charging_Adjusted_Penalty>
0

> <i_epik_Tot_Q>
0

> <i_epik_Tot_abs_Q>
0

> <r_epik_Metal_State_Penalty>
-0

> <b_epik_Metal_Only>
0

> <s_lp_Force_Field>
OPLS_2005

> <r_lp_Energy>
6.31297

> <b_lp_Chiralities_Consistent>
1

> <s_lp_Variant>
AV-unprocessed.smi:891-1

> <Gold.Version>
5.8.1

> <Gold.Id.Protein>
6NUR|6NUR_protein|mol2

> <Gold.PLP.Fitness>
47.6569

> <Gold.PLP.PLP>
-43.5725

> <Gold.PLP.part.hbond>
-1.8562

> <Gold.PLP.part.metal>
0.0000

> <Gold.PLP.part.buried>
-6.5306

> <Gold.PLP.part.nonpolar>
-36.2145

> <Gold.PLP.part.repulsive>
0.2004

> <Gold.PLP.ligand.clash>
0.0000

> <Gold.PLP.ligand.torsion>
1.0087

> <Gold.PLP.Chemscore.Hbond>
2.0000

> <Gold.PLP.Chemscore.CHOScore>
0.0000

> <Gold.PLP.Chemscore.Metal>
0.0000

> <Gold.Chemscore.Hbonds>
donor molecule, donor type, donor heavy atom, donor atom, acceptor molecule, acceptor atom, score
      L1  H     8    24       P1  8028  1.00
      L1  H    14    35       P1 10174  0.90

> <Gold.PLP.Chemscore.Internal.Correction>
0.1016

> <Gold.Rescore>
     Score         DG    S(hbond)    S(metal)    S(lipo)     H(rot)  DE(clash)    DE(int)     intcor
     13.15     -15.92       1.64        0.00      99.77       2.62       0.28       2.49       ----

> <Gold.Chemscore.Fitness>
13.1517

> <Gold.Chemscore.DG>
-15.9174

> <Gold.Chemscore.ZeroCoef>
-5.4800

> <Gold.Chemscore.Hbond>
1.6417

> <Gold.Chemscore.Metal>
0.0000

> <Gold.Chemscore.Lipo>
99.7733

> <Gold.Chemscore.Internal_Hbond>
0.0000

> <Gold.Chemscore.DEClash>
0.2790

> <Gold.Chemscore.DEInternal>
2.4868

> <Gold.Chemscore.Rot>
2.6247

> <Gold.Chemscore.Internal.Correction>
   9.000000E+99

> <Gold.Chemscore.Hbonds>
donor molecule, donor type, donor heavy atom, donor atom, acceptor molecule, acceptor atom, score
      L1  H     8    24       P1  8028  0.95
      L1  H    14    35       P1 10174  0.18

> <Gold.Chemscore.Hbond.Weighted>
-5.4831

> <Gold.Chemscore.Metal.Weighted>
-0.0000

> <Gold.Chemscore.Lipo.Weighted>
-11.6735

> <Gold.Chemscore.Internal_Hbond.Weighted>
0.0000

> <Gold.Chemscore.DEClash.Weighted>
0.2790

> <Gold.Chemscore.DEInternal.Weighted>
2.4868

> <Gold.Chemscore.Rot.Weighted>
6.7192

> <Gold.Chemscore.Internal.Correction.Weighted>
   9.000000E+99

> <Gold.Protein.RotatedTorsions>
[ 6907 6896 6895 6894 ] final    3.29 input  -60.11 | X-H torsion
[ 7974 7965 7964 7962 ] final -116.42 input  175.53 | X-H torsion
[ 8008 7997 7996 7995 ] final  -51.78 input   59.86 | X-H torsion
[ 10167 10162 10161 10158 ] final -131.20 input  -65.29 | X-H torsion
[ 10718 10713 10712 10709 ] final -143.47 input   66.30 | X-H torsion
[ 10763 10752 10751 10750 ] final   57.54 input  -60.55 | X-H torsion
[ 11005 11000 10999 10996 ] final  -18.74 input  -57.11 | X-H torsion

> <Gold.Protein.ActiveResidues>
 VAL166  LYS551  ARG553  GLY616  TRP617  ASP618  TYR619  PRO620  LYS621  CYS622 
 ASP623  PHE694  ASN695  SER759  ASP760  ASP761  ALA762  ILE779  LEU786  VAL792 
 PHE793  MET794  SER795  GLU796  ALA797  LYS798  CYS799  TRP800  GLU811  SER814 

> <Gold.Protein.RotatedAtoms>
  151.6227  135.1030  160.0104 H   0  0  0  0  0  0  0  0  0  0  0  0  # atno 6907 bound_to 6896
  152.4149  133.7018  159.6439 H   0  0  0  0  0  0  0  0  0  0  0  0  # atno 6908 bound_to 6896
  150.8037  133.8475  159.3237 H   0  0  0  0  0  0  0  0  0  0  0  0  # atno 6909 bound_to 6896
  145.0970  140.8527  143.3949 H   0  0  0  0  0  0  0  0  0  0  0  0  # atno 7974 bound_to 7965
  154.4091  140.1240  156.4884 H   0  0  0  0  0  0  0  0  0  0  0  0  # atno 8008 bound_to 7997
  155.7015  140.3494  155.4915 H   0  0  0  0  0  0  0  0  0  0  0  0  # atno 8009 bound_to 7997
  155.9381  140.1082  157.1068 H   0  0  0  0  0  0  0  0  0  0  0  0  # atno 8010 bound_to 7997
  139.9214  143.6378  152.2552 H   0  0  0  0  0  0  0  0  0  0  0  0  # atno 10167 bound_to 10162
  156.3584  130.7725  151.1889 H   0  0  0  0  0  0  0  0  0  0  0  0  # atno 10718 bound_to 10713
  152.9852  135.5638  154.5407 H   0  0  0  0  0  0  0  0  0  0  0  0  # atno 10763 bound_to 10752
  154.4862  135.2791  155.1534 H   0  0  0  0  0  0  0  0  0  0  0  0  # atno 10764 bound_to 10752
  154.3023  135.6305  153.5483 H   0  0  0  0  0  0  0  0  0  0  0  0  # atno 10765 bound_to 10752
  140.8298  133.8006  155.9746 H   0  0  0  0  0  0  0  0  0  0  0  0  # atno 11005 bound_to 11000
  145.1000  139.2829  143.5691 LP  0  0  0  0  0  0  0  0  0  0  0  0  # atno 17320 bound_to 7965
  146.3530  140.0564  142.8632 LP  0  0  0  0  0  0  0  0  0  0  0  0  # atno 17321 bound_to 7965
  139.6858  144.7651  151.1526 LP  0  0  0  0  0  0  0  0  0  0  0  0  # atno 17342 bound_to 10162
  140.7661  143.5659  150.9048 LP  0  0  0  0  0  0  0  0  0  0  0  0  # atno 17343 bound_to 10162
  157.7470  131.0407  150.4612 LP  0  0  0  0  0  0  0  0  0  0  0  0  # atno 17370 bound_to 10713
  156.4818  130.4075  149.6457 LP  0  0  0  0  0  0  0  0  0  0  0  0  # atno 17371 bound_to 10713
  140.9011  134.2378  157.5041 LP  0  0  0  0  0  0  0  0  0  0  0  0  # atno 17394 bound_to 11000
  139.8705  134.9707  156.4709 LP  0  0  0  0  0  0  0  0  0  0  0  0  # atno 17395 bound_to 11000

$$$$
