#       Name:                AV-unprocessed.smi:813
#       Creating user name   scv26
#       Creation time:       Fri Mar 27 01:25:43 2020


#       File generated by GOLD software.
#

@<TRIPOS>MOLECULE
AV-unprocessed.smi:813
    42    43     1
SMALL
NO_CHARGES


@<TRIPOS>ATOM
      1 ****        -0.7644  -1.7161   2.7815 C.3            1 S1                 0.0000
      2 ****        -0.2523  -1.3108   1.3895 C.3            1 S1                 0.0000
      3 ****         1.1865  -1.5692   1.3418 N.am           1 S1                 0.0000
      4 ****         1.9187  -1.6680   0.2219 C.2            1 S1                 0.0000
      5 ****         1.4417  -1.5809  -0.9101 O.2            1 S1                 0.0000
      6 ****         3.2177  -1.8655   0.5068 N.am           1 S1                 0.0000
      7 ****         4.3067  -1.9980  -0.3948 C.2            1 S1                 0.0000
      8 ****         4.1760  -1.9671  -1.7305 N.2            1 S1                 0.0000
      9 ****         5.3969  -2.1174  -2.3757 N.2            1 S1                 0.0000
     10 ****         6.3986  -2.2557  -1.5025 C.2            1 S1                 0.0000
     11 ****         5.9486  -2.2169   0.1936 S.3            1 S1                 0.0000
     12 ****        -0.5442   0.1847   1.1857 C.2            1 S1                 0.0000
     13 ****         0.2065   1.0414   1.6561 O.2            1 S1                 0.0000
     14 ****        -1.6506   0.4801   0.4872 N.am           1 S1                 0.0000
     15 ****        -2.0997   1.8300   0.1597 C.3            1 S1                 0.0000
     16 ****        -3.5985   1.8311  -0.1907 C.3            1 S1                 0.0000
     17 ****        -3.6749   2.0344  -1.7038 C.3            1 S1                 0.0000
     18 ****        -2.4584   2.8974  -2.0237 C.3            1 S1                 0.0000
     19 ****        -1.3685   2.3828  -1.0815 C.3            1 S1                 0.0000
     20 ****        -1.8371  -1.5419   2.8759 H              1 S1                 0.0000
     21 ****        -0.2656  -1.1592   3.5765 H              1 S1                 0.0000
     22 ****        -0.5924  -2.7772   2.9648 H              1 S1                 0.0000
     23 ****        -0.7612  -1.9021   0.6254 H              1 S1                 0.0000
     24 ****         1.6604  -1.6487   2.2293 H              1 S1                 0.0000
     25 ****         3.4589  -1.9133   1.4855 H              1 S1                 0.0000
     26 ****         7.4101  -2.3809  -1.8598 H              1 S1                 0.0000
     27 ****        -2.2109  -0.2845   0.1396 H              1 S1                 0.0000
     28 ****        -1.9398   2.4871   1.0168 H              1 S1                 0.0000
     29 ****        -4.1208   0.9289   0.1304 H              1 S1                 0.0000
     30 ****        -4.0815   2.6733   0.3067 H              1 S1                 0.0000
     31 ****        -3.5866   1.0720  -2.2098 H              1 S1                 0.0000
     32 ****        -4.6118   2.4939  -2.0195 H              1 S1                 0.0000
     33 ****        -2.1669   2.8408  -3.0728 H              1 S1                 0.0000
     34 ****        -2.6792   3.9408  -1.7949 H              1 S1                 0.0000
     35 ****        -0.6533   3.1639  -0.8221 H              1 S1                 0.0000
     36 ****        -0.8098   1.5914  -1.5840 H              1 S1                 0.0000
     37 ****         0.4605  -1.4287  -1.0288 LP             1 S1                 0.0000
     38 ****         2.0356  -1.6624  -1.7105 LP             1 S1                 0.0000
     39 ****         3.3034  -1.8498  -2.2046 LP             1 S1                 0.0000
     40 ****         5.5117  -2.1216  -3.3690 LP             1 S1                 0.0000
     41 ****         1.0150   0.7665   2.1765 LP             1 S1                 0.0000
     42 ****         0.0072   2.0115   1.5175 LP             1 S1                 0.0000
@<TRIPOS>BOND
    1    1    2 1     
    2    1   20 1     
    3    1   21 1     
    4    1   22 1     
    5    2    3 1     
    6    2   12 1     
    7    2   23 1     
    8    3    4 am    
    9    3   24 1     
   10    4    5 2     
   11    4    6 am    
   12    6    7 1     
   13    6   25 1     
   14    7   11 1     
   15    7    8 2     
   16    8    9 1     
   17    9   10 2     
   18   10   11 1     
   19   10   26 1     
   20   12   13 2     
   21   12   14 am    
   22   14   15 1     
   23   14   27 1     
   24   15   19 1     
   25   15   16 1     
   26   15   28 1     
   27   16   17 1     
   28   16   29 1     
   29   16   30 1     
   30   17   18 1     
   31   17   31 1     
   32   17   32 1     
   33   18   19 1     
   34   18   33 1     
   35   18   34 1     
   36   19   35 1     
   37   19   36 1     
   38    5   37 1     
   39    5   38 1     
   40    8   39 1     
   41    9   40 1     
   42   13   41 1     
   43   13   42 1     
@<TRIPOS>SUBSTRUCTURE
      1 S1             1
@<TRIPOS>SET
LONE_PAIRS      STATIC     ATOMS    <user>   **** ""
6 37 38 39 40 41 42
DONOR_HYDROGENS      STATIC     ATOMS    <user>   **** ""
3 24 25 27
ATOM$BLUE        STATIC     ATOMS    COLORGROUP SYSTEM
6 37 38 39 40 41 42
ATOM$RED        STATIC     ATOMS    COLORGROUP SYSTEM
3 24 25 27
