#       Name:                AV-unprocessed.smi:2338
#       Creating user name   scv26
#       Creation time:       Fri Mar 27 12:55:40 2020


#       File generated by GOLD software.
#

@<TRIPOS>MOLECULE
AV-unprocessed.smi:2338
    37    38     1
SMALL
NO_CHARGES


@<TRIPOS>ATOM
      1 ****        -1.0335  -2.4270   2.2012 N.am           1 S1                 0.0000
      2 ****        -1.1915  -1.9554   0.9618 C.2            1 S1                 0.0000
      3 ****        -1.0236  -2.6610  -0.0317 O.2            1 S1                 0.0000
      4 ****        -1.6158  -0.4818   0.8232 C.3            1 S1                 0.0000
      5 ****        -3.1555  -0.4257   0.6886 C.3            1 S1                 0.0000
      6 ****        -3.5952   0.9213   0.5546 O.3            1 S1                 0.0000
      7 ****        -3.0690   1.5304  -0.6174 C.3            1 S1                 0.0000
      8 ****        -1.5373   1.5720  -0.5180 C.3            1 S1                 0.0000
      9 ****        -1.0025   0.2299  -0.3079 N.3            1 S1                 0.0000
     10 ****         0.4044   0.2281  -0.3878 C.ar           1 S1                 0.0000
     11 ****         1.1062   0.4525   0.7500 N.ar           1 S1                 0.0000
     12 ****         2.4542   0.4648   0.6864 C.ar           1 S1                 0.0000
     13 ****         3.1786   0.2602  -0.5060 C.ar           1 S1                 0.0000
     14 ****         4.6980   0.2975  -0.5082 C.3            1 S1                 0.0000
     15 ****         5.1950  -0.3558  -1.5590 F              1 S1                 0.0000
     16 ****         5.1057   1.5647  -0.5587 F              1 S1                 0.0000
     17 ****         5.1781  -0.2658   0.6007 F              1 S1                 0.0000
     18 ****         2.4470   0.0390  -1.6913 C.ar           1 S1                 0.0000
     19 ****         1.0397   0.0215  -1.6362 C.ar           1 S1                 0.0000
     20 ****         0.1321  -0.2632  -3.0802 Cl             1 S1                 0.0000
     21 ****        -0.7514  -3.3866   2.3393 H              1 S1                 0.0000
     22 ****        -1.1915  -1.8232   2.9948 H              1 S1                 0.0000
     23 ****        -1.3428   0.0442   1.7404 H              1 S1                 0.0000
     24 ****        -3.5002  -1.0096  -0.1674 H              1 S1                 0.0000
     25 ****        -3.6309  -0.8528   1.5725 H              1 S1                 0.0000
     26 ****        -3.3894   0.9831  -1.5055 H              1 S1                 0.0000
     27 ****        -3.4687   2.5409  -0.7034 H              1 S1                 0.0000
     28 ****        -1.1258   2.0084  -1.4294 H              1 S1                 0.0000
     29 ****        -1.2370   2.2179   0.3087 H              1 S1                 0.0000
     30 ****         2.9688   0.6476   1.6181 H              1 S1                 0.0000
     31 ****         2.9524  -0.1156  -2.6332 H              1 S1                 0.0000
     32 ****        -0.7604  -3.6199   0.0747 LP             1 S1                 0.0000
     33 ****        -1.1503  -2.2758  -0.9457 LP             1 S1                 0.0000
     34 ****        -3.2942   1.4418   1.3537 LP             1 S1                 0.0000
     35 ****        -4.5939   0.9332   0.5059 LP             1 S1                 0.0000
     36 ****        -1.2903  -0.3511  -1.0692 LP             1 S1                 0.0000
     37 ****         0.6349   0.6057   1.6186 LP             1 S1                 0.0000
@<TRIPOS>BOND
    1    1    2 am    
    2    1   21 1     
    3    1   22 1     
    4    2    3 2     
    5    2    4 1     
    6    4    9 1     
    7    4    5 1     
    8    4   23 1     
    9    5    6 1     
   10    5   24 1     
   11    5   25 1     
   12    6    7 1     
   13    7    8 1     
   14    7   26 1     
   15    7   27 1     
   16    8    9 1     
   17    8   28 1     
   18    8   29 1     
   19    9   10 1     
   20   10   19 ar    
   21   10   11 ar    
   22   11   12 ar    
   23   12   13 ar    
   24   12   30 1     
   25   13   14 1     
   26   13   18 ar    
   27   14   15 1     
   28   14   16 1     
   29   14   17 1     
   30   18   19 ar    
   31   18   31 1     
   32   19   20 1     
   33    3   32 1     
   34    3   33 1     
   35    6   34 1     
   36    6   35 1     
   37    9   36 1     
   38   11   37 1     
@<TRIPOS>SUBSTRUCTURE
      1 S1             1
@<TRIPOS>SET
LONE_PAIRS      STATIC     ATOMS    <user>   **** ""
6 32 33 34 35 36 37
DONOR_HYDROGENS      STATIC     ATOMS    <user>   **** ""
2 21 22
ATOM$BLUE        STATIC     ATOMS    COLORGROUP SYSTEM
6 32 33 34 35 36 37
ATOM$RED        STATIC     ATOMS    COLORGROUP SYSTEM
2 21 22
