#       Name:                AV-unprocessed.smi:545
#       Creating user name   scv26
#       Creation time:       Thu Mar 26 23:37:44 2020


#       File generated by GOLD software.
#

@<TRIPOS>MOLECULE
AV-unprocessed.smi:545
    43    44     1
SMALL
NO_CHARGES


@<TRIPOS>ATOM
      1 ****        -2.9049   2.5590  -0.4433 C.3            1 S1                 0.0000
      2 ****        -2.2993   1.2823  -0.5329 O.3            1 S1                 0.0000
      3 ****        -2.5596   0.4745   0.6038 C.3            1 S1                 0.0000
      4 ****        -1.8342  -0.8706   0.4600 C.3            1 S1                 0.0000
      5 ****        -0.3837  -0.7008   0.3614 N.pl3          1 S1                 0.0000
      6 ****         0.3972  -0.5393  -0.7480 C.2            1 S1                 0.0000
      7 ****        -0.0986  -0.5390  -2.0585 N.pl3          1 S1                 0.0000
      8 ****        -1.5114  -0.7129  -2.3690 C.3            1 S1                 0.0000
      9 ****         0.6056  -0.1679  -3.2790 C.3            1 S1                 0.0000
     10 ****         1.6903  -0.3371  -0.4821 N.2            1 S1                 0.0000
     11 ****         1.7464  -0.3882   0.8999 C.2            1 S1                 0.0000
     12 ****         0.5131  -0.5933   1.4328 C.2            1 S1                 0.0000
     13 ****         0.2508  -0.6479   2.8903 C.2            1 S1                 0.0000
     14 ****        -0.8880  -0.7962   3.3287 O.2            1 S1                 0.0000
     15 ****         1.3967  -0.5089   3.6292 N.pl3          1 S1                -1.0000
     16 ****         2.6651  -0.3121   3.1283 C.2            1 S1                 0.0000
     17 ****         3.6451  -0.1977   3.8657 O.2            1 S1                 0.0000
     18 ****         2.8574  -0.2391   1.7741 N.am           1 S1                 0.0000
     19 ****         4.1936  -0.0205   1.2125 C.3            1 S1                 0.0000
     20 ****        -2.6785   3.1342  -1.3410 H              1 S1                 0.0000
     21 ****        -2.5274   3.1142   0.4164 H              1 S1                 0.0000
     22 ****        -3.9893   2.4767  -0.3595 H              1 S1                 0.0000
     23 ****        -2.2251   0.9834   1.5092 H              1 S1                 0.0000
     24 ****        -3.6330   0.3068   0.7024 H              1 S1                 0.0000
     25 ****        -2.0648  -1.5181   1.3037 H              1 S1                 0.0000
     26 ****        -2.2217  -1.4117  -0.3950 H              1 S1                 0.0000
     27 ****        -2.0173  -1.2587  -1.5719 H              1 S1                 0.0000
     28 ****        -1.6469  -1.2791  -3.2917 H              1 S1                 0.0000
     29 ****        -1.9995   0.2559  -2.4799 H              1 S1                 0.0000
     30 ****         1.4352   0.5025  -3.0535 H              1 S1                 0.0000
     31 ****        -0.0454   0.3576  -3.9795 H              1 S1                 0.0000
     32 ****         0.9931  -1.0552  -3.7802 H              1 S1                 0.0000
     33 ****         4.6252   0.9051   1.5966 H              1 S1                 0.0000
     34 ****         4.1863   0.0525   0.1254 H              1 S1                 0.0000
     35 ****         4.8577  -0.8436   1.4803 H              1 S1                 0.0000
     36 ****        -1.3105   1.4022  -0.6209 LP             1 S1                 0.0000
     37 ****        -2.6522   0.8166  -1.3444 LP             1 S1                 0.0000
     38 ****         2.4390  -0.1851  -1.1273 LP             1 S1                 0.0000
     39 ****        -1.6593  -0.8827   2.6981 LP             1 S1                 0.0000
     40 ****        -1.0432  -0.8304   4.3160 LP             1 S1                 0.0000
     41 ****         1.3036  -0.5546   4.6239 LP             1 S1                 0.0000
     42 ****         3.5325  -0.2469   4.8582 LP             1 S1                 0.0000
     43 ****         4.5532  -0.0557   3.4720 LP             1 S1                 0.0000
@<TRIPOS>BOND
    1    1    2 1     
    2    1   20 1     
    3    1   21 1     
    4    1   22 1     
    5    2    3 1     
    6    3    4 1     
    7    3   23 1     
    8    3   24 1     
    9    4    5 1     
   10    4   25 1     
   11    4   26 1     
   12    5   12 1     
   13    5    6 1     
   14    6    7 1     
   15    6   10 2     
   16    7    8 1     
   17    7    9 1     
   18    8   27 1     
   19    8   28 1     
   20    8   29 1     
   21    9   30 1     
   22    9   31 1     
   23    9   32 1     
   24   10   11 1     
   25   11   18 1     
   26   11   12 2     
   27   12   13 1     
   28   13   14 2     
   29   13   15 1     
   30   15   16 1     
   31   16   17 2     
   32   16   18 am    
   33   18   19 1     
   34   19   33 1     
   35   19   34 1     
   36   19   35 1     
   37    2   36 1     
   38    2   37 1     
   39   10   38 1     
   40   14   39 1     
   41   14   40 1     
   42   15   41 1     
   43   17   42 1     
   44   17   43 1     
@<TRIPOS>SUBSTRUCTURE
      1 S1             1
@<TRIPOS>SET
LONE_PAIRS      STATIC     ATOMS    <user>   **** ""
8 36 37 38 39 40 41 42 43
ATOM$BLUE        STATIC     ATOMS    COLORGROUP SYSTEM
8 36 37 38 39 40 41 42 43
