AV-unprocessed.smi:1504|AV-procd|sdf|6074|dock8
  -GOLD-   22720 6193D 1   1.00000     0.00000
 Structure written by MMmdl.
 40 41  0  0  0  0  0  0  0  0  2 V2000
  145.8379  138.5351  153.8917 O   0  0  0  0  0  0  0  0  0  0  0  0
  146.6729  137.9694  153.1856 C   0  0  0  0  0  0  0  0  0  0  0  0
  146.3841  136.9715  152.3385 N   0  0  0  0  0  0  0  0  0  0  0  0
  145.0529  136.4119  152.1355 C   0  0  0  0  0  0  0  0  0  0  0  0
  144.9233  135.7460  150.7551 C   0  0  0  0  0  0  0  0  0  0  0  0
  144.8359  134.2354  150.8517 C   0  0  0  0  0  0  0  0  0  0  0  0
  145.9254  133.4473  151.2823 C   0  0  0  0  0  0  0  0  0  0  0  0
  145.7762  132.0466  151.3556 C   0  0  0  0  0  0  0  0  0  0  0  0
  144.5421  131.4644  150.9989 C   0  0  0  0  0  0  0  0  0  0  0  0
  143.4866  132.2990  150.5780 C   0  0  0  0  0  0  0  0  0  0  0  0
  143.6688  133.6367  150.5206 N   0  3  0  0  0  0  0  0  0  0  0  0
  147.9783  138.2693  153.1742 N   0  0  0  0  0  0  0  0  0  0  0  0
  148.6107  139.2918  154.0006 C   0  0  0  0  0  0  0  0  0  0  0  0
  150.0024  138.8359  154.4709 C   0  0  1  0  0  0  0  0  0  0  0  0
  150.7531  139.9384  155.2427 C   0  0  0  0  0  0  0  0  0  0  0  0
  151.9886  139.3175  155.9014 C   0  0  0  0  0  0  0  0  0  0  0  0
  151.4928  137.6189  156.3723 S   0  0  0  0  0  0  0  0  0  0  0  0
  152.4689  136.6649  155.8243 O   0  0  0  0  0  0  0  0  0  0  0  0
  151.1244  137.5923  157.7957 O   0  0  0  0  0  0  0  0  0  0  0  0
  149.9630  137.5816  155.3622 C   0  0  0  0  0  0  0  0  0  0  0  0
  147.1371  136.5713  151.7976 H   0  0  0  0  0  0  0  0  0  0  0  0
  144.8259  135.6963  152.9278 H   0  0  0  0  0  0  0  0  0  0  0  0
  144.3279  137.2207  152.2305 H   0  0  0  0  0  0  0  0  0  0  0  0
  144.0371  136.1203  150.2405 H   0  0  0  0  0  0  0  0  0  0  0  0
  145.7756  136.0080  150.1265 H   0  0  0  0  0  0  0  0  0  0  0  0
  146.8636  133.9085  151.5549 H   0  0  0  0  0  0  0  0  0  0  0  0
  146.5984  131.4267  151.6826 H   0  0  0  0  0  0  0  0  0  0  0  0
  144.4074  130.3936  151.0483 H   0  0  0  0  0  0  0  0  0  0  0  0
  142.5098  131.9402  150.2880 H   0  0  0  0  0  0  0  0  0  0  0  0
  148.5821  137.7470  152.5562 H   0  0  0  0  0  0  0  0  0  0  0  0
  148.6942  140.2071  153.4136 H   0  0  0  0  0  0  0  0  0  0  0  0
  147.9912  139.5287  154.8677 H   0  0  0  0  0  0  0  0  0  0  0  0
  150.6033  138.5949  153.5923 H   0  0  0  0  0  0  0  0  0  0  0  0
  151.0245  140.7726  154.5952 H   0  0  0  0  0  0  0  0  0  0  0  0
  150.1029  140.3386  156.0221 H   0  0  0  0  0  0  0  0  0  0  0  0
  152.8104  139.2435  155.1890 H   0  0  0  0  0  0  0  0  0  0  0  0
  152.3318  139.8691  156.7766 H   0  0  0  0  0  0  0  0  0  0  0  0
  149.1140  137.6126  156.0461 H   0  0  0  0  0  0  0  0  0  0  0  0
  149.9134  136.6542  154.7915 H   0  0  0  0  0  0  0  0  0  0  0  0
  142.8912  134.2213  150.2132 H   0  0  0  0  0  0  0  0  0  0  0  0
  1  2  2  0  0  0  0
  2  3  1  0  0  0  0
  2 12  1  0  0  0  0
  3  4  1  0  0  0  0
  3 21  1  0  0  0  0
  4  5  1  0  0  0  0
  4 22  1  0  0  0  0
  4 23  1  0  0  0  0
  5  6  1  0  0  0  0
  5 24  1  0  0  0  0
  5 25  1  0  0  0  0
  6 11  1  0  0  0  0
  6  7  2  0  0  0  0
  7  8  1  0  0  0  0
  7 26  1  0  0  0  0
  8  9  2  0  0  0  0
  8 27  1  0  0  0  0
  9 10  1  0  0  0  0
  9 28  1  0  0  0  0
 10 11  2  0  0  0  0
 10 29  1  0  0  0  0
 11 40  1  0  0  0  0
 12 13  1  0  0  0  0
 12 30  1  0  0  0  0
 13 14  1  0  0  0  0
 13 31  1  0  0  0  0
 13 32  1  0  0  0  0
 14 20  1  0  0  0  0
 14 15  1  0  0  0  0
 14 33  1  0  0  0  0
 15 16  1  0  0  0  0
 15 34  1  0  0  0  0
 15 35  1  0  0  0  0
 16 17  1  0  0  0  0
 16 36  1  0  0  0  0
 16 37  1  0  0  0  0
 17 18  2  0  0  0  0
 17 19  2  0  0  0  0
 17 20  1  0  0  0  0
 20 38  1  0  0  0  0
 20 39  1  0  0  0  0
M  CHG  1  11   1
M  END
> <s_m_source_file>
AV-unprocessed.smi

> <i_m_source_file_index>
1504

> <i_lp_mmshare_version>
43012

> <i_f3d_flags>
0

> <s_epik_input>
Tz1TMSg9TylbQ0gyXVtDSDJdW0NASF0oW0NIMl0xKVtDSDJdW05IXUMoPU8pW05IXVtDSDJdW0NIMl1jMltjSF1bY0hdW2NIXVtjSF1uMg==

> <s_epik_cmdline>
J2VwaWtfcHl0aG9uJywgJy1waCcsICc3LjAnLCAnLXRuJywgJzgnLCAnLW1hJywgJzIwMCcsICctbWV0YWxfYmluZGluZycsICctaW1hZScsICc8aW5maWxlLm1hZT4nLCAnLW9tYWUnLCAnPG91dGZpbGUubWFlPic=

> <r_epik_Ionization_Penalty>
1.57393

> <r_epik_Ionization_Penalty_Charging>
1.57388

> <r_epik_Ionization_Penalty_Neutral>
4.82054e-05

> <r_epik_State_Penalty>
1.66991

> <r_epik_Charging_Adjusted_Penalty>
3.24379

> <i_epik_Tot_Q>
1

> <i_epik_Tot_abs_Q>
1

> <r_epik_Metal_State_Penalty>
1.71052

> <b_epik_Metal_Only>
0

> <s_lp_Force_Field>
OPLS_2005

> <r_lp_Energy>
6.78157

> <b_lp_Chiralities_Consistent>
1

> <s_lp_Variant>
AV-unprocessed.smi:1504-4

> <Gold.Version>
5.8.1

> <Gold.Id.Protein>
6NUR|6NUR_protein|mol2

> <Gold.PLP.Fitness>
48.0360

> <Gold.PLP.PLP>
-34.9511

> <Gold.PLP.part.hbond>
-4.6715

> <Gold.PLP.part.metal>
0.0000

> <Gold.PLP.part.buried>
-3.7797

> <Gold.PLP.part.nonpolar>
-27.9016

> <Gold.PLP.part.repulsive>
0.2666

> <Gold.PLP.ligand.clash>
0.0000

> <Gold.PLP.ligand.torsion>
0.7463

> <Gold.PLP.Chemscore.Hbond>
4.8560

> <Gold.PLP.Chemscore.CHOScore>
0.0000

> <Gold.PLP.Chemscore.Metal>
0.0000

> <Gold.Chemscore.Hbonds>
donor molecule, donor type, donor heavy atom, donor atom, acceptor molecule, acceptor atom, score
      L1  H     3    21       P1  7948  0.86
      L1  H    11    40       P1 10186  2.00
      L1  H    12    30       P1  7948  0.98
      P1  H 10752 10765       L1    18  0.98

> <Gold.PLP.Chemscore.Internal.Correction>
0.0095

> <Gold.Rescore>
     Score         DG    S(hbond)    S(metal)    S(lipo)     H(rot)  DE(clash)    DE(int)     intcor
     21.50     -22.39       3.71        0.00      82.75       2.01       0.18       0.71       ----

> <Gold.Chemscore.Fitness>
21.5011

> <Gold.Chemscore.DG>
-22.3899

> <Gold.Chemscore.ZeroCoef>
-5.4800

> <Gold.Chemscore.Hbond>
3.7084

> <Gold.Chemscore.Metal>
0.0000

> <Gold.Chemscore.Lipo>
82.7454

> <Gold.Chemscore.Internal_Hbond>
0.0000

> <Gold.Chemscore.DEClash>
0.1816

> <Gold.Chemscore.DEInternal>
0.7071

> <Gold.Chemscore.Rot>
2.0146

> <Gold.Chemscore.Internal.Correction>
   9.000000E+99

> <Gold.Chemscore.Hbonds>
donor molecule, donor type, donor heavy atom, donor atom, acceptor molecule, acceptor atom, score
      L1  H     3    21       P1  7948  0.85
      L1  H    11    40       P1 10186  0.85
      L1  H    12    30       P1  7948  0.93
      P1  H 10752 10765       L1    18  0.90

> <Gold.Chemscore.Hbond.Weighted>
-12.3859

> <Gold.Chemscore.Metal.Weighted>
-0.0000

> <Gold.Chemscore.Lipo.Weighted>
-9.6812

> <Gold.Chemscore.Internal_Hbond.Weighted>
0.0000

> <Gold.Chemscore.DEClash.Weighted>
0.1816

> <Gold.Chemscore.DEInternal.Weighted>
0.7071

> <Gold.Chemscore.Rot.Weighted>
5.1573

> <Gold.Chemscore.Internal.Correction.Weighted>
   9.000000E+99

> <Gold.Protein.RotatedTorsions>
[ 6907 6896 6895 6894 ] final -135.26 input  -60.11 | X-H torsion
[ 7974 7965 7964 7962 ] final  112.21 input  175.53 | X-H torsion
[ 8008 7997 7996 7995 ] final -174.18 input   59.86 | X-H torsion
[ 10167 10162 10161 10158 ] final -148.75 input  -65.29 | X-H torsion
[ 10718 10713 10712 10709 ] final  112.33 input   66.30 | X-H torsion
[ 10763 10752 10751 10750 ] final -155.54 input  -60.55 | X-H torsion
[ 11005 11000 10999 10996 ] final   73.96 input  -57.11 | X-H torsion

> <Gold.Protein.ActiveResidues>
 VAL166  LYS551  ARG553  GLY616  TRP617  ASP618  TYR619  PRO620  LYS621  CYS622 
 ASP623  PHE694  ASN695  SER759  ASP760  ASP761  ALA762  ILE779  LEU786  VAL792 
 PHE793  MET794  SER795  GLU796  ALA797  LYS798  CYS799  TRP800  GLU811  SER814 

> <Gold.Protein.RotatedAtoms>
  150.9958  133.6105  159.2701 H   0  0  0  0  0  0  0  0  0  0  0  0  # atno 6907 bound_to 6896
  151.3309  135.0840  159.9348 H   0  0  0  0  0  0  0  0  0  0  0  0  # atno 6908 bound_to 6896
  152.5259  133.9587  159.7761 H   0  0  0  0  0  0  0  0  0  0  0  0  # atno 6909 bound_to 6896
  145.2324  139.2814  143.4161 H   0  0  0  0  0  0  0  0  0  0  0  0  # atno 7974 bound_to 7965
  155.9669  140.1155  157.0847 H   0  0  0  0  0  0  0  0  0  0  0  0  # atno 8008 bound_to 7997
  154.4146  140.1171  156.5321 H   0  0  0  0  0  0  0  0  0  0  0  0  # atno 8009 bound_to 7997
  155.6648  140.3473  155.4798 H   0  0  0  0  0  0  0  0  0  0  0  0  # atno 8010 bound_to 7997
  139.7504  143.8527  152.2585 H   0  0  0  0  0  0  0  0  0  0  0  0  # atno 10167 bound_to 10162
  157.6398  131.0966  150.6879 H   0  0  0  0  0  0  0  0  0  0  0  0  # atno 10718 bound_to 10713
  154.7779  135.3165  154.8052 H   0  0  0  0  0  0  0  0  0  0  0  0  # atno 10763 bound_to 10752
  153.8771  135.6838  153.4774 H   0  0  0  0  0  0  0  0  0  0  0  0  # atno 10764 bound_to 10752
  153.1408  135.4740  154.9429 H   0  0  0  0  0  0  0  0  0  0  0  0  # atno 10765 bound_to 10752
  139.9414  134.7392  156.1090 H   0  0  0  0  0  0  0  0  0  0  0  0  # atno 11005 bound_to 11000
  146.3349  140.2663  142.8604 LP  0  0  0  0  0  0  0  0  0  0  0  0  # atno 17320 bound_to 7965
  144.9664  140.8326  143.5482 LP  0  0  0  0  0  0  0  0  0  0  0  0  # atno 17321 bound_to 7965
  139.8504  144.7167  150.9222 LP  0  0  0  0  0  0  0  0  0  0  0  0  # atno 17342 bound_to 10162
  140.7797  143.3905  151.1319 LP  0  0  0  0  0  0  0  0  0  0  0  0  # atno 17343 bound_to 10162
  156.7204  130.4679  149.5524 LP  0  0  0  0  0  0  0  0  0  0  0  0  # atno 17370 bound_to 10713
  156.1669  130.6411  151.0789 LP  0  0  0  0  0  0  0  0  0  0  0  0  # atno 17371 bound_to 10713
  141.1050  133.6663  156.2842 LP  0  0  0  0  0  0  0  0  0  0  0  0  # atno 17394 bound_to 11000
  140.5942  134.5620  157.5505 LP  0  0  0  0  0  0  0  0  0  0  0  0  # atno 17395 bound_to 11000

$$$$
