#       Name:                AV-unprocessed.smi:2898
#       Creating user name   scv26
#       Creation time:       Fri Mar 27 16:02:06 2020


#       File generated by GOLD software.
#

@<TRIPOS>MOLECULE
AV-unprocessed.smi:2898
    50    51     1
SMALL
NO_CHARGES


@<TRIPOS>ATOM
      1 ****        -4.0735  -0.9760   1.7771 C.3            1 S1                 0.0000
      2 ****        -3.1119  -1.6382   2.7223 C.2            1 S1                 0.0000
      3 ****        -3.5689  -2.4821   3.6311 N.2            1 S1                 0.0000
      4 ****        -2.4475  -2.9263   4.3361 O.3            1 S1                 0.0000
      5 ****        -1.3452  -2.3272   3.8179 C.2            1 S1                 0.0000
      6 ****        -0.0440  -2.6929   4.4507 C.3            1 S1                 0.0000
      7 ****        -1.6962  -1.4891   2.7915 C.2            1 S1                 0.0000
      8 ****        -0.8351  -0.6131   1.9104 C.3            1 S1                 0.0000
      9 ****         0.0757   0.3058   2.7449 C.3            1 S1                 0.0000
     10 ****        -0.0498  -1.4734   0.8973 C.3            1 S1                 0.0000
     11 ****         0.7226  -0.6653  -0.0400 N.am           1 S1                 0.0000
     12 ****         0.2230  -0.0421  -1.1210 C.2            1 S1                 0.0000
     13 ****        -0.9661  -0.1218  -1.4345 O.2            1 S1                 0.0000
     14 ****         1.1912   0.8033  -1.9794 C.3            1 S1                 0.0000
     15 ****         2.5617   0.7801  -1.4253 C.1            1 S1                 0.0000
     16 ****         3.6349   0.7621  -0.9912 N.1            1 S1                 0.0000
     17 ****         1.2114   0.2440  -3.4246 C.3            1 S1                 0.0000
     18 ****         2.0610   1.1089  -4.3728 C.3            1 S1                 0.0000
     19 ****         1.5688   2.5639  -4.3812 C.3            1 S1                 0.0000
     20 ****         1.5273   3.1488  -2.9614 C.3            1 S1                 0.0000
     21 ****         0.6819   2.2664  -2.0258 C.3            1 S1                 0.0000
     22 ****        -3.7940  -1.1685   0.7410 H              1 S1                 0.0000
     23 ****        -4.0807   0.1041   1.9235 H              1 S1                 0.0000
     24 ****        -5.0935  -1.3358   1.9166 H              1 S1                 0.0000
     25 ****         0.7499  -2.7582   3.7076 H              1 S1                 0.0000
     26 ****        -0.1112  -3.6592   4.9508 H              1 S1                 0.0000
     27 ****         0.2464  -1.9490   5.1923 H              1 S1                 0.0000
     28 ****        -1.4854   0.0472   1.3357 H              1 S1                 0.0000
     29 ****        -0.5093   0.8990   3.4482 H              1 S1                 0.0000
     30 ****         0.6236   1.0046   2.1125 H              1 S1                 0.0000
     31 ****         0.8099  -0.2608   3.3165 H              1 S1                 0.0000
     32 ****         0.6418  -2.1354   1.4180 H              1 S1                 0.0000
     33 ****        -0.7316  -2.1207   0.3427 H              1 S1                 0.0000
     34 ****         1.7076  -0.5588   0.1568 H              1 S1                 0.0000
     35 ****         1.6007  -0.7752  -3.4238 H              1 S1                 0.0000
     36 ****         0.1977   0.1812  -3.8242 H              1 S1                 0.0000
     37 ****         3.1081   1.0772  -4.0698 H              1 S1                 0.0000
     38 ****         2.0225   0.6992  -5.3824 H              1 S1                 0.0000
     39 ****         2.2143   3.1718  -5.0159 H              1 S1                 0.0000
     40 ****         0.5722   2.6075  -4.8223 H              1 S1                 0.0000
     41 ****         2.5416   3.2421  -2.5722 H              1 S1                 0.0000
     42 ****         1.1165   4.1583  -2.9894 H              1 S1                 0.0000
     43 ****        -0.3561   2.2989  -2.3613 H              1 S1                 0.0000
     44 ****         0.6894   2.6955  -1.0227 H              1 S1                 0.0000
     45 ****        -4.5210  -2.7478   3.7828 LP             1 S1                 0.0000
     46 ****        -2.3649  -3.9189   4.2469 LP             1 S1                 0.0000
     47 ****        -2.5395  -2.6849   5.3022 LP             1 S1                 0.0000
     48 ****        -1.5949  -0.6641  -0.8772 LP             1 S1                 0.0000
     49 ****        -1.3023   0.3558  -2.2462 LP             1 S1                 0.0000
     50 ****         4.5618   0.7465  -0.6163 LP             1 S1                 0.0000
@<TRIPOS>BOND
    1    1    2 1     
    2    1   22 1     
    3    1   23 1     
    4    1   24 1     
    5    2    7 1     
    6    2    3 2     
    7    3    4 1     
    8    4    5 1     
    9    5    6 1     
   10    5    7 2     
   11    6   25 1     
   12    6   26 1     
   13    6   27 1     
   14    7    8 1     
   15    8    9 1     
   16    8   10 1     
   17    8   28 1     
   18    9   29 1     
   19    9   30 1     
   20    9   31 1     
   21   10   11 1     
   22   10   32 1     
   23   10   33 1     
   24   11   12 am    
   25   11   34 1     
   26   12   13 2     
   27   12   14 1     
   28   14   21 1     
   29   14   15 1     
   30   14   17 1     
   31   15   16 3     
   32   17   18 1     
   33   17   35 1     
   34   17   36 1     
   35   18   19 1     
   36   18   37 1     
   37   18   38 1     
   38   19   20 1     
   39   19   39 1     
   40   19   40 1     
   41   20   21 1     
   42   20   41 1     
   43   20   42 1     
   44   21   43 1     
   45   21   44 1     
   46    3   45 1     
   47    4   46 1     
   48    4   47 1     
   49   13   48 1     
   50   13   49 1     
   51   16   50 1     
@<TRIPOS>SUBSTRUCTURE
      1 S1             1
@<TRIPOS>SET
LONE_PAIRS      STATIC     ATOMS    <user>   **** ""
6 45 46 47 48 49 50
DONOR_HYDROGENS      STATIC     ATOMS    <user>   **** ""
1 34
ATOM$BLUE        STATIC     ATOMS    COLORGROUP SYSTEM
6 45 46 47 48 49 50
ATOM$RED        STATIC     ATOMS    COLORGROUP SYSTEM
1 34
