AV-unprocessed.smi:102|AV-procd|sdf|970|dock8
  -GOLD-   2262017523D 1   1.00000     0.00000
 Structure written by MMmdl.
 43 44  0  0  0  0  0  0  0  0  2 V2000
  142.3739  129.3275  160.0471 C   0  0  0  0  0  0  0  0  0  0  0  0
  142.3297  130.8351  159.8361 C   0  0  0  0  0  0  0  0  0  0  0  0
  141.9121  131.3244  158.7862 O   0  0  0  0  0  0  0  0  0  0  0  0
  142.7849  131.5146  160.9043 O   0  0  0  0  0  0  0  0  0  0  0  0
  142.5784  132.9170  161.0068 C   0  0  0  0  0  0  0  0  0  0  0  0
  143.4711  133.5272  162.0988 C   0  0  1  0  0  0  0  0  0  0  0  0
  144.8252  133.5472  161.6780 O   0  0  0  0  0  0  0  0  0  0  0  0
  145.5140  134.4836  162.4420 C   0  0  1  0  0  0  0  0  0  0  0  0
  146.6669  135.0270  161.6273 N   0  0  0  0  0  0  0  0  0  0  0  0
  146.9439  134.5225  160.3676 C   0  0  0  0  0  0  0  0  0  0  0  0
  147.9568  135.0158  159.6264 C   0  0  0  0  0  0  0  0  0  0  0  0
  148.2023  134.5083  158.4061 F   0  0  0  0  0  0  0  0  0  0  0  0
  148.7767  136.1046  160.1556 C   0  0  0  0  0  0  0  0  0  0  0  0
  149.7056  136.5435  159.4792 O   0  0  0  0  0  0  0  0  0  0  0  0
  148.4677  136.5937  161.3919 N   0  5  0  0  0  0  0  0  0  0  0  0
  147.4383  136.1030  162.1426 C   0  0  0  0  0  0  0  0  0  0  0  0
  147.1338  136.5539  163.2472 O   0  0  0  0  0  0  0  0  0  0  0  0
  144.5005  135.5677  162.8641 C   0  0  1  0  0  0  0  0  0  0  0  0
  144.7703  136.8285  162.2585 O   0  0  0  0  0  0  0  0  0  0  0  0
  144.6328  136.9886  160.9329 C   0  0  0  0  0  0  0  0  0  0  0  0
  144.7761  138.4441  160.5099 C   0  0  0  0  0  0  0  0  0  0  0  0
  144.4198  136.0966  160.1115 O   0  0  0  0  0  0  0  0  0  0  0  0
  143.1736  135.0048  162.3658 C   0  0  2  0  0  0  0  0  0  0  0  0
  142.1906  135.1623  163.3812 O   0  0  0  0  0  0  0  0  0  0  0  0
  140.8861  135.0111  163.0981 C   0  0  0  0  0  0  0  0  0  0  0  0
  140.0066  135.1382  164.3346 C   0  0  0  0  0  0  0  0  0  0  0  0
  140.4034  134.7933  161.9868 O   0  0  0  0  0  0  0  0  0  0  0  0
  141.6632  129.0325  160.8193 H   0  0  0  0  0  0  0  0  0  0  0  0
  143.3719  129.0165  160.3565 H   0  0  0  0  0  0  0  0  0  0  0  0
  142.1199  128.8040  159.1252 H   0  0  0  0  0  0  0  0  0  0  0  0
  142.7231  133.4215  160.0502 H   0  0  0  0  0  0  0  0  0  0  0  0
  141.5327  133.0624  161.2769 H   0  0  0  0  0  0  0  0  0  0  0  0
  143.3981  132.9578  163.0274 H   0  0  0  0  0  0  0  0  0  0  0  0
  145.9528  133.9605  163.2934 H   0  0  0  0  0  0  0  0  0  0  0  0
  146.3403  133.7258  159.9589 H   0  0  0  0  0  0  0  0  0  0  0  0
  144.5319  135.6332  163.9532 H   0  0  0  0  0  0  0  0  0  0  0  0
  143.9741  139.0427  160.9422 H   0  0  0  0  0  0  0  0  0  0  0  0
  144.7303  138.5352  159.4245 H   0  0  0  0  0  0  0  0  0  0  0  0
  145.7306  138.8453  160.8507 H   0  0  0  0  0  0  0  0  0  0  0  0
  142.9032  135.5023  161.4324 H   0  0  0  0  0  0  0  0  0  0  0  0
  139.8686  136.1884  164.5918 H   0  0  0  0  0  0  0  0  0  0  0  0
  140.4641  134.6295  165.1835 H   0  0  0  0  0  0  0  0  0  0  0  0
  139.0277  134.6942  164.1539 H   0  0  0  0  0  0  0  0  0  0  0  0
  1  2  1  0  0  0  0
  1 28  1  0  0  0  0
  1 29  1  0  0  0  0
  1 30  1  0  0  0  0
  2  3  2  0  0  0  0
  2  4  1  0  0  0  0
  4  5  1  0  0  0  0
  5  6  1  0  0  0  0
  5 31  1  0  0  0  0
  5 32  1  0  0  0  0
  6 23  1  0  0  0  0
  6  7  1  0  0  0  0
  6 33  1  0  0  0  0
  7  8  1  0  0  0  0
  8  9  1  0  0  0  0
  8 18  1  0  0  0  0
  8 34  1  0  0  0  0
  9 16  1  0  0  0  0
  9 10  1  0  0  0  0
 10 11  2  0  0  0  0
 10 35  1  0  0  0  0
 11 12  1  0  0  0  0
 11 13  1  0  0  0  0
 13 14  2  0  0  0  0
 13 15  1  0  0  0  0
 15 16  1  0  0  0  0
 16 17  2  0  0  0  0
 18 19  1  0  0  0  0
 18 23  1  0  0  0  0
 18 36  1  0  0  0  0
 19 20  1  0  0  0  0
 20 21  1  0  0  0  0
 20 22  2  0  0  0  0
 21 37  1  0  0  0  0
 21 38  1  0  0  0  0
 21 39  1  0  0  0  0
 23 24  1  0  0  0  0
 23 40  1  0  0  0  0
 24 25  1  0  0  0  0
 25 26  1  0  0  0  0
 25 27  2  0  0  0  0
 26 41  1  0  0  0  0
 26 42  1  0  0  0  0
 26 43  1  0  0  0  0
M  CHG  1  15  -1
M  END
> <s_m_source_file>
AV-unprocessed.smi

> <i_m_source_file_index>
102

> <i_lp_mmshare_version>
43012

> <i_f3d_flags>
0

> <s_epik_input>
W0NIM11DKD1PKU9bQ0gyXVtDQEBIXTFPW0NASF0oW0NAQEhdKE9DKD1PKVtDSDNdKVtDQEhdMU9DKD1PKVtDSDNdKW4yW2NIXWMoRiljKD1PKVtuSF1jMj1P

> <s_epik_cmdline>
J2VwaWtfcHl0aG9uJywgJy1waCcsICc3LjAnLCAnLXRuJywgJzgnLCAnLW1hJywgJzIwMCcsICctbWV0YWxfYmluZGluZycsICctaW1hZScsICc8aW5maWxlLm1hZT4nLCAnLW9tYWUnLCAnPG91dGZpbGUubWFlPic=

> <r_epik_Ionization_Penalty>
1.40304

> <r_epik_Ionization_Penalty_Charging>
1.43915e-08

> <r_epik_Ionization_Penalty_Neutral>
1.40304

> <r_epik_State_Penalty>
1.48536

> <r_epik_Charging_Adjusted_Penalty>
1.48536

> <i_epik_Tot_Q>
-1

> <i_epik_Tot_abs_Q>
1

> <r_epik_Metal_State_Penalty>
0.00663881

> <b_epik_Metal_Only>
0

> <s_epik_Chemistry_Notes>
This compound has an ester and may undergo hydrolysis at high or low pH. This compound contains an acetal/aminal-like group ( X-CH(R)-Y where X, Y are N, S, or O) that may be acid/base labile, releasing an aldehyde.

> <s_lp_Force_Field>
OPLS_2005

> <r_lp_Energy>
20.3433

> <b_lp_Chiralities_Consistent>
1

> <s_lp_Variant>
AV-unprocessed.smi:102-26

> <Gold.Version>
5.8.1

> <Gold.Id.Protein>
6NUR|6NUR_protein|mol2

> <Gold.PLP.Fitness>
40.5388

> <Gold.PLP.PLP>
-32.6504

> <Gold.PLP.part.hbond>
-2.0000

> <Gold.PLP.part.metal>
0.0000

> <Gold.PLP.part.buried>
-7.0336

> <Gold.PLP.part.nonpolar>
-24.6485

> <Gold.PLP.part.repulsive>
0.3864

> <Gold.PLP.ligand.clash>
0.0000

> <Gold.PLP.ligand.torsion>
0.5623

> <Gold.PLP.Chemscore.Hbond>
2.9500

> <Gold.PLP.Chemscore.CHOScore>
0.0000

> <Gold.PLP.Chemscore.Metal>
0.0000

> <Gold.Chemscore.Hbonds>
donor molecule, donor type, donor heavy atom, donor atom, acceptor molecule, acceptor atom, score
      P1  H  6896  6909       L1    14  0.64
      P1  H  6931  6943       L1    15  2.00

> <Gold.PLP.Chemscore.Internal.Correction>
0.1630

> <Gold.Rescore>
     Score         DG    S(hbond)    S(metal)    S(lipo)     H(rot)  DE(clash)    DE(int)     intcor
     -2.58      -3.94       1.08        0.00      43.45       4.00       0.18       6.34       ----

> <Gold.Chemscore.Fitness>
-2.5795

> <Gold.Chemscore.DG>
-3.9372

> <Gold.Chemscore.ZeroCoef>
-5.4800

> <Gold.Chemscore.Hbond>
1.0780

> <Gold.Chemscore.Metal>
0.0000

> <Gold.Chemscore.Lipo>
43.4545

> <Gold.Chemscore.Internal_Hbond>
0.0000

> <Gold.Chemscore.DEClash>
0.1797

> <Gold.Chemscore.DEInternal>
6.3371

> <Gold.Chemscore.Rot>
3.9951

> <Gold.Chemscore.Internal.Correction>
   9.000000E+99

> <Gold.Chemscore.Hbonds>
donor molecule, donor type, donor heavy atom, donor atom, acceptor molecule, acceptor atom, score
      P1  H  6896  6909       L1    14  0.05
      P1  H  6931  6943       L1    15  0.87

> <Gold.Chemscore.Hbond.Weighted>
-3.6005

> <Gold.Chemscore.Metal.Weighted>
-0.0000

> <Gold.Chemscore.Lipo.Weighted>
-5.0842

> <Gold.Chemscore.Internal_Hbond.Weighted>
0.0000

> <Gold.Chemscore.DEClash.Weighted>
0.1797

> <Gold.Chemscore.DEInternal.Weighted>
6.3371

> <Gold.Chemscore.Rot.Weighted>
10.2274

> <Gold.Chemscore.Internal.Correction.Weighted>
   9.000000E+99

> <Gold.Protein.RotatedTorsions>
[ 6907 6896 6895 6894 ] final   68.75 input  -60.11 | X-H torsion
[ 7974 7965 7964 7962 ] final    5.84 input  175.53 | X-H torsion
[ 8008 7997 7996 7995 ] final  120.14 input   59.86 | X-H torsion
[ 10167 10162 10161 10158 ] final -173.90 input  -65.29 | X-H torsion
[ 10718 10713 10712 10709 ] final  157.30 input   66.30 | X-H torsion
[ 10763 10752 10751 10750 ] final   12.55 input  -60.55 | X-H torsion
[ 11005 11000 10999 10996 ] final  156.86 input  -57.11 | X-H torsion

> <Gold.Protein.ActiveResidues>
 VAL166  LYS551  ARG553  GLY616  TRP617  ASP618  TYR619  PRO620  LYS621  CYS622 
 ASP623  PHE694  ASN695  SER759  ASP760  ASP761  ALA762  ILE779  LEU786  VAL792 
 PHE793  MET794  SER795  GLU796  ALA797  LYS798  CYS799  TRP800  GLU811  SER814 

> <Gold.Protein.RotatedAtoms>
  152.4641  134.5116  159.9755 H   0  0  0  0  0  0  0  0  0  0  0  0  # atno 6907 bound_to 6896
  151.5158  133.3470  159.2900 H   0  0  0  0  0  0  0  0  0  0  0  0  # atno 6908 bound_to 6896
  150.8617  134.8000  159.7150 H   0  0  0  0  0  0  0  0  0  0  0  0  # atno 6909 bound_to 6896
  146.2438  140.0324  142.8388 H   0  0  0  0  0  0  0  0  0  0  0  0  # atno 7974 bound_to 7965
  156.2629  140.2837  156.1102 H   0  0  0  0  0  0  0  0  0  0  0  0  # atno 8008 bound_to 7997
  155.1265  140.0393  157.2781 H   0  0  0  0  0  0  0  0  0  0  0  0  # atno 8009 bound_to 7997
  154.6631  140.2571  155.7093 H   0  0  0  0  0  0  0  0  0  0  0  0  # atno 8010 bound_to 7997
  139.5663  144.1748  152.1317 H   0  0  0  0  0  0  0  0  0  0  0  0  # atno 10167 bound_to 10162
  157.1933  131.0659  151.2067 H   0  0  0  0  0  0  0  0  0  0  0  0  # atno 10718 bound_to 10713
  153.1811  135.6828  153.8477 H   0  0  0  0  0  0  0  0  0  0  0  0  # atno 10763 bound_to 10752
  153.7809  135.3182  155.3366 H   0  0  0  0  0  0  0  0  0  0  0  0  # atno 10764 bound_to 10752
  154.8060  135.4748  154.0488 H   0  0  0  0  0  0  0  0  0  0  0  0  # atno 10765 bound_to 10752
  140.1715  134.8540  157.2696 H   0  0  0  0  0  0  0  0  0  0  0  0  # atno 11005 bound_to 11000
  145.1143  140.9424  143.4638 LP  0  0  0  0  0  0  0  0  0  0  0  0  # atno 17320 bound_to 7965
  145.0545  139.3155  143.5912 LP  0  0  0  0  0  0  0  0  0  0  0  0  # atno 17321 bound_to 7965
  140.1272  144.5321  150.6825 LP  0  0  0  0  0  0  0  0  0  0  0  0  # atno 17342 bound_to 10162
  140.6946  143.2396  151.5036 LP  0  0  0  0  0  0  0  0  0  0  0  0  # atno 17343 bound_to 10162
  157.3839  130.7246  149.6649 LP  0  0  0  0  0  0  0  0  0  0  0  0  # atno 17370 bound_to 10713
  155.9709  130.4165  150.4233 LP  0  0  0  0  0  0  0  0  0  0  0  0  # atno 17371 bound_to 10713
  140.2372  134.3839  155.7496 LP  0  0  0  0  0  0  0  0  0  0  0  0  # atno 17394 bound_to 11000
  141.2217  133.7246  156.8732 LP  0  0  0  0  0  0  0  0  0  0  0  0  # atno 17395 bound_to 11000

$$$$
