AV-unprocessed.smi:1943|AV-procd|sdf|7851|dock1
  -GOLD-   22720 9593D 1   1.00000     0.00000
 Structure written by MMmdl.
 48 49  0  0  0  0  0  0  0  0  2 V2000
  145.1545  137.4849  152.7379 C   0  0  0  0  0  0  0  0  0  0  0  0
  145.9500  138.7314  152.8969 N   0  3  0  0  0  0  0  0  0  0  0  0
  146.8011  138.9489  151.6977 C   0  0  0  0  0  0  0  0  0  0  0  0
  146.6383  138.8932  154.2295 C   0  0  0  0  0  0  0  0  0  0  0  0
  145.6175  139.2424  155.3415 C   0  0  0  0  0  0  0  0  0  0  0  0
  147.3636  137.5845  154.6427 C   0  0  0  0  0  0  0  0  0  0  0  0
  147.7179  140.0103  154.0945 C   0  0  0  0  0  0  0  0  0  0  0  0
  148.6307  140.0916  155.2340 N   0  0  0  0  0  0  0  0  0  0  0  0
  149.6612  140.9451  155.3542 C   0  0  0  0  0  0  0  0  0  0  0  0
  149.9654  141.7691  154.4914 O   0  0  0  0  0  0  0  0  0  0  0  0
  150.4015  140.8623  156.6595 C   0  0  0  0  0  0  0  0  0  0  0  0
  151.0961  141.9601  157.0426 N   0  0  0  0  0  0  0  0  0  0  0  0
  151.7398  141.9335  158.2164 C   0  0  0  0  0  0  0  0  0  0  0  0
  152.4580  143.0763  158.5889 N   0  0  0  0  0  0  0  0  0  0  0  0
  152.1948  144.3886  157.9995 C   0  0  0  0  0  0  0  0  0  0  0  0
  151.2331  145.1771  158.9067 C   0  0  0  0  0  0  0  0  0  0  0  0
  151.8001  145.2934  160.2101 O   0  0  0  0  0  0  0  0  0  0  0  0
  152.0555  144.0256  160.8124 C   0  0  0  0  0  0  0  0  0  0  0  0
  153.0268  143.2221  159.9283 C   0  0  0  0  0  0  0  0  0  0  0  0
  151.7528  140.8934  159.0582 N   0  0  0  0  0  0  0  0  0  0  0  0
  151.0680  139.7877  158.7000 C   0  0  0  0  0  0  0  0  0  0  0  0
  150.3579  139.7110  157.4863 C   0  0  0  0  0  0  0  0  0  0  0  0
  149.5227  138.2546  157.0667 Cl  0  0  0  0  0  0  0  0  0  0  0  0
  145.7992  136.6104  152.6427 H   0  0  0  0  0  0  0  0  0  0  0  0
  144.5483  137.5406  151.8333 H   0  0  0  0  0  0  0  0  0  0  0  0
  144.4655  137.3108  153.5616 H   0  0  0  0  0  0  0  0  0  0  0  0
  147.6593  138.2765  151.6898 H   0  0  0  0  0  0  0  0  0  0  0  0
  147.1595  139.9760  151.6342 H   0  0  0  0  0  0  0  0  0  0  0  0
  146.2327  138.7711  150.7841 H   0  0  0  0  0  0  0  0  0  0  0  0
  146.0830  139.2382  156.3275 H   0  0  0  0  0  0  0  0  0  0  0  0
  144.7990  138.5237  155.3797 H   0  0  0  0  0  0  0  0  0  0  0  0
  145.1842  140.2333  155.2035 H   0  0  0  0  0  0  0  0  0  0  0  0
  147.9307  137.7047  155.5660 H   0  0  0  0  0  0  0  0  0  0  0  0
  148.0653  137.2569  153.8746 H   0  0  0  0  0  0  0  0  0  0  0  0
  146.6665  136.7679  154.8329 H   0  0  0  0  0  0  0  0  0  0  0  0
  148.3258  139.8228  153.2085 H   0  0  0  0  0  0  0  0  0  0  0  0
  147.2689  140.9894  153.9343 H   0  0  0  0  0  0  0  0  0  0  0  0
  148.4645  139.4544  156.0001 H   0  0  0  0  0  0  0  0  0  0  0  0
  153.1400  144.9257  157.9125 H   0  0  0  0  0  0  0  0  0  0  0  0
  151.7995  144.3192  156.9863 H   0  0  0  0  0  0  0  0  0  0  0  0
  151.0667  146.1754  158.5019 H   0  0  0  0  0  0  0  0  0  0  0  0
  150.2597  144.6871  158.9630 H   0  0  0  0  0  0  0  0  0  0  0  0
  152.4878  144.1837  161.8004 H   0  0  0  0  0  0  0  0  0  0  0  0
  151.1193  143.4833  160.9554 H   0  0  0  0  0  0  0  0  0  0  0  0
  153.2588  142.2651  160.3945 H   0  0  0  0  0  0  0  0  0  0  0  0
  153.9761  143.7529  159.8477 H   0  0  0  0  0  0  0  0  0  0  0  0
  151.0928  138.9545  159.3866 H   0  0  0  0  0  0  0  0  0  0  0  0
  145.2738  139.4812  152.8656 H   0  0  0  0  0  0  0  0  0  0  0  0
  1  2  1  0  0  0  0
  1 24  1  0  0  0  0
  1 25  1  0  0  0  0
  1 26  1  0  0  0  0
  2  3  1  0  0  0  0
  2  4  1  0  0  0  0
  2 48  1  0  0  0  0
  3 27  1  0  0  0  0
  3 28  1  0  0  0  0
  3 29  1  0  0  0  0
  4  5  1  0  0  0  0
  4  6  1  0  0  0  0
  4  7  1  0  0  0  0
  5 30  1  0  0  0  0
  5 31  1  0  0  0  0
  5 32  1  0  0  0  0
  6 33  1  0  0  0  0
  6 34  1  0  0  0  0
  6 35  1  0  0  0  0
  7  8  1  0  0  0  0
  7 36  1  0  0  0  0
  7 37  1  0  0  0  0
  8  9  1  0  0  0  0
  8 38  1  0  0  0  0
  9 10  2  0  0  0  0
  9 11  1  0  0  0  0
 11 22  1  0  0  0  0
 11 12  2  0  0  0  0
 12 13  1  0  0  0  0
 13 14  1  0  0  0  0
 13 20  2  0  0  0  0
 14 19  1  0  0  0  0
 14 15  1  0  0  0  0
 15 16  1  0  0  0  0
 15 39  1  0  0  0  0
 15 40  1  0  0  0  0
 16 17  1  0  0  0  0
 16 41  1  0  0  0  0
 16 42  1  0  0  0  0
 17 18  1  0  0  0  0
 18 19  1  0  0  0  0
 18 43  1  0  0  0  0
 18 44  1  0  0  0  0
 19 45  1  0  0  0  0
 19 46  1  0  0  0  0
 20 21  1  0  0  0  0
 21 22  2  0  0  0  0
 21 47  1  0  0  0  0
 22 23  1  0  0  0  0
M  CHG  1   2   1
M  END
> <s_m_source_file>
AV-unprocessed.smi

> <i_m_source_file_index>
1943

> <i_lp_mmshare_version>
43012

> <i_f3d_flags>
0

> <s_epik_input>
W0NIM11OKFtDSDNdKUMoW0NIM10pKFtDSDNdKVtDSDJdW05IXUMoPU8pYzFuYyhuW2NIXWMxQ2wpTjJbQ0gyXVtDSDJdT1tDSDJdW0NIMl0y

> <s_epik_cmdline>
J2VwaWtfcHl0aG9uJywgJy1waCcsICc3LjAnLCAnLXRuJywgJzgnLCAnLW1hJywgJzIwMCcsICctbWV0YWxfYmluZGluZycsICctaW1hZScsICc8aW5maWxlLm1hZT4nLCAnLW9tYWUnLCAnPG91dGZpbGUubWFlPic=

> <r_lp_tautomer_probability>
1

> <r_epik_Ionization_Penalty>
0.00747112

> <r_epik_Ionization_Penalty_Charging>
0.00734137

> <r_epik_Ionization_Penalty_Neutral>
0.000129757

> <r_epik_State_Penalty>
0.00547931

> <r_epik_Charging_Adjusted_Penalty>
0.0128207

> <i_epik_Tot_Q>
1

> <i_epik_Tot_abs_Q>
1

> <r_epik_Metal_State_Penalty>
0.0979204

> <b_epik_Metal_Only>
0

> <s_lp_Force_Field>
OPLS_2005

> <r_lp_Energy>
30.7364

> <b_lp_Chiralities_Consistent>
1

> <s_lp_Variant>
AV-unprocessed.smi:1943-1

> <Gold.Version>
5.8.1

> <Gold.Id.Protein>
6NUR|6NUR_protein|mol2

> <Gold.PLP.Fitness>
44.1362

> <Gold.PLP.PLP>
-38.5752

> <Gold.PLP.part.hbond>
-3.0000

> <Gold.PLP.part.metal>
0.0000

> <Gold.PLP.part.buried>
-1.6917

> <Gold.PLP.part.nonpolar>
-33.7223

> <Gold.PLP.part.repulsive>
0.4636

> <Gold.PLP.ligand.clash>
0.0000

> <Gold.PLP.ligand.torsion>
0.9429

> <Gold.PLP.Chemscore.Hbond>
2.3567

> <Gold.PLP.Chemscore.CHOScore>
0.0000

> <Gold.PLP.Chemscore.Metal>
0.0000

> <Gold.Chemscore.Hbonds>
donor molecule, donor type, donor heavy atom, donor atom, acceptor molecule, acceptor atom, score
      L1  H     2    48       P1 10175  2.00
      P1  H  7989  7998       L1    10  0.18
      P1  H  8011  8017       L1    10  0.17

> <Gold.PLP.Chemscore.Internal.Correction>
0.3767

> <Gold.Rescore>
     Score         DG    S(hbond)    S(metal)    S(lipo)     H(rot)  DE(clash)    DE(int)     intcor
     13.84     -16.50       1.41        0.00      85.13       1.43       0.19       2.46       ----

> <Gold.Chemscore.Fitness>
13.8437

> <Gold.Chemscore.DG>
-16.4975

> <Gold.Chemscore.ZeroCoef>
-5.4800

> <Gold.Chemscore.Hbond>
1.4126

> <Gold.Chemscore.Metal>
0.0000

> <Gold.Chemscore.Lipo>
85.1255

> <Gold.Chemscore.Internal_Hbond>
0.0000

> <Gold.Chemscore.DEClash>
0.1904

> <Gold.Chemscore.DEInternal>
2.4634

> <Gold.Chemscore.Rot>
1.4298

> <Gold.Chemscore.Internal.Correction>
   9.000000E+99

> <Gold.Chemscore.Hbonds>
donor molecule, donor type, donor heavy atom, donor atom, acceptor molecule, acceptor atom, score
      L1  H     2    48       P1 10175  0.99
      P1  H  7989  7998       L1    10  0.09
      P1  H  8011  8017       L1    10  0.17

> <Gold.Chemscore.Hbond.Weighted>
-4.7182

> <Gold.Chemscore.Metal.Weighted>
-0.0000

> <Gold.Chemscore.Lipo.Weighted>
-9.9597

> <Gold.Chemscore.Internal_Hbond.Weighted>
0.0000

> <Gold.Chemscore.DEClash.Weighted>
0.1904

> <Gold.Chemscore.DEInternal.Weighted>
2.4634

> <Gold.Chemscore.Rot.Weighted>
3.6604

> <Gold.Chemscore.Internal.Correction.Weighted>
   9.000000E+99

> <Gold.Protein.RotatedTorsions>
[ 6907 6896 6895 6894 ] final -157.56 input  -60.11 | X-H torsion
[ 7974 7965 7964 7962 ] final   27.76 input  175.53 | X-H torsion
[ 8008 7997 7996 7995 ] final -113.12 input   59.86 | X-H torsion
[ 10167 10162 10161 10158 ] final   -6.40 input  -65.29 | X-H torsion
[ 10718 10713 10712 10709 ] final  -20.99 input   66.30 | X-H torsion
[ 10763 10752 10751 10750 ] final -140.55 input  -60.55 | X-H torsion
[ 11005 11000 10999 10996 ] final  134.36 input  -57.11 | X-H torsion

> <Gold.Protein.ActiveResidues>
 VAL166  LYS551  ARG553  GLY616  TRP617  ASP618  TYR619  PRO620  LYS621  CYS622 
 ASP623  PHE694  ASN695  SER759  ASP760  ASP761  ALA762  ILE779  LEU786  VAL792 
 PHE793  MET794  SER795  GLU796  ALA797  LYS798  CYS799  TRP800  GLU811  SER814 

> <Gold.Protein.RotatedAtoms>
  151.3048  133.4106  159.2642 H   0  0  0  0  0  0  0  0  0  0  0  0  # atno 6907 bound_to 6896
  151.0165  134.9437  159.8046 H   0  0  0  0  0  0  0  0  0  0  0  0  # atno 6908 bound_to 6896
  152.5314  134.3011  159.9131 H   0  0  0  0  0  0  0  0  0  0  0  0  # atno 6909 bound_to 6896
  146.1766  139.7148  142.8930 H   0  0  0  0  0  0  0  0  0  0  0  0  # atno 7974 bound_to 7965
  155.0157  140.0393  157.2417 H   0  0  0  0  0  0  0  0  0  0  0  0  # atno 8008 bound_to 7997
  154.7421  140.2751  155.6341 H   0  0  0  0  0  0  0  0  0  0  0  0  # atno 8009 bound_to 7997
  156.2866  140.2663  156.2152 H   0  0  0  0  0  0  0  0  0  0  0  0  # atno 8010 bound_to 7997
  140.6995  143.6198  150.8623 H   0  0  0  0  0  0  0  0  0  0  0  0  # atno 10167 bound_to 10162
  156.5242  130.4639  149.6581 H   0  0  0  0  0  0  0  0  0  0  0  0  # atno 10718 bound_to 10713
  154.8575  135.3550  154.5725 H   0  0  0  0  0  0  0  0  0  0  0  0  # atno 10763 bound_to 10752
  153.6338  135.7001  153.5271 H   0  0  0  0  0  0  0  0  0  0  0  0  # atno 10764 bound_to 10752
  153.3028  135.4201  155.1227 H   0  0  0  0  0  0  0  0  0  0  0  0  # atno 10765 bound_to 10752
  139.9910  134.9515  156.9856 H   0  0  0  0  0  0  0  0  0  0  0  0  # atno 11005 bound_to 11000
  145.4193  141.0405  143.2973 LP  0  0  0  0  0  0  0  0  0  0  0  0  # atno 17320 bound_to 7965
  144.8247  139.5731  143.6971 LP  0  0  0  0  0  0  0  0  0  0  0  0  # atno 17321 bound_to 7965
  139.9919  143.5838  152.2907 LP  0  0  0  0  0  0  0  0  0  0  0  0  # atno 17342 bound_to 10162
  139.6496  144.7660  151.2175 LP  0  0  0  0  0  0  0  0  0  0  0  0  # atno 17343 bound_to 10162
  156.3120  130.7234  151.2129 LP  0  0  0  0  0  0  0  0  0  0  0  0  # atno 17370 bound_to 10713
  157.7432  131.0478  150.4965 LP  0  0  0  0  0  0  0  0  0  0  0  0  # atno 17371 bound_to 10713
  140.4908  134.1195  155.7232 LP  0  0  0  0  0  0  0  0  0  0  0  0  # atno 17394 bound_to 11000
  141.1566  133.8871  157.1961 LP  0  0  0  0  0  0  0  0  0  0  0  0  # atno 17395 bound_to 11000

$$$$
