#       Name:                AV-unprocessed.smi:2427
#       Creating user name   scv26
#       Creation time:       Fri Mar 27 13:21:10 2020


#       File generated by GOLD software.
#

@<TRIPOS>MOLECULE
AV-unprocessed.smi:2427
    43    44     1
SMALL
NO_CHARGES


@<TRIPOS>ATOM
      1 ****        -0.5337  -0.2495   1.2727 O.2            1 S1                 0.0000
      2 ****         0.2270  -1.0486   0.7248 C.2            1 S1                 0.0000
      3 ****         1.7487  -0.8845   0.8409 C.3            1 S1                 0.0000
      4 ****         2.1623   0.5185   1.0107 N.am           1 S1                 0.0000
      5 ****         2.4417   0.9514   2.3220 C.2            1 S1                 0.0000
      6 ****         2.8214   2.2156   2.5930 C.2            1 S1                 0.0000
      7 ****         3.0972   2.6450   3.9465 N.pl3          1 S1                 1.0000
      8 ****         3.4152   3.8138   4.1394 O.2            1 S1                 0.0000
      9 ****         3.0063   1.8306   4.8603 O.2            1 S1                -1.0000
     10 ****         2.9406   3.1369   1.4794 C.2            1 S1                 0.0000
     11 ****         2.6702   2.7303   0.2235 C.2            1 S1                 0.0000
     12 ****         2.2506   1.3558  -0.0681 C.2            1 S1                 0.0000
     13 ****         1.9938   0.9799  -1.2122 O.2            1 S1                 0.0000
     14 ****        -0.1993  -2.1028   0.0130 N.am           1 S1                 0.0000
     15 ****        -1.5947  -2.4367  -0.2527 C.3            1 S1                 0.0000
     16 ****        -2.0666  -1.8770  -1.6060 C.3            1 S1                 0.0000
     17 ****        -2.1290  -0.3516  -1.6949 C.3            1 S1                 0.0000
     18 ****        -3.1254  -0.1559  -2.8141 C.3            1 S1                 0.0000
     19 ****        -4.1235  -1.2801  -2.5479 C.3            1 S1                 0.0000
     20 ****        -3.3957  -2.3094  -1.8808 O.3            1 S1                 0.0000
     21 ****         2.0926  -1.4930   1.6784 H              1 S1                 0.0000
     22 ****         2.2327  -1.3119  -0.0396 H              1 S1                 0.0000
     23 ****         2.3163   0.1927   3.0811 H              1 S1                 0.0000
     24 ****         3.2467   4.1596   1.6446 H              1 S1                 0.0000
     25 ****         2.7647   3.4336  -0.5910 H              1 S1                 0.0000
     26 ****         0.4967  -2.7105  -0.3942 H              1 S1                 0.0000
     27 ****        -1.6772  -3.5236  -0.2626 H              1 S1                 0.0000
     28 ****        -2.2432  -2.0900   0.5535 H              1 S1                 0.0000
     29 ****        -1.4298  -2.2562  -2.4072 H              1 S1                 0.0000
     30 ****        -2.5209   0.0730  -0.7696 H              1 S1                 0.0000
     31 ****        -1.1600   0.1049  -1.8990 H              1 S1                 0.0000
     32 ****        -3.5856   0.8325  -2.8133 H              1 S1                 0.0000
     33 ****        -2.6376  -0.3061  -3.7782 H              1 S1                 0.0000
     34 ****        -4.9193  -0.9362  -1.8861 H              1 S1                 0.0000
     35 ****        -4.5827  -1.6493  -3.4652 H              1 S1                 0.0000
     36 ****        -0.1613   0.5148   1.7991 LP             1 S1                 0.0000
     37 ****        -1.5236  -0.3652   1.1910 LP             1 S1                 0.0000
     38 ****         3.4793   4.4482   3.3690 LP             1 S1                 0.0000
     39 ****         3.6103   4.1323   5.0670 LP             1 S1                 0.0000
     40 ****         1.7100   0.0351  -1.3763 LP             1 S1                 0.0000
     41 ****         2.0691   1.6193  -1.9774 LP             1 S1                 0.0000
     42 ****        -3.8542  -2.5332  -1.0208 LP             1 S1                 0.0000
     43 ****        -3.3645  -3.1218  -2.4631 LP             1 S1                 0.0000
@<TRIPOS>BOND
    1    1    2 2     
    2    2    3 1     
    3    2   14 am    
    4    3    4 1     
    5    3   21 1     
    6    3   22 1     
    7    4   12 am    
    8    4    5 1     
    9    5    6 2     
   10    5   23 1     
   11    6    7 1     
   12    6   10 1     
   13    7    8 2     
   14    7    9 1     
   15   10   11 2     
   16   10   24 1     
   17   11   12 1     
   18   11   25 1     
   19   12   13 2     
   20   14   15 1     
   21   14   26 1     
   22   15   16 1     
   23   15   27 1     
   24   15   28 1     
   25   16   20 1     
   26   16   17 1     
   27   16   29 1     
   28   17   18 1     
   29   17   30 1     
   30   17   31 1     
   31   18   19 1     
   32   18   32 1     
   33   18   33 1     
   34   19   20 1     
   35   19   34 1     
   36   19   35 1     
   37    1   36 1     
   38    1   37 1     
   39    8   38 1     
   40    8   39 1     
   41   13   40 1     
   42   13   41 1     
   43   20   42 1     
   44   20   43 1     
@<TRIPOS>SUBSTRUCTURE
      1 S1             1
@<TRIPOS>SET
LONE_PAIRS      STATIC     ATOMS    <user>   **** ""
9 36 37 38 39 9 40 41 42 43
DONOR_HYDROGENS      STATIC     ATOMS    <user>   **** ""
1 26
ATOM$BLUE        STATIC     ATOMS    COLORGROUP SYSTEM
9 36 37 38 39 9 40 41 42 43
ATOM$RED        STATIC     ATOMS    COLORGROUP SYSTEM
1 26
