#       Name:                AV-unprocessed.smi:2055
#       Creating user name   scv26
#       Creation time:       Fri Mar 27 11:00:12 2020


#       File generated by GOLD software.
#

@<TRIPOS>MOLECULE
AV-unprocessed.smi:2055
    51    52     1
SMALL
NO_CHARGES


@<TRIPOS>ATOM
      1 ****        -3.2981  -1.3449  -0.3801 C.3            1 S1                 0.0000
      2 ****        -3.5012  -0.5909  -1.7052 C.3            1 S1                 0.0000
      3 ****        -4.1424  -1.4997  -2.7697 C.3            1 S1                 0.0000
      4 ****        -4.7921  -0.7208  -3.7521 O.3            1 S1                 0.0000
      5 ****        -2.2081  -0.1153  -2.1894 N.am           1 S1                 0.0000
      6 ****        -1.6157   1.0273  -1.8163 C.2            1 S1                 0.0000
      7 ****        -2.1029   1.8332  -1.0236 O.2            1 S1                 0.0000
      8 ****        -0.4140   1.1730  -2.3914 N.am           1 S1                 0.0000
      9 ****         0.5048   2.2788  -2.1370 C.3            1 S1                 0.0000
     10 ****         1.2707   2.2009  -0.8202 C.ar           1 S1                 0.0000
     11 ****         1.9804   3.3309  -0.3705 C.ar           1 S1                 0.0000
     12 ****         2.6858   3.2435   0.8432 C.ar           1 S1                 0.0000
     13 ****         2.7158   2.1291   1.6026 N.ar           1 S1                 0.0000
     14 ****         2.0395   1.0316   1.1866 C.ar           1 S1                 0.0000
     15 ****         2.0891  -0.0980   2.0332 N.3            1 S1                 0.0000
     16 ****         1.1991  -1.2228   1.7589 C.3            1 S1                 0.0000
     17 ****         1.1483  -2.1745   2.9658 C.3            1 S1                 0.0000
     18 ****         2.4677  -2.5810   3.3122 O.3            1 S1                 0.0000
     19 ****         3.2752  -1.4742   3.6996 C.3            1 S1                 0.0000
     20 ****         3.4089  -0.4882   2.5264 C.3            1 S1                 0.0000
     21 ****         1.3101   1.0290  -0.0295 C.ar           1 S1                 0.0000
     22 ****        -4.2473  -1.7084   0.0144 H              1 S1                 0.0000
     23 ****        -2.8563  -0.6992   0.3799 H              1 S1                 0.0000
     24 ****        -2.6400  -2.2049  -0.5090 H              1 S1                 0.0000
     25 ****        -4.1653   0.2544  -1.5125 H              1 S1                 0.0000
     26 ****        -3.4086  -2.1606  -3.2331 H              1 S1                 0.0000
     27 ****        -4.9013  -2.1371  -2.3146 H              1 S1                 0.0000
     28 ****        -5.2032  -1.3019  -4.3739 H              1 S1                 0.0000
     29 ****        -1.7257  -0.7073  -2.8496 H              1 S1                 0.0000
     30 ****        -0.0988   0.4561  -3.0283 H              1 S1                 0.0000
     31 ****         1.2301   2.3062  -2.9504 H              1 S1                 0.0000
     32 ****        -0.0405   3.2234  -2.1797 H              1 S1                 0.0000
     33 ****         1.9849   4.2476  -0.9418 H              1 S1                 0.0000
     34 ****         3.2396   4.0923   1.2160 H              1 S1                 0.0000
     35 ****         0.1904  -0.8655   1.5471 H              1 S1                 0.0000
     36 ****         1.5537  -1.7563   0.8761 H              1 S1                 0.0000
     37 ****         0.6675  -1.6945   3.8200 H              1 S1                 0.0000
     38 ****         0.5562  -3.0567   2.7225 H              1 S1                 0.0000
     39 ****         2.8429  -0.9823   4.5726 H              1 S1                 0.0000
     40 ****         4.2588  -1.8392   3.9957 H              1 S1                 0.0000
     41 ****         3.9649  -0.9514   1.7103 H              1 S1                 0.0000
     42 ****         3.9868   0.3751   2.8559 H              1 S1                 0.0000
     43 ****         0.7894   0.1442  -0.3601 H              1 S1                 0.0000
     44 ****        -4.1235  -0.1438  -4.2212 LP             1 S1                 0.0000
     45 ****        -5.4856  -0.1440  -3.3205 LP             1 S1                 0.0000
     46 ****        -2.9971   1.6532  -0.6138 LP             1 S1                 0.0000
     47 ****        -1.6045   2.6679  -0.7895 LP             1 S1                 0.0000
     48 ****         3.2299   2.1133   2.4602 LP             1 S1                 0.0000
     49 ****         1.6365   0.3182   2.8218 LP             1 S1                 0.0000
     50 ****         2.8873  -3.0274   2.5218 LP             1 S1                 0.0000
     51 ****         2.4182  -3.2281   4.0730 LP             1 S1                 0.0000
@<TRIPOS>BOND
    1    1    2 1     
    2    1   22 1     
    3    1   23 1     
    4    1   24 1     
    5    2    3 1     
    6    2    5 1     
    7    2   25 1     
    8    3    4 1     
    9    3   26 1     
   10    3   27 1     
   11    4   28 1     
   12    5    6 am    
   13    5   29 1     
   14    6    7 2     
   15    6    8 am    
   16    8    9 1     
   17    8   30 1     
   18    9   10 1     
   19    9   31 1     
   20    9   32 1     
   21   10   21 ar    
   22   10   11 ar    
   23   11   12 ar    
   24   11   33 1     
   25   12   13 ar    
   26   12   34 1     
   27   13   14 ar    
   28   14   15 1     
   29   14   21 ar    
   30   15   20 1     
   31   15   16 1     
   32   16   17 1     
   33   16   35 1     
   34   16   36 1     
   35   17   18 1     
   36   17   37 1     
   37   17   38 1     
   38   18   19 1     
   39   19   20 1     
   40   19   39 1     
   41   19   40 1     
   42   20   41 1     
   43   20   42 1     
   44   21   43 1     
   45    4   44 1     
   46    4   45 1     
   47    7   46 1     
   48    7   47 1     
   49   13   48 1     
   50   15   49 1     
   51   18   50 1     
   52   18   51 1     
@<TRIPOS>SUBSTRUCTURE
      1 S1             1
@<TRIPOS>SET
LONE_PAIRS      STATIC     ATOMS    <user>   **** ""
8 44 45 46 47 48 49 50 51
DONOR_HYDROGENS      STATIC     ATOMS    <user>   **** ""
3 28 29 30
ATOM$BLUE        STATIC     ATOMS    COLORGROUP SYSTEM
8 44 45 46 47 48 49 50 51
ATOM$RED        STATIC     ATOMS    COLORGROUP SYSTEM
3 28 29 30
