#       Name:                AV-unprocessed.smi:2499
#       Creating user name   scv26
#       Creation time:       Fri Mar 27 13:46:46 2020


#       File generated by GOLD software.
#

@<TRIPOS>MOLECULE
AV-unprocessed.smi:2499
    32    33     1
SMALL
NO_CHARGES


@<TRIPOS>ATOM
      1 ****        -2.5810  -1.6000   0.8984 C.3            1 S1                 0.0000
      2 ****        -1.6368  -0.6804   0.1120 C.3            1 S1                 0.0000
      3 ****        -0.3255  -0.7026   0.7543 N.am           1 S1                 0.0000
      4 ****         0.6094   0.2568   0.6862 C.2            1 S1                 0.0000
      5 ****         0.3951   1.2820   0.0354 O.2            1 S1                 0.0000
      6 ****         1.7354  -0.0320   1.3771 N.pl3          1 S1                -1.0000
      7 ****         2.7552   0.8414   1.3879 C.2            1 S1                 0.0000
      8 ****         3.0490   1.7025   2.3637 N.2            1 S1                 0.0000
      9 ****         4.1783   2.3855   1.9394 C.2            1 S1                 0.0000
     10 ****         4.5284   1.8951   0.7112 C.2            1 S1                 0.0000
     11 ****         3.6403   0.9185   0.3540 O.3            1 S1                 0.0000
     12 ****        -1.5996  -1.0722  -1.3562 C.3            1 S1                 0.0000
     13 ****        -1.4260  -0.0380  -2.4439 C.3            1 S1                 0.0000
     14 ****        -2.7513  -0.7441  -2.2773 C.3            1 S1                 0.0000
     15 ****        -3.5906  -1.5706   0.4878 H              1 S1                 0.0000
     16 ****        -2.6439  -1.2972   1.9441 H              1 S1                 0.0000
     17 ****        -2.2406  -2.6358   0.8709 H              1 S1                 0.0000
     18 ****        -2.0394   0.3318   0.1828 H              1 S1                 0.0000
     19 ****        -0.1033  -1.5214   1.3010 H              1 S1                 0.0000
     20 ****         4.6388   3.1563   2.5391 H              1 S1                 0.0000
     21 ****         5.3200   2.1140   0.0106 H              1 S1                 0.0000
     22 ****        -1.1210  -2.0334  -1.5351 H              1 S1                 0.0000
     23 ****        -1.3764   1.0083  -2.1491 H              1 S1                 0.0000
     24 ****        -0.8117  -0.3104  -3.2994 H              1 S1                 0.0000
     25 ****        -3.0237  -1.4867  -3.0245 H              1 S1                 0.0000
     26 ****        -3.5788  -0.1669  -1.8697 H              1 S1                 0.0000
     27 ****        -0.4759   1.3983  -0.4419 LP             1 S1                 0.0000
     28 ****         1.0923   1.9970  -0.0152 LP             1 S1                 0.0000
     29 ****         1.8084  -0.8940   1.8787 LP             1 S1                 0.0000
     30 ****         2.5559   1.8292   3.2244 LP             1 S1                 0.0000
     31 ****         3.1692   1.1661  -0.4927 LP             1 S1                 0.0000
     32 ****         4.1112   0.0450   0.2302 LP             1 S1                 0.0000
@<TRIPOS>BOND
    1    1    2 1     
    2    1   15 1     
    3    1   16 1     
    4    1   17 1     
    5    2    3 1     
    6    2   12 1     
    7    2   18 1     
    8    3   19 1     
    9    3    4 am    
   10    4    6 1     
   11    4    5 2     
   12    6    7 1     
   13    7   11 1     
   14    7    8 2     
   15    8    9 1     
   16    9   20 1     
   17    9   10 2     
   18   10   21 1     
   19   10   11 1     
   20   12   14 1     
   21   12   13 1     
   22   12   22 1     
   23   13   14 1     
   24   13   23 1     
   25   13   24 1     
   26   14   25 1     
   27   14   26 1     
   28    5   27 1     
   29    5   28 1     
   30    6   29 1     
   31    8   30 1     
   32   11   31 1     
   33   11   32 1     
@<TRIPOS>SUBSTRUCTURE
      1 S1             1
@<TRIPOS>SET
LONE_PAIRS      STATIC     ATOMS    <user>   **** ""
6 27 28 29 30 31 32
DONOR_HYDROGENS      STATIC     ATOMS    <user>   **** ""
1 19
ATOM$BLUE        STATIC     ATOMS    COLORGROUP SYSTEM
6 27 28 29 30 31 32
ATOM$RED        STATIC     ATOMS    COLORGROUP SYSTEM
1 19
