AV-unprocessed.smi:224|AV-procd|sdf|1721|dock8
  -GOLD-   2262020203D 1   1.00000     0.00000
 Structure written by MMmdl.
 56 59  0  0  0  0  0  0  0  0  2 V2000
  144.1754  132.1719  150.7747 C   0  0  0  0  0  0  0  0  0  0  0  0
  145.5868  132.4848  151.2887 C   0  0  2  0  0  0  0  0  0  0  0  0
  146.4662  132.4516  150.1822 O   0  0  0  0  0  0  0  0  0  0  0  0
  146.0521  131.4601  152.3437 C   0  0  0  0  0  0  0  0  0  0  0  0
  147.4972  131.6035  152.6833 N   0  3  1  0  0  0  0  0  0  0  0  0
  147.8049  132.9894  153.1389 C   0  0  0  0  0  0  0  0  0  0  0  0
  149.2979  133.1826  153.4505 C   0  0  0  0  0  0  0  0  0  0  0  0
  149.7733  132.1672  154.3830 N   0  0  0  0  0  0  0  0  0  0  0  0
  149.6997  132.3949  155.7220 C   0  0  0  0  0  0  0  0  0  0  0  0
  150.0961  131.4298  156.5942 N   0  0  0  0  0  0  0  0  0  0  0  0
  150.0387  131.6408  157.9121 C   0  0  0  0  0  0  0  0  0  0  0  0
  149.6188  132.7255  158.5645 N   0  0  0  0  0  0  0  0  0  0  0  0
  149.2034  133.6939  157.6993 C   0  0  0  0  0  0  0  0  0  0  0  0
  149.2125  133.6135  156.2773 C   0  0  0  0  0  0  0  0  0  0  0  0
  148.7090  134.7914  155.7374 N   0  0  0  0  0  0  0  0  0  0  0  0
  148.4301  135.5281  156.7778 C   0  0  0  0  0  0  0  0  0  0  0  0
  148.6860  134.9428  157.9973 N   0  0  0  0  0  0  0  0  0  0  0  0
  148.4667  135.5334  159.3096 C   0  0  0  0  0  0  0  0  0  0  0  0
  147.4325  134.7690  160.1714 C   0  0  2  0  0  0  0  0  0  0  0  0
  146.2305  134.6375  159.4339 O   0  0  0  0  0  0  0  0  0  0  0  0
  147.1296  135.4830  161.4910 C   0  0  0  0  0  0  0  0  0  0  0  0
  147.7879  134.5947  162.5398 C   0  0  0  0  0  0  0  0  0  0  0  0
  147.6058  133.2965  162.0042 O   0  0  0  0  0  0  0  0  0  0  0  0
  147.9089  133.3722  160.6188 C   0  0  0  0  0  0  0  0  0  0  0  0
  149.5202  130.8039  153.9341 C   0  0  0  0  0  0  0  0  0  0  0  0
  148.0237  130.5642  153.6266 C   0  0  2  0  0  0  0  0  0  0  0  0
  147.8747  129.1267  153.0856 C   0  0  0  0  0  0  0  0  0  0  0  0
  143.4490  132.1942  151.5875 H   0  0  0  0  0  0  0  0  0  0  0  0
  144.1277  131.1846  150.3134 H   0  0  0  0  0  0  0  0  0  0  0  0
  143.8566  132.9028  150.0307 H   0  0  0  0  0  0  0  0  0  0  0  0
  145.5844  133.4955  151.6951 H   0  0  0  0  0  0  0  0  0  0  0  0
  147.1812  131.8646  150.3734 H   0  0  0  0  0  0  0  0  0  0  0  0
  145.4612  131.5616  153.2554 H   0  0  0  0  0  0  0  0  0  0  0  0
  145.8147  130.4706  151.9616 H   0  0  0  0  0  0  0  0  0  0  0  0
  147.5112  133.7156  152.3824 H   0  0  0  0  0  0  0  0  0  0  0  0
  147.2109  133.2121  154.0262 H   0  0  0  0  0  0  0  0  0  0  0  0
  149.8783  133.0970  152.5311 H   0  0  0  0  0  0  0  0  0  0  0  0
  149.4866  134.1863  153.8335 H   0  0  0  0  0  0  0  0  0  0  0  0
  150.3772  130.8244  158.5330 H   0  0  0  0  0  0  0  0  0  0  0  0
  148.0199  136.5234  156.6841 H   0  0  0  0  0  0  0  0  0  0  0  0
  149.4243  135.5785  159.8301 H   0  0  0  0  0  0  0  0  0  0  0  0
  148.1497  136.5672  159.1676 H   0  0  0  0  0  0  0  0  0  0  0  0
  146.0955  133.7213  159.2448 H   0  0  0  0  0  0  0  0  0  0  0  0
  147.4995  136.5082  161.5263 H   0  0  0  0  0  0  0  0  0  0  0  0
  146.0555  135.5177  161.6810 H   0  0  0  0  0  0  0  0  0  0  0  0
  148.8535  134.8129  162.6269 H   0  0  0  0  0  0  0  0  0  0  0  0
  147.3309  134.6939  163.5247 H   0  0  0  0  0  0  0  0  0  0  0  0
  147.4494  132.5533  160.0636 H   0  0  0  0  0  0  0  0  0  0  0  0
  148.9895  133.2728  160.5158 H   0  0  0  0  0  0  0  0  0  0  0  0
  150.1142  130.6329  153.0354 H   0  0  0  0  0  0  0  0  0  0  0  0
  149.8646  130.0720  154.6631 H   0  0  0  0  0  0  0  0  0  0  0  0
  147.4653  130.6436  154.5611 H   0  0  0  0  0  0  0  0  0  0  0  0
  148.4208  128.4206  153.7120 H   0  0  0  0  0  0  0  0  0  0  0  0
  148.2723  129.0393  152.0739 H   0  0  0  0  0  0  0  0  0  0  0  0
  146.8430  128.7791  153.0772 H   0  0  0  0  0  0  0  0  0  0  0  0
  148.0051  131.4625  151.8222 H   0  0  0  0  0  0  0  0  0  0  0  0
  1  2  1  0  0  0  0
  1 28  1  0  0  0  0
  1 29  1  0  0  0  0
  1 30  1  0  0  0  0
  2  3  1  0  0  0  0
  2  4  1  0  0  0  0
  2 31  1  0  0  0  0
  3 32  1  0  0  0  0
  4  5  1  0  0  0  0
  4 33  1  0  0  0  0
  4 34  1  0  0  0  0
  5 26  1  0  0  0  0
  5  6  1  0  0  0  0
  5 56  1  0  0  0  0
  6  7  1  0  0  0  0
  6 35  1  0  0  0  0
  6 36  1  0  0  0  0
  7  8  1  0  0  0  0
  7 37  1  0  0  0  0
  7 38  1  0  0  0  0
  8  9  1  0  0  0  0
  8 25  1  0  0  0  0
  9 14  1  0  0  0  0
  9 10  2  0  0  0  0
 10 11  1  0  0  0  0
 11 12  2  0  0  0  0
 11 39  1  0  0  0  0
 12 13  1  0  0  0  0
 13 17  1  0  0  0  0
 13 14  2  0  0  0  0
 14 15  1  0  0  0  0
 15 16  2  0  0  0  0
 16 17  1  0  0  0  0
 16 40  1  0  0  0  0
 17 18  1  0  0  0  0
 18 19  1  0  0  0  0
 18 41  1  0  0  0  0
 18 42  1  0  0  0  0
 19 24  1  0  0  0  0
 19 20  1  0  0  0  0
 19 21  1  0  0  0  0
 20 43  1  0  0  0  0
 21 22  1  0  0  0  0
 21 44  1  0  0  0  0
 21 45  1  0  0  0  0
 22 23  1  0  0  0  0
 22 46  1  0  0  0  0
 22 47  1  0  0  0  0
 23 24  1  0  0  0  0
 24 48  1  0  0  0  0
 24 49  1  0  0  0  0
 25 26  1  0  0  0  0
 25 50  1  0  0  0  0
 25 51  1  0  0  0  0
 26 27  1  0  0  0  0
 26 52  1  0  0  0  0
 27 53  1  0  0  0  0
 27 54  1  0  0  0  0
 27 55  1  0  0  0  0
M  CHG  1   5   1
M  END
> <s_m_source_file>
AV-unprocessed.smi

> <i_m_source_file_index>
224

> <i_lp_mmshare_version>
43012

> <i_f3d_flags>
0

> <s_epik_input>
W0NIM11bQ0BIXShbT0hdKVtDSDJdTjFbQ0gyXVtDSDJdTihbQ0gyXVtDQEhdMVtDSDNdKWMobltjSF1uMiljKGMyMyluW2NIXW4zW0NIMl1bQ0BAXTQoW09IXSlbQ0gyXVtDSDJdT1tDSDJdNA==

> <s_epik_cmdline>
J2VwaWtfcHl0aG9uJywgJy1waCcsICc3LjAnLCAnLXRuJywgJzgnLCAnLW1hJywgJzIwMCcsICctbWV0YWxfYmluZGluZycsICctaW1hZScsICc8aW5maWxlLm1hZT4nLCAnLW9tYWUnLCAnPG91dGZpbGUubWFlPic=

> <r_lp_tautomer_probability>
1

> <r_epik_Ionization_Penalty>
0.00516958

> <r_epik_Ionization_Penalty_Charging>
0.00509693

> <r_epik_Ionization_Penalty_Neutral>
7.26542e-05

> <r_epik_State_Penalty>
-0

> <r_epik_Charging_Adjusted_Penalty>
0.00509693

> <i_epik_Tot_Q>
1

> <i_epik_Tot_abs_Q>
1

> <r_epik_Metal_State_Penalty>
-0

> <b_epik_Metal_Only>
0

> <s_lp_Force_Field>
OPLS_2005

> <r_lp_Energy>
50.3432

> <b_lp_Chiralities_Consistent>
1

> <s_lp_Variant>
AV-unprocessed.smi:224-15

> <Gold.Version>
5.8.1

> <Gold.Id.Protein>
6NUR|6NUR_protein|mol2

> <Gold.PLP.Fitness>
46.0720

> <Gold.PLP.PLP>
-37.4375

> <Gold.PLP.part.hbond>
-3.0000

> <Gold.PLP.part.metal>
0.0000

> <Gold.PLP.part.buried>
-7.1965

> <Gold.PLP.part.nonpolar>
-28.1329

> <Gold.PLP.part.repulsive>
0.0846

> <Gold.PLP.ligand.clash>
0.0043

> <Gold.PLP.ligand.torsion>
0.4541

> <Gold.PLP.Chemscore.Hbond>
3.0000

> <Gold.PLP.Chemscore.CHOScore>
0.0000

> <Gold.PLP.Chemscore.Metal>
0.0000

> <Gold.Chemscore.Hbonds>
donor molecule, donor type, donor heavy atom, donor atom, acceptor molecule, acceptor atom, score
      L1  H     3    32       P1 10747  0.94
      L1  H     5    56       P1 10747  1.00
      P1  H  6896  6907       L1    12  0.95

> <Gold.PLP.Chemscore.Internal.Correction>
0.5470

> <Gold.Rescore>
     Score         DG    S(hbond)    S(metal)    S(lipo)     H(rot)  DE(clash)    DE(int)     intcor
     12.29     -15.65       2.53        0.00      88.21       3.36       0.15       3.21       ----

> <Gold.Chemscore.Fitness>
12.2894

> <Gold.Chemscore.DG>
-15.6480

> <Gold.Chemscore.ZeroCoef>
-5.4800

> <Gold.Chemscore.Hbond>
2.5305

> <Gold.Chemscore.Metal>
0.0000

> <Gold.Chemscore.Lipo>
88.2115

> <Gold.Chemscore.Internal_Hbond>
0.0000

> <Gold.Chemscore.DEClash>
0.1481

> <Gold.Chemscore.DEInternal>
3.2105

> <Gold.Chemscore.Rot>
3.3611

> <Gold.Chemscore.Internal.Correction>
   9.000000E+99

> <Gold.Chemscore.Hbonds>
donor molecule, donor type, donor heavy atom, donor atom, acceptor molecule, acceptor atom, score
      L1  H     3    32       P1 10747  0.90
      L1  H     5    56       P1 10747  1.00
      P1  H  6896  6907       L1    12  0.14

> <Gold.Chemscore.Hbond.Weighted>
-8.4518

> <Gold.Chemscore.Metal.Weighted>
-0.0000

> <Gold.Chemscore.Lipo.Weighted>
-10.3207

> <Gold.Chemscore.Internal_Hbond.Weighted>
0.0000

> <Gold.Chemscore.DEClash.Weighted>
0.1481

> <Gold.Chemscore.DEInternal.Weighted>
3.2105

> <Gold.Chemscore.Rot.Weighted>
8.6045

> <Gold.Chemscore.Internal.Correction.Weighted>
   9.000000E+99

> <Gold.Protein.RotatedTorsions>
[ 6907 6896 6895 6894 ] final -140.30 input  -60.11 | X-H torsion
[ 7974 7965 7964 7962 ] final -152.29 input  175.53 | X-H torsion
[ 8008 7997 7996 7995 ] final  -95.78 input   59.86 | X-H torsion
[ 10167 10162 10161 10158 ] final   22.01 input  -65.29 | X-H torsion
[ 10718 10713 10712 10709 ] final  -50.11 input   66.30 | X-H torsion
[ 10763 10752 10751 10750 ] final  137.64 input  -60.55 | X-H torsion
[ 11005 11000 10999 10996 ] final  -13.21 input  -57.11 | X-H torsion

> <Gold.Protein.ActiveResidues>
 VAL166  LYS551  ARG553  GLY616  TRP617  ASP618  TYR619  PRO620  LYS621  CYS622 
 ASP623  PHE694  ASN695  SER759  ASP760  ASP761  ALA762  ILE779  LEU786  VAL792 
 PHE793  MET794  SER795  GLU796  ALA797  LYS798  CYS799  TRP800  GLU811  SER814 

> <Gold.Protein.RotatedAtoms>
  151.0590  133.5560  159.2635 H   0  0  0  0  0  0  0  0  0  0  0  0  # atno 6907 bound_to 6896
  151.2543  135.0632  159.9083 H   0  0  0  0  0  0  0  0  0  0  0  0  # atno 6908 bound_to 6896
  152.5394  134.0345  159.8094 H   0  0  0  0  0  0  0  0  0  0  0  0  # atno 6909 bound_to 6896
  144.7802  140.4682  143.5845 H   0  0  0  0  0  0  0  0  0  0  0  0  # atno 7974 bound_to 7965
  154.7659  140.0477  157.1011 H   0  0  0  0  0  0  0  0  0  0  0  0  # atno 8008 bound_to 7997
  154.9880  140.3109  155.4898 H   0  0  0  0  0  0  0  0  0  0  0  0  # atno 8009 bound_to 7997
  156.2912  140.2224  156.4983 H   0  0  0  0  0  0  0  0  0  0  0  0  # atno 8010 bound_to 7997
  140.5382  143.9723  150.6504 H   0  0  0  0  0  0  0  0  0  0  0  0  # atno 10167 bound_to 10162
  156.1831  130.4151  149.9478 H   0  0  0  0  0  0  0  0  0  0  0  0  # atno 10718 bound_to 10713
  153.8763  135.3049  155.3444 H   0  0  0  0  0  0  0  0  0  0  0  0  # atno 10763 bound_to 10752
  154.7782  135.4850  153.9792 H   0  0  0  0  0  0  0  0  0  0  0  0  # atno 10764 bound_to 10752
  153.1377  135.6817  153.9173 H   0  0  0  0  0  0  0  0  0  0  0  0  # atno 10765 bound_to 10752
  140.7738  133.8417  155.9230 H   0  0  0  0  0  0  0  0  0  0  0  0  # atno 11005 bound_to 11000
  145.6072  139.1509  143.3096 LP  0  0  0  0  0  0  0  0  0  0  0  0  # atno 17320 bound_to 7965
  146.2006  140.6190  142.9104 LP  0  0  0  0  0  0  0  0  0  0  0  0  # atno 17321 bound_to 7965
  140.3117  143.3194  152.0872 LP  0  0  0  0  0  0  0  0  0  0  0  0  # atno 17342 bound_to 10162
  139.4979  144.6632  151.6417 LP  0  0  0  0  0  0  0  0  0  0  0  0  # atno 17343 bound_to 10162
  156.7242  130.9018  151.3620 LP  0  0  0  0  0  0  0  0  0  0  0  0  # atno 17370 bound_to 10713
  157.6881  130.9206  150.0440 LP  0  0  0  0  0  0  0  0  0  0  0  0  # atno 17371 bound_to 10713
  140.9549  134.1731  157.4700 LP  0  0  0  0  0  0  0  0  0  0  0  0  # atno 17394 bound_to 11000
  139.8752  134.9923  156.5590 LP  0  0  0  0  0  0  0  0  0  0  0  0  # atno 17395 bound_to 11000

$$$$
