#       Name:                AV-unprocessed.smi:1768
#       Creating user name   scv26
#       Creation time:       Fri Mar 27 08:39:00 2020


#       File generated by GOLD software.
#

@<TRIPOS>MOLECULE
AV-unprocessed.smi:1768
    39    40     1
SMALL
NO_CHARGES


@<TRIPOS>ATOM
      1 ****        -5.5946   3.1873  -0.6320 C.3            1 S1                 0.0000
      2 ****        -4.4276   2.6852   0.1469 C.2            1 S1                 0.0000
      3 ****        -3.9227   3.3421   1.1939 N.2            1 S1                 0.0000
      4 ****        -2.8421   2.6779   1.7562 N.2            1 S1                 0.0000
      5 ****        -2.5404   1.5350   1.1238 C.2            1 S1                 0.0000
      6 ****        -1.5285   0.7421   1.5131 N.pl3          1 S1                -1.0000
      7 ****        -0.3420   0.7934   0.8658 C.2            1 S1                 0.0000
      8 ****        -0.0642   1.5218  -0.0895 O.2            1 S1                 0.0000
      9 ****         0.5726  -0.0588   1.3523 N.am           1 S1                 0.0000
     10 ****         1.9392  -0.2497   0.8670 C.3            1 S1                 0.0000
     11 ****         2.8820  -0.3472   2.0753 C.3            1 S1                 0.0000
     12 ****         2.0239  -1.5050  -0.0258 C.3            1 S1                 0.0000
     13 ****         1.1505  -1.4728  -1.2804 C.3            1 S1                 0.0000
     14 ****         1.8254  -2.4760  -2.1993 C.3            1 S1                 0.0000
     15 ****         3.2487  -2.5863  -1.6443 C.3            1 S1                 0.0000
     16 ****         3.3221  -1.6420  -0.5835 O.3            1 S1                 0.0000
     17 ****        -3.6104   1.1785  -0.2321 S.3            1 S1                 0.0000
     18 ****        -5.4638   4.2438  -0.8672 H              1 S1                 0.0000
     19 ****        -6.5094   3.0663  -0.0516 H              1 S1                 0.0000
     20 ****        -5.6951   2.6326  -1.5649 H              1 S1                 0.0000
     21 ****         0.2903  -0.6305   2.1346 H              1 S1                 0.0000
     22 ****         2.2497   0.6164   0.2801 H              1 S1                 0.0000
     23 ****         3.9195  -0.4544   1.7584 H              1 S1                 0.0000
     24 ****         2.6358  -1.2038   2.7038 H              1 S1                 0.0000
     25 ****         2.8200   0.5489   2.6938 H              1 S1                 0.0000
     26 ****         1.7961  -2.3998   0.5570 H              1 S1                 0.0000
     27 ****         0.1068  -1.7161  -1.0786 H              1 S1                 0.0000
     28 ****         1.1835  -0.4817  -1.7351 H              1 S1                 0.0000
     29 ****         1.3257  -3.4443  -2.1531 H              1 S1                 0.0000
     30 ****         1.8115  -2.1392  -3.2363 H              1 S1                 0.0000
     31 ****         3.4305  -3.5874  -1.2511 H              1 S1                 0.0000
     32 ****         4.0068  -2.3749  -2.3986 H              1 S1                 0.0000
     33 ****        -4.2816   4.2115   1.5333 LP             1 S1                 0.0000
     34 ****        -2.3398   3.0169   2.5517 LP             1 S1                 0.0000
     35 ****        -1.6523   0.1140   2.2814 LP             1 S1                 0.0000
     36 ****        -0.7503   2.1511  -0.4545 LP             1 S1                 0.0000
     37 ****         0.8472   1.4832  -0.4992 LP             1 S1                 0.0000
     38 ****         3.9591  -1.9664   0.1158 LP             1 S1                 0.0000
     39 ****         3.6347  -0.7599  -0.9357 LP             1 S1                 0.0000
@<TRIPOS>BOND
    1    1    2 1     
    2    1   18 1     
    3    1   19 1     
    4    1   20 1     
    5    2   17 1     
    6    2    3 2     
    7    3    4 1     
    8    4    5 2     
    9    5    6 1     
   10    5   17 1     
   11    6    7 1     
   12    7    8 2     
   13    7    9 am    
   14    9   10 1     
   15    9   21 1     
   16   10   11 1     
   17   10   12 1     
   18   10   22 1     
   19   11   23 1     
   20   11   24 1     
   21   11   25 1     
   22   12   16 1     
   23   12   13 1     
   24   12   26 1     
   25   13   14 1     
   26   13   27 1     
   27   13   28 1     
   28   14   15 1     
   29   14   29 1     
   30   14   30 1     
   31   15   16 1     
   32   15   31 1     
   33   15   32 1     
   34    3   33 1     
   35    4   34 1     
   36    6   35 1     
   37    8   36 1     
   38    8   37 1     
   39   16   38 1     
   40   16   39 1     
@<TRIPOS>SUBSTRUCTURE
      1 S1             1
@<TRIPOS>SET
LONE_PAIRS      STATIC     ATOMS    <user>   **** ""
7 33 34 35 36 37 38 39
DONOR_HYDROGENS      STATIC     ATOMS    <user>   **** ""
1 21
ATOM$BLUE        STATIC     ATOMS    COLORGROUP SYSTEM
7 33 34 35 36 37 38 39
ATOM$RED        STATIC     ATOMS    COLORGROUP SYSTEM
1 21
