AV-unprocessed.smi:2623|AV-procd|sdf|10231|dock1
  -GOLD-   2272014233D 1   1.00000     0.00000
 Structure written by MMmdl.
 41 43  0  0  0  0  0  0  0  0  2 V2000
  152.0346  137.1716  153.5391 O   0  0  0  0  0  0  0  0  0  0  0  0
  151.0489  137.0559  154.5407 C   0  0  0  0  0  0  0  0  0  0  0  0
  150.1100  138.2164  154.5476 C   0  0  0  0  0  0  0  0  0  0  0  0
  149.2278  138.5359  153.5595 N   0  3  0  0  0  0  0  0  0  0  0  0
  148.5276  139.6920  153.9066 C   0  0  0  0  0  0  0  0  0  0  0  0
  147.5369  140.3948  153.2274 C   0  0  0  0  0  0  0  0  0  0  0  0
  147.0262  141.5441  153.8654 C   0  0  0  0  0  0  0  0  0  0  0  0
  147.4997  141.9540  155.1288 C   0  0  0  0  0  0  0  0  0  0  0  0
  148.5044  141.2334  155.8075 C   0  0  0  0  0  0  0  0  0  0  0  0
  149.0060  140.0987  155.1694 C   0  0  0  0  0  0  0  0  0  0  0  0
  149.9808  139.1585  155.5255 N   0  0  0  0  0  0  0  0  0  0  0  0
  150.6987  139.2945  156.8031 C   0  0  0  0  0  0  0  0  0  0  0  0
  151.8520  140.3154  156.7354 C   0  0  2  0  0  0  0  0  0  0  0  0
  152.9352  139.8759  157.5298 O   0  0  0  0  0  0  0  0  0  0  0  0
  151.4278  141.7117  157.2130 C   0  0  0  0  0  0  0  0  0  0  0  0
  151.6153  141.7908  158.6199 O   0  0  0  0  0  0  0  0  0  0  0  0
  151.7673  143.0364  159.1897 C   0  0  0  0  0  0  0  0  0  0  0  0
  151.9516  143.0821  160.5874 C   0  0  0  0  0  0  0  0  0  0  0  0
  152.1160  144.3118  161.2531 C   0  0  0  0  0  0  0  0  0  0  0  0
  152.0969  145.5147  160.5235 C   0  0  0  0  0  0  0  0  0  0  0  0
  151.9126  145.4842  159.1288 C   0  0  0  0  0  0  0  0  0  0  0  0
  151.7486  144.2540  158.4626 C   0  0  0  0  0  0  0  0  0  0  0  0
  151.6388  136.9766  152.7032 H   0  0  0  0  0  0  0  0  0  0  0  0
  150.4868  136.1353  154.3830 H   0  0  0  0  0  0  0  0  0  0  0  0
  151.5357  136.9713  155.5123 H   0  0  0  0  0  0  0  0  0  0  0  0
  147.1719  140.0823  152.2600 H   0  0  0  0  0  0  0  0  0  0  0  0
  146.2555  142.1226  153.3768 H   0  0  0  0  0  0  0  0  0  0  0  0
  147.0834  142.8394  155.5875 H   0  0  0  0  0  0  0  0  0  0  0  0
  148.8552  141.5555  156.7768 H   0  0  0  0  0  0  0  0  0  0  0  0
  149.9668  139.6078  157.5486 H   0  0  0  0  0  0  0  0  0  0  0  0
  151.0531  138.3157  157.1267 H   0  0  0  0  0  0  0  0  0  0  0  0
  152.2143  140.3919  155.7097 H   0  0  0  0  0  0  0  0  0  0  0  0
  152.6683  139.8963  158.4359 H   0  0  0  0  0  0  0  0  0  0  0  0
  152.0112  142.4782  156.6996 H   0  0  0  0  0  0  0  0  0  0  0  0
  150.3738  141.8739  156.9796 H   0  0  0  0  0  0  0  0  0  0  0  0
  151.9675  142.1639  161.1561 H   0  0  0  0  0  0  0  0  0  0  0  0
  152.2567  144.3317  162.3238 H   0  0  0  0  0  0  0  0  0  0  0  0
  152.2234  146.4590  161.0325 H   0  0  0  0  0  0  0  0  0  0  0  0
  151.8967  146.4068  158.5676 H   0  0  0  0  0  0  0  0  0  0  0  0
  151.6088  144.2721  157.3923 H   0  0  0  0  0  0  0  0  0  0  0  0
  149.1198  138.0012  152.7071 H   0  0  0  0  0  0  0  0  0  0  0  0
  1  2  1  0  0  0  0
  1 23  1  0  0  0  0
  2  3  1  0  0  0  0
  2 24  1  0  0  0  0
  2 25  1  0  0  0  0
  3 11  1  0  0  0  0
  3  4  2  0  0  0  0
  4  5  1  0  0  0  0
  4 41  1  0  0  0  0
  5 10  2  0  0  0  0
  5  6  1  0  0  0  0
  6  7  2  0  0  0  0
  6 26  1  0  0  0  0
  7  8  1  0  0  0  0
  7 27  1  0  0  0  0
  8  9  2  0  0  0  0
  8 28  1  0  0  0  0
  9 10  1  0  0  0  0
  9 29  1  0  0  0  0
 10 11  1  0  0  0  0
 11 12  1  0  0  0  0
 12 13  1  0  0  0  0
 12 30  1  0  0  0  0
 12 31  1  0  0  0  0
 13 14  1  0  0  0  0
 13 15  1  0  0  0  0
 13 32  1  0  0  0  0
 14 33  1  0  0  0  0
 15 16  1  0  0  0  0
 15 34  1  0  0  0  0
 15 35  1  0  0  0  0
 16 17  1  0  0  0  0
 17 22  1  0  0  0  0
 17 18  2  0  0  0  0
 18 19  1  0  0  0  0
 18 36  1  0  0  0  0
 19 20  2  0  0  0  0
 19 37  1  0  0  0  0
 20 21  1  0  0  0  0
 20 38  1  0  0  0  0
 21 22  2  0  0  0  0
 21 39  1  0  0  0  0
 22 40  1  0  0  0  0
M  CHG  1   4   1
M  END
> <s_m_source_file>
AV-unprocessed.smi

> <i_m_source_file_index>
2623

> <i_lp_mmshare_version>
43012

> <i_f3d_flags>
0

> <s_epik_input>
W2NIXTFbY0hdW2NIXVtjSF1jKGMxMiluKGMobjIpW0NIMl1bT0hdKVtDSDJdW0NASF0oW09IXSlbQ0gyXU9jM1tjSF1bY0hdW2NIXVtjSF1bY0hdMw==

> <s_epik_cmdline>
J2VwaWtfcHl0aG9uJywgJy1waCcsICc3LjAnLCAnLXRuJywgJzgnLCAnLW1hJywgJzIwMCcsICctbWV0YWxfYmluZGluZycsICctaW1hZScsICc8aW5maWxlLm1hZT4nLCAnLW9tYWUnLCAnPG91dGZpbGUubWFlPic=

> <r_lp_tautomer_probability>
1

> <r_epik_Ionization_Penalty>
1.40416

> <r_epik_Ionization_Penalty_Charging>
1.4033

> <r_epik_Ionization_Penalty_Neutral>
0.000858184

> <r_epik_State_Penalty>
1.48564

> <r_epik_Charging_Adjusted_Penalty>
2.88894

> <i_epik_Tot_Q>
1

> <i_epik_Tot_abs_Q>
1

> <r_epik_Metal_State_Penalty>
5.52809

> <b_epik_Metal_Only>
0

> <s_lp_Force_Field>
OPLS_2005

> <r_lp_Energy>
17.9205

> <b_lp_Chiralities_Consistent>
1

> <s_lp_Variant>
AV-unprocessed.smi:2623-3

> <Gold.Version>
5.8.1

> <Gold.Id.Protein>
6NUR|6NUR_protein|mol2

> <Gold.PLP.Fitness>
57.6441

> <Gold.PLP.PLP>
-44.9253

> <Gold.PLP.part.hbond>
-4.9468

> <Gold.PLP.part.metal>
0.0000

> <Gold.PLP.part.buried>
0.1331

> <Gold.PLP.part.nonpolar>
-39.0103

> <Gold.PLP.part.repulsive>
0.0644

> <Gold.PLP.ligand.clash>
0.0000

> <Gold.PLP.ligand.torsion>
1.2544

> <Gold.PLP.Chemscore.Hbond>
5.0000

> <Gold.PLP.Chemscore.CHOScore>
0.0000

> <Gold.PLP.Chemscore.Metal>
0.0000

> <Gold.Chemscore.Hbonds>
donor molecule, donor type, donor heavy atom, donor atom, acceptor molecule, acceptor atom, score
      L1  H     1    23       P1  7949  1.00
      L1  H     4    41       P1  7948  1.95
      P1  H  7997  8010       L1    14  1.00
      P1  H 10752 10765       L1     1  1.00

> <Gold.PLP.Chemscore.Internal.Correction>
0.2276

> <Gold.Rescore>
     Score         DG    S(hbond)    S(metal)    S(lipo)     H(rot)  DE(clash)    DE(int)     intcor
     20.45     -23.15       3.10        0.00     131.12       3.13       1.62       1.08       ----

> <Gold.Chemscore.Fitness>
20.4474

> <Gold.Chemscore.DG>
-23.1492

> <Gold.Chemscore.ZeroCoef>
-5.4800

> <Gold.Chemscore.Hbond>
3.0964

> <Gold.Chemscore.Metal>
0.0000

> <Gold.Chemscore.Lipo>
131.1233

> <Gold.Chemscore.Internal_Hbond>
0.0000

> <Gold.Chemscore.DEClash>
1.6219

> <Gold.Chemscore.DEInternal>
1.0799

> <Gold.Chemscore.Rot>
3.1305

> <Gold.Chemscore.Internal.Correction>
   9.000000E+99

> <Gold.Chemscore.Hbonds>
donor molecule, donor type, donor heavy atom, donor atom, acceptor molecule, acceptor atom, score
      L1  H     1    23       P1  7949  0.96
      L1  H     4    41       P1  7948  0.91
      P1  H  7997  8010       L1    14  0.78
      P1  H 10752 10765       L1     1  0.18

> <Gold.Chemscore.Hbond.Weighted>
-10.3419

> <Gold.Chemscore.Metal.Weighted>
-0.0000

> <Gold.Chemscore.Lipo.Weighted>
-15.3414

> <Gold.Chemscore.Internal_Hbond.Weighted>
0.0000

> <Gold.Chemscore.DEClash.Weighted>
1.6219

> <Gold.Chemscore.DEInternal.Weighted>
1.0799

> <Gold.Chemscore.Rot.Weighted>
8.0141

> <Gold.Chemscore.Internal.Correction.Weighted>
   9.000000E+99

> <Gold.Protein.RotatedTorsions>
[ 6907 6896 6895 6894 ] final   98.89 input  -60.11 | X-H torsion
[ 7974 7965 7964 7962 ] final -162.04 input  175.53 | X-H torsion
[ 8008 7997 7996 7995 ] final   54.99 input   59.86 | X-H torsion
[ 10167 10162 10161 10158 ] final  165.00 input  -65.29 | X-H torsion
[ 10718 10713 10712 10709 ] final    2.37 input   66.30 | X-H torsion
[ 10763 10752 10751 10750 ] final  135.16 input  -60.55 | X-H torsion
[ 11005 11000 10999 10996 ] final -108.87 input  -57.11 | X-H torsion

> <Gold.Protein.ActiveResidues>
 VAL166  LYS551  ARG553  GLY616  TRP617  ASP618  TYR619  PRO620  LYS621  CYS622 
 ASP623  PHE694  ASN695  SER759  ASP760  ASP761  ALA762  ILE779  LEU786  VAL792 
 PHE793  MET794  SER795  GLU796  ALA797  LYS798  CYS799  TRP800  GLU811  SER814 

> <Gold.Protein.RotatedAtoms>
  152.5401  134.0512  159.8110 H   0  0  0  0  0  0  0  0  0  0  0  0  # atno 6907 bound_to 6896
  151.0653  133.5503  159.2638 H   0  0  0  0  0  0  0  0  0  0  0  0  # atno 6908 bound_to 6896
  151.2386  135.0588  159.9070 H   0  0  0  0  0  0  0  0  0  0  0  0  # atno 6909 bound_to 6896
  144.7370  140.3310  143.6153 H   0  0  0  0  0  0  0  0  0  0  0  0  # atno 7974 bound_to 7965
  155.4938  140.3472  155.4359 H   0  0  0  0  0  0  0  0  0  0  0  0  # atno 8008 bound_to 7997
  156.0959  140.1423  156.9559 H   0  0  0  0  0  0  0  0  0  0  0  0  # atno 8009 bound_to 7997
  154.4663  140.0916  156.7007 H   0  0  0  0  0  0  0  0  0  0  0  0  # atno 8010 bound_to 7997
  139.4898  144.4177  151.9224 H   0  0  0  0  0  0  0  0  0  0  0  0  # atno 10167 bound_to 10162
  156.8619  130.5590  149.5662 H   0  0  0  0  0  0  0  0  0  0  0  0  # atno 10718 bound_to 10713
  153.8355  135.3098  155.3422 H   0  0  0  0  0  0  0  0  0  0  0  0  # atno 10763 bound_to 10752
  154.7955  135.4758  154.0154 H   0  0  0  0  0  0  0  0  0  0  0  0  # atno 10764 bound_to 10752
  153.1608  135.6860  153.8837 H   0  0  0  0  0  0  0  0  0  0  0  0  # atno 10765 bound_to 10752
  141.0878  133.9108  157.2145 H   0  0  0  0  0  0  0  0  0  0  0  0  # atno 11005 bound_to 11000
  145.7472  139.1782  143.2342 LP  0  0  0  0  0  0  0  0  0  0  0  0  # atno 17320 bound_to 7965
  146.1089  140.7453  142.9513 LP  0  0  0  0  0  0  0  0  0  0  0  0  # atno 17321 bound_to 7965
  140.3620  144.2961  150.5932 LP  0  0  0  0  0  0  0  0  0  0  0  0  # atno 17342 bound_to 10162
  140.5394  143.2226  151.8109 LP  0  0  0  0  0  0  0  0  0  0  0  0  # atno 17343 bound_to 10162
  156.0772  130.5791  150.9495 LP  0  0  0  0  0  0  0  0  0  0  0  0  # atno 17370 bound_to 10713
  157.6245  131.0927  150.8560 LP  0  0  0  0  0  0  0  0  0  0  0  0  # atno 17371 bound_to 10713
  139.9699  135.0131  156.9485 LP  0  0  0  0  0  0  0  0  0  0  0  0  # atno 17394 bound_to 11000
  140.5322  134.0802  155.7319 LP  0  0  0  0  0  0  0  0  0  0  0  0  # atno 17395 bound_to 11000

$$$$
