AV-unprocessed.smi:2734|AV-procd|sdf|10540|dock7
  -GOLD-   2272014583D 1   1.00000     0.00000
 Structure written by MMmdl.
 41 43  0  0  0  0  0  0  0  0  2 V2000
  152.3103  143.7442  160.4124 C   0  0  0  0  0  0  0  0  0  0  0  0
  152.0717  142.7498  159.2888 C   0  0  0  0  0  0  0  0  0  0  0  0
  151.1516  143.0897  158.2716 C   0  0  0  0  0  0  0  0  0  0  0  0
  150.9514  142.1581  157.2598 C   0  0  0  0  0  0  0  0  0  0  0  0
  150.1210  142.1920  156.1378 N   0  3  0  0  0  0  0  0  0  0  0  0
  150.2605  141.0349  155.4337 C   0  0  0  0  0  0  0  0  0  0  0  0
  151.1679  140.2618  156.0894 N   0  0  0  0  0  0  0  0  0  0  0  0
  151.6668  138.9199  155.7561 C   0  0  0  0  0  0  0  0  0  0  0  0
  150.8252  138.2142  154.6732 C   0  0  1  0  0  0  0  0  0  0  0  0
  151.6281  137.2063  154.0945 O   0  0  0  0  0  0  0  0  0  0  0  0
  149.5232  137.5872  155.2044 C   0  0  0  0  0  0  0  0  0  0  0  0
  149.7531  136.7513  156.8023 S   0  0  0  0  0  0  0  0  0  0  0  0
  148.4467  137.5103  157.7184 C   0  0  0  0  0  0  0  0  0  0  0  0
  147.6484  138.4862  157.2988 N   0  0  0  0  0  0  0  0  0  0  0  0
  146.8079  138.7154  158.3712 N   0  0  0  0  0  0  0  0  0  0  0  0
  147.0885  137.9262  159.3671 N   0  0  0  0  0  0  0  0  0  0  0  0
  148.1281  137.1534  158.9688 N   0  0  0  0  0  0  0  0  0  0  0  0
  148.6969  136.1511  159.8479 C   0  0  0  0  0  0  0  0  0  0  0  0
  151.6310  140.9247  157.2332 C   0  0  0  0  0  0  0  0  0  0  0  0
  152.5441  140.5764  158.2264 C   0  0  0  0  0  0  0  0  0  0  0  0
  152.7606  141.5096  159.2649 C   0  0  0  0  0  0  0  0  0  0  0  0
  153.7492  141.1535  160.3622 C   0  0  0  0  0  0  0  0  0  0  0  0
  151.6298  144.5933  160.3443 H   0  0  0  0  0  0  0  0  0  0  0  0
  153.3301  144.1276  160.3709 H   0  0  0  0  0  0  0  0  0  0  0  0
  152.1558  143.2738  161.3837 H   0  0  0  0  0  0  0  0  0  0  0  0
  150.6241  144.0326  158.2824 H   0  0  0  0  0  0  0  0  0  0  0  0
  149.7419  140.7756  154.5219 H   0  0  0  0  0  0  0  0  0  0  0  0
  152.6940  139.0385  155.4086 H   0  0  0  0  0  0  0  0  0  0  0  0
  151.7223  138.3211  156.6653 H   0  0  0  0  0  0  0  0  0  0  0  0
  150.5788  138.9346  153.8923 H   0  0  0  0  0  0  0  0  0  0  0  0
  151.3206  137.0458  153.2151 H   0  0  0  0  0  0  0  0  0  0  0  0
  148.7502  138.3499  155.3054 H   0  0  0  0  0  0  0  0  0  0  0  0
  149.1551  136.8425  154.4992 H   0  0  0  0  0  0  0  0  0  0  0  0
  148.5890  135.1647  159.3964 H   0  0  0  0  0  0  0  0  0  0  0  0
  148.1902  136.1556  160.8137 H   0  0  0  0  0  0  0  0  0  0  0  0
  149.7559  136.3588  160.0034 H   0  0  0  0  0  0  0  0  0  0  0  0
  153.0657  139.6311  158.2152 H   0  0  0  0  0  0  0  0  0  0  0  0
  154.2561  140.2111  160.1527 H   0  0  0  0  0  0  0  0  0  0  0  0
  153.2360  141.0511  161.3186 H   0  0  0  0  0  0  0  0  0  0  0  0
  154.5125  141.9256  160.4586 H   0  0  0  0  0  0  0  0  0  0  0  0
  149.5018  142.9467  155.8711 H   0  0  0  0  0  0  0  0  0  0  0  0
  1  2  1  0  0  0  0
  1 23  1  0  0  0  0
  1 24  1  0  0  0  0
  1 25  1  0  0  0  0
  2 21  1  0  0  0  0
  2  3  2  0  0  0  0
  3  4  1  0  0  0  0
  3 26  1  0  0  0  0
  4 19  2  0  0  0  0
  4  5  1  0  0  0  0
  5  6  2  0  0  0  0
  5 41  1  0  0  0  0
  6  7  1  0  0  0  0
  6 27  1  0  0  0  0
  7  8  1  0  0  0  0
  7 19  1  0  0  0  0
  8  9  1  0  0  0  0
  8 28  1  0  0  0  0
  8 29  1  0  0  0  0
  9 10  1  0  0  0  0
  9 11  1  0  0  0  0
  9 30  1  0  0  0  0
 10 31  1  0  0  0  0
 11 12  1  0  0  0  0
 11 32  1  0  0  0  0
 11 33  1  0  0  0  0
 12 13  1  0  0  0  0
 13 17  1  0  0  0  0
 13 14  2  0  0  0  0
 14 15  1  0  0  0  0
 15 16  2  0  0  0  0
 16 17  1  0  0  0  0
 17 18  1  0  0  0  0
 18 34  1  0  0  0  0
 18 35  1  0  0  0  0
 18 36  1  0  0  0  0
 19 20  1  0  0  0  0
 20 21  2  0  0  0  0
 20 37  1  0  0  0  0
 21 22  1  0  0  0  0
 22 38  1  0  0  0  0
 22 39  1  0  0  0  0
 22 40  1  0  0  0  0
M  CHG  1   5   1
M  END
> <s_m_source_file>
AV-unprocessed.smi

> <i_m_source_file_index>
2734

> <i_lp_mmshare_version>
43012

> <i_f3d_flags>
0

> <s_epik_input>
W0NIM11jKFtjSF0xKWMoW0NIM10pW2NIXWMoYzEyKW4oW2NIXW4yKVtDSDJdW0NASF0oW09IXSlbQ0gyXVNjM25ubm4zW0NIM10=

> <s_epik_cmdline>
J2VwaWtfcHl0aG9uJywgJy1waCcsICc3LjAnLCAnLXRuJywgJzgnLCAnLW1hJywgJzIwMCcsICctbWV0YWxfYmluZGluZycsICctaW1hZScsICc8aW5maWxlLm1hZT4nLCAnLW9tYWUnLCAnPG91dGZpbGUubWFlPic=

> <r_lp_tautomer_probability>
1

> <r_epik_Ionization_Penalty>
1.07429

> <r_epik_Ionization_Penalty_Charging>
1.07429

> <r_epik_Ionization_Penalty_Neutral>
3.30514e-06

> <r_epik_State_Penalty>
1.12915

> <r_epik_Charging_Adjusted_Penalty>
2.20344

> <i_epik_Tot_Q>
1

> <i_epik_Tot_abs_Q>
1

> <r_epik_Metal_State_Penalty>
1.22002

> <b_epik_Metal_Only>
0

> <s_lp_Force_Field>
OPLS_2005

> <r_lp_Energy>
15.3116

> <b_lp_Chiralities_Consistent>
1

> <s_lp_Variant>
AV-unprocessed.smi:2734-4

> <Gold.Version>
5.8.1

> <Gold.Id.Protein>
6NUR|6NUR_protein|mol2

> <Gold.PLP.Fitness>
53.1205

> <Gold.PLP.PLP>
-40.8804

> <Gold.PLP.part.hbond>
-4.9514

> <Gold.PLP.part.metal>
0.0000

> <Gold.PLP.part.buried>
-5.5321

> <Gold.PLP.part.nonpolar>
-31.6574

> <Gold.PLP.part.repulsive>
0.1037

> <Gold.PLP.ligand.clash>
0.0000

> <Gold.PLP.ligand.torsion>
0.8915

> <Gold.PLP.Chemscore.Hbond>
4.6560

> <Gold.PLP.Chemscore.CHOScore>
0.0000

> <Gold.PLP.Chemscore.Metal>
0.0000

> <Gold.Chemscore.Hbonds>
donor molecule, donor type, donor heavy atom, donor atom, acceptor molecule, acceptor atom, score
      L1  H     5    41       P1  8028  2.00
      L1  H    10    31       P1  7949  1.00
      P1  H  6934  6947       L1    16  0.66
      P1  H 10752 10765       L1    10  0.99

> <Gold.PLP.Chemscore.Internal.Correction>
0.0550

> <Gold.Rescore>
     Score         DG    S(hbond)    S(metal)    S(lipo)     H(rot)  DE(clash)    DE(int)     intcor
     17.71     -18.66       2.85        0.00      95.10       2.92       0.02       0.92       ----

> <Gold.Chemscore.Fitness>
17.7110

> <Gold.Chemscore.DG>
-18.6551

> <Gold.Chemscore.ZeroCoef>
-5.4800

> <Gold.Chemscore.Hbond>
2.8486

> <Gold.Chemscore.Metal>
0.0000

> <Gold.Chemscore.Lipo>
95.1010

> <Gold.Chemscore.Internal_Hbond>
0.0000

> <Gold.Chemscore.DEClash>
0.0222

> <Gold.Chemscore.DEInternal>
0.9219

> <Gold.Chemscore.Rot>
2.9164

> <Gold.Chemscore.Internal.Correction>
   9.000000E+99

> <Gold.Chemscore.Hbonds>
donor molecule, donor type, donor heavy atom, donor atom, acceptor molecule, acceptor atom, score
      L1  H     5    41       P1  8028  0.99
      L1  H    10    31       P1  7949  0.64
      P1  H  6934  6947       L1    16  0.33
      P1  H 10752 10765       L1    10  0.24

> <Gold.Chemscore.Hbond.Weighted>
-9.5143

> <Gold.Chemscore.Metal.Weighted>
-0.0000

> <Gold.Chemscore.Lipo.Weighted>
-11.1268

> <Gold.Chemscore.Internal_Hbond.Weighted>
0.0000

> <Gold.Chemscore.DEClash.Weighted>
0.0222

> <Gold.Chemscore.DEInternal.Weighted>
0.9219

> <Gold.Chemscore.Rot.Weighted>
7.4660

> <Gold.Chemscore.Internal.Correction.Weighted>
   9.000000E+99

> <Gold.Protein.RotatedTorsions>
[ 6907 6896 6895 6894 ] final  141.24 input  -60.11 | X-H torsion
[ 7974 7965 7964 7962 ] final   18.10 input  175.53 | X-H torsion
[ 8008 7997 7996 7995 ] final -100.71 input   59.86 | X-H torsion
[ 10167 10162 10161 10158 ] final  129.63 input  -65.29 | X-H torsion
[ 10718 10713 10712 10709 ] final  -14.84 input   66.30 | X-H torsion
[ 10763 10752 10751 10750 ] final  162.06 input  -60.55 | X-H torsion
[ 11005 11000 10999 10996 ] final   32.59 input  -57.11 | X-H torsion

> <Gold.Protein.ActiveResidues>
 VAL166  LYS551  ARG553  GLY616  TRP617  ASP618  TYR619  PRO620  LYS621  CYS622 
 ASP623  PHE694  ASN695  SER759  ASP760  ASP761  ALA762  ILE779  LEU786  VAL792 
 PHE793  MET794  SER795  GLU796  ALA797  LYS798  CYS799  TRP800  GLU811  SER814 

> <Gold.Protein.RotatedAtoms>
  152.2334  133.5076  159.5228 H   0  0  0  0  0  0  0  0  0  0  0  0  # atno 6907 bound_to 6896
  150.7044  134.1186  159.4035 H   0  0  0  0  0  0  0  0  0  0  0  0  # atno 6908 bound_to 6896
  151.9107  135.0340  160.0565 H   0  0  0  0  0  0  0  0  0  0  0  0  # atno 6909 bound_to 6896
  146.2196  139.8507  142.8623 H   0  0  0  0  0  0  0  0  0  0  0  0  # atno 7974 bound_to 7965
  154.8324  140.0439  157.1486 H   0  0  0  0  0  0  0  0  0  0  0  0  # atno 8008 bound_to 7997
  154.9138  140.3017  155.5232 H   0  0  0  0  0  0  0  0  0  0  0  0  # atno 8009 bound_to 7997
  156.2988  140.2353  156.4180 H   0  0  0  0  0  0  0  0  0  0  0  0  # atno 8010 bound_to 7997
  139.5468  144.6780  151.4446 H   0  0  0  0  0  0  0  0  0  0  0  0  # atno 10167 bound_to 10162
  156.6102  130.4847  149.6204 H   0  0  0  0  0  0  0  0  0  0  0  0  # atno 10718 bound_to 10713
  154.2726  135.2765  155.2731 H   0  0  0  0  0  0  0  0  0  0  0  0  # atno 10763 bound_to 10752
  154.5288  135.5735  153.6745 H   0  0  0  0  0  0  0  0  0  0  0  0  # atno 10764 bound_to 10752
  152.9942  135.6222  154.2882 H   0  0  0  0  0  0  0  0  0  0  0  0  # atno 10765 bound_to 10752
  140.2719  134.3073  155.7825 H   0  0  0  0  0  0  0  0  0  0  0  0  # atno 11005 bound_to 11000
  145.2804  141.0137  143.3720 LP  0  0  0  0  0  0  0  0  0  0  0  0  # atno 17320 bound_to 7965
  144.9154  139.4477  143.6567 LP  0  0  0  0  0  0  0  0  0  0  0  0  # atno 17321 bound_to 7965
  140.6719  143.8274  150.7010 LP  0  0  0  0  0  0  0  0  0  0  0  0  # atno 17342 bound_to 10162
  140.1701  143.4202  152.2007 LP  0  0  0  0  0  0  0  0  0  0  0  0  # atno 17343 bound_to 10162
  156.2396  130.6843  151.1543 LP  0  0  0  0  0  0  0  0  0  0  0  0  # atno 17370 bound_to 10713
  157.7256  131.0652  150.5945 LP  0  0  0  0  0  0  0  0  0  0  0  0  # atno 17371 bound_to 10713
  141.2176  133.7472  156.9347 LP  0  0  0  0  0  0  0  0  0  0  0  0  # atno 17394 bound_to 11000
  140.1365  134.9321  157.2409 LP  0  0  0  0  0  0  0  0  0  0  0  0  # atno 17395 bound_to 11000

$$$$
