AV-unprocessed.smi:1|AV-procd|sdf|1|dock3
  -GOLD-   2262015 83D 1   1.00000     0.00000
 Structure written by MMmdl.
 57 62  0  0  0  0  0  0  0  0  1 V2000
  151.9388  140.1352  158.2727 O   0  0  0  0  0  0  0  0  0  0  0  0
  151.3763  141.1875  157.9692 C   0  0  0  0  0  0  0  0  0  0  0  0
  150.4521  141.2754  156.8520 N   0  0  0  0  0  0  0  0  0  0  0  0
  150.0017  140.2755  156.0583 C   0  0  0  0  0  0  0  0  0  0  0  0
  150.4562  140.0892  154.7912 N   0  0  0  0  0  0  0  0  0  0  0  0
  149.9828  139.0850  154.0481 C   0  0  0  0  0  0  0  0  0  0  0  0
  149.0713  138.1665  154.3726 N   0  0  0  0  0  0  0  0  0  0  0  0
  148.6094  138.3442  155.6438 C   0  0  0  0  0  0  0  0  0  0  0  0
  149.0233  139.3677  156.5417 C   0  0  0  0  0  0  0  0  0  0  0  0
  148.3424  139.2414  157.7451 N   0  0  0  0  0  0  0  0  0  0  0  0
  147.5671  138.2069  157.5621 C   0  0  0  0  0  0  0  0  0  0  0  0
  147.6593  137.6081  156.3252 N   0  0  0  0  0  0  0  0  0  0  0  0
  146.8912  136.4195  155.8352 C   0  0  2  0  0  0  0  0  0  0  0  0
  146.0701  135.9487  156.8616 O   0  0  0  0  0  0  0  0  0  0  0  0
  146.3703  134.5890  157.1612 C   0  0  1  0  0  0  0  0  0  0  0  0
  145.1034  133.8272  157.5714 C   0  0  0  0  0  0  0  0  0  0  0  0
  144.5398  134.4096  158.7368 O   0  0  0  0  0  0  0  0  0  0  0  0
  143.3257  134.0209  159.1704 C   0  0  0  0  0  0  0  0  0  0  0  0
  142.5614  133.3108  158.5139 O   0  0  0  0  0  0  0  0  0  0  0  0
  143.0007  134.5456  160.5282 C   0  0  0  0  0  0  0  0  0  0  0  0
  141.7581  134.2173  161.1191 C   0  0  0  0  0  0  0  0  0  0  0  0
  141.4235  134.6982  162.3998 C   0  0  0  0  0  0  0  0  0  0  0  0
  142.3281  135.5116  163.1065 C   0  0  0  0  0  0  0  0  0  0  0  0
  143.5676  135.8450  162.5300 C   0  0  0  0  0  0  0  0  0  0  0  0
  143.9036  135.3665  161.2484 C   0  0  0  0  0  0  0  0  0  0  0  0
  147.0983  134.0317  155.9334 C   0  0  2  0  0  0  0  0  0  0  0  0
  148.0785  133.0711  156.2893 O   0  0  0  0  0  0  0  0  0  0  0  0
  149.5436  133.8478  156.5039 S   0  0  0  0  0  0  0  0  0  0  0  0
  149.8119  133.9420  157.9469 O   0  0  0  0  0  0  0  0  0  0  0  0
  150.5096  133.2750  155.5543 O   0  0  0  0  0  0  0  0  0  0  0  0
  149.1035  135.3610  155.9543 O   0  0  0  0  0  0  0  0  0  0  0  0
  147.8085  135.2714  155.3827 C   0  0  2  0  0  0  0  0  0  0  0  0
  151.6768  142.4758  158.6786 C   0  0  0  0  0  0  0  0  0  0  0  0
  152.2332  142.4547  159.9774 C   0  0  0  0  0  0  0  0  0  0  0  0
  152.5027  143.6583  160.6574 C   0  0  0  0  0  0  0  0  0  0  0  0
  152.2115  144.8931  160.0479 C   0  0  0  0  0  0  0  0  0  0  0  0
  151.6463  144.9235  158.7591 C   0  0  0  0  0  0  0  0  0  0  0  0
  151.3764  143.7206  158.0777 C   0  0  0  0  0  0  0  0  0  0  0  0
  150.0891  142.1957  156.6514 H   0  0  0  0  0  0  0  0  0  0  0  0
  150.3926  139.0063  153.0521 H   0  0  0  0  0  0  0  0  0  0  0  0
  146.8960  137.8520  158.3308 H   0  0  0  0  0  0  0  0  0  0  0  0
  146.2653  136.8031  155.0286 H   0  0  0  0  0  0  0  0  0  0  0  0
  147.0563  134.5964  158.0079 H   0  0  0  0  0  0  0  0  0  0  0  0
  144.3809  133.8581  156.7545 H   0  0  0  0  0  0  0  0  0  0  0  0
  145.3376  132.7790  157.7616 H   0  0  0  0  0  0  0  0  0  0  0  0
  141.0471  133.5942  160.5957 H   0  0  0  0  0  0  0  0  0  0  0  0
  140.4709  134.4425  162.8401 H   0  0  0  0  0  0  0  0  0  0  0  0
  142.0716  135.8795  164.0891 H   0  0  0  0  0  0  0  0  0  0  0  0
  144.2627  136.4690  163.0723 H   0  0  0  0  0  0  0  0  0  0  0  0
  144.8635  135.6406  160.8359 H   0  0  0  0  0  0  0  0  0  0  0  0
  146.4052  133.6339  155.1917 H   0  0  0  0  0  0  0  0  0  0  0  0
  147.8941  135.2579  154.2959 H   0  0  0  0  0  0  0  0  0  0  0  0
  152.4613  141.5151  160.4599 H   0  0  0  0  0  0  0  0  0  0  0  0
  152.9322  143.6334  161.6480 H   0  0  0  0  0  0  0  0  0  0  0  0
  152.4172  145.8160  160.5700 H   0  0  0  0  0  0  0  0  0  0  0  0
  151.4160  145.8702  158.2936 H   0  0  0  0  0  0  0  0  0  0  0  0
  150.9334  143.7670  157.0934 H   0  0  0  0  0  0  0  0  0  0  0  0
  1  2  2  0  0  0  0
  2  3  1  0  0  0  0
  2 33  1  0  0  0  0
  3  4  1  0  0  0  0
  3 39  1  0  0  0  0
  4  9  1  0  0  0  0
  4  5  2  0  0  0  0
  5  6  1  0  0  0  0
  6  7  2  0  0  0  0
  6 40  1  0  0  0  0
  7  8  1  0  0  0  0
  8 12  1  0  0  0  0
  8  9  2  0  0  0  0
  9 10  1  0  0  0  0
 10 11  2  0  0  0  0
 11 12  1  0  0  0  0
 11 41  1  0  0  0  0
 12 13  1  0  0  0  0
 13 32  1  0  0  0  0
 13 14  1  0  0  0  0
 13 42  1  0  0  0  0
 14 15  1  0  0  0  0
 15 16  1  0  0  0  0
 15 26  1  0  0  0  0
 15 43  1  0  0  0  0
 16 17  1  0  0  0  0
 16 44  1  0  0  0  0
 16 45  1  0  0  0  0
 17 18  1  0  0  0  0
 18 19  2  0  0  0  0
 18 20  1  0  0  0  0
 20 25  1  0  0  0  0
 20 21  2  0  0  0  0
 21 22  1  0  0  0  0
 21 46  1  0  0  0  0
 22 23  2  0  0  0  0
 22 47  1  0  0  0  0
 23 24  1  0  0  0  0
 23 48  1  0  0  0  0
 24 25  2  0  0  0  0
 24 49  1  0  0  0  0
 25 50  1  0  0  0  0
 26 32  1  0  0  0  0
 26 27  1  0  0  0  0
 26 51  1  0  0  0  0
 27 28  1  0  0  0  0
 28 29  2  0  0  0  0
 28 30  2  0  0  0  0
 28 31  1  0  0  0  0
 31 32  1  0  0  0  0
 32 52  1  0  0  0  0
 33 38  1  0  0  0  0
 33 34  2  0  0  0  0
 34 35  1  0  0  0  0
 34 53  1  0  0  0  0
 35 36  2  0  0  0  0
 35 54  1  0  0  0  0
 36 37  1  0  0  0  0
 36 55  1  0  0  0  0
 37 38  2  0  0  0  0
 37 56  1  0  0  0  0
 38 57  1  0  0  0  0
M  END
> <s_m_source_file>
AV-unprocessed.smi

> <i_m_source_file_index>
1

> <i_lp_mmshare_version>
43012

> <i_f3d_flags>
0

> <s_epik_input>
W2NIXTFbY0hdW2NIXVtjSF1bY0hdYzFDKD1PKVtOSF1jKG5bY0hdbjIpYyhjMjMpbltjSF1uM1tDQEBIXShbQ0BIXShbQ0BIXTQ1KU9TKE81KSg9Tyk9TylPW0NASF00W0NIMl1PQyg9TyljNltjSF1bY0hdW2NIXVtjSF1bY0hdNg==

> <s_epik_cmdline>
J2VwaWtfcHl0aG9uJywgJy1waCcsICc3LjAnLCAnLXRuJywgJzgnLCAnLW1hJywgJzIwMCcsICctbWV0YWxfYmluZGluZycsICctaW1hZScsICc8aW5maWxlLm1hZT4nLCAnLW9tYWUnLCAnPG91dGZpbGUubWFlPic=

> <r_lp_tautomer_probability>
1

> <r_epik_Ionization_Penalty>
0.00195722

> <r_epik_Ionization_Penalty_Charging>
0

> <r_epik_Ionization_Penalty_Neutral>
0.00195722

> <r_epik_State_Penalty>
0.00633741

> <r_epik_Charging_Adjusted_Penalty>
0.00633741

> <i_epik_Tot_Q>
0

> <i_epik_Tot_abs_Q>
0

> <r_epik_Metal_State_Penalty>
0.341185

> <b_epik_Metal_Only>
0

> <s_epik_Chemistry_Notes>
This compound has an ester and may undergo hydrolysis at high or low pH. This compound contains an acetal/aminal-like group ( X-CH(R)-Y where X, Y are N, S, or O) that may be acid/base labile, releasing an aldehyde.

> <s_lp_Force_Field>
OPLS_2005

> <r_lp_Energy>
46.2159

> <b_lp_Chiralities_Consistent>
1

> <s_lp_Variant>
AV-unprocessed.smi:1-1

> <Gold.Version>
5.8.1

> <Gold.Id.Protein>
6NUR|6NUR_protein|mol2

> <Gold.PLP.Fitness>
51.5441

> <Gold.PLP.PLP>
-41.4365

> <Gold.PLP.part.hbond>
-3.0000

> <Gold.PLP.part.metal>
0.0000

> <Gold.PLP.part.buried>
-7.3364

> <Gold.PLP.part.nonpolar>
-32.1452

> <Gold.PLP.part.repulsive>
0.4074

> <Gold.PLP.ligand.clash>
0.0000

> <Gold.PLP.ligand.torsion>
1.0087

> <Gold.PLP.Chemscore.Hbond>
2.9420

> <Gold.PLP.Chemscore.CHOScore>
0.9756

> <Gold.PLP.Chemscore.Metal>
0.0000

> <Gold.Chemscore.Hbonds>
donor molecule, donor type, donor heavy atom, donor atom, acceptor molecule, acceptor atom, score
      P1  H  6896  6908       L1    29  0.99
      P1  H  7989  7998       L1     5  0.90
      P1  H 11000 11005       L1    19  1.00
      L1  C     6    40       P1  7957  0.96

> <Gold.PLP.Chemscore.Internal.Correction>
0.3721

> <Gold.Rescore>
     Score         DG    S(hbond)    S(metal)    S(lipo)     H(rot)  DE(clash)    DE(int)     intcor
     18.62     -20.86       2.66        0.00     102.05       2.13       0.46       1.78       ----

> <Gold.Chemscore.Fitness>
18.6188

> <Gold.Chemscore.DG>
-20.8560

> <Gold.Chemscore.ZeroCoef>
-5.4800

> <Gold.Chemscore.Hbond>
2.6640

> <Gold.Chemscore.Metal>
0.0000

> <Gold.Chemscore.Lipo>
102.0491

> <Gold.Chemscore.Internal_Hbond>
0.0000

> <Gold.Chemscore.DEClash>
0.4605

> <Gold.Chemscore.DEInternal>
1.7768

> <Gold.Chemscore.Rot>
2.1333

> <Gold.Chemscore.Internal.Correction>
   9.000000E+99

> <Gold.Chemscore.Hbonds>
donor molecule, donor type, donor heavy atom, donor atom, acceptor molecule, acceptor atom, score
      P1  H  6896  6908       L1    29  0.94
      P1  H  7989  7998       L1     5  0.18
      P1  H 11000 11005       L1    19  0.96

> <Gold.Chemscore.Hbond.Weighted>
-8.8976

> <Gold.Chemscore.Metal.Weighted>
-0.0000

> <Gold.Chemscore.Lipo.Weighted>
-11.9397

> <Gold.Chemscore.Internal_Hbond.Weighted>
0.0000

> <Gold.Chemscore.DEClash.Weighted>
0.4605

> <Gold.Chemscore.DEInternal.Weighted>
1.7768

> <Gold.Chemscore.Rot.Weighted>
5.4614

> <Gold.Chemscore.Internal.Correction.Weighted>
   9.000000E+99

> <Gold.Protein.RotatedTorsions>
[ 6907 6896 6895 6894 ] final  113.06 input  -60.11 | X-H torsion
[ 7974 7965 7964 7962 ] final  -16.57 input  175.53 | X-H torsion
[ 8008 7997 7996 7995 ] final  -68.17 input   59.86 | X-H torsion
[ 10167 10162 10161 10158 ] final -152.56 input  -65.29 | X-H torsion
[ 10718 10713 10712 10709 ] final  -27.96 input   66.30 | X-H torsion
[ 10763 10752 10751 10750 ] final   44.73 input  -60.55 | X-H torsion
[ 11005 11000 10999 10996 ] final -102.26 input  -57.11 | X-H torsion

> <Gold.Protein.ActiveResidues>
 VAL166  LYS551  ARG553  GLY616  TRP617  ASP618  TYR619  PRO620  LYS621  CYS622 
 ASP623  PHE694  ASN695  SER759  ASP760  ASP761  ALA762  ILE779  LEU786  VAL792 
 PHE793  MET794  SER795  GLU796  ALA797  LYS798  CYS799  TRP800  GLU811  SER814 

> <Gold.Protein.RotatedAtoms>
  152.4882  133.8428  159.7161 H   0  0  0  0  0  0  0  0  0  0  0  0  # atno 6907 bound_to 6896
  150.8987  133.7138  159.2891 H   0  0  0  0  0  0  0  0  0  0  0  0  # atno 6908 bound_to 6896
  151.4586  135.1040  159.9770 H   0  0  0  0  0  0  0  0  0  0  0  0  # atno 6909 bound_to 6896
  146.1981  140.3655  142.8433 H   0  0  0  0  0  0  0  0  0  0  0  0  # atno 7974 bound_to 7965
  154.4849  140.0878  156.7464 H   0  0  0  0  0  0  0  0  0  0  0  0  # atno 8008 bound_to 7997
  155.4375  140.3452  155.4268 H   0  0  0  0  0  0  0  0  0  0  0  0  # atno 8009 bound_to 7997
  156.1247  140.1484  156.9141 H   0  0  0  0  0  0  0  0  0  0  0  0  # atno 8010 bound_to 7997
  139.7171  143.9016  152.2490 H   0  0  0  0  0  0  0  0  0  0  0  0  # atno 10167 bound_to 10162
  156.4314  130.4446  149.7115 H   0  0  0  0  0  0  0  0  0  0  0  0  # atno 10718 bound_to 10713
  152.9836  135.6061  154.3322 H   0  0  0  0  0  0  0  0  0  0  0  0  # atno 10763 bound_to 10752
  154.3025  135.2772  155.2606 H   0  0  0  0  0  0  0  0  0  0  0  0  # atno 10764 bound_to 10752
  154.4852  135.5906  153.6475 H   0  0  0  0  0  0  0  0  0  0  0  0  # atno 10765 bound_to 10752
  141.1197  133.8544  157.1337 H   0  0  0  0  0  0  0  0  0  0  0  0  # atno 11005 bound_to 11000
  144.8624  140.7159  143.6098 LP  0  0  0  0  0  0  0  0  0  0  0  0  # atno 17320 bound_to 7965
  145.3575  139.1690  143.4401 LP  0  0  0  0  0  0  0  0  0  0  0  0  # atno 17321 bound_to 7965
  139.8902  144.6970  150.8779 LP  0  0  0  0  0  0  0  0  0  0  0  0  # atno 17342 bound_to 10162
  140.7746  143.3592  151.1860 LP  0  0  0  0  0  0  0  0  0  0  0  0  # atno 17343 bound_to 10162
  156.4016  130.7677  151.2686 LP  0  0  0  0  0  0  0  0  0  0  0  0  # atno 17370 bound_to 10713
  157.7508  131.0238  150.3849 LP  0  0  0  0  0  0  0  0  0  0  0  0  # atno 17371 bound_to 10713
  140.0144  134.9974  157.0463 LP  0  0  0  0  0  0  0  0  0  0  0  0  # atno 17394 bound_to 11000
  140.4545  134.1548  155.7185 LP  0  0  0  0  0  0  0  0  0  0  0  0  # atno 17395 bound_to 11000

$$$$
