AV-unprocessed.smi:1032|AV-procd|sdf|4489|dock9
  -GOLD-   22720 2473D 1   1.00000     0.00000
 Structure written by MMmdl.
 47 48  0  0  0  0  0  0  0  0  3 V2000
  148.7333  123.1904  151.8140 C   0  0  0  0  0  0  0  0  0  0  0  0
  149.9096  124.1461  151.5487 C   0  0  2  0  0  0  0  0  0  0  0  0
  150.5173  124.7187  152.8424 C   0  0  0  0  0  0  0  0  0  0  0  0
  149.6194  125.7914  153.4848 C   0  0  0  0  0  0  0  0  0  0  0  0
  149.3119  126.8817  152.5219 N   0  3  2  0  0  0  0  0  0  0  0  0
  148.5582  128.0081  153.1308 C   0  0  0  0  0  0  0  0  0  0  0  0
  149.3825  128.7674  154.1911 C   0  0  1  0  0  0  0  0  0  0  0  0
  150.7254  128.7663  153.7471 O   0  0  0  0  0  0  0  0  0  0  0  0
  148.9150  130.2310  154.3285 C   0  0  0  0  0  0  0  0  0  0  0  0
  148.3667  130.7517  153.0796 N   0  0  0  0  0  0  0  0  0  0  0  0
  147.1181  131.2122  152.9204 C   0  0  0  0  0  0  0  0  0  0  0  0
  146.2789  131.2187  153.8204 O   0  0  0  0  0  0  0  0  0  0  0  0
  146.9088  131.6343  151.6613 N   0  0  0  0  0  0  0  0  0  0  0  0
  145.7363  132.2175  151.1079 C   0  0  0  0  0  0  0  0  0  0  0  0
  144.8222  132.8224  151.9992 C   0  0  0  0  0  0  0  0  0  0  0  0
  143.6370  133.3968  151.4965 C   0  0  0  0  0  0  0  0  0  0  0  0
  143.3789  133.3555  150.1718 N   0  3  0  0  0  0  0  0  0  0  0  0
  144.2143  132.7763  149.2831 C   0  0  0  0  0  0  0  0  0  0  0  0
  145.4154  132.1861  149.7265 C   0  0  0  0  0  0  0  0  0  0  0  0
  148.6573  126.3600  151.2950 C   0  0  0  0  0  0  0  0  0  0  0  0
  149.5352  125.3017  150.6031 C   0  0  0  0  0  0  0  0  0  0  0  0
  147.9002  123.6891  152.3082 H   0  0  0  0  0  0  0  0  0  0  0  0
  149.0422  122.3586  152.4477 H   0  0  0  0  0  0  0  0  0  0  0  0
  148.3577  122.7671  150.8822 H   0  0  0  0  0  0  0  0  0  0  0  0
  150.6821  123.5538  151.0562 H   0  0  0  0  0  0  0  0  0  0  0  0
  150.7117  123.9169  153.5557 H   0  0  0  0  0  0  0  0  0  0  0  0
  151.4880  125.1620  152.6154 H   0  0  0  0  0  0  0  0  0  0  0  0
  148.6907  125.3454  153.8434 H   0  0  0  0  0  0  0  0  0  0  0  0
  150.1274  126.1945  154.3602 H   0  0  0  0  0  0  0  0  0  0  0  0
  148.2586  128.7167  152.3563 H   0  0  0  0  0  0  0  0  0  0  0  0
  147.6316  127.6262  153.5623 H   0  0  0  0  0  0  0  0  0  0  0  0
  149.3172  128.2684  155.1578 H   0  0  0  0  0  0  0  0  0  0  0  0
  150.8064  128.1512  153.0331 H   0  0  0  0  0  0  0  0  0  0  0  0
  148.2156  130.3560  155.1577 H   0  0  0  0  0  0  0  0  0  0  0  0
  149.7713  130.8641  154.5624 H   0  0  0  0  0  0  0  0  0  0  0  0
  148.9902  130.7780  152.2857 H   0  0  0  0  0  0  0  0  0  0  0  0
  147.6646  131.4792  151.0100 H   0  0  0  0  0  0  0  0  0  0  0  0
  145.0259  132.8530  153.0599 H   0  0  0  0  0  0  0  0  0  0  0  0
  142.8921  133.8824  152.1101 H   0  0  0  0  0  0  0  0  0  0  0  0
  143.8964  132.7960  148.2508 H   0  0  0  0  0  0  0  0  0  0  0  0
  146.0580  131.7104  149.0015 H   0  0  0  0  0  0  0  0  0  0  0  0
  147.6798  125.9467  151.5465 H   0  0  0  0  0  0  0  0  0  0  0  0
  148.4811  127.1800  150.5979 H   0  0  0  0  0  0  0  0  0  0  0  0
  150.4484  125.7804  150.2463 H   0  0  0  0  0  0  0  0  0  0  0  0
  149.0304  124.9169  149.7163 H   0  0  0  0  0  0  0  0  0  0  0  0
  150.1952  127.2693  152.2211 H   0  0  0  0  0  0  0  0  0  0  0  0
  142.5147  133.7754  149.8285 H   0  0  0  0  0  0  0  0  0  0  0  0
  1  2  1  0  0  0  0
  1 22  1  0  0  0  0
  1 23  1  0  0  0  0
  1 24  1  0  0  0  0
  2 21  1  0  0  0  0
  2  3  1  0  0  0  0
  2 25  1  0  0  0  0
  3  4  1  0  0  0  0
  3 26  1  0  0  0  0
  3 27  1  0  0  0  0
  4  5  1  0  0  0  0
  4 28  1  0  0  0  0
  4 29  1  0  0  0  0
  5  6  1  0  0  0  0
  5 20  1  0  0  0  0
  5 46  1  0  0  0  0
  6  7  1  0  0  0  0
  6 30  1  0  0  0  0
  6 31  1  0  0  0  0
  7  8  1  0  0  0  0
  7  9  1  0  0  0  0
  7 32  1  0  0  0  0
  8 33  1  0  0  0  0
  9 10  1  0  0  0  0
  9 34  1  0  0  0  0
  9 35  1  0  0  0  0
 10 11  1  0  0  0  0
 10 36  1  0  0  0  0
 11 12  2  0  0  0  0
 11 13  1  0  0  0  0
 13 14  1  0  0  0  0
 13 37  1  0  0  0  0
 14 19  1  0  0  0  0
 14 15  2  0  0  0  0
 15 16  1  0  0  0  0
 15 38  1  0  0  0  0
 16 17  2  0  0  0  0
 16 39  1  0  0  0  0
 17 18  1  0  0  0  0
 17 47  1  0  0  0  0
 18 19  2  0  0  0  0
 18 40  1  0  0  0  0
 19 41  1  0  0  0  0
 20 21  1  0  0  0  0
 20 42  1  0  0  0  0
 20 43  1  0  0  0  0
 21 44  1  0  0  0  0
 21 45  1  0  0  0  0
M  CHG  1   5   1
M  CHG  1  17   1
M  END
> <s_m_source_file>
AV-unprocessed.smi

> <i_m_source_file_index>
1032

> <i_lp_mmshare_version>
43012

> <i_f3d_flags>
0

> <s_epik_input>
W0NIM11bQ0hdMVtDSDJdW0NIMl1OKFtDSDJdW0NIMl0xKVtDSDJdW0NASF0oW09IXSlbQ0gyXVtOSF1DKD1PKVtOSF1jMltjSF1bY0hdbltjSF1bY0hdMg==

> <s_epik_cmdline>
J2VwaWtfcHl0aG9uJywgJy1waCcsICc3LjAnLCAnLXRuJywgJzgnLCAnLW1hJywgJzIwMCcsICctbWV0YWxfYmluZGluZycsICctaW1hZScsICc8aW5maWxlLm1hZT4nLCAnLW9tYWUnLCAnPG91dGZpbGUubWFlPic=

> <r_epik_Ionization_Penalty>
1.02509

> <r_epik_Ionization_Penalty_Charging>
1.02507

> <r_epik_Ionization_Penalty_Neutral>
1.85474e-05

> <r_epik_State_Penalty>
1.07411

> <r_epik_Charging_Adjusted_Penalty>
2.09917

> <i_epik_Tot_Q>
2

> <i_epik_Tot_abs_Q>
2

> <r_epik_Metal_State_Penalty>
1.1725

> <b_epik_Metal_Only>
0

> <s_lp_Force_Field>
OPLS_2005

> <r_lp_Energy>
32.8821

> <b_lp_Chiralities_Consistent>
1

> <s_lp_Variant>
AV-unprocessed.smi:1032-8

> <Gold.Version>
5.8.1

> <Gold.Id.Protein>
6NUR|6NUR_protein|mol2

> <Gold.PLP.Fitness>
51.2235

> <Gold.PLP.PLP>
-35.5506

> <Gold.PLP.part.hbond>
-5.0000

> <Gold.PLP.part.metal>
0.0000

> <Gold.PLP.part.buried>
-5.1160

> <Gold.PLP.part.nonpolar>
-25.5317

> <Gold.PLP.part.repulsive>
0.2907

> <Gold.PLP.ligand.clash>
0.0000

> <Gold.PLP.ligand.torsion>
0.8185

> <Gold.PLP.Chemscore.Hbond>
5.7600

> <Gold.PLP.Chemscore.CHOScore>
0.0000

> <Gold.PLP.Chemscore.Metal>
0.0000

> <Gold.Chemscore.Hbonds>
donor molecule, donor type, donor heavy atom, donor atom, acceptor molecule, acceptor atom, score
      L1  H     5    46       P1 10737  1.00
      L1  H     8    33       P1 10737  0.75
      L1  H    10    36       P1 10747  0.86
      L1  H    13    37       P1 10747  1.00
      L1  H    17    47       P1 10186  2.00

> <Gold.PLP.Chemscore.Internal.Correction>
0.0299

> <Gold.Rescore>
     Score         DG    S(hbond)    S(metal)    S(lipo)     H(rot)  DE(clash)    DE(int)     intcor
     21.75     -24.22       4.58        0.00      80.67       2.34       0.39       2.08       ----

> <Gold.Chemscore.Fitness>
21.7453

> <Gold.Chemscore.DG>
-24.2152

> <Gold.Chemscore.ZeroCoef>
-5.4800

> <Gold.Chemscore.Hbond>
4.5764

> <Gold.Chemscore.Metal>
0.0000

> <Gold.Chemscore.Lipo>
80.6708

> <Gold.Chemscore.Internal_Hbond>
0.0000

> <Gold.Chemscore.DEClash>
0.3942

> <Gold.Chemscore.DEInternal>
2.0757

> <Gold.Chemscore.Rot>
2.3393

> <Gold.Chemscore.Internal.Correction>
   9.000000E+99

> <Gold.Chemscore.Hbonds>
donor molecule, donor type, donor heavy atom, donor atom, acceptor molecule, acceptor atom, score
      L1  H     5    46       P1 10737  0.99
      L1  H     8    33       P1 10737  0.74
      L1  H    10    36       P1 10747  0.29
      L1  H    13    37       P1 10747  0.99
      L1  H    17    47       P1 10186  1.00

> <Gold.Chemscore.Hbond.Weighted>
-15.2853

> <Gold.Chemscore.Metal.Weighted>
-0.0000

> <Gold.Chemscore.Lipo.Weighted>
-9.4385

> <Gold.Chemscore.Internal_Hbond.Weighted>
0.0000

> <Gold.Chemscore.DEClash.Weighted>
0.3942

> <Gold.Chemscore.DEInternal.Weighted>
2.0757

> <Gold.Chemscore.Rot.Weighted>
5.9886

> <Gold.Chemscore.Internal.Correction.Weighted>
   9.000000E+99

> <Gold.Protein.RotatedTorsions>
[ 6907 6896 6895 6894 ] final   31.82 input  -60.11 | X-H torsion
[ 7974 7965 7964 7962 ] final -147.96 input  175.53 | X-H torsion
[ 8008 7997 7996 7995 ] final  122.83 input   59.86 | X-H torsion
[ 10167 10162 10161 10158 ] final   38.69 input  -65.29 | X-H torsion
[ 10718 10713 10712 10709 ] final   70.49 input   66.30 | X-H torsion
[ 10763 10752 10751 10750 ] final  153.27 input  -60.55 | X-H torsion
[ 11005 11000 10999 10996 ] final  -99.02 input  -57.11 | X-H torsion

> <Gold.Protein.ActiveResidues>
 VAL166  LYS551  ARG553  GLY616  TRP617  ASP618  TYR619  PRO620  LYS621  CYS622 
 ASP623  PHE694  ASN695  SER759  ASP760  ASP761  ALA762  ILE779  LEU786  VAL792 
 PHE793  MET794  SER795  GLU796  ALA797  LYS798  CYS799  TRP800  GLU811  SER814 

> <Gold.Protein.RotatedAtoms>
  152.0657  134.9566  160.0574 H   0  0  0  0  0  0  0  0  0  0  0  0  # atno 6907 bound_to 6896
  152.0911  133.4196  159.4552 H   0  0  0  0  0  0  0  0  0  0  0  0  # atno 6908 bound_to 6896
  150.6837  134.2790  159.4663 H   0  0  0  0  0  0  0  0  0  0  0  0  # atno 6909 bound_to 6896
  144.8060  140.5259  143.5675 H   0  0  0  0  0  0  0  0  0  0  0  0  # atno 7974 bound_to 7965
  156.2743  140.2776  156.1531 H   0  0  0  0  0  0  0  0  0  0  0  0  # atno 8008 bound_to 7997
  155.0832  140.0388  157.2663 H   0  0  0  0  0  0  0  0  0  0  0  0  # atno 8009 bound_to 7997
  154.6947  140.2636  155.6783 H   0  0  0  0  0  0  0  0  0  0  0  0  # atno 8010 bound_to 7997
  140.3912  144.1850  150.6131 H   0  0  0  0  0  0  0  0  0  0  0  0  # atno 10167 bound_to 10162
  157.6403  130.9480  150.0658 H   0  0  0  0  0  0  0  0  0  0  0  0  # atno 10718 bound_to 10713
  154.1335  135.2825  155.3179 H   0  0  0  0  0  0  0  0  0  0  0  0  # atno 10763 bound_to 10752
  154.6338  135.5426  153.7714 H   0  0  0  0  0  0  0  0  0  0  0  0  # atno 10764 bound_to 10752
  153.0273  135.6469  154.1484 H   0  0  0  0  0  0  0  0  0  0  0  0  # atno 10765 bound_to 10752
  141.1324  133.8289  157.0917 H   0  0  0  0  0  0  0  0  0  0  0  0  # atno 11005 bound_to 11000
  145.5438  139.1475  143.3432 LP  0  0  0  0  0  0  0  0  0  0  0  0  # atno 17320 bound_to 7965
  146.2351  140.5577  142.8958 LP  0  0  0  0  0  0  0  0  0  0  0  0  # atno 17321 bound_to 7965
  140.4838  143.2370  151.8917 LP  0  0  0  0  0  0  0  0  0  0  0  0  # atno 17342 bound_to 10162
  139.4789  144.5241  151.8760 LP  0  0  0  0  0  0  0  0  0  0  0  0  # atno 17343 bound_to 10162
  156.1677  130.3645  149.9209 LP  0  0  0  0  0  0  0  0  0  0  0  0  # atno 17370 bound_to 10713
  156.7192  130.9000  151.3616 LP  0  0  0  0  0  0  0  0  0  0  0  0  # atno 17371 bound_to 10713
  140.0388  134.9864  157.0923 LP  0  0  0  0  0  0  0  0  0  0  0  0  # atno 17394 bound_to 11000
  140.4167  134.1923  155.7163 LP  0  0  0  0  0  0  0  0  0  0  0  0  # atno 17395 bound_to 11000

$$$$
