#       Name:                AV-unprocessed.smi:910
#       Creating user name   scv26
#       Creation time:       Fri Mar 27 02:02:18 2020


#       File generated by GOLD software.
#

@<TRIPOS>MOLECULE
AV-unprocessed.smi:910
    53    54     1
SMALL
NO_CHARGES


@<TRIPOS>ATOM
      1 ****        -5.1548   1.2220   1.5199 C.3            1 S1                 0.0000
      2 ****        -3.6907   0.8472   1.5890 C.2            1 S1                 0.0000
      3 ****        -3.2660  -0.3123   2.1792 N.pl3          1 S1                 0.0000
      4 ****        -1.8837  -0.3618   2.0902 C.2            1 S1                 0.0000
      5 ****        -1.0917  -1.2951   2.5183 N.2            1 S1                 0.0000
      6 ****         0.2709  -1.1312   2.3336 C.2            1 S1                 0.0000
      7 ****         0.9100  -0.0743   2.3471 O.2            1 S1                 0.0000
      8 ****         0.8523  -2.3097   2.0631 N.am           1 S1                 0.0000
      9 ****         2.2575  -2.5037   1.7201 C.3            1 S1                 0.0000
     10 ****         2.4798  -2.3875   0.2058 C.3            1 S1                 0.0000
     11 ****         2.2882  -1.0387  -0.1918 O.3            1 S1                 0.0000
     12 ****         2.2846  -0.8286  -1.5984 C.3            1 S1                 0.0000
     13 ****         3.2827   0.3039  -1.9036 C.3            1 S1                 0.0000
     14 ****         2.8216   1.6505  -1.3203 C.3            1 S1                 0.0000
     15 ****         1.4096   2.0127  -1.8033 C.3            1 S1                 0.0000
     16 ****         0.4104   0.8916  -1.4816 C.3            1 S1                 0.0000
     17 ****         0.8590  -0.4583  -2.0739 C.3            1 S1                 0.0000
     18 ****        -0.1693  -1.5648  -1.7935 C.3            1 S1                 0.0000
     19 ****        -1.4951   0.7848   1.4360 O.3            1 S1                 0.0000
     20 ****        -2.6178   1.4979   1.1455 C.2            1 S1                 0.0000
     21 ****        -2.4723   2.8220   0.4298 C.3            1 S1                 0.0000
     22 ****        -5.3227   2.1777   2.0166 H              1 S1                 0.0000
     23 ****        -5.7750   0.4682   2.0052 H              1 S1                 0.0000
     24 ****        -5.4722   1.3123   0.4811 H              1 S1                 0.0000
     25 ****        -3.8896  -0.9859   2.5989 H              1 S1                 0.0000
     26 ****         0.2662  -3.1319   2.0584 H              1 S1                 0.0000
     27 ****         2.8977  -1.8044   2.2605 H              1 S1                 0.0000
     28 ****         2.5421  -3.5021   2.0522 H              1 S1                 0.0000
     29 ****         3.4954  -2.6935  -0.0479 H              1 S1                 0.0000
     30 ****         1.7976  -3.0543  -0.3232 H              1 S1                 0.0000
     31 ****         2.6207  -1.7241  -2.1253 H              1 S1                 0.0000
     32 ****         4.2677   0.0474  -1.5126 H              1 S1                 0.0000
     33 ****         3.3978   0.4014  -2.9837 H              1 S1                 0.0000
     34 ****         2.8323   1.6023  -0.2305 H              1 S1                 0.0000
     35 ****         3.5232   2.4366  -1.6005 H              1 S1                 0.0000
     36 ****         1.0847   2.9437  -1.3376 H              1 S1                 0.0000
     37 ****         1.4248   2.1929  -2.8788 H              1 S1                 0.0000
     38 ****         0.3071   0.8019  -0.4005 H              1 S1                 0.0000
     39 ****        -0.5747   1.1586  -1.8652 H              1 S1                 0.0000
     40 ****         0.9026  -0.3388  -3.1575 H              1 S1                 0.0000
     41 ****        -0.3128  -1.7150  -0.7234 H              1 S1                 0.0000
     42 ****         0.1458  -2.5140  -2.2272 H              1 S1                 0.0000
     43 ****        -1.1399  -1.3135  -2.2216 H              1 S1                 0.0000
     44 ****        -3.3961   3.0856  -0.0853 H              1 S1                 0.0000
     45 ****        -1.6701   2.7716  -0.3057 H              1 S1                 0.0000
     46 ****        -2.2361   3.6106   1.1441 H              1 S1                 0.0000
     47 ****        -1.4548  -2.1105   2.9692 LP             1 S1                 0.0000
     48 ****         0.4384   0.7932   2.5054 LP             1 S1                 0.0000
     49 ****         1.8990  -0.0861   2.1996 LP             1 S1                 0.0000
     50 ****         3.0248  -0.4898   0.2032 LP             1 S1                 0.0000
     51 ****         1.4097  -0.7286   0.1717 LP             1 S1                 0.0000
     52 ****        -1.0141   0.5485   0.5917 LP             1 S1                 0.0000
     53 ****        -0.8919   1.3241   2.0236 LP             1 S1                 0.0000
@<TRIPOS>BOND
    1    1   22 1     
    2    1   23 1     
    3    1   24 1     
    4    1    2 1     
    5    2    3 1     
    6    2   20 2     
    7    3   25 1     
    8    3    4 1     
    9    4   19 1     
   10    4    5 2     
   11    5    6 1     
   12    6    8 am    
   13    6    7 2     
   14    8    9 1     
   15    8   26 1     
   16    9   10 1     
   17    9   27 1     
   18    9   28 1     
   19   10   11 1     
   20   10   29 1     
   21   10   30 1     
   22   11   12 1     
   23   12   17 1     
   24   12   13 1     
   25   12   31 1     
   26   13   14 1     
   27   13   32 1     
   28   13   33 1     
   29   14   15 1     
   30   14   34 1     
   31   14   35 1     
   32   15   16 1     
   33   15   36 1     
   34   15   37 1     
   35   16   17 1     
   36   16   38 1     
   37   16   39 1     
   38   17   18 1     
   39   17   40 1     
   40   18   41 1     
   41   18   42 1     
   42   18   43 1     
   43   19   20 1     
   44   20   21 1     
   45   21   44 1     
   46   21   45 1     
   47   21   46 1     
   48    5   47 1     
   49    7   48 1     
   50    7   49 1     
   51   11   50 1     
   52   11   51 1     
   53   19   52 1     
   54   19   53 1     
@<TRIPOS>SUBSTRUCTURE
      1 S1             1
@<TRIPOS>SET
LONE_PAIRS      STATIC     ATOMS    <user>   **** ""
7 47 48 49 50 51 52 53
DONOR_HYDROGENS      STATIC     ATOMS    <user>   **** ""
2 25 26
ATOM$BLUE        STATIC     ATOMS    COLORGROUP SYSTEM
7 47 48 49 50 51 52 53
ATOM$RED        STATIC     ATOMS    COLORGROUP SYSTEM
2 25 26
