AV-unprocessed.smi:212|AV-procd|sdf|1625|dock8
  -GOLD-   2262019573D 1   1.00000     0.00000
 Structure written by MMmdl.
 65 68  0  0  0  0  0  0  0  0  2 V2000
  151.4119  135.4063  156.5612 C   0  0  0  0  0  0  0  0  0  0  0  0
  149.9238  135.1836  156.2257 C   0  0  2  0  0  0  0  0  0  0  0  0
  149.7253  134.4992  154.8579 C   0  0  0  0  0  0  0  0  0  0  0  0
  148.2853  134.2452  154.5962 N   0  3  2  0  0  0  0  0  0  0  0  0
  148.0408  133.4754  153.3482 C   0  0  0  0  0  0  0  0  0  0  0  0
  148.0967  131.9484  153.5804 C   0  0  0  0  0  0  0  0  0  0  0  0
  149.5358  131.5147  153.9060 C   0  0  0  0  0  0  0  0  0  0  0  0
  147.1365  131.4808  154.6898 C   0  0  0  0  0  0  0  0  0  0  0  0
  147.7368  131.2986  152.3765 O   0  0  0  0  0  0  0  0  0  0  0  0
  147.4637  135.4781  154.6937 C   0  0  0  0  0  0  0  0  0  0  0  0
  147.6854  136.1978  156.0397 C   0  0  0  0  0  0  0  0  0  0  0  0
  149.1028  136.3945  156.3330 N   0  0  0  0  0  0  0  0  0  0  0  0
  149.6272  137.5550  155.8734 C   0  0  0  0  0  0  0  0  0  0  0  0
  149.8256  137.7390  154.5424 N   0  0  0  0  0  0  0  0  0  0  0  0
  150.3612  138.8808  154.0996 C   0  0  0  0  0  0  0  0  0  0  0  0
  150.7648  139.9411  154.8028 N   0  0  0  0  0  0  0  0  0  0  0  0
  150.5682  139.7552  156.1396 C   0  0  0  0  0  0  0  0  0  0  0  0
  150.0044  138.6025  156.7531 C   0  0  0  0  0  0  0  0  0  0  0  0
  149.9545  138.7679  158.1309 N   0  0  0  0  0  0  0  0  0  0  0  0
  150.4636  139.9543  158.3239 C   0  0  0  0  0  0  0  0  0  0  0  0
  150.8790  140.6080  157.1848 N   0  0  0  0  0  0  0  0  0  0  0  0
  151.4815  141.9263  157.1175 C   0  0  0  0  0  0  0  0  0  0  0  0
  151.6742  142.6166  158.4973 C   0  0  2  0  0  0  0  0  0  0  0  0
  151.7094  144.1506  158.3180 C   0  0  0  0  0  0  0  0  0  0  0  0
  150.4044  144.6841  158.2209 O   0  0  0  0  0  0  0  0  0  0  0  0
  152.9021  142.1586  159.3402 C   0  0  1  0  0  0  0  0  0  0  0  0
  152.9689  142.5802  160.7976 C   0  0  0  0  0  0  0  0  0  0  0  0
  154.1012  141.6981  161.3147 C   0  0  0  0  0  0  0  0  0  0  0  0
  154.0379  140.4934  160.5544 O   0  0  0  0  0  0  0  0  0  0  0  0
  153.1606  140.6538  159.4426 C   0  0  0  0  0  0  0  0  0  0  0  0
  151.9516  134.4592  156.5758 H   0  0  0  0  0  0  0  0  0  0  0  0
  151.5295  135.8636  157.5441 H   0  0  0  0  0  0  0  0  0  0  0  0
  151.9043  136.0490  155.8304 H   0  0  0  0  0  0  0  0  0  0  0  0
  149.5375  134.5029  156.9856 H   0  0  0  0  0  0  0  0  0  0  0  0
  150.1408  135.1115  154.0563 H   0  0  0  0  0  0  0  0  0  0  0  0
  150.2658  133.5520  154.8422 H   0  0  0  0  0  0  0  0  0  0  0  0
  147.0697  133.7430  152.9273 H   0  0  0  0  0  0  0  0  0  0  0  0
  148.7695  133.7560  152.5857 H   0  0  0  0  0  0  0  0  0  0  0  0
  149.8873  131.9774  154.8288 H   0  0  0  0  0  0  0  0  0  0  0  0
  150.2279  131.7989  153.1121 H   0  0  0  0  0  0  0  0  0  0  0  0
  149.6086  130.4338  154.0329 H   0  0  0  0  0  0  0  0  0  0  0  0
  147.3608  131.9731  155.6367 H   0  0  0  0  0  0  0  0  0  0  0  0
  147.2149  130.4052  154.8530 H   0  0  0  0  0  0  0  0  0  0  0  0
  146.0955  131.6943  154.4452 H   0  0  0  0  0  0  0  0  0  0  0  0
  148.4584  131.3667  151.7691 H   0  0  0  0  0  0  0  0  0  0  0  0
  147.7068  136.1400  153.8620 H   0  0  0  0  0  0  0  0  0  0  0  0
  146.4088  135.2222  154.5897 H   0  0  0  0  0  0  0  0  0  0  0  0
  147.1588  137.1535  156.0483 H   0  0  0  0  0  0  0  0  0  0  0  0
  147.2552  135.6037  156.8468 H   0  0  0  0  0  0  0  0  0  0  0  0
  150.4879  138.9554  153.0295 H   0  0  0  0  0  0  0  0  0  0  0  0
  150.5634  140.3839  159.3102 H   0  0  0  0  0  0  0  0  0  0  0  0
  152.4283  141.8613  156.5818 H   0  0  0  0  0  0  0  0  0  0  0  0
  150.8312  142.5316  156.4853 H   0  0  0  0  0  0  0  0  0  0  0  0
  150.7931  142.3983  159.1024 H   0  0  0  0  0  0  0  0  0  0  0  0
  152.1924  144.6317  159.1691 H   0  0  0  0  0  0  0  0  0  0  0  0
  152.2798  144.4252  157.4303 H   0  0  0  0  0  0  0  0  0  0  0  0
  150.1004  144.5770  157.3323 H   0  0  0  0  0  0  0  0  0  0  0  0
  153.7884  142.5994  158.8805 H   0  0  0  0  0  0  0  0  0  0  0  0
  153.1692  143.6441  160.9267 H   0  0  0  0  0  0  0  0  0  0  0  0
  152.0623  142.3388  161.3445 H   0  0  0  0  0  0  0  0  0  0  0  0
  155.0661  142.1724  161.1318 H   0  0  0  0  0  0  0  0  0  0  0  0
  154.0192  141.5001  162.3838 H   0  0  0  0  0  0  0  0  0  0  0  0
  152.2502  140.0986  159.6598 H   0  0  0  0  0  0  0  0  0  0  0  0
  153.5963  140.2429  158.5317 H   0  0  0  0  0  0  0  0  0  0  0  0
  147.9674  133.6488  155.3471 H   0  0  0  0  0  0  0  0  0  0  0  0
  1  2  1  0  0  0  0
  1 31  1  0  0  0  0
  1 32  1  0  0  0  0
  1 33  1  0  0  0  0
  2 12  1  0  0  0  0
  2  3  1  0  0  0  0
  2 34  1  0  0  0  0
  3  4  1  0  0  0  0
  3 35  1  0  0  0  0
  3 36  1  0  0  0  0
  4  5  1  0  0  0  0
  4 10  1  0  0  0  0
  4 65  1  0  0  0  0
  5  6  1  0  0  0  0
  5 37  1  0  0  0  0
  5 38  1  0  0  0  0
  6  7  1  0  0  0  0
  6  8  1  0  0  0  0
  6  9  1  0  0  0  0
  7 39  1  0  0  0  0
  7 40  1  0  0  0  0
  7 41  1  0  0  0  0
  8 42  1  0  0  0  0
  8 43  1  0  0  0  0
  8 44  1  0  0  0  0
  9 45  1  0  0  0  0
 10 11  1  0  0  0  0
 10 46  1  0  0  0  0
 10 47  1  0  0  0  0
 11 12  1  0  0  0  0
 11 48  1  0  0  0  0
 11 49  1  0  0  0  0
 12 13  1  0  0  0  0
 13 18  1  0  0  0  0
 13 14  2  0  0  0  0
 14 15  1  0  0  0  0
 15 16  2  0  0  0  0
 15 50  1  0  0  0  0
 16 17  1  0  0  0  0
 17 21  1  0  0  0  0
 17 18  2  0  0  0  0
 18 19  1  0  0  0  0
 19 20  2  0  0  0  0
 20 21  1  0  0  0  0
 20 51  1  0  0  0  0
 21 22  1  0  0  0  0
 22 23  1  0  0  0  0
 22 52  1  0  0  0  0
 22 53  1  0  0  0  0
 23 24  1  0  0  0  0
 23 26  1  0  0  0  0
 23 54  1  0  0  0  0
 24 25  1  0  0  0  0
 24 55  1  0  0  0  0
 24 56  1  0  0  0  0
 25 57  1  0  0  0  0
 26 30  1  0  0  0  0
 26 27  1  0  0  0  0
 26 58  1  0  0  0  0
 27 28  1  0  0  0  0
 27 59  1  0  0  0  0
 27 60  1  0  0  0  0
 28 29  1  0  0  0  0
 28 61  1  0  0  0  0
 28 62  1  0  0  0  0
 29 30  1  0  0  0  0
 30 63  1  0  0  0  0
 30 64  1  0  0  0  0
M  CHG  1   4   1
M  END
> <s_m_source_file>
AV-unprocessed.smi

> <i_m_source_file_index>
212

> <i_lp_mmshare_version>
43012

> <i_f3d_flags>
0

> <s_epik_input>
W0NIM11bQ0BASF0xW0NIMl1OKFtDSDJdQyhbQ0gzXSkoW0NIM10pW09IXSlbQ0gyXVtDSDJdTjFjKG5bY0hdbjIpYyhjMjMpbltjSF1uM1tDSDJdW0NASF0oW0NIMl1bT0hdKVtDQEBIXTRbQ0gyXVtDSDJdT1tDSDJdNA==

> <s_epik_cmdline>
J2VwaWtfcHl0aG9uJywgJy1waCcsICc3LjAnLCAnLXRuJywgJzgnLCAnLW1hJywgJzIwMCcsICctbWV0YWxfYmluZGluZycsICctaW1hZScsICc8aW5maWxlLm1hZT4nLCAnLW9tYWUnLCAnPG91dGZpbGUubWFlPic=

> <r_lp_tautomer_probability>
1

> <r_epik_Ionization_Penalty>
0.00182193

> <r_epik_Ionization_Penalty_Charging>
0.00173996

> <r_epik_Ionization_Penalty_Neutral>
8.19718e-05

> <r_epik_State_Penalty>
-0

> <r_epik_Charging_Adjusted_Penalty>
0.00173996

> <i_epik_Tot_Q>
1

> <i_epik_Tot_abs_Q>
1

> <r_epik_Metal_State_Penalty>
-0

> <b_epik_Metal_Only>
0

> <s_lp_Force_Field>
OPLS_2005

> <r_lp_Energy>
61.8926

> <b_lp_Chiralities_Consistent>
1

> <s_lp_Variant>
AV-unprocessed.smi:212-9

> <Gold.Version>
5.8.1

> <Gold.Id.Protein>
6NUR|6NUR_protein|mol2

> <Gold.PLP.Fitness>
55.6366

> <Gold.PLP.PLP>
-45.5144

> <Gold.PLP.part.hbond>
-3.8819

> <Gold.PLP.part.metal>
0.0000

> <Gold.PLP.part.buried>
-5.8742

> <Gold.PLP.part.nonpolar>
-35.4222

> <Gold.PLP.part.repulsive>
0.3000

> <Gold.PLP.ligand.clash>
0.0000

> <Gold.PLP.ligand.torsion>
1.2871

> <Gold.PLP.Chemscore.Hbond>
2.8800

> <Gold.PLP.Chemscore.CHOScore>
1.0000

> <Gold.PLP.Chemscore.Metal>
0.0000

> <Gold.Chemscore.Hbonds>
donor molecule, donor type, donor heavy atom, donor atom, acceptor molecule, acceptor atom, score
      L1  H     9    45       P1 10747  0.86
      L1  H    25    57       P1  8028  0.99
      P1  H  7989  7998       L1    16  1.00
      L1  C    15    50       P1  7957  1.00

> <Gold.PLP.Chemscore.Internal.Correction>
1.0565

> <Gold.Rescore>
     Score         DG    S(hbond)    S(metal)    S(lipo)     H(rot)  DE(clash)    DE(int)     intcor
     14.06     -16.70       2.53        0.00     104.23       3.68       0.34       2.31       ----

> <Gold.Chemscore.Fitness>
14.0554

> <Gold.Chemscore.DG>
-16.7037

> <Gold.Chemscore.ZeroCoef>
-5.4800

> <Gold.Chemscore.Hbond>
2.5306

> <Gold.Chemscore.Metal>
0.0000

> <Gold.Chemscore.Lipo>
104.2339

> <Gold.Chemscore.Internal_Hbond>
0.0000

> <Gold.Chemscore.DEClash>
0.3365

> <Gold.Chemscore.DEInternal>
2.3119

> <Gold.Chemscore.Rot>
3.6812

> <Gold.Chemscore.Internal.Correction>
   9.000000E+99

> <Gold.Chemscore.Hbonds>
donor molecule, donor type, donor heavy atom, donor atom, acceptor molecule, acceptor atom, score
      L1  H     9    45       P1 10747  0.85
      L1  H    25    57       P1  8028  0.28
      P1  H  7989  7998       L1    16  0.26

> <Gold.Chemscore.Hbond.Weighted>
-8.4523

> <Gold.Chemscore.Metal.Weighted>
-0.0000

> <Gold.Chemscore.Lipo.Weighted>
-12.1954

> <Gold.Chemscore.Internal_Hbond.Weighted>
0.0000

> <Gold.Chemscore.DEClash.Weighted>
0.3365

> <Gold.Chemscore.DEInternal.Weighted>
2.3119

> <Gold.Chemscore.Rot.Weighted>
9.4239

> <Gold.Chemscore.Internal.Correction.Weighted>
   9.000000E+99

> <Gold.Protein.RotatedTorsions>
[ 6907 6896 6895 6894 ] final   62.12 input  -60.11 | X-H torsion
[ 7974 7965 7964 7962 ] final  -24.08 input  175.53 | X-H torsion
[ 8008 7997 7996 7995 ] final -121.61 input   59.86 | X-H torsion
[ 10167 10162 10161 10158 ] final   97.01 input  -65.29 | X-H torsion
[ 10718 10713 10712 10709 ] final   66.48 input   66.30 | X-H torsion
[ 10763 10752 10751 10750 ] final  127.51 input  -60.55 | X-H torsion
[ 11005 11000 10999 10996 ] final  -30.35 input  -57.11 | X-H torsion

> <Gold.Protein.ActiveResidues>
 VAL166  LYS551  ARG553  GLY616  TRP617  ASP618  TYR619  PRO620  LYS621  CYS622 
 ASP623  PHE694  ASN695  SER759  ASP760  ASP761  ALA762  ILE779  LEU786  VAL792 
 PHE793  MET794  SER795  GLU796  ALA797  LYS798  CYS799  TRP800  GLU811  SER814 

> <Gold.Protein.RotatedAtoms>
  152.4146  134.6064  160.0013 H   0  0  0  0  0  0  0  0  0  0  0  0  # atno 6907 bound_to 6896
  151.6231  133.3332  159.3100 H   0  0  0  0  0  0  0  0  0  0  0  0  # atno 6908 bound_to 6896
  150.8035  134.7184  159.6689 H   0  0  0  0  0  0  0  0  0  0  0  0  # atno 6909 bound_to 6896
  146.1576  140.4704  142.8585 H   0  0  0  0  0  0  0  0  0  0  0  0  # atno 7974 bound_to 7965
  155.1507  140.0404  157.2820 H   0  0  0  0  0  0  0  0  0  0  0  0  # atno 8008 bound_to 7997
  154.6406  140.2546  155.7300 H   0  0  0  0  0  0  0  0  0  0  0  0  # atno 8009 bound_to 7997
  156.2530  140.2856  156.0798 H   0  0  0  0  0  0  0  0  0  0  0  0  # atno 8010 bound_to 7997
  139.7841  144.6877  150.9982 H   0  0  0  0  0  0  0  0  0  0  0  0  # atno 10167 bound_to 10162
  157.6172  130.9270  150.0115 H   0  0  0  0  0  0  0  0  0  0  0  0  # atno 10718 bound_to 10713
  153.7105  135.3269  155.3245 H   0  0  0  0  0  0  0  0  0  0  0  0  # atno 10763 bound_to 10752
  154.8386  135.4476  154.1318 H   0  0  0  0  0  0  0  0  0  0  0  0  # atno 10764 bound_to 10752
  153.2411  135.6971  153.7861 H   0  0  0  0  0  0  0  0  0  0  0  0  # atno 10765 bound_to 10752
  140.9375  133.7299  156.1027 H   0  0  0  0  0  0  0  0  0  0  0  0  # atno 11005 bound_to 11000
  144.7984  140.6167  143.6494 LP  0  0  0  0  0  0  0  0  0  0  0  0  # atno 17320 bound_to 7965
  145.4668  139.1507  143.3836 LP  0  0  0  0  0  0  0  0  0  0  0  0  # atno 17321 bound_to 7965
  140.7819  143.4451  151.0494 LP  0  0  0  0  0  0  0  0  0  0  0  0  # atno 17342 bound_to 10162
  139.8131  143.7924  152.3172 LP  0  0  0  0  0  0  0  0  0  0  0  0  # atno 17343 bound_to 10162
  156.1299  130.3643  149.9748 LP  0  0  0  0  0  0  0  0  0  0  0  0  # atno 17370 bound_to 10713
  156.7811  130.9222  151.3646 LP  0  0  0  0  0  0  0  0  0  0  0  0  # atno 17371 bound_to 10713
  140.7779  134.3759  157.5494 LP  0  0  0  0  0  0  0  0  0  0  0  0  # atno 17394 bound_to 11000
  139.8811  134.9063  156.2920 LP  0  0  0  0  0  0  0  0  0  0  0  0  # atno 17395 bound_to 11000

$$$$
