AV-unprocessed.smi:2254|AV-procd|sdf|9123|dock5
  -GOLD-   2272012323D 1   1.00000     0.00000
 Structure written by MMmdl.
 41 42  0  0  0  0  0  0  0  0  1 V2000
  148.7724  132.2319  154.1365 C   0  0  0  0  0  0  0  0  0  0  0  0
  149.3630  133.4874  154.7536 C   0  0  0  0  0  0  0  0  0  0  0  0
  149.0697  134.6823  154.0899 N   0  0  0  0  0  0  0  0  0  0  0  0
  149.5412  135.8004  154.5362 C   0  0  0  0  0  0  0  0  0  0  0  0
  150.3508  135.8538  155.6819 N   0  0  0  0  0  0  0  0  0  0  0  0
  150.8281  137.1870  156.0814 C   0  0  0  0  0  0  0  0  0  0  0  0
  151.4798  137.9461  154.9020 C   0  0  2  0  0  0  0  0  0  0  0  0
  152.7924  137.4576  154.7119 O   0  0  0  0  0  0  0  0  0  0  0  0
  151.5862  139.4550  155.1693 C   0  0  0  0  0  0  0  0  0  0  0  0
  152.4090  139.6486  156.3072 O   0  0  0  0  0  0  0  0  0  0  0  0
  151.6745  139.8341  157.5054 C   0  0  0  0  0  0  0  0  0  0  0  0
  151.8342  141.2364  158.0635 C   0  0  0  0  0  0  0  0  0  0  0  0
  152.2905  141.4390  159.3845 C   0  0  0  0  0  0  0  0  0  0  0  0
  152.4201  142.7443  159.8973 C   0  0  0  0  0  0  0  0  0  0  0  0
  152.0883  143.8534  159.0951 C   0  0  0  0  0  0  0  0  0  0  0  0
  152.2458  145.4524  159.7241 Cl  0  0  0  0  0  0  0  0  0  0  0  0
  151.6244  143.6559  157.7800 C   0  0  0  0  0  0  0  0  0  0  0  0
  151.4950  142.3504  157.2668 C   0  0  0  0  0  0  0  0  0  0  0  0
  150.6672  134.7389  156.4025 C   0  0  0  0  0  0  0  0  0  0  0  0
  151.3556  134.8017  157.4232 O   0  0  0  0  0  0  0  0  0  0  0  0
  150.1305  133.4728  155.8778 C   0  0  0  0  0  0  0  0  0  0  0  0
  150.4849  132.2025  156.6409 C   0  0  0  0  0  0  0  0  0  0  0  0
  148.0964  131.7430  154.8384 H   0  0  0  0  0  0  0  0  0  0  0  0
  149.5625  131.5308  153.8662 H   0  0  0  0  0  0  0  0  0  0  0  0
  148.2071  132.4616  153.2324 H   0  0  0  0  0  0  0  0  0  0  0  0
  149.3392  136.7605  154.0581 H   0  0  0  0  0  0  0  0  0  0  0  0
  149.9734  137.7522  156.4578 H   0  0  0  0  0  0  0  0  0  0  0  0
  151.5043  137.1447  156.9382 H   0  0  0  0  0  0  0  0  0  0  0  0
  150.9216  137.7959  153.9769 H   0  0  0  0  0  0  0  0  0  0  0  0
  153.4040  138.1348  154.9575 H   0  0  0  0  0  0  0  0  0  0  0  0
  151.9981  139.9741  154.3020 H   0  0  0  0  0  0  0  0  0  0  0  0
  150.5974  139.8730  155.3663 H   0  0  0  0  0  0  0  0  0  0  0  0
  150.6167  139.6417  157.3181 H   0  0  0  0  0  0  0  0  0  0  0  0
  152.0083  139.1219  158.2614 H   0  0  0  0  0  0  0  0  0  0  0  0
  152.5440  140.5968  160.0117 H   0  0  0  0  0  0  0  0  0  0  0  0
  152.7727  142.8924  160.9074 H   0  0  0  0  0  0  0  0  0  0  0  0
  151.3660  144.5046  157.1639 H   0  0  0  0  0  0  0  0  0  0  0  0
  151.1353  142.2070  156.2584 H   0  0  0  0  0  0  0  0  0  0  0  0
  151.5645  132.0493  156.6326 H   0  0  0  0  0  0  0  0  0  0  0  0
  150.0218  131.3084  156.2269 H   0  0  0  0  0  0  0  0  0  0  0  0
  150.1636  132.2853  157.6796 H   0  0  0  0  0  0  0  0  0  0  0  0
  1  2  1  0  0  0  0
  1 23  1  0  0  0  0
  1 24  1  0  0  0  0
  1 25  1  0  0  0  0
  2 21  2  0  0  0  0
  2  3  1  0  0  0  0
  3  4  2  0  0  0  0
  4  5  1  0  0  0  0
  4 26  1  0  0  0  0
  5  6  1  0  0  0  0
  5 19  1  0  0  0  0
  6  7  1  0  0  0  0
  6 27  1  0  0  0  0
  6 28  1  0  0  0  0
  7  8  1  0  0  0  0
  7  9  1  0  0  0  0
  7 29  1  0  0  0  0
  8 30  1  0  0  0  0
  9 10  1  0  0  0  0
  9 31  1  0  0  0  0
  9 32  1  0  0  0  0
 10 11  1  0  0  0  0
 11 12  1  0  0  0  0
 11 33  1  0  0  0  0
 11 34  1  0  0  0  0
 12 18  1  0  0  0  0
 12 13  2  0  0  0  0
 13 14  1  0  0  0  0
 13 35  1  0  0  0  0
 14 15  2  0  0  0  0
 14 36  1  0  0  0  0
 15 16  1  0  0  0  0
 15 17  1  0  0  0  0
 17 18  2  0  0  0  0
 17 37  1  0  0  0  0
 18 38  1  0  0  0  0
 19 20  2  0  0  0  0
 19 21  1  0  0  0  0
 21 22  1  0  0  0  0
 22 39  1  0  0  0  0
 22 40  1  0  0  0  0
 22 41  1  0  0  0  0
M  END
> <s_m_source_file>
AV-unprocessed.smi

> <i_m_source_file_index>
2254

> <i_lp_mmshare_version>
43012

> <i_f3d_flags>
0

> <s_epik_input>
W0NIM11jMW5bY0hdbihjKD1PKWMxW0NIM10pW0NIMl1bQ0BIXShbT0hdKVtDSDJdT1tDSDJdYzJbY0hdW2NIXWMoQ2wpW2NIXVtjSF0y

> <s_epik_cmdline>
J2VwaWtfcHl0aG9uJywgJy1waCcsICc3LjAnLCAnLXRuJywgJzgnLCAnLW1hJywgJzIwMCcsICctbWV0YWxfYmluZGluZycsICctaW1hZScsICc8aW5maWxlLm1hZT4nLCAnLW9tYWUnLCAnPG91dGZpbGUubWFlPic=

> <r_lp_tautomer_probability>
1

> <r_epik_Ionization_Penalty>
5.36e-05

> <r_epik_Ionization_Penalty_Charging>
1.17753e-07

> <r_epik_Ionization_Penalty_Neutral>
5.34822e-05

> <r_epik_State_Penalty>
-0

> <r_epik_Charging_Adjusted_Penalty>
1.17753e-07

> <i_epik_Tot_Q>
0

> <i_epik_Tot_abs_Q>
0

> <r_epik_Metal_State_Penalty>
-0

> <b_epik_Metal_Only>
0

> <s_lp_Force_Field>
OPLS_2005

> <r_lp_Energy>
20.9698

> <b_lp_Chiralities_Consistent>
1

> <s_lp_Variant>
AV-unprocessed.smi:2254-1

> <Gold.Version>
5.8.1

> <Gold.Id.Protein>
6NUR|6NUR_protein|mol2

> <Gold.PLP.Fitness>
50.4994

> <Gold.PLP.PLP>
-46.1774

> <Gold.PLP.part.hbond>
-3.0000

> <Gold.PLP.part.metal>
0.0000

> <Gold.PLP.part.buried>
-4.6000

> <Gold.PLP.part.nonpolar>
-38.6680

> <Gold.PLP.part.repulsive>
0.1650

> <Gold.PLP.ligand.clash>
0.0000

> <Gold.PLP.ligand.torsion>
0.8869

> <Gold.PLP.Chemscore.Hbond>
1.3360

> <Gold.PLP.Chemscore.CHOScore>
0.6717

> <Gold.PLP.Chemscore.Metal>
0.0000

> <Gold.Chemscore.Hbonds>
donor molecule, donor type, donor heavy atom, donor atom, acceptor molecule, acceptor atom, score
      P1  H  7997  8009       L1    10  0.93
      P1  H 10752 10765       L1     8  0.42
      L1  C     4    26       P1  7948  0.48

> <Gold.PLP.Chemscore.Internal.Correction>
0.0726

> <Gold.Rescore>
     Score         DG    S(hbond)    S(metal)    S(lipo)     H(rot)  DE(clash)    DE(int)     intcor
     16.04     -16.92       1.26        0.00     116.99       2.52       0.03       0.84       ----

> <Gold.Chemscore.Fitness>
16.0431

> <Gold.Chemscore.DG>
-16.9215

> <Gold.Chemscore.ZeroCoef>
-5.4800

> <Gold.Chemscore.Hbond>
1.2559

> <Gold.Chemscore.Metal>
0.0000

> <Gold.Chemscore.Lipo>
116.9925

> <Gold.Chemscore.Internal_Hbond>
0.0000

> <Gold.Chemscore.DEClash>
0.0348

> <Gold.Chemscore.DEInternal>
0.8436

> <Gold.Chemscore.Rot>
2.5162

> <Gold.Chemscore.Internal.Correction>
   9.000000E+99

> <Gold.Chemscore.Hbonds>
donor molecule, donor type, donor heavy atom, donor atom, acceptor molecule, acceptor atom, score
      P1  H  6896  6908       L1    20  0.01
      P1  H  7997  8009       L1    10  0.82
      P1  H 10752 10765       L1     8  0.40

> <Gold.Chemscore.Hbond.Weighted>
-4.1948

> <Gold.Chemscore.Metal.Weighted>
-0.0000

> <Gold.Chemscore.Lipo.Weighted>
-13.6881

> <Gold.Chemscore.Internal_Hbond.Weighted>
0.0000

> <Gold.Chemscore.DEClash.Weighted>
0.0348

> <Gold.Chemscore.DEInternal.Weighted>
0.8436

> <Gold.Chemscore.Rot.Weighted>
6.4414

> <Gold.Chemscore.Internal.Correction.Weighted>
   9.000000E+99

> <Gold.Protein.RotatedTorsions>
[ 6907 6896 6895 6894 ] final   73.55 input  -60.11 | X-H torsion
[ 7974 7965 7964 7962 ] final  -31.12 input  175.53 | X-H torsion
[ 8008 7997 7996 7995 ] final -143.86 input   59.86 | X-H torsion
[ 10167 10162 10161 10158 ] final   38.22 input  -65.29 | X-H torsion
[ 10718 10713 10712 10709 ] final   68.87 input   66.30 | X-H torsion
[ 10763 10752 10751 10750 ] final  176.93 input  -60.55 | X-H torsion
[ 11005 11000 10999 10996 ] final -105.15 input  -57.11 | X-H torsion

> <Gold.Protein.ActiveResidues>
 VAL166  LYS551  ARG553  GLY616  TRP617  ASP618  TYR619  PRO620  LYS621  CYS622 
 ASP623  PHE694  ASN695  SER759  ASP760  ASP761  ALA762  ILE779  LEU786  VAL792 
 PHE793  MET794  SER795  GLU796  ALA797  LYS798  CYS799  TRP800  GLU811  SER814 

> <Gold.Protein.RotatedAtoms>
  152.4929  134.4405  159.9541 H   0  0  0  0  0  0  0  0  0  0  0  0  # atno 6907 bound_to 6896
  151.4389  133.3643  159.2787 H   0  0  0  0  0  0  0  0  0  0  0  0  # atno 6908 bound_to 6896
  150.9102  134.8542  159.7480 H   0  0  0  0  0  0  0  0  0  0  0  0  # atno 6909 bound_to 6896
  146.1092  140.5627  142.8786 H   0  0  0  0  0  0  0  0  0  0  0  0  # atno 7974 bound_to 7965
  155.5175  140.0588  157.2912 H   0  0  0  0  0  0  0  0  0  0  0  0  # atno 8008 bound_to 7997
  154.4529  140.1958  156.0411 H   0  0  0  0  0  0  0  0  0  0  0  0  # atno 8009 bound_to 7997
  156.0741  140.3256  155.7616 H   0  0  0  0  0  0  0  0  0  0  0  0  # atno 8010 bound_to 7997
  140.3957  144.1792  150.6132 H   0  0  0  0  0  0  0  0  0  0  0  0  # atno 10167 bound_to 10162
  157.6314  130.9396  150.0436 H   0  0  0  0  0  0  0  0  0  0  0  0  # atno 10718 bound_to 10713
  154.4878  135.2777  155.1521 H   0  0  0  0  0  0  0  0  0  0  0  0  # atno 10763 bound_to 10752
  154.3205  135.6210  153.5509 H   0  0  0  0  0  0  0  0  0  0  0  0  # atno 10764 bound_to 10752
  152.9883  135.5741  154.5292 H   0  0  0  0  0  0  0  0  0  0  0  0  # atno 10765 bound_to 10752
  141.1067  133.8783  157.1699 H   0  0  0  0  0  0  0  0  0  0  0  0  # atno 11005 bound_to 11000
  144.7496  140.5158  143.6811 LP  0  0  0  0  0  0  0  0  0  0  0  0  # atno 17320 bound_to 7965
  145.5699  139.1483  143.3294 LP  0  0  0  0  0  0  0  0  0  0  0  0  # atno 17321 bound_to 7965
  140.4793  143.2385  151.8979 LP  0  0  0  0  0  0  0  0  0  0  0  0  # atno 17342 bound_to 10162
  139.4787  144.5287  151.8698 LP  0  0  0  0  0  0  0  0  0  0  0  0  # atno 17343 bound_to 10162
  156.1520  130.3642  149.9425 LP  0  0  0  0  0  0  0  0  0  0  0  0  # atno 17370 bound_to 10713
  156.7442  130.9091  151.3634 LP  0  0  0  0  0  0  0  0  0  0  0  0  # atno 17371 bound_to 10713
  139.9941  135.0053  157.0041 LP  0  0  0  0  0  0  0  0  0  0  0  0  # atno 17394 bound_to 11000
  140.4883  134.1219  155.7228 LP  0  0  0  0  0  0  0  0  0  0  0  0  # atno 17395 bound_to 11000

$$$$
