AV-unprocessed.smi:1517|AV-procd|sdf|6121|dock6
  -GOLD-   22720 6253D 1   1.00000     0.00000
 Structure written by MMmdl.
 42 44  0  0  0  0  0  0  0  0  2 V2000
  148.4602  140.7519  153.5477 O   0  0  0  0  0  0  0  0  0  0  0  0
  147.1101  140.3898  153.3510 C   0  0  0  0  0  0  0  0  0  0  0  0
  147.0259  138.9544  152.8158 C   0  0  0  0  0  0  0  0  0  0  0  0
  145.6469  138.5222  152.6555 N   0  0  0  0  0  0  0  0  0  0  0  0
  145.3831  137.1735  152.3958 C   0  0  0  0  0  0  0  0  0  0  0  0
  146.3041  136.2266  152.0718 N   0  3  0  0  0  0  0  0  0  0  0  0
  145.6399  135.0090  151.8961 C   0  0  0  0  0  0  0  0  0  0  0  0
  146.1264  133.7483  151.5638 C   0  0  0  0  0  0  0  0  0  0  0  0
  145.1780  132.7090  151.4646 C   0  0  0  0  0  0  0  0  0  0  0  0
  143.8059  132.9406  151.6936 C   0  0  0  0  0  0  0  0  0  0  0  0
  143.3210  134.2215  152.0305 C   0  0  0  0  0  0  0  0  0  0  0  0
  144.2628  135.2453  152.1246 C   0  0  0  0  0  0  0  0  0  0  0  0
  144.1491  136.6070  152.4297 N   0  0  0  0  0  0  0  0  0  0  0  0
  142.8279  137.1793  152.7276 C   0  0  0  0  0  0  0  0  0  0  0  0
  142.5837  137.3615  154.2382 C   0  0  1  0  0  0  0  0  0  0  0  0
  143.1845  138.5660  154.6766 O   0  0  0  0  0  0  0  0  0  0  0  0
  141.0983  137.2911  154.5656 C   0  0  0  0  0  0  0  0  0  0  0  0
  140.1422  137.1172  153.5393 C   0  0  0  0  0  0  0  0  0  0  0  0
  138.7704  137.0450  153.8490 C   0  0  0  0  0  0  0  0  0  0  0  0
  138.3444  137.1405  155.1871 C   0  0  0  0  0  0  0  0  0  0  0  0
  137.0254  137.0706  155.4852 F   0  0  0  0  0  0  0  0  0  0  0  0
  139.2914  137.3045  156.2157 C   0  0  0  0  0  0  0  0  0  0  0  0
  140.6642  137.3773  155.9081 C   0  0  0  0  0  0  0  0  0  0  0  0
  141.5637  137.5248  156.9109 F   0  0  0  0  0  0  0  0  0  0  0  0
  148.9340  140.5946  152.7451 H   0  0  0  0  0  0  0  0  0  0  0  0
  146.5410  140.5136  154.2733 H   0  0  0  0  0  0  0  0  0  0  0  0
  146.6890  141.0792  152.6188 H   0  0  0  0  0  0  0  0  0  0  0  0
  147.5001  138.9143  151.8343 H   0  0  0  0  0  0  0  0  0  0  0  0
  147.5728  138.2667  153.4624 H   0  0  0  0  0  0  0  0  0  0  0  0
  144.9021  139.1300  152.9662 H   0  0  0  0  0  0  0  0  0  0  0  0
  147.1768  133.5663  151.3891 H   0  0  0  0  0  0  0  0  0  0  0  0
  145.5098  131.7132  151.2084 H   0  0  0  0  0  0  0  0  0  0  0  0
  143.1102  132.1183  151.6095 H   0  0  0  0  0  0  0  0  0  0  0  0
  142.2680  134.3877  152.2058 H   0  0  0  0  0  0  0  0  0  0  0  0
  142.7548  138.1376  152.2115 H   0  0  0  0  0  0  0  0  0  0  0  0
  142.0678  136.5347  152.2844 H   0  0  0  0  0  0  0  0  0  0  0  0
  143.0903  136.5609  154.7780 H   0  0  0  0  0  0  0  0  0  0  0  0
  143.5557  139.0063  153.9270 H   0  0  0  0  0  0  0  0  0  0  0  0
  140.4555  137.0349  152.5087 H   0  0  0  0  0  0  0  0  0  0  0  0
  138.0452  136.9143  153.0593 H   0  0  0  0  0  0  0  0  0  0  0  0
  138.9647  137.3725  157.2430 H   0  0  0  0  0  0  0  0  0  0  0  0
  147.2970  136.3984  151.9827 H   0  0  0  0  0  0  0  0  0  0  0  0
  1  2  1  0  0  0  0
  1 25  1  0  0  0  0
  2  3  1  0  0  0  0
  2 26  1  0  0  0  0
  2 27  1  0  0  0  0
  3  4  1  0  0  0  0
  3 28  1  0  0  0  0
  3 29  1  0  0  0  0
  4  5  1  0  0  0  0
  4 30  1  0  0  0  0
  5 13  1  0  0  0  0
  5  6  2  0  0  0  0
  6  7  1  0  0  0  0
  6 42  1  0  0  0  0
  7 12  2  0  0  0  0
  7  8  1  0  0  0  0
  8  9  2  0  0  0  0
  8 31  1  0  0  0  0
  9 10  1  0  0  0  0
  9 32  1  0  0  0  0
 10 11  2  0  0  0  0
 10 33  1  0  0  0  0
 11 12  1  0  0  0  0
 11 34  1  0  0  0  0
 12 13  1  0  0  0  0
 13 14  1  0  0  0  0
 14 15  1  0  0  0  0
 14 35  1  0  0  0  0
 14 36  1  0  0  0  0
 15 16  1  0  0  0  0
 15 17  1  0  0  0  0
 15 37  1  0  0  0  0
 16 38  1  0  0  0  0
 17 23  1  0  0  0  0
 17 18  2  0  0  0  0
 18 19  1  0  0  0  0
 18 39  1  0  0  0  0
 19 20  2  0  0  0  0
 19 40  1  0  0  0  0
 20 21  1  0  0  0  0
 20 22  1  0  0  0  0
 22 23  2  0  0  0  0
 22 41  1  0  0  0  0
 23 24  1  0  0  0  0
M  CHG  1   6   1
M  END
> <s_m_source_file>
AV-unprocessed.smi

> <i_m_source_file_index>
1517

> <i_lp_mmshare_version>
43012

> <i_f3d_flags>
0

> <s_epik_input>
W09IXVtDSDJdW0NIMl1bTkhdYyhuMSluKGMoYzEyKVtjSF1bY0hdW2NIXVtjSF0yKVtDSDJdW0NASF0oW09IXSljM1tjSF1bY0hdYyhGKVtjSF1jM0Y=

> <s_epik_cmdline>
J2VwaWtfcHl0aG9uJywgJy1waCcsICc3LjAnLCAnLXRuJywgJzgnLCAnLW1hJywgJzIwMCcsICctbWV0YWxfYmluZGluZycsICctaW1hZScsICc8aW5maWxlLm1hZT4nLCAnLW9tYWUnLCAnPG91dGZpbGUubWFlPic=

> <r_epik_Ionization_Penalty>
0.0688096

> <r_epik_Ionization_Penalty_Charging>
0.0688055

> <r_epik_Ionization_Penalty_Neutral>
4.12262e-06

> <r_epik_State_Penalty>
0.0602293

> <r_epik_Charging_Adjusted_Penalty>
0.129035

> <i_epik_Tot_Q>
1

> <i_epik_Tot_abs_Q>
1

> <r_epik_Metal_State_Penalty>
2.77411

> <b_epik_Metal_Only>
0

> <s_lp_Force_Field>
OPLS_2005

> <r_lp_Energy>
23.6459

> <b_lp_Chiralities_Consistent>
1

> <s_lp_Variant>
AV-unprocessed.smi:1517-2

> <Gold.Version>
5.8.1

> <Gold.Id.Protein>
6NUR|6NUR_protein|mol2

> <Gold.PLP.Fitness>
60.4764

> <Gold.PLP.PLP>
-43.6065

> <Gold.PLP.part.hbond>
-4.5367

> <Gold.PLP.part.metal>
0.0000

> <Gold.PLP.part.buried>
-5.7023

> <Gold.PLP.part.nonpolar>
-32.7684

> <Gold.PLP.part.repulsive>
0.0595

> <Gold.PLP.ligand.clash>
0.0000

> <Gold.PLP.ligand.torsion>
0.6021

> <Gold.PLP.Chemscore.Hbond>
6.0000

> <Gold.PLP.Chemscore.CHOScore>
0.0000

> <Gold.PLP.Chemscore.Metal>
0.0000

> <Gold.Chemscore.Hbonds>
donor molecule, donor type, donor heavy atom, donor atom, acceptor molecule, acceptor atom, score
      L1  H     1    25       P1  7957  1.00
      L1  H     4    30       P1 10175  1.82
      L1  H     6    42       P1  7948  2.00
      L1  H    16    38       P1 10175  0.98

> <Gold.PLP.Chemscore.Internal.Correction>
0.0742

> <Gold.Rescore>
     Score         DG    S(hbond)    S(metal)    S(lipo)     H(rot)  DE(clash)    DE(int)     intcor
     20.05     -20.92       3.96        0.00      90.82       3.29       0.06       0.81       ----

> <Gold.Chemscore.Fitness>
20.0500

> <Gold.Chemscore.DG>
-20.9155

> <Gold.Chemscore.ZeroCoef>
-5.4800

> <Gold.Chemscore.Hbond>
3.9596

> <Gold.Chemscore.Metal>
0.0000

> <Gold.Chemscore.Lipo>
90.8227

> <Gold.Chemscore.Internal_Hbond>
0.0000

> <Gold.Chemscore.DEClash>
0.0592

> <Gold.Chemscore.DEInternal>
0.8063

> <Gold.Chemscore.Rot>
3.2874

> <Gold.Chemscore.Internal.Correction>
   9.000000E+99

> <Gold.Chemscore.Hbonds>
donor molecule, donor type, donor heavy atom, donor atom, acceptor molecule, acceptor atom, score
      L1  H     1    25       P1  7957  1.00
      L1  H     4    30       P1 10175  0.90
      L1  H     6    42       P1  7948  1.00
      L1  H    16    38       P1 10175  0.90

> <Gold.Chemscore.Hbond.Weighted>
-13.2251

> <Gold.Chemscore.Metal.Weighted>
-0.0000

> <Gold.Chemscore.Lipo.Weighted>
-10.6263

> <Gold.Chemscore.Internal_Hbond.Weighted>
0.0000

> <Gold.Chemscore.DEClash.Weighted>
0.0592

> <Gold.Chemscore.DEInternal.Weighted>
0.8063

> <Gold.Chemscore.Rot.Weighted>
8.4158

> <Gold.Chemscore.Internal.Correction.Weighted>
   9.000000E+99

> <Gold.Protein.RotatedTorsions>
[ 6907 6896 6895 6894 ] final -101.58 input  -60.11 | X-H torsion
[ 7974 7965 7964 7962 ] final   20.24 input  175.53 | X-H torsion
[ 8008 7997 7996 7995 ] final   77.28 input   59.86 | X-H torsion
[ 10167 10162 10161 10158 ] final  -17.01 input  -65.29 | X-H torsion
[ 10718 10713 10712 10709 ] final   98.01 input   66.30 | X-H torsion
[ 10763 10752 10751 10750 ] final  -80.88 input  -60.55 | X-H torsion
[ 11005 11000 10999 10996 ] final  157.55 input  -57.11 | X-H torsion

> <Gold.Protein.ActiveResidues>
 VAL166  LYS551  ARG553  GLY616  TRP617  ASP618  TYR619  PRO620  LYS621  CYS622 
 ASP623  PHE694  ASN695  SER759  ASP760  ASP761  ALA762  ILE779  LEU786  VAL792 
 PHE793  MET794  SER795  GLU796  ALA797  LYS798  CYS799  TRP800  GLU811  SER814 

> <Gold.Protein.RotatedAtoms>
  150.7160  134.0712  159.3864 H   0  0  0  0  0  0  0  0  0  0  0  0  # atno 6907 bound_to 6896
  151.8694  135.0493  160.0487 H   0  0  0  0  0  0  0  0  0  0  0  0  # atno 6908 bound_to 6896
  152.2655  133.5299  159.5444 H   0  0  0  0  0  0  0  0  0  0  0  0  # atno 6909 bound_to 6896
  146.2119  139.8198  142.8682 H   0  0  0  0  0  0  0  0  0  0  0  0  # atno 7974 bound_to 7965
  155.8394  140.3463  155.5622 H   0  0  0  0  0  0  0  0  0  0  0  0  # atno 8008 bound_to 7997
  155.8157  140.0905  157.1898 H   0  0  0  0  0  0  0  0  0  0  0  0  # atno 8009 bound_to 7997
  154.4005  140.1439  156.3427 H   0  0  0  0  0  0  0  0  0  0  0  0  # atno 8010 bound_to 7997
  140.7241  143.5058  150.9811 H   0  0  0  0  0  0  0  0  0  0  0  0  # atno 10167 bound_to 10162
  157.6903  131.0627  150.4730 H   0  0  0  0  0  0  0  0  0  0  0  0  # atno 10718 bound_to 10713
  154.5567  135.5645  153.6970 H   0  0  0  0  0  0  0  0  0  0  0  0  # atno 10763 bound_to 10752
  153.0005  135.6264  154.2301 H   0  0  0  0  0  0  0  0  0  0  0  0  # atno 10764 bound_to 10752
  154.2237  135.2868  155.2895 H   0  0  0  0  0  0  0  0  0  0  0  0  # atno 10765 bound_to 10752
  140.1780  134.8496  157.2769 H   0  0  0  0  0  0  0  0  0  0  0  0  # atno 11005 bound_to 11000
  145.3108  141.0219  143.3555 LP  0  0  0  0  0  0  0  0  0  0  0  0  # atno 17320 bound_to 7965
  144.8937  139.4740  143.6665 LP  0  0  0  0  0  0  0  0  0  0  0  0  # atno 17321 bound_to 7965
  139.8770  143.7120  152.3161 LP  0  0  0  0  0  0  0  0  0  0  0  0  # atno 17342 bound_to 10162
  139.7389  144.7564  151.0684 LP  0  0  0  0  0  0  0  0  0  0  0  0  # atno 17343 bound_to 10162
  156.5067  130.4129  149.6323 LP  0  0  0  0  0  0  0  0  0  0  0  0  # atno 17370 bound_to 10713
  156.3278  130.7315  151.2239 LP  0  0  0  0  0  0  0  0  0  0  0  0  # atno 17371 bound_to 10713
  140.2300  134.3921  155.7526 LP  0  0  0  0  0  0  0  0  0  0  0  0  # atno 17394 bound_to 11000
  141.2221  133.7210  156.8625 LP  0  0  0  0  0  0  0  0  0  0  0  0  # atno 17395 bound_to 11000

$$$$
