#       Name:                AV-unprocessed.smi:1565
#       Creating user name   scv26
#       Creation time:       Fri Mar 27 06:50:19 2020


#       File generated by GOLD software.
#

@<TRIPOS>MOLECULE
AV-unprocessed.smi:1565
    46    47     1
SMALL
NO_CHARGES


@<TRIPOS>ATOM
      1 ****        -4.1997  -1.6707  -0.4424 C.3            1 S1                 0.0000
      2 ****        -3.8137  -1.0508   0.9125 C.3            1 S1                 0.0000
      3 ****        -2.2928  -1.0164   1.1586 C.3            1 S1                 0.0000
      4 ****        -1.6580   0.0368   0.3716 N.3            1 S1                 0.0000
      5 ****        -0.2501  -0.0282   0.3036 C.ar           1 S1                 0.0000
      6 ****         0.3823  -1.2116  -0.1429 C.ar           1 S1                 0.0000
      7 ****         1.7887  -1.2612  -0.1955 C.ar           1 S1                 0.0000
      8 ****         2.5345  -0.1240   0.1903 C.ar           1 S1                 0.0000
      9 ****         4.0394  -0.1182   0.1979 C.2            1 S1                 0.0000
     10 ****         4.6112   0.5048   1.0995 O.2            1 S1                 0.0000
     11 ****         4.5684  -0.7909  -0.8632 N.pl3          1 S1                -1.0000
     12 ****         6.0048  -0.9485  -1.1049 C.3            1 S1                 0.0000
     13 ****         6.5561   0.1937  -1.9825 C.3            1 S1                 0.0000
     14 ****         7.8529  -0.0193  -2.2059 F              1 S1                 0.0000
     15 ****         5.9274   0.2316  -3.1583 F              1 S1                 0.0000
     16 ****         6.4238   1.3744  -1.3763 F              1 S1                 0.0000
     17 ****         1.8126   1.0079   0.6261 C.ar           1 S1                 0.0000
     18 ****         0.4642   1.0617   0.6766 N.ar           1 S1                 0.0000
     19 ****        -2.2753   1.3461   0.5614 C.3            1 S1                 0.0000
     20 ****        -3.7865   1.2709   0.2812 C.3            1 S1                 0.0000
     21 ****        -4.4923   2.5933   0.5980 C.3            1 S1                 0.0000
     22 ****        -4.3735   0.2523   1.0903 O.3            1 S1                 0.0000
     23 ****        -3.8772  -2.7106  -0.4956 H              1 S1                 0.0000
     24 ****        -3.7419  -1.1482  -1.2819 H              1 S1                 0.0000
     25 ****        -5.2804  -1.6531  -0.5848 H              1 S1                 0.0000
     26 ****        -4.2594  -1.6793   1.6839 H              1 S1                 0.0000
     27 ****        -2.0988  -0.8154   2.2130 H              1 S1                 0.0000
     28 ****        -1.8690  -1.9973   0.9464 H              1 S1                 0.0000
     29 ****        -0.1907  -2.0730  -0.4521 H              1 S1                 0.0000
     30 ****         2.2771  -2.1666  -0.5251 H              1 S1                 0.0000
     31 ****         6.5760  -0.9942  -0.1762 H              1 S1                 0.0000
     32 ****         6.2045  -1.8971  -1.6044 H              1 S1                 0.0000
     33 ****         2.3262   1.9039   0.9434 H              1 S1                 0.0000
     34 ****        -2.0964   1.6819   1.5840 H              1 S1                 0.0000
     35 ****        -1.8197   2.0777  -0.1073 H              1 S1                 0.0000
     36 ****        -3.9521   1.0446  -0.7721 H              1 S1                 0.0000
     37 ****        -4.0872   3.4081  -0.0025 H              1 S1                 0.0000
     38 ****        -4.3757   2.8609   1.6485 H              1 S1                 0.0000
     39 ****        -5.5599   2.5247   0.3878 H              1 S1                 0.0000
     40 ****        -1.8738  -0.1624  -0.5843 LP             1 S1                 0.0000
     41 ****         4.0747   0.9843   1.7939 LP             1 S1                 0.0000
     42 ****         5.6103   0.5293   1.1344 LP             1 S1                 0.0000
     43 ****         3.9355  -1.2032  -1.5186 LP             1 S1                 0.0000
     44 ****         0.0001   1.8923   0.9842 LP             1 S1                 0.0000
     45 ****        -4.2590   0.5120   2.0492 LP             1 S1                 0.0000
     46 ****        -5.3482   0.2046   0.8720 LP             1 S1                 0.0000
@<TRIPOS>BOND
    1    1    2 1     
    2    1   23 1     
    3    1   24 1     
    4    1   25 1     
    5    2   22 1     
    6    2    3 1     
    7    2   26 1     
    8    3    4 1     
    9    3   27 1     
   10    3   28 1     
   11    4    5 1     
   12    4   19 1     
   13    5   18 ar    
   14    5    6 ar    
   15    6    7 ar    
   16    6   29 1     
   17    7    8 ar    
   18    7   30 1     
   19    8    9 1     
   20    8   17 ar    
   21    9   10 2     
   22    9   11 1     
   23   11   12 1     
   24   12   13 1     
   25   12   31 1     
   26   12   32 1     
   27   13   14 1     
   28   13   15 1     
   29   13   16 1     
   30   17   18 ar    
   31   17   33 1     
   32   19   20 1     
   33   19   34 1     
   34   19   35 1     
   35   20   21 1     
   36   20   22 1     
   37   20   36 1     
   38   21   37 1     
   39   21   38 1     
   40   21   39 1     
   41    4   40 1     
   42   10   41 1     
   43   10   42 1     
   44   11   43 1     
   45   18   44 1     
   46   22   45 1     
   47   22   46 1     
@<TRIPOS>SUBSTRUCTURE
      1 S1             1
@<TRIPOS>SET
LONE_PAIRS      STATIC     ATOMS    <user>   **** ""
7 40 41 42 43 44 45 46
ATOM$BLUE        STATIC     ATOMS    COLORGROUP SYSTEM
7 40 41 42 43 44 45 46
