AV-unprocessed.smi:1634|AV-procd|sdf|6536|dock10
  -GOLD-   22720 7223D 1   1.00000     0.00000
 Structure written by MMmdl.
 38 38  0  0  0  0  0  0  0  0  1 V2000
  147.0093  139.2771  152.7783 C   0  0  0  0  0  0  0  0  0  0  0  0
  147.8609  139.7082  153.9815 C   0  0  0  0  0  0  0  0  0  0  0  0
  148.1964  141.2060  153.9036 C   0  0  0  0  0  0  0  0  0  0  0  0
  149.1320  138.8513  154.0931 C   0  0  0  0  0  0  0  0  0  0  0  0
  149.5892  138.8650  155.4417 O   0  0  0  0  0  0  0  0  0  0  0  0
  150.8816  138.3048  155.6582 C   0  0  2  0  0  0  0  0  0  0  0  0
  150.7004  137.0267  156.4904 C   0  0  0  0  0  0  0  0  0  0  0  0
  151.7876  139.3169  156.3779 C   0  0  0  0  0  0  0  0  0  0  0  0
  152.8843  139.5961  155.8943 O   0  0  0  0  0  0  0  0  0  0  0  0
  151.2993  139.8039  157.5360 N   0  0  0  0  0  0  0  0  0  0  0  0
  151.8667  140.7208  158.4371 C   0  0  0  0  0  0  0  0  0  0  0  0
  151.5371  142.0361  158.5268 C   0  0  0  0  0  0  0  0  0  0  0  0
  152.1636  142.9249  159.4910 C   0  0  0  0  0  0  0  0  0  0  0  0
  151.8464  144.4119  159.5264 C   0  0  0  0  0  0  0  0  0  0  0  0
  152.2331  144.9616  160.6782 F   0  0  0  0  0  0  0  0  0  0  0  0
  152.4552  145.0552  158.5301 F   0  0  0  0  0  0  0  0  0  0  0  0
  150.5334  144.5977  159.3981 F   0  0  0  0  0  0  0  0  0  0  0  0
  153.0988  142.3799  160.2904 C   0  0  0  0  0  0  0  0  0  0  0  0
  153.4277  141.0244  160.2202 N   0  0  0  0  0  0  0  0  0  0  0  0
  152.8755  140.1527  159.3471 C   0  0  0  0  0  0  0  0  0  0  0  0
  153.2218  138.9719  159.3458 O   0  0  0  0  0  0  0  0  0  0  0  0
  154.1271  140.6878  160.8660 H   0  0  0  0  0  0  0  0  0  0  0  0
  147.5485  139.4152  151.8405 H   0  0  0  0  0  0  0  0  0  0  0  0
  146.0879  139.8575  152.7210 H   0  0  0  0  0  0  0  0  0  0  0  0
  146.7302  138.2255  152.8501 H   0  0  0  0  0  0  0  0  0  0  0  0
  147.2658  139.5427  154.8806 H   0  0  0  0  0  0  0  0  0  0  0  0
  148.8008  141.4318  153.0244 H   0  0  0  0  0  0  0  0  0  0  0  0
  148.7531  141.5331  154.7822 H   0  0  0  0  0  0  0  0  0  0  0  0
  147.2899  141.8094  153.8486 H   0  0  0  0  0  0  0  0  0  0  0  0
  148.9154  137.8232  153.7992 H   0  0  0  0  0  0  0  0  0  0  0  0
  149.8926  139.2301  153.4094 H   0  0  0  0  0  0  0  0  0  0  0  0
  151.3208  138.0273  154.6980 H   0  0  0  0  0  0  0  0  0  0  0  0
  151.6604  136.5591  156.7119 H   0  0  0  0  0  0  0  0  0  0  0  0
  150.0961  136.2971  155.9510 H   0  0  0  0  0  0  0  0  0  0  0  0
  150.1999  137.2308  157.4378 H   0  0  0  0  0  0  0  0  0  0  0  0
  150.4065  139.4325  157.8280 H   0  0  0  0  0  0  0  0  0  0  0  0
  150.7809  142.4665  157.8920 H   0  0  0  0  0  0  0  0  0  0  0  0
  153.6628  142.9297  161.0294 H   0  0  0  0  0  0  0  0  0  0  0  0
  1  2  1  0  0  0  0
  1 23  1  0  0  0  0
  1 24  1  0  0  0  0
  1 25  1  0  0  0  0
  2  3  1  0  0  0  0
  2  4  1  0  0  0  0
  2 26  1  0  0  0  0
  3 27  1  0  0  0  0
  3 28  1  0  0  0  0
  3 29  1  0  0  0  0
  4  5  1  0  0  0  0
  4 30  1  0  0  0  0
  4 31  1  0  0  0  0
  5  6  1  0  0  0  0
  6  7  1  0  0  0  0
  6  8  1  0  0  0  0
  6 32  1  0  0  0  0
  7 33  1  0  0  0  0
  7 34  1  0  0  0  0
  7 35  1  0  0  0  0
  8  9  2  0  0  0  0
  8 10  1  0  0  0  0
 10 11  1  0  0  0  0
 10 36  1  0  0  0  0
 11 20  1  0  0  0  0
 11 12  2  0  0  0  0
 12 13  1  0  0  0  0
 12 37  1  0  0  0  0
 13 14  1  0  0  0  0
 13 18  2  0  0  0  0
 14 15  1  0  0  0  0
 14 16  1  0  0  0  0
 14 17  1  0  0  0  0
 18 19  1  0  0  0  0
 18 38  1  0  0  0  0
 19 22  1  0  0  0  0
 19 20  1  0  0  0  0
 20 21  2  0  0  0  0
M  END
> <s_m_source_file>
AV-unprocessed.smi

> <i_m_source_file_index>
1634

> <i_lp_mmshare_version>
43012

> <i_f3d_flags>
0

> <s_epik_input>
W0NIM11bQ0hdKFtDSDNdKVtDSDJdT1tDQEhdKFtDSDNdKUMoPU8pW05IXWMxW2NIXWMoQyhGKShGKUYpW2NIXVtuSF1jMT1P

> <s_epik_cmdline>
J2VwaWtfcHl0aG9uJywgJy1waCcsICc3LjAnLCAnLXRuJywgJzgnLCAnLW1hJywgJzIwMCcsICctbWV0YWxfYmluZGluZycsICctaW1hZScsICc8aW5maWxlLm1hZT4nLCAnLW9tYWUnLCAnPG91dGZpbGUubWFlPic=

> <r_lp_tautomer_probability>
0.999

> <r_epik_Ionization_Penalty>
0.00884964

> <r_epik_Ionization_Penalty_Charging>
0.00884955

> <r_epik_Ionization_Penalty_Neutral>
9.33956e-08

> <r_epik_State_Penalty>
0.00669049

> <r_epik_Charging_Adjusted_Penalty>
0.01554

> <i_epik_Tot_Q>
0

> <i_epik_Tot_abs_Q>
0

> <r_epik_Metal_State_Penalty>
0.320763

> <b_epik_Metal_Only>
0

> <s_lp_Force_Field>
OPLS_2005

> <r_lp_Energy>
19.4514

> <b_lp_Chiralities_Consistent>
1

> <s_lp_Variant>
AV-unprocessed.smi:1634-1

> <Gold.Version>
5.8.1

> <Gold.Id.Protein>
6NUR|6NUR_protein|mol2

> <Gold.PLP.Fitness>
40.5031

> <Gold.PLP.PLP>
-42.5055

> <Gold.PLP.part.hbond>
-1.0000

> <Gold.PLP.part.metal>
0.0000

> <Gold.PLP.part.buried>
-6.4109

> <Gold.PLP.part.nonpolar>
-35.4662

> <Gold.PLP.part.repulsive>
0.1786

> <Gold.PLP.ligand.clash>
0.0000

> <Gold.PLP.ligand.torsion>
2.5381

> <Gold.PLP.Chemscore.Hbond>
1.0000

> <Gold.PLP.Chemscore.CHOScore>
0.0000

> <Gold.PLP.Chemscore.Metal>
0.0000

> <Gold.Chemscore.Hbonds>
donor molecule, donor type, donor heavy atom, donor atom, acceptor molecule, acceptor atom, score
      P1  H  7997  8008       L1     9  1.00

> <Gold.PLP.Chemscore.Internal.Correction>
0.0738

> <Gold.Rescore>
     Score         DG    S(hbond)    S(metal)    S(lipo)     H(rot)  DE(clash)    DE(int)     intcor
     11.55     -14.26       0.99        0.00      85.86       1.79       0.74       1.97       ----

> <Gold.Chemscore.Fitness>
11.5499

> <Gold.Chemscore.DG>
-14.2584

> <Gold.Chemscore.ZeroCoef>
-5.4800

> <Gold.Chemscore.Hbond>
0.9903

> <Gold.Chemscore.Metal>
0.0000

> <Gold.Chemscore.Lipo>
85.8645

> <Gold.Chemscore.Internal_Hbond>
0.0000

> <Gold.Chemscore.DEClash>
0.7411

> <Gold.Chemscore.DEInternal>
1.9674

> <Gold.Chemscore.Rot>
1.7873

> <Gold.Chemscore.Internal.Correction>
   9.000000E+99

> <Gold.Chemscore.Hbonds>
donor molecule, donor type, donor heavy atom, donor atom, acceptor molecule, acceptor atom, score
      P1  H  7997  8008       L1     9  0.99

> <Gold.Chemscore.Hbond.Weighted>
-3.3077

> <Gold.Chemscore.Metal.Weighted>
-0.0000

> <Gold.Chemscore.Lipo.Weighted>
-10.0461

> <Gold.Chemscore.Internal_Hbond.Weighted>
0.0000

> <Gold.Chemscore.DEClash.Weighted>
0.7411

> <Gold.Chemscore.DEInternal.Weighted>
1.9674

> <Gold.Chemscore.Rot.Weighted>
4.5755

> <Gold.Chemscore.Internal.Correction.Weighted>
   9.000000E+99

> <Gold.Protein.RotatedTorsions>
[ 6907 6896 6895 6894 ] final   13.84 input  -60.11 | X-H torsion
[ 7974 7965 7964 7962 ] final  149.75 input  175.53 | X-H torsion
[ 8008 7997 7996 7995 ] final  -43.21 input   59.86 | X-H torsion
[ 10167 10162 10161 10158 ] final  -57.38 input  -65.29 | X-H torsion
[ 10718 10713 10712 10709 ] final   35.96 input   66.30 | X-H torsion
[ 10763 10752 10751 10750 ] final   85.25 input  -60.55 | X-H torsion
[ 11005 11000 10999 10996 ] final  -18.68 input  -57.11 | X-H torsion

> <Gold.Protein.ActiveResidues>
 VAL166  LYS551  ARG553  GLY616  TRP617  ASP618  TYR619  PRO620  LYS621  CYS622 
 ASP623  PHE694  ASN695  SER759  ASP760  ASP761  ALA762  ILE779  LEU786  VAL792 
 PHE793  MET794  SER795  GLU796  ALA797  LYS798  CYS799  TRP800  GLU811  SER814 

> <Gold.Protein.RotatedAtoms>
  151.7927  135.0731  160.0389 H   0  0  0  0  0  0  0  0  0  0  0  0  # atno 6907 bound_to 6896
  152.3145  133.5783  159.5711 H   0  0  0  0  0  0  0  0  0  0  0  0  # atno 6908 bound_to 6896
  150.7337  134.0019  159.3683 H   0  0  0  0  0  0  0  0  0  0  0  0  # atno 6909 bound_to 6896
  144.8415  139.6320  143.6014 H   0  0  0  0  0  0  0  0  0  0  0  0  # atno 7974 bound_to 7965
  154.3997  140.1454  156.3481 H   0  0  0  0  0  0  0  0  0  0  0  0  # atno 8008 bound_to 7997
  155.8294  140.3466  155.5542 H   0  0  0  0  0  0  0  0  0  0  0  0  # atno 8009 bound_to 7997
  155.8204  140.0897  157.1843 H   0  0  0  0  0  0  0  0  0  0  0  0  # atno 8010 bound_to 7997
  140.6261  143.2439  151.5359 H   0  0  0  0  0  0  0  0  0  0  0  0  # atno 10167 bound_to 10162
  157.3291  130.7488  149.6835 H   0  0  0  0  0  0  0  0  0  0  0  0  # atno 10718 bound_to 10713
  153.1457  135.4624  154.9563 H   0  0  0  0  0  0  0  0  0  0  0  0  # atno 10763 bound_to 10752
  154.7784  135.3180  154.8044 H   0  0  0  0  0  0  0  0  0  0  0  0  # atno 10764 bound_to 10752
  153.8559  135.6917  153.4842 H   0  0  0  0  0  0  0  0  0  0  0  0  # atno 10765 bound_to 10752
  140.8292  133.8010  155.9740 H   0  0  0  0  0  0  0  0  0  0  0  0  # atno 11005 bound_to 11000
  146.2707  139.6627  142.9298 LP  0  0  0  0  0  0  0  0  0  0  0  0  # atno 17320 bound_to 7965
  145.4684  141.0435  143.2712 LP  0  0  0  0  0  0  0  0  0  0  0  0  # atno 17321 bound_to 7965
  139.5481  144.2467  152.1480 LP  0  0  0  0  0  0  0  0  0  0  0  0  # atno 17342 bound_to 10162
  140.1699  144.4946  150.6585 LP  0  0  0  0  0  0  0  0  0  0  0  0  # atno 17343 bound_to 10162
  155.9694  130.4200  150.4404 LP  0  0  0  0  0  0  0  0  0  0  0  0  # atno 17370 bound_to 10713
  157.2432  131.0530  151.2424 LP  0  0  0  0  0  0  0  0  0  0  0  0  # atno 17371 bound_to 10713
  140.9016  134.2371  157.5038 LP  0  0  0  0  0  0  0  0  0  0  0  0  # atno 17394 bound_to 11000
  139.8705  134.9709  156.4718 LP  0  0  0  0  0  0  0  0  0  0  0  0  # atno 17395 bound_to 11000

$$$$
