AV-unprocessed.smi:239|AV-procd|sdf|1823|dock9
  -GOLD-   2262020423D 1   1.00000     0.00000
 Structure written by MMmdl.
 54 58  0  0  0  0  0  0  0  0  1 V2000
  148.8559  144.9868  160.5510 C   0  0  0  0  0  0  0  0  0  0  0  0
  150.0425  144.2554  159.9157 C   0  0  1  0  0  0  0  0  0  0  0  0
  149.6548  143.5717  158.5925 C   0  0  0  0  0  0  0  0  0  0  0  0
  150.8385  142.9897  157.9695 N   0  0  0  0  0  0  0  0  0  0  0  0
  150.6658  142.0950  156.9655 C   0  0  0  0  0  0  0  0  0  0  0  0
  149.8845  142.4108  155.8981 N   0  0  0  0  0  0  0  0  0  0  0  0
  149.7169  141.5352  154.9026 C   0  0  0  0  0  0  0  0  0  0  0  0
  150.2247  140.3077  154.7765 N   0  0  0  0  0  0  0  0  0  0  0  0
  151.0003  139.9809  155.8496 C   0  0  0  0  0  0  0  0  0  0  0  0
  151.2732  140.8080  156.9754 C   0  0  0  0  0  0  0  0  0  0  0  0
  152.0940  140.1323  157.8709 N   0  0  0  0  0  0  0  0  0  0  0  0
  152.2972  138.9739  157.3051 C   0  0  0  0  0  0  0  0  0  0  0  0
  151.6712  138.7950  156.0923 N   0  0  0  0  0  0  0  0  0  0  0  0
  151.7174  137.6047  155.2569 C   0  0  0  0  0  0  0  0  0  0  0  0
  150.3826  136.8205  155.2103 C   0  0  0  0  0  0  0  0  0  0  0  0
  149.5115  137.5061  154.3265 O   0  0  0  0  0  0  0  0  0  0  0  0
  150.5610  135.3737  154.6991 C   0  0  0  0  0  0  0  0  0  0  0  0
  149.2761  134.5410  154.8514 C   0  0  0  0  0  0  0  0  0  0  0  0
  148.8331  134.5666  156.2028 O   0  0  0  0  0  0  0  0  0  0  0  0
  148.4894  135.8743  156.6443 C   0  0  0  0  0  0  0  0  0  0  0  0
  149.7291  136.7858  156.6064 C   0  0  0  0  0  0  0  0  0  0  0  0
  151.9096  143.9566  157.7575 C   0  0  0  0  0  0  0  0  0  0  0  0
  152.2574  144.6761  159.0735 C   0  0  2  0  0  0  0  0  0  0  0  0
  153.0438  143.7983  160.0369 C   0  0  0  0  0  0  0  0  0  0  0  0
  153.6921  142.5208  159.5602 C   0  0  0  0  0  0  0  0  0  0  0  0
  152.5006  142.4625  160.4867 C   0  0  0  0  0  0  0  0  0  0  0  0
  151.0754  145.2111  159.6739 O   0  0  0  0  0  0  0  0  0  0  0  0
  148.0403  144.2966  160.7683 H   0  0  0  0  0  0  0  0  0  0  0  0
  148.4710  145.7628  159.8887 H   0  0  0  0  0  0  0  0  0  0  0  0
  149.1478  145.4619  161.4878 H   0  0  0  0  0  0  0  0  0  0  0  0
  150.3967  143.5055  160.6236 H   0  0  0  0  0  0  0  0  0  0  0  0
  148.9108  142.7970  158.7835 H   0  0  0  0  0  0  0  0  0  0  0  0
  149.2056  144.2953  157.9104 H   0  0  0  0  0  0  0  0  0  0  0  0
  149.0847  141.8650  154.0915 H   0  0  0  0  0  0  0  0  0  0  0  0
  152.9059  138.2082  157.7639 H   0  0  0  0  0  0  0  0  0  0  0  0
  152.0077  137.9093  154.2505 H   0  0  0  0  0  0  0  0  0  0  0  0
  152.5207  136.9633  155.6223 H   0  0  0  0  0  0  0  0  0  0  0  0
  149.5580  137.0926  153.4780 H   0  0  0  0  0  0  0  0  0  0  0  0
  150.8806  135.3640  153.6563 H   0  0  0  0  0  0  0  0  0  0  0  0
  151.3554  134.8884  155.2677 H   0  0  0  0  0  0  0  0  0  0  0  0
  148.4889  134.9082  154.1911 H   0  0  0  0  0  0  0  0  0  0  0  0
  149.4688  133.5069  154.5653 H   0  0  0  0  0  0  0  0  0  0  0  0
  147.6835  136.2781  156.0295 H   0  0  0  0  0  0  0  0  0  0  0  0
  148.1063  135.8102  157.6629 H   0  0  0  0  0  0  0  0  0  0  0  0
  150.4519  136.4128  157.3335 H   0  0  0  0  0  0  0  0  0  0  0  0
  149.4634  137.7929  156.9305 H   0  0  0  0  0  0  0  0  0  0  0  0
  152.8037  143.4898  157.3450 H   0  0  0  0  0  0  0  0  0  0  0  0
  151.5708  144.6860  157.0207 H   0  0  0  0  0  0  0  0  0  0  0  0
  152.8878  145.5320  158.8291 H   0  0  0  0  0  0  0  0  0  0  0  0
  153.5976  144.3516  160.7930 H   0  0  0  0  0  0  0  0  0  0  0  0
  153.5376  142.2318  158.5226 H   0  0  0  0  0  0  0  0  0  0  0  0
  154.6656  142.2677  159.9750 H   0  0  0  0  0  0  0  0  0  0  0  0
  152.6795  142.1713  161.5198 H   0  0  0  0  0  0  0  0  0  0  0  0
  151.5535  142.1300  160.0662 H   0  0  0  0  0  0  0  0  0  0  0  0
  1  2  1  0  0  0  0
  1 28  1  0  0  0  0
  1 29  1  0  0  0  0
  1 30  1  0  0  0  0
  2 27  1  0  0  0  0
  2  3  1  0  0  0  0
  2 31  1  0  0  0  0
  3  4  1  0  0  0  0
  3 32  1  0  0  0  0
  3 33  1  0  0  0  0
  4  5  1  0  0  0  0
  4 22  1  0  0  0  0
  5 10  1  0  0  0  0
  5  6  2  0  0  0  0
  6  7  1  0  0  0  0
  7  8  2  0  0  0  0
  7 34  1  0  0  0  0
  8  9  1  0  0  0  0
  9 13  1  0  0  0  0
  9 10  2  0  0  0  0
 10 11  1  0  0  0  0
 11 12  2  0  0  0  0
 12 13  1  0  0  0  0
 12 35  1  0  0  0  0
 13 14  1  0  0  0  0
 14 15  1  0  0  0  0
 14 36  1  0  0  0  0
 14 37  1  0  0  0  0
 15 21  1  0  0  0  0
 15 16  1  0  0  0  0
 15 17  1  0  0  0  0
 16 38  1  0  0  0  0
 17 18  1  0  0  0  0
 17 39  1  0  0  0  0
 17 40  1  0  0  0  0
 18 19  1  0  0  0  0
 18 41  1  0  0  0  0
 18 42  1  0  0  0  0
 19 20  1  0  0  0  0
 20 21  1  0  0  0  0
 20 43  1  0  0  0  0
 20 44  1  0  0  0  0
 21 45  1  0  0  0  0
 21 46  1  0  0  0  0
 22 23  1  0  0  0  0
 22 47  1  0  0  0  0
 22 48  1  0  0  0  0
 23 24  1  0  0  0  0
 23 27  1  0  0  0  0
 23 49  1  0  0  0  0
 24 26  1  0  0  0  0
 24 25  1  0  0  0  0
 24 50  1  0  0  0  0
 25 26  1  0  0  0  0
 25 51  1  0  0  0  0
 25 52  1  0  0  0  0
 26 53  1  0  0  0  0
 26 54  1  0  0  0  0
M  END
> <s_m_source_file>
AV-unprocessed.smi

> <i_m_source_file_index>
239

> <i_lp_mmshare_version>
43012

> <i_f3d_flags>
0

> <s_epik_input>
W0NIMl0xW0NIMl1bQ0hdMVtDQEBIXShPMilbQ0gyXU4oW0NIMl1bQ0BIXTJbQ0gzXSljKG5bY0hdbjMpYyhjMzQpbltjSF1uNFtDSDJdQzUoW09IXSlbQ0gyXVtDSDJdT1tDSDJdW0NIMl01

> <s_epik_cmdline>
J2VwaWtfcHl0aG9uJywgJy1waCcsICc3LjAnLCAnLXRuJywgJzgnLCAnLW1hJywgJzIwMCcsICctbWV0YWxfYmluZGluZycsICctaW1hZScsICc8aW5maWxlLm1hZT4nLCAnLW9tYWUnLCAnPG91dGZpbGUubWFlPic=

> <r_lp_tautomer_probability>
1

> <r_epik_Ionization_Penalty>
9.13091e-05

> <r_epik_Ionization_Penalty_Charging>
0

> <r_epik_Ionization_Penalty_Neutral>
9.13091e-05

> <r_epik_State_Penalty>
-0

> <r_epik_Charging_Adjusted_Penalty>
0

> <i_epik_Tot_Q>
0

> <i_epik_Tot_abs_Q>
0

> <r_epik_Metal_State_Penalty>
-0

> <b_epik_Metal_Only>
0

> <s_lp_Force_Field>
OPLS_2005

> <r_lp_Energy>
39.3472

> <b_lp_Chiralities_Consistent>
1

> <s_lp_Variant>
AV-unprocessed.smi:239-4

> <Gold.Version>
5.8.1

> <Gold.Id.Protein>
6NUR|6NUR_protein|mol2

> <Gold.PLP.Fitness>
46.3096

> <Gold.PLP.PLP>
-42.5683

> <Gold.PLP.part.hbond>
-2.0000

> <Gold.PLP.part.metal>
0.0000

> <Gold.PLP.part.buried>
-6.9835

> <Gold.PLP.part.nonpolar>
-37.8851

> <Gold.PLP.part.repulsive>
4.2437

> <Gold.PLP.ligand.clash>
0.0000

> <Gold.PLP.ligand.torsion>
1.3852

> <Gold.PLP.Chemscore.Hbond>
1.7000

> <Gold.PLP.Chemscore.CHOScore>
0.0000

> <Gold.PLP.Chemscore.Metal>
0.0000

> <Gold.Chemscore.Hbonds>
donor molecule, donor type, donor heavy atom, donor atom, acceptor molecule, acceptor atom, score
      L1  H    16    38       P1  7948  1.00
      P1  H  7989  7998       L1     8  0.65

> <Gold.PLP.Chemscore.Internal.Correction>
1.4117

> <Gold.Rescore>
     Score         DG    S(hbond)    S(metal)    S(lipo)     H(rot)  DE(clash)    DE(int)     intcor
     12.57     -16.29       1.00        0.00     112.87       2.24       1.60       2.11       ----

> <Gold.Chemscore.Fitness>
12.5743

> <Gold.Chemscore.DG>
-16.2856

> <Gold.Chemscore.ZeroCoef>
-5.4800

> <Gold.Chemscore.Hbond>
0.9971

> <Gold.Chemscore.Metal>
0.0000

> <Gold.Chemscore.Lipo>
112.8745

> <Gold.Chemscore.Internal_Hbond>
0.0000

> <Gold.Chemscore.DEClash>
1.6039

> <Gold.Chemscore.DEInternal>
2.1074

> <Gold.Chemscore.Rot>
2.2387

> <Gold.Chemscore.Internal.Correction>
   9.000000E+99

> <Gold.Chemscore.Hbonds>
donor molecule, donor type, donor heavy atom, donor atom, acceptor molecule, acceptor atom, score
      L1  H    16    38       P1  7948  0.82
      P1  H  7989  7998       L1     8  0.01

> <Gold.Chemscore.Hbond.Weighted>
-3.3304

> <Gold.Chemscore.Metal.Weighted>
-0.0000

> <Gold.Chemscore.Lipo.Weighted>
-13.2063

> <Gold.Chemscore.Internal_Hbond.Weighted>
0.0000

> <Gold.Chemscore.DEClash.Weighted>
1.6039

> <Gold.Chemscore.DEInternal.Weighted>
2.1074

> <Gold.Chemscore.Rot.Weighted>
5.7311

> <Gold.Chemscore.Internal.Correction.Weighted>
   9.000000E+99

> <Gold.Protein.RotatedTorsions>
[ 6907 6896 6895 6894 ] final    2.92 input  -60.11 | X-H torsion
[ 7974 7965 7964 7962 ] final   88.54 input  175.53 | X-H torsion
[ 8008 7997 7996 7995 ] final   97.56 input   59.86 | X-H torsion
[ 10167 10162 10161 10158 ] final  154.25 input  -65.29 | X-H torsion
[ 10718 10713 10712 10709 ] final  102.36 input   66.30 | X-H torsion
[ 10763 10752 10751 10750 ] final  160.39 input  -60.55 | X-H torsion
[ 11005 11000 10999 10996 ] final -115.50 input  -57.11 | X-H torsion

> <Gold.Protein.ActiveResidues>
 VAL166  LYS551  ARG553  GLY616  TRP617  ASP618  TYR619  PRO620  LYS621  CYS622 
 ASP623  PHE694  ASN695  SER759  ASP760  ASP761  ALA762  ILE779  LEU786  VAL792 
 PHE793  MET794  SER795  GLU796  ALA797  LYS798  CYS799  TRP800  GLU811  SER814 

> <Gold.Protein.RotatedAtoms>
  151.6167  135.1035  160.0092 H   0  0  0  0  0  0  0  0  0  0  0  0  # atno 6907 bound_to 6896
  152.4179  133.7064  159.6464 H   0  0  0  0  0  0  0  0  0  0  0  0  # atno 6908 bound_to 6896
  150.8067  133.8423  159.3223 H   0  0  0  0  0  0  0  0  0  0  0  0  # atno 6909 bound_to 6896
  145.5443  139.2291  143.2548 H   0  0  0  0  0  0  0  0  0  0  0  0  # atno 7974 bound_to 7965
  156.0914  140.3256  155.7820 H   0  0  0  0  0  0  0  0  0  0  0  0  # atno 8008 bound_to 7997
  155.4991  140.0567  157.2959 H   0  0  0  0  0  0  0  0  0  0  0  0  # atno 8009 bound_to 7997
  154.4640  140.1980  156.0185 H   0  0  0  0  0  0  0  0  0  0  0  0  # atno 8010 bound_to 7997
  139.4824  144.5203  151.7887 H   0  0  0  0  0  0  0  0  0  0  0  0  # atno 10167 bound_to 10162
  157.6804  131.0751  150.5392 H   0  0  0  0  0  0  0  0  0  0  0  0  # atno 10718 bound_to 10713
  154.2466  135.2773  155.2833 H   0  0  0  0  0  0  0  0  0  0  0  0  # atno 10763 bound_to 10752
  154.5500  135.5678  153.6917 H   0  0  0  0  0  0  0  0  0  0  0  0  # atno 10764 bound_to 10752
  152.9989  135.6272  154.2612 H   0  0  0  0  0  0  0  0  0  0  0  0  # atno 10765 bound_to 10752
  141.0484  133.9727  157.2879 H   0  0  0  0  0  0  0  0  0  0  0  0  # atno 11005 bound_to 11000
  146.1960  140.6264  142.9124 LP  0  0  0  0  0  0  0  0  0  0  0  0  # atno 17320 bound_to 7965
  144.7561  140.5310  143.6768 LP  0  0  0  0  0  0  0  0  0  0  0  0  # atno 17321 bound_to 7965
  140.4716  144.1579  150.5919 LP  0  0  0  0  0  0  0  0  0  0  0  0  # atno 17342 bound_to 10162
  140.4376  143.2540  151.9515 LP  0  0  0  0  0  0  0  0  0  0  0  0  # atno 17343 bound_to 10162
  156.5700  130.4277  149.6024 LP  0  0  0  0  0  0  0  0  0  0  0  0  # atno 17370 bound_to 10713
  156.2749  130.7038  151.1846 LP  0  0  0  0  0  0  0  0  0  0  0  0  # atno 17371 bound_to 10713
  139.9330  135.0198  156.8463 LP  0  0  0  0  0  0  0  0  0  0  0  0  # atno 17394 bound_to 11000
  140.6103  134.0089  155.7574 LP  0  0  0  0  0  0  0  0  0  0  0  0  # atno 17395 bound_to 11000

$$$$
