#       Name:                AV-unprocessed.smi:1901
#       Creating user name   scv26
#       Creation time:       Fri Mar 27 09:46:05 2020


#       File generated by GOLD software.
#

@<TRIPOS>MOLECULE
AV-unprocessed.smi:1901
    33    34     1
SMALL
NO_CHARGES


@<TRIPOS>ATOM
      1 ****        -0.5624   1.7534  -1.3507 O.2            1 S1                 0.0000
      2 ****        -1.0395   0.9341  -0.5618 C.2            1 S1                 0.0000
      3 ****        -0.2778  -0.0658  -0.0986 N.am           1 S1                 0.0000
      4 ****         1.1183  -0.2895  -0.4530 C.3            1 S1                 0.0000
      5 ****         1.6583  -1.5692   0.2062 C.3            1 S1                 0.0000
      6 ****         3.1103  -1.8581  -0.1131 C.3            1 S1                 0.0000
      7 ****         3.4830  -2.8418   0.9913 C.3            1 S1                 0.0000
      8 ****         2.7080  -2.4612   2.1243 O.3            1 S1                 0.0000
      9 ****         1.6922  -1.5394   1.7358 C.3            1 S1                 0.0000
     10 ****        -2.3053   0.9221  -0.0850 N.pl3          1 S1                -1.0000
     11 ****        -3.1801   1.8615  -0.4804 C.2            1 S1                 0.0000
     12 ****        -3.4589   2.9515   0.2439 N.2            1 S1                 0.0000
     13 ****        -4.4005   3.7903  -0.3551 C.2            1 S1                 0.0000
     14 ****        -4.8573   3.3229  -1.5588 C.2            1 S1                 0.0000
     15 ****        -4.1124   1.8070  -1.9790 S.3            1 S1                 0.0000
     16 ****        -0.7020  -0.7174   0.5451 H              1 S1                 0.0000
     17 ****         1.2052  -0.3696  -1.5376 H              1 S1                 0.0000
     18 ****         1.7103   0.5746  -0.1468 H              1 S1                 0.0000
     19 ****         1.0589  -2.4232  -0.1147 H              1 S1                 0.0000
     20 ****         3.2563  -2.2674  -1.1131 H              1 S1                 0.0000
     21 ****         3.7092  -0.9504  -0.0233 H              1 S1                 0.0000
     22 ****         3.2043  -3.8568   0.7052 H              1 S1                 0.0000
     23 ****         4.5499  -2.8337   1.2155 H              1 S1                 0.0000
     24 ****         1.9721  -0.5493   2.0985 H              1 S1                 0.0000
     25 ****         0.7304  -1.8000   2.1780 H              1 S1                 0.0000
     26 ****        -4.6896   4.7009   0.1481 H              1 S1                 0.0000
     27 ****        -5.5819   3.7737  -2.2198 H              1 S1                 0.0000
     28 ****         0.3904   1.6701  -1.6427 LP             1 S1                 0.0000
     29 ****        -1.1283   2.5010  -1.6984 LP             1 S1                 0.0000
     30 ****         3.3034  -2.0307   2.8027 LP             1 S1                 0.0000
     31 ****         2.2825  -3.2740   2.5221 LP             1 S1                 0.0000
     32 ****        -2.5896   0.2142   0.5615 LP             1 S1                 0.0000
     33 ****        -3.0342   3.1463   1.1280 LP             1 S1                 0.0000
@<TRIPOS>BOND
    1    1    2 2     
    2    2    3 am    
    3    2   10 1     
    4    3    4 1     
    5    3   16 1     
    6    4    5 1     
    7    4   17 1     
    8    4   18 1     
    9    5    9 1     
   10    5    6 1     
   11    5   19 1     
   12    6    7 1     
   13    6   20 1     
   14    6   21 1     
   15    7    8 1     
   16    7   22 1     
   17    7   23 1     
   18    8    9 1     
   19    9   24 1     
   20    9   25 1     
   21   10   11 1     
   22   11   15 1     
   23   11   12 2     
   24   12   13 1     
   25   13   14 2     
   26   13   26 1     
   27   14   15 1     
   28   14   27 1     
   29    1   28 1     
   30    1   29 1     
   31    8   30 1     
   32    8   31 1     
   33   10   32 1     
   34   12   33 1     
@<TRIPOS>SUBSTRUCTURE
      1 S1             1
@<TRIPOS>SET
LONE_PAIRS      STATIC     ATOMS    <user>   **** ""
6 28 29 30 31 32 33
DONOR_HYDROGENS      STATIC     ATOMS    <user>   **** ""
1 16
ATOM$BLUE        STATIC     ATOMS    COLORGROUP SYSTEM
6 28 29 30 31 32 33
ATOM$RED        STATIC     ATOMS    COLORGROUP SYSTEM
1 16
