AV-unprocessed.smi:2428|AV-procd|sdf|9580|dock8
  -GOLD-   2272013213D 1   1.00000     0.00000
 Structure written by MMmdl.
 30 31  0  0  0  0  0  0  0  0  1 V2000
  152.0139  145.6211  159.0704 F   0  0  0  0  0  0  0  0  0  0  0  0
  151.5059  144.6412  159.8182 C   0  0  0  0  0  0  0  0  0  0  0  0
  152.0782  144.6901  161.0215 F   0  0  0  0  0  0  0  0  0  0  0  0
  150.1964  144.8431  159.9588 F   0  0  0  0  0  0  0  0  0  0  0  0
  151.7374  143.3002  159.1410 C   0  0  0  0  0  0  0  0  0  0  0  0
  152.5905  142.3424  159.7261 C   0  0  0  0  0  0  0  0  0  0  0  0
  152.7877  141.1108  159.0723 C   0  0  0  0  0  0  0  0  0  0  0  0
  152.1233  140.8751  157.8509 C   0  0  0  0  0  0  0  0  0  0  0  0
  152.3242  139.6457  157.2063 N   0  0  0  0  0  0  0  0  0  0  0  0
  152.0355  139.4837  155.7864 C   0  0  0  0  0  0  0  0  0  0  0  0
  150.5466  139.6952  155.4656 C   0  0  2  0  0  0  0  0  0  0  0  0
  149.6541  138.5530  155.9432 C   0  0  0  0  0  0  0  0  0  0  0  0
  148.4245  138.6794  155.0596 C   0  0  0  0  0  0  0  0  0  0  0  0
  148.9135  139.4972  153.8603 C   0  0  0  0  0  0  0  0  0  0  0  0
  150.3082  139.6782  154.0668 O   0  0  0  0  0  0  0  0  0  0  0  0
  151.3114  141.7954  157.2790 N   0  0  0  0  0  0  0  0  0  0  0  0
  151.1250  142.9736  157.9116 C   0  0  0  0  0  0  0  0  0  0  0  0
  153.0877  142.5475  160.6627 H   0  0  0  0  0  0  0  0  0  0  0  0
  153.4359  140.3629  159.5055 H   0  0  0  0  0  0  0  0  0  0  0  0
  152.3731  138.8112  157.7724 H   0  0  0  0  0  0  0  0  0  0  0  0
  152.6647  140.1315  155.1752 H   0  0  0  0  0  0  0  0  0  0  0  0
  152.3124  138.4625  155.5242 H   0  0  0  0  0  0  0  0  0  0  0  0
  150.1905  140.6389  155.8839 H   0  0  0  0  0  0  0  0  0  0  0  0
  150.1406  137.5942  155.7582 H   0  0  0  0  0  0  0  0  0  0  0  0
  149.4219  138.6140  157.0066 H   0  0  0  0  0  0  0  0  0  0  0  0
  148.0439  137.7014  154.7638 H   0  0  0  0  0  0  0  0  0  0  0  0
  147.6243  139.2094  155.5770 H   0  0  0  0  0  0  0  0  0  0  0  0
  148.7277  138.9961  152.9102 H   0  0  0  0  0  0  0  0  0  0  0  0
  148.4223  140.4708  153.8337 H   0  0  0  0  0  0  0  0  0  0  0  0
  150.4687  143.6717  157.4138 H   0  0  0  0  0  0  0  0  0  0  0  0
  1  2  1  0  0  0  0
  2  3  1  0  0  0  0
  2  4  1  0  0  0  0
  2  5  1  0  0  0  0
  5 17  1  0  0  0  0
  5  6  2  0  0  0  0
  6  7  1  0  0  0  0
  6 18  1  0  0  0  0
  7  8  2  0  0  0  0
  7 19  1  0  0  0  0
  8  9  1  0  0  0  0
  8 16  1  0  0  0  0
  9 10  1  0  0  0  0
  9 20  1  0  0  0  0
 10 11  1  0  0  0  0
 10 21  1  0  0  0  0
 10 22  1  0  0  0  0
 11 15  1  0  0  0  0
 11 12  1  0  0  0  0
 11 23  1  0  0  0  0
 12 13  1  0  0  0  0
 12 24  1  0  0  0  0
 12 25  1  0  0  0  0
 13 14  1  0  0  0  0
 13 26  1  0  0  0  0
 13 27  1  0  0  0  0
 14 15  1  0  0  0  0
 14 28  1  0  0  0  0
 14 29  1  0  0  0  0
 16 17  2  0  0  0  0
 17 30  1  0  0  0  0
M  END
> <s_m_source_file>
AV-unprocessed.smi

> <i_m_source_file_index>
2428

> <i_lp_mmshare_version>
43012

> <i_f3d_flags>
0

> <s_epik_input>
RkMoRikoRiljMVtjSF1bY0hdYyhuW2NIXTEpW05IXVtDSDJdW0NAQEhdMltDSDJdW0NIMl1bQ0gyXU8y

> <s_epik_cmdline>
J2VwaWtfcHl0aG9uJywgJy1waCcsICc3LjAnLCAnLXRuJywgJzgnLCAnLW1hJywgJzIwMCcsICctbWV0YWxfYmluZGluZycsICctaW1hZScsICc8aW5maWxlLm1hZT4nLCAnLW9tYWUnLCAnPG91dGZpbGUubWFlPic=

> <r_lp_tautomer_probability>
1

> <r_epik_Ionization_Penalty>
0.000819842

> <r_epik_Ionization_Penalty_Charging>
0

> <r_epik_Ionization_Penalty_Neutral>
0.000819842

> <r_epik_State_Penalty>
0.000527207

> <r_epik_Charging_Adjusted_Penalty>
0.000527207

> <i_epik_Tot_Q>
0

> <i_epik_Tot_abs_Q>
0

> <r_epik_Metal_State_Penalty>
-0

> <b_epik_Metal_Only>
0

> <s_lp_Force_Field>
OPLS_2005

> <r_lp_Energy>
19.3564

> <b_lp_Chiralities_Consistent>
1

> <s_lp_Variant>
AV-unprocessed.smi:2428-1

> <Gold.Version>
5.8.1

> <Gold.Id.Protein>
6NUR|6NUR_protein|mol2

> <Gold.PLP.Fitness>
37.9342

> <Gold.PLP.PLP>
-33.5732

> <Gold.PLP.part.hbond>
-1.0000

> <Gold.PLP.part.metal>
0.0000

> <Gold.PLP.part.buried>
-1.7187

> <Gold.PLP.part.nonpolar>
-30.1402

> <Gold.PLP.part.repulsive>
0.7176

> <Gold.PLP.ligand.clash>
0.7312

> <Gold.PLP.ligand.torsion>
0.2473

> <Gold.PLP.Chemscore.Hbond>
1.0000

> <Gold.PLP.Chemscore.CHOScore>
0.8553

> <Gold.PLP.Chemscore.Metal>
0.0000

> <Gold.Chemscore.Hbonds>
donor molecule, donor type, donor heavy atom, donor atom, acceptor molecule, acceptor atom, score
      P1  H  7989  7998       L1    15  1.00
      L1  C    17    30       P1  8028  0.91

> <Gold.PLP.Chemscore.Internal.Correction>
0.0208

> <Gold.Rescore>
     Score         DG    S(hbond)    S(metal)    S(lipo)     H(rot)  DE(clash)    DE(int)     intcor
     11.89     -14.26       0.92        0.00      76.22       1.25       0.82       1.55       ----

> <Gold.Chemscore.Fitness>
11.8933

> <Gold.Chemscore.DG>
-14.2638

> <Gold.Chemscore.ZeroCoef>
-5.4800

> <Gold.Chemscore.Hbond>
0.9189

> <Gold.Chemscore.Metal>
0.0000

> <Gold.Chemscore.Lipo>
76.2247

> <Gold.Chemscore.Internal_Hbond>
0.0000

> <Gold.Chemscore.DEClash>
0.8232

> <Gold.Chemscore.DEInternal>
1.5474

> <Gold.Chemscore.Rot>
1.2514

> <Gold.Chemscore.Internal.Correction>
   9.000000E+99

> <Gold.Chemscore.Hbonds>
donor molecule, donor type, donor heavy atom, donor atom, acceptor molecule, acceptor atom, score
      P1  H  7989  7998       L1    15  0.29

> <Gold.Chemscore.Hbond.Weighted>
-3.0691

> <Gold.Chemscore.Metal.Weighted>
-0.0000

> <Gold.Chemscore.Lipo.Weighted>
-8.9183

> <Gold.Chemscore.Internal_Hbond.Weighted>
0.0000

> <Gold.Chemscore.DEClash.Weighted>
0.8232

> <Gold.Chemscore.DEInternal.Weighted>
1.5474

> <Gold.Chemscore.Rot.Weighted>
3.2036

> <Gold.Chemscore.Internal.Correction.Weighted>
   9.000000E+99

> <Gold.Protein.RotatedTorsions>
[ 6907 6896 6895 6894 ] final  -45.99 input  -60.11 | X-H torsion
[ 7974 7965 7964 7962 ] final -114.25 input  175.53 | X-H torsion
[ 8008 7997 7996 7995 ] final  -29.32 input   59.86 | X-H torsion
[ 10167 10162 10161 10158 ] final -118.65 input  -65.29 | X-H torsion
[ 10718 10713 10712 10709 ] final   77.97 input   66.30 | X-H torsion
[ 10763 10752 10751 10750 ] final   49.16 input  -60.55 | X-H torsion
[ 11005 11000 10999 10996 ] final -136.94 input  -57.11 | X-H torsion

> <Gold.Protein.ActiveResidues>
 VAL166  LYS551  ARG553  GLY616  TRP617  ASP618  TYR619  PRO620  LYS621  CYS622 
 ASP623  PHE694  ASN695  SER759  ASP760  ASP761  ALA762  ILE779  LEU786  VAL792 
 PHE793  MET794  SER795  GLU796  ALA797  LYS798  CYS799  TRP800  GLU811  SER814 

> <Gold.Protein.RotatedAtoms>
  150.9160  134.8577  159.7456 H   0  0  0  0  0  0  0  0  0  0  0  0  # atno 6907 bound_to 6896
  152.4968  134.4289  159.9515 H   0  0  0  0  0  0  0  0  0  0  0  0  # atno 6908 bound_to 6896
  151.4327  133.3626  159.2806 H   0  0  0  0  0  0  0  0  0  0  0  0  # atno 6909 bound_to 6896
  145.1223  140.8676  143.3806 H   0  0  0  0  0  0  0  0  0  0  0  0  # atno 7974 bound_to 7965
  154.4295  140.1821  156.1230 H   0  0  0  0  0  0  0  0  0  0  0  0  # atno 8008 bound_to 7997
  156.0128  140.3349  155.6933 H   0  0  0  0  0  0  0  0  0  0  0  0  # atno 8009 bound_to 7997
  155.6086  140.0647  157.2703 H   0  0  0  0  0  0  0  0  0  0  0  0  # atno 8010 bound_to 7997
  140.0552  143.5021  152.2061 H   0  0  0  0  0  0  0  0  0  0  0  0  # atno 10167 bound_to 10162
  157.6729  130.9846  150.1718 H   0  0  0  0  0  0  0  0  0  0  0  0  # atno 10718 bound_to 10713
  152.9788  135.5921  154.4044 H   0  0  0  0  0  0  0  0  0  0  0  0  # atno 10763 bound_to 10752
  154.3686  135.2767  155.2281 H   0  0  0  0  0  0  0  0  0  0  0  0  # atno 10764 bound_to 10752
  154.4247  135.6050  153.6086 H   0  0  0  0  0  0  0  0  0  0  0  0  # atno 10765 bound_to 10752
  140.8758  134.1993  157.4622 H   0  0  0  0  0  0  0  0  0  0  0  0  # atno 11005 bound_to 11000
  145.0726  139.3020  143.5824 LP  0  0  0  0  0  0  0  0  0  0  0  0  # atno 17320 bound_to 7965
  146.3520  140.0206  142.8659 LP  0  0  0  0  0  0  0  0  0  0  0  0  # atno 17321 bound_to 7965
  139.5928  144.7556  151.3359 LP  0  0  0  0  0  0  0  0  0  0  0  0  # atno 17342 bound_to 10162
  140.7198  143.7167  150.7727 LP  0  0  0  0  0  0  0  0  0  0  0  0  # atno 17343 bound_to 10162
  156.2470  130.3696  149.8274 LP  0  0  0  0  0  0  0  0  0  0  0  0  # atno 17370 bound_to 10713
  156.6057  130.8565  151.3442 LP  0  0  0  0  0  0  0  0  0  0  0  0  # atno 17371 bound_to 10713
  139.8715  134.9795  156.5039 LP  0  0  0  0  0  0  0  0  0  0  0  0  # atno 17394 bound_to 11000
  140.8519  133.8125  155.9177 LP  0  0  0  0  0  0  0  0  0  0  0  0  # atno 17395 bound_to 11000

$$$$
