AV-unprocessed.smi:2962|AV-procd|sdf|11315|dock9
  -GOLD-   2272016223D 1   1.00000     0.00000
 Structure written by MMmdl.
 36 37  0  0  0  0  0  0  0  0  1 V2000
  152.8217  137.2008  160.7456 C   0  0  0  0  0  0  0  0  0  0  0  0
  151.8437  137.0391  159.7304 O   0  0  0  0  0  0  0  0  0  0  0  0
  151.3625  138.2680  159.2046 C   0  0  0  0  0  0  0  0  0  0  0  0
  152.4701  139.0581  158.4860 C   0  0  0  0  0  0  0  0  0  0  0  0
  152.0279  140.3915  158.1014 N   0  0  0  0  0  0  0  0  0  0  0  0
  151.4263  140.7870  156.9513 C   0  0  0  0  0  0  0  0  0  0  0  0
  151.0473  139.6685  155.6436 S   0  0  0  0  0  0  0  0  0  0  0  0
  149.2908  140.0897  155.4299 C   0  0  2  0  0  0  0  0  0  0  0  0
  148.6033  139.0505  154.5277 C   0  0  0  0  0  0  0  0  0  0  0  0
  149.1144  141.5227  154.9081 C   0  0  0  0  0  0  0  0  0  0  0  0
  148.8176  142.4628  155.8093 N   0  0  0  0  0  0  0  0  0  0  0  0
  149.2371  141.7867  153.7132 O   0  0  0  0  0  0  0  0  0  0  0  0
  151.1336  142.0847  156.8685 N   0  0  0  0  0  0  0  0  0  0  0  0
  151.5844  142.5776  158.0768 C   0  0  0  0  0  0  0  0  0  0  0  0
  151.5607  143.8901  158.6005 C   0  0  0  0  0  0  0  0  0  0  0  0
  152.0887  144.1572  159.8808 C   0  0  0  0  0  0  0  0  0  0  0  0
  152.6463  143.1183  160.6539 C   0  0  0  0  0  0  0  0  0  0  0  0
  152.6790  141.8035  160.1510 C   0  0  0  0  0  0  0  0  0  0  0  0
  152.1501  141.5425  158.8728 C   0  0  0  0  0  0  0  0  0  0  0  0
  153.1138  136.2231  161.1286 H   0  0  0  0  0  0  0  0  0  0  0  0
  152.4471  137.7890  161.5833 H   0  0  0  0  0  0  0  0  0  0  0  0
  153.7154  137.6871  160.3531 H   0  0  0  0  0  0  0  0  0  0  0  0
  150.5092  138.1044  158.5447 H   0  0  0  0  0  0  0  0  0  0  0  0
  150.9890  138.8599  160.0408 H   0  0  0  0  0  0  0  0  0  0  0  0
  153.3661  139.1259  159.1008 H   0  0  0  0  0  0  0  0  0  0  0  0
  152.7698  138.5268  157.5824 H   0  0  0  0  0  0  0  0  0  0  0  0
  148.8048  140.0356  156.4049 H   0  0  0  0  0  0  0  0  0  0  0  0
  147.5481  139.2847  154.3824 H   0  0  0  0  0  0  0  0  0  0  0  0
  148.6575  138.0558  154.9708 H   0  0  0  0  0  0  0  0  0  0  0  0
  149.0742  138.9983  153.5452 H   0  0  0  0  0  0  0  0  0  0  0  0
  148.6698  143.4170  155.5143 H   0  0  0  0  0  0  0  0  0  0  0  0
  148.7205  142.2103  156.7821 H   0  0  0  0  0  0  0  0  0  0  0  0
  151.1363  144.6931  158.0159 H   0  0  0  0  0  0  0  0  0  0  0  0
  152.0665  145.1641  160.2714 H   0  0  0  0  0  0  0  0  0  0  0  0
  153.0494  143.3314  161.6333 H   0  0  0  0  0  0  0  0  0  0  0  0
  153.1063  141.0057  160.7402 H   0  0  0  0  0  0  0  0  0  0  0  0
  1  2  1  0  0  0  0
  1 20  1  0  0  0  0
  1 21  1  0  0  0  0
  1 22  1  0  0  0  0
  2  3  1  0  0  0  0
  3  4  1  0  0  0  0
  3 23  1  0  0  0  0
  3 24  1  0  0  0  0
  4  5  1  0  0  0  0
  4 25  1  0  0  0  0
  4 26  1  0  0  0  0
  5 19  1  0  0  0  0
  5  6  1  0  0  0  0
  6  7  1  0  0  0  0
  6 13  2  0  0  0  0
  7  8  1  0  0  0  0
  8  9  1  0  0  0  0
  8 10  1  0  0  0  0
  8 27  1  0  0  0  0
  9 28  1  0  0  0  0
  9 29  1  0  0  0  0
  9 30  1  0  0  0  0
 10 11  1  0  0  0  0
 10 12  2  0  0  0  0
 11 31  1  0  0  0  0
 11 32  1  0  0  0  0
 13 14  1  0  0  0  0
 14 19  2  0  0  0  0
 14 15  1  0  0  0  0
 15 16  2  0  0  0  0
 15 33  1  0  0  0  0
 16 17  1  0  0  0  0
 16 34  1  0  0  0  0
 17 18  2  0  0  0  0
 17 35  1  0  0  0  0
 18 19  1  0  0  0  0
 18 36  1  0  0  0  0
M  END
> <s_m_source_file>
AV-unprocessed.smi

> <i_m_source_file_index>
2962

> <i_lp_mmshare_version>
43012

> <i_f3d_flags>
0

> <s_epik_input>
W2NIXTFbY0hdW2NIXVtjSF1jKGMxMiluKFtDSDJdW0NIMl1PW0NIM10pYyhuMilTW0NASF0oW0NIM10pQyg9TylbTkgyXQ==

> <s_epik_cmdline>
J2VwaWtfcHl0aG9uJywgJy1waCcsICc3LjAnLCAnLXRuJywgJzgnLCAnLW1hJywgJzIwMCcsICctbWV0YWxfYmluZGluZycsICctaW1hZScsICc8aW5maWxlLm1hZT4nLCAnLW9tYWUnLCAnPG91dGZpbGUubWFlPic=

> <r_epik_Ionization_Penalty>
0.0199986

> <r_epik_Ionization_Penalty_Charging>
0

> <r_epik_Ionization_Penalty_Neutral>
0.0199986

> <r_epik_State_Penalty>
0.0160044

> <r_epik_Charging_Adjusted_Penalty>
0.0160044

> <i_epik_Tot_Q>
0

> <i_epik_Tot_abs_Q>
0

> <r_epik_Metal_State_Penalty>
0.015472

> <b_epik_Metal_Only>
0

> <s_lp_Force_Field>
OPLS_2005

> <r_lp_Energy>
7.16755

> <b_lp_Chiralities_Consistent>
1

> <s_lp_Variant>
AV-unprocessed.smi:2962-1

> <Gold.Version>
5.8.1

> <Gold.Id.Protein>
6NUR|6NUR_protein|mol2

> <Gold.PLP.Fitness>
46.0957

> <Gold.PLP.PLP>
-40.0198

> <Gold.PLP.part.hbond>
-3.8301

> <Gold.PLP.part.metal>
0.0000

> <Gold.PLP.part.buried>
-5.1950

> <Gold.PLP.part.nonpolar>
-31.8224

> <Gold.PLP.part.repulsive>
0.5782

> <Gold.PLP.ligand.clash>
0.0000

> <Gold.PLP.ligand.torsion>
1.0205

> <Gold.PLP.Chemscore.Hbond>
2.6880

> <Gold.PLP.Chemscore.CHOScore>
0.0000

> <Gold.PLP.Chemscore.Metal>
0.0000

> <Gold.Chemscore.Hbonds>
donor molecule, donor type, donor heavy atom, donor atom, acceptor molecule, acceptor atom, score
      L1  H    11    31       P1  8028  0.47
      P1  H  6896  6909       L1     2  0.65
      P1  H  8011  8017       L1    12  0.61

> <Gold.PLP.Chemscore.Internal.Correction>
0.0530

> <Gold.Rescore>
     Score         DG    S(hbond)    S(metal)    S(lipo)     H(rot)  DE(clash)    DE(int)     intcor
     15.68     -19.39       2.80        0.00      93.74       2.50       0.07       3.64       ----

> <Gold.Chemscore.Fitness>
15.6850

> <Gold.Chemscore.DG>
-19.3885

> <Gold.Chemscore.ZeroCoef>
-5.4800

> <Gold.Chemscore.Hbond>
2.7989

> <Gold.Chemscore.Metal>
0.0000

> <Gold.Chemscore.Lipo>
93.7381

> <Gold.Chemscore.Internal_Hbond>
0.0000

> <Gold.Chemscore.DEClash>
0.0659

> <Gold.Chemscore.DEInternal>
3.6377

> <Gold.Chemscore.Rot>
2.5027

> <Gold.Chemscore.Internal.Correction>
   9.000000E+99

> <Gold.Chemscore.Hbonds>
donor molecule, donor type, donor heavy atom, donor atom, acceptor molecule, acceptor atom, score
      L1  H    11    31       P1  8028  0.44
      P1  H  6896  6909       L1     2  0.06
      P1  H  8011  8017       L1    12  0.61

> <Gold.Chemscore.Hbond.Weighted>
-9.3482

> <Gold.Chemscore.Metal.Weighted>
-0.0000

> <Gold.Chemscore.Lipo.Weighted>
-10.9674

> <Gold.Chemscore.Internal_Hbond.Weighted>
0.0000

> <Gold.Chemscore.DEClash.Weighted>
0.0659

> <Gold.Chemscore.DEInternal.Weighted>
3.6377

> <Gold.Chemscore.Rot.Weighted>
6.4070

> <Gold.Chemscore.Internal.Correction.Weighted>
   9.000000E+99

> <Gold.Protein.RotatedTorsions>
[ 6907 6896 6895 6894 ] final  127.98 input  -60.11 | X-H torsion
[ 7974 7965 7964 7962 ] final  124.68 input  175.53 | X-H torsion
[ 8008 7997 7996 7995 ] final    8.52 input   59.86 | X-H torsion
[ 10167 10162 10161 10158 ] final -159.94 input  -65.29 | X-H torsion
[ 10718 10713 10712 10709 ] final  125.12 input   66.30 | X-H torsion
[ 10763 10752 10751 10750 ] final  -53.94 input  -60.55 | X-H torsion
[ 11005 11000 10999 10996 ] final -172.62 input  -57.11 | X-H torsion

> <Gold.Protein.ActiveResidues>
 VAL166  LYS551  ARG553  GLY616  TRP617  ASP618  TYR619  PRO620  LYS621  CYS622 
 ASP623  PHE694  ASN695  SER759  ASP760  ASP761  ALA762  ILE779  LEU786  VAL792 
 PHE793  MET794  SER795  GLU796  ALA797  LYS798  CYS799  TRP800  GLU811  SER814 

> <Gold.Protein.RotatedAtoms>
  152.3762  133.6484  159.6125 H   0  0  0  0  0  0  0  0  0  0  0  0  # atno 6907 bound_to 6896
  150.7706  133.9189  159.3401 H   0  0  0  0  0  0  0  0  0  0  0  0  # atno 6908 bound_to 6896
  151.7003  135.0932  160.0301 H   0  0  0  0  0  0  0  0  0  0  0  0  # atno 6909 bound_to 6896
  145.0817  139.3652  143.4906 H   0  0  0  0  0  0  0  0  0  0  0  0  # atno 7974 bound_to 7965
  154.7680  140.2796  155.6161 H   0  0  0  0  0  0  0  0  0  0  0  0  # atno 8008 bound_to 7997
  156.2928  140.2647  156.2402 H   0  0  0  0  0  0  0  0  0  0  0  0  # atno 8009 bound_to 7997
  154.9935  140.0373  157.2319 H   0  0  0  0  0  0  0  0  0  0  0  0  # atno 8010 bound_to 7997
  139.6577  143.9968  152.2205 H   0  0  0  0  0  0  0  0  0  0  0  0  # atno 10167 bound_to 10162
  157.5529  131.1093  150.8671 H   0  0  0  0  0  0  0  0  0  0  0  0  # atno 10718 bound_to 10713
  154.1669  135.6465  153.4999 H   0  0  0  0  0  0  0  0  0  0  0  0  # atno 10763 bound_to 10752
  153.0095  135.5374  154.6653 H   0  0  0  0  0  0  0  0  0  0  0  0  # atno 10764 bound_to 10752
  154.5982  135.2941  155.0536 H   0  0  0  0  0  0  0  0  0  0  0  0  # atno 10765 bound_to 10752
  140.4949  134.5949  157.4968 H   0  0  0  0  0  0  0  0  0  0  0  0  # atno 11005 bound_to 11000
  146.3531  140.0610  142.8629 LP  0  0  0  0  0  0  0  0  0  0  0  0  # atno 17320 bound_to 7965
  145.1171  140.9440  143.4622 LP  0  0  0  0  0  0  0  0  0  0  0  0  # atno 17321 bound_to 7965
  139.9699  144.6500  150.7999 LP  0  0  0  0  0  0  0  0  0  0  0  0  # atno 17342 bound_to 10162
  140.7566  143.3070  151.2938 LP  0  0  0  0  0  0  0  0  0  0  0  0  # atno 17343 bound_to 10162
  156.9191  130.5308  149.5279 LP  0  0  0  0  0  0  0  0  0  0  0  0  # atno 17370 bound_to 10713
  156.0592  130.5648  150.9157 LP  0  0  0  0  0  0  0  0  0  0  0  0  # atno 17371 bound_to 10713
  139.9747  134.7235  155.9973 LP  0  0  0  0  0  0  0  0  0  0  0  0  # atno 17394 bound_to 11000
  141.1465  133.6555  156.3883 LP  0  0  0  0  0  0  0  0  0  0  0  0  # atno 17395 bound_to 11000

$$$$
