#       Name:                AV-unprocessed.smi:2935
#       Creating user name   scv26
#       Creation time:       Fri Mar 27 16:14:59 2020


#       File generated by GOLD software.
#

@<TRIPOS>MOLECULE
AV-unprocessed.smi:2935
    41    42     1
SMALL
NO_CHARGES


@<TRIPOS>ATOM
      1 ****        -2.7947  -0.5140   1.3159 C.3            1 S1                 0.0000
      2 ****        -2.2834   0.0142  -0.0415 C.3            1 S1                 0.0000
      3 ****        -0.7840   0.3634   0.0974 C.2            1 S1                 0.0000
      4 ****        -0.4608   1.4392   0.6038 O.2            1 S1                 0.0000
      5 ****         0.1018  -0.5583  -0.3285 N.am           1 S1                 0.0000
      6 ****         1.5174  -0.4768  -0.3164 C.2            1 S1                 0.0000
      7 ****         2.3097  -1.5614  -0.7832 C.2            1 S1                 0.0000
      8 ****         3.5886  -1.1122  -0.6140 C.2            1 S1                 0.0000
      9 ****         3.5151   0.1597  -0.0807 N.pl3          1 S1                 0.0000
     10 ****         4.6038   1.0493   0.2820 C.3            1 S1                 0.0000
     11 ****         5.1780   0.6924   1.6542 C.2            1 S1                 0.0000
     12 ****         4.4453   1.0126   2.7241 N.am           1 S1                 0.0000
     13 ****         6.2707   0.1379   1.7469 O.2            1 S1                 0.0000
     14 ****         2.2363   0.5551   0.1031 N.2            1 S1                 0.0000
     15 ****        -2.5759  -0.9886  -1.1796 C.3            1 S1                 0.0000
     16 ****        -4.0286  -0.7418  -1.5916 C.3            1 S1                 0.0000
     17 ****        -4.3159   0.7269  -1.2639 C.3            1 S1                 0.0000
     18 ****        -3.1019   1.2480  -0.4818 C.3            1 S1                 0.0000
     19 ****        -3.8625  -0.7321   1.2874 H              1 S1                 0.0000
     20 ****        -2.6359   0.2128   2.1137 H              1 S1                 0.0000
     21 ****        -2.2824  -1.4334   1.6024 H              1 S1                 0.0000
     22 ****        -0.2846  -1.4110  -0.7060 H              1 S1                 0.0000
     23 ****         1.9933  -2.5159  -1.1769 H              1 S1                 0.0000
     24 ****         4.5363  -1.5861  -0.8240 H              1 S1                 0.0000
     25 ****         5.3821   0.9765  -0.4787 H              1 S1                 0.0000
     26 ****         4.2501   2.0817   0.2812 H              1 S1                 0.0000
     27 ****         4.7903   0.8036   3.6500 H              1 S1                 0.0000
     28 ****         3.5536   1.4705   2.6035 H              1 S1                 0.0000
     29 ****        -1.9371  -0.7923  -2.0428 H              1 S1                 0.0000
     30 ****        -2.4118  -2.0254  -0.8830 H              1 S1                 0.0000
     31 ****        -4.1979  -0.9708  -2.6441 H              1 S1                 0.0000
     32 ****        -4.6916  -1.3826  -1.0092 H              1 S1                 0.0000
     33 ****        -4.4709   1.3136  -2.1699 H              1 S1                 0.0000
     34 ****        -5.2247   0.8068  -0.6663 H              1 S1                 0.0000
     35 ****        -3.4062   1.8688   0.3621 H              1 S1                 0.0000
     36 ****        -2.5123   1.8852  -1.1437 H              1 S1                 0.0000
     37 ****        -1.1652   2.0750   0.9194 LP             1 S1                 0.0000
     38 ****         0.5059   1.6766   0.6991 LP             1 S1                 0.0000
     39 ****         6.7909  -0.0830   0.9219 LP             1 S1                 0.0000
     40 ****         6.6397  -0.0924   2.6473 LP             1 S1                 0.0000
     41 ****         1.9079   1.4252   0.4707 LP             1 S1                 0.0000
@<TRIPOS>BOND
    1    1    2 1     
    2    1   19 1     
    3    1   20 1     
    4    1   21 1     
    5    2   18 1     
    6    2    3 1     
    7    2   15 1     
    8    3    4 2     
    9    3    5 am    
   10    5    6 1     
   11    5   22 1     
   12    6   14 2     
   13    6    7 1     
   14    7    8 2     
   15    7   23 1     
   16    8    9 1     
   17    8   24 1     
   18    9   10 1     
   19    9   14 1     
   20   10   11 1     
   21   10   25 1     
   22   10   26 1     
   23   11   12 am    
   24   11   13 2     
   25   12   27 1     
   26   12   28 1     
   27   15   16 1     
   28   15   29 1     
   29   15   30 1     
   30   16   17 1     
   31   16   31 1     
   32   16   32 1     
   33   17   18 1     
   34   17   33 1     
   35   17   34 1     
   36   18   35 1     
   37   18   36 1     
   38    4   37 1     
   39    4   38 1     
   40   13   39 1     
   41   13   40 1     
   42   14   41 1     
@<TRIPOS>SUBSTRUCTURE
      1 S1             1
@<TRIPOS>SET
LONE_PAIRS      STATIC     ATOMS    <user>   **** ""
5 37 38 39 40 41
DONOR_HYDROGENS      STATIC     ATOMS    <user>   **** ""
3 22 27 28
ATOM$BLUE        STATIC     ATOMS    COLORGROUP SYSTEM
5 37 38 39 40 41
ATOM$RED        STATIC     ATOMS    COLORGROUP SYSTEM
3 22 27 28
