#       Name:                AV-unprocessed.smi:1435
#       Creating user name   scv26
#       Creation time:       Fri Mar 27 05:53:06 2020


#       File generated by GOLD software.
#

@<TRIPOS>MOLECULE
AV-unprocessed.smi:1435
    46    47     1
SMALL
NO_CHARGES


@<TRIPOS>ATOM
      1 ****        -0.0895   1.3384   2.4968 O.2            1 S1                 0.0000
      2 ****         0.6987   0.3934   2.4608 C.2            1 S1                 0.0000
      3 ****         2.2055   0.6521   2.4150 C.3            1 S1                 0.0000
      4 ****         2.6235   1.4756   1.1840 C.3            1 S1                 0.0000
      5 ****         2.5270   0.4800  -0.3712 S.o2           1 S1                 0.0000
      6 ****         3.4264  -0.6759  -0.2356 O.2            1 S1                 0.0000
      7 ****         1.1074   0.2511  -0.6827 O.2            1 S1                 0.0000
      8 ****         3.2421   1.6446  -1.6253 C.3            1 S1                 0.0000
      9 ****         2.2727   2.7845  -1.9640 C.3            1 S1                 0.0000
     10 ****         1.4004   2.2781  -3.1228 C.3            1 S1                 0.0000
     11 ****         2.0914   1.0232  -3.6763 C.3            1 S1                 0.0000
     12 ****         3.4477   0.9447  -2.9713 C.3            1 S1                 0.0000
     13 ****         0.3107  -0.8905   2.4379 N.am           1 S1                 0.0000
     14 ****        -1.0744  -1.3403   2.3879 C.3            1 S1                 0.0000
     15 ****        -1.6431  -1.2393   0.9626 C.3            1 S1                 0.0000
     16 ****        -3.0853  -1.6997   0.8879 C.ar           1 S1                 0.0000
     17 ****        -3.3965  -3.0523   0.6269 C.ar           1 S1                 0.0000
     18 ****        -4.7482  -3.4510   0.5665 C.ar           1 S1                 0.0000
     19 ****        -5.7579  -2.4877   0.7685 C.ar           1 S1                 0.0000
     20 ****        -5.4216  -1.2028   1.0166 N.pl3          1 S1                 1.0000
     21 ****        -4.1394  -0.7812   1.0824 C.ar           1 S1                 0.0000
     22 ****         2.4740   1.1969   3.3204 H              1 S1                 0.0000
     23 ****         2.7592  -0.2873   2.4476 H              1 S1                 0.0000
     24 ****         2.0052   2.3664   1.0731 H              1 S1                 0.0000
     25 ****         3.6540   1.8111   1.2978 H              1 S1                 0.0000
     26 ****         4.1853   2.0177  -1.2258 H              1 S1                 0.0000
     27 ****         1.6769   3.1089  -1.1113 H              1 S1                 0.0000
     28 ****         2.8452   3.6497  -2.3006 H              1 S1                 0.0000
     29 ****         0.3967   2.0316  -2.7744 H              1 S1                 0.0000
     30 ****         1.2975   3.0461  -3.8902 H              1 S1                 0.0000
     31 ****         1.4976   0.1410  -3.4342 H              1 S1                 0.0000
     32 ****         2.1982   1.0544  -4.7610 H              1 S1                 0.0000
     33 ****         4.1875   1.4959  -3.5532 H              1 S1                 0.0000
     34 ****         3.8100  -0.0789  -2.8717 H              1 S1                 0.0000
     35 ****         1.0262  -1.6027   2.4088 H              1 S1                 0.0000
     36 ****        -1.1088  -2.3746   2.7313 H              1 S1                 0.0000
     37 ****        -1.6802  -0.7595   3.0858 H              1 S1                 0.0000
     38 ****        -1.5861  -0.2108   0.6031 H              1 S1                 0.0000
     39 ****        -1.0410  -1.8357   0.2757 H              1 S1                 0.0000
     40 ****        -2.6096  -3.7771   0.4756 H              1 S1                 0.0000
     41 ****        -5.0062  -4.4812   0.3682 H              1 S1                 0.0000
     42 ****        -6.8158  -2.7043   0.7401 H              1 S1                 0.0000
     43 ****        -3.9969   0.2701   1.2878 H              1 S1                 0.0000
     44 ****        -6.1679  -0.5220   1.1604 H              1 S1                 0.0000
     45 ****         0.2551   2.2772   2.4962 LP             1 S1                 0.0000
     46 ****        -1.0743   1.1672   2.5268 LP             1 S1                 0.0000
@<TRIPOS>BOND
    1    1    2 2     
    2    2    3 1     
    3    2   13 am    
    4    3    4 1     
    5    3   22 1     
    6    3   23 1     
    7    4    5 1     
    8    4   24 1     
    9    4   25 1     
   10    5    6 2     
   11    5    7 2     
   12    5    8 1     
   13    8   12 1     
   14    8    9 1     
   15    8   26 1     
   16    9   10 1     
   17    9   27 1     
   18    9   28 1     
   19   10   11 1     
   20   10   29 1     
   21   10   30 1     
   22   11   12 1     
   23   11   31 1     
   24   11   32 1     
   25   12   33 1     
   26   12   34 1     
   27   13   14 1     
   28   13   35 1     
   29   14   15 1     
   30   14   36 1     
   31   14   37 1     
   32   15   16 1     
   33   15   38 1     
   34   15   39 1     
   35   16   21 ar    
   36   16   17 ar    
   37   17   18 ar    
   38   17   40 1     
   39   18   19 ar    
   40   18   41 1     
   41   19   20 ar    
   42   19   42 1     
   43   20   21 ar    
   44   20   44 1     
   45   21   43 1     
   46    1   45 1     
   47    1   46 1     
@<TRIPOS>SUBSTRUCTURE
      1 S1             1
@<TRIPOS>SET
LONE_PAIRS      STATIC     ATOMS    <user>   **** ""
4 45 46 6 7
DONOR_HYDROGENS      STATIC     ATOMS    <user>   **** ""
2 35 44
ATOM$BLUE        STATIC     ATOMS    COLORGROUP SYSTEM
4 45 46 6 7
ATOM$RED        STATIC     ATOMS    COLORGROUP SYSTEM
2 35 44
