AV-unprocessed.smi:686|AV-procd|sdf|3339|dock7
  -GOLD-   22720 0313D 1   1.00000     0.00000
 Structure written by MMmdl.
 41 42  0  0  0  0  0  0  0  0  2 V2000
  146.4697  135.3508  155.7101 C   0  0  0  0  0  0  0  0  0  0  0  0
  147.1746  135.1399  154.3634 C   0  0  2  0  0  0  0  0  0  0  0  0
  146.2851  134.5038  153.2951 C   0  0  0  0  0  0  0  0  0  0  0  0
  147.2222  133.8834  152.3372 N   0  3  2  0  0  0  0  0  0  0  0  0
  146.6141  132.9082  151.3878 C   0  0  0  0  0  0  0  0  0  0  0  0
  145.5129  133.5685  150.5370 C   0  0  0  0  0  0  0  0  0  0  0  0
  146.0351  131.6852  152.1235 C   0  0  0  0  0  0  0  0  0  0  0  0
  148.3300  133.3489  153.1610 C   0  0  0  0  0  0  0  0  0  0  0  0
  148.3993  134.2127  154.4342 C   0  0  1  0  0  0  0  0  0  0  0  0
  149.6332  135.0026  154.4768 N   0  0  0  0  0  0  0  0  0  0  0  0
  150.0767  135.7442  155.9703 S   0  0  0  0  0  0  0  0  0  0  0  0
  149.1152  135.2919  156.9868 O   0  0  0  0  0  0  0  0  0  0  0  0
  151.5164  135.5183  156.1717 O   0  0  0  0  0  0  0  0  0  0  0  0
  149.8019  137.5332  155.6277 C   0  0  0  0  0  0  0  0  0  0  0  0
  151.1240  138.2162  155.4243 C   0  0  0  0  0  0  0  0  0  0  0  0
  152.0323  138.0786  154.3383 C   0  0  0  0  0  0  0  0  0  0  0  0
  153.0523  138.9242  154.6672 C   0  0  0  0  0  0  0  0  0  0  0  0
  152.7995  139.5348  155.8525 O   0  0  0  0  0  0  0  0  0  0  0  0
  151.5651  139.0774  156.3275 N   0  0  0  0  0  0  0  0  0  0  0  0
  146.1166  134.4071  156.1269 H   0  0  0  0  0  0  0  0  0  0  0  0
  145.6086  136.0107  155.6018 H   0  0  0  0  0  0  0  0  0  0  0  0
  147.1453  135.8035  156.4364 H   0  0  0  0  0  0  0  0  0  0  0  0
  147.4848  136.1149  153.9823 H   0  0  0  0  0  0  0  0  0  0  0  0
  145.6528  133.7313  153.7368 H   0  0  0  0  0  0  0  0  0  0  0  0
  145.6390  135.2420  152.8190 H   0  0  0  0  0  0  0  0  0  0  0  0
  147.3964  132.5552  150.7139 H   0  0  0  0  0  0  0  0  0  0  0  0
  145.0434  132.8416  149.8735 H   0  0  0  0  0  0  0  0  0  0  0  0
  145.9060  134.3641  149.9039 H   0  0  0  0  0  0  0  0  0  0  0  0
  144.7297  133.9957  151.1641 H   0  0  0  0  0  0  0  0  0  0  0  0
  145.5476  131.0043  151.4248 H   0  0  0  0  0  0  0  0  0  0  0  0
  145.2934  131.9825  152.8658 H   0  0  0  0  0  0  0  0  0  0  0  0
  146.8084  131.1098  152.6321 H   0  0  0  0  0  0  0  0  0  0  0  0
  148.1182  132.3158  153.4418 H   0  0  0  0  0  0  0  0  0  0  0  0
  149.2618  133.3502  152.5941 H   0  0  0  0  0  0  0  0  0  0  0  0
  148.3496  133.5741  155.3180 H   0  0  0  0  0  0  0  0  0  0  0  0
  149.6577  135.6814  153.7157 H   0  0  0  0  0  0  0  0  0  0  0  0
  149.1777  137.6218  154.7388 H   0  0  0  0  0  0  0  0  0  0  0  0
  149.2536  137.9659  156.4652 H   0  0  0  0  0  0  0  0  0  0  0  0
  151.9499  137.4570  153.4591 H   0  0  0  0  0  0  0  0  0  0  0  0
  153.9819  139.1887  154.1853 H   0  0  0  0  0  0  0  0  0  0  0  0
  147.6110  134.6389  151.7911 H   0  0  0  0  0  0  0  0  0  0  0  0
  1  2  1  0  0  0  0
  1 20  1  0  0  0  0
  1 21  1  0  0  0  0
  1 22  1  0  0  0  0
  2  9  1  0  0  0  0
  2  3  1  0  0  0  0
  2 23  1  0  0  0  0
  3  4  1  0  0  0  0
  3 24  1  0  0  0  0
  3 25  1  0  0  0  0
  4  5  1  0  0  0  0
  4  8  1  0  0  0  0
  4 41  1  0  0  0  0
  5  6  1  0  0  0  0
  5  7  1  0  0  0  0
  5 26  1  0  0  0  0
  6 27  1  0  0  0  0
  6 28  1  0  0  0  0
  6 29  1  0  0  0  0
  7 30  1  0  0  0  0
  7 31  1  0  0  0  0
  7 32  1  0  0  0  0
  8  9  1  0  0  0  0
  8 33  1  0  0  0  0
  8 34  1  0  0  0  0
  9 10  1  0  0  0  0
  9 35  1  0  0  0  0
 10 11  1  0  0  0  0
 10 36  1  0  0  0  0
 11 12  2  0  0  0  0
 11 13  2  0  0  0  0
 11 14  1  0  0  0  0
 14 15  1  0  0  0  0
 14 37  1  0  0  0  0
 14 38  1  0  0  0  0
 15 19  2  0  0  0  0
 15 16  1  0  0  0  0
 16 17  2  0  0  0  0
 16 39  1  0  0  0  0
 17 18  1  0  0  0  0
 17 40  1  0  0  0  0
 18 19  1  0  0  0  0
M  CHG  1   4   1
M  END
> <s_m_source_file>
AV-unprocessed.smi

> <i_m_source_file_index>
686

> <i_lp_mmshare_version>
43012

> <i_f3d_flags>
0

> <s_epik_input>
W0NIM11bQ0BASF0xW0NIMl1OKFtDSF0oW0NIM10pW0NIM10pW0NIMl1bQ0BIXTFbTkhdUyg9TykoPU8pW0NIMl1jMltjSF1bY0hdb24y

> <s_epik_cmdline>
J2VwaWtfcHl0aG9uJywgJy1waCcsICc3LjAnLCAnLXRuJywgJzgnLCAnLW1hJywgJzIwMCcsICctbWV0YWxfYmluZGluZycsICctaW1hZScsICc8aW5maWxlLm1hZT4nLCAnLW9tYWUnLCAnPG91dGZpbGUubWFlPic=

> <r_epik_Ionization_Penalty>
0.00200818

> <r_epik_Ionization_Penalty_Charging>
0.000701289

> <r_epik_Ionization_Penalty_Neutral>
0.00130689

> <r_epik_State_Penalty>
0.00131314

> <r_epik_Charging_Adjusted_Penalty>
0.00201443

> <i_epik_Tot_Q>
1

> <i_epik_Tot_abs_Q>
1

> <r_epik_Metal_State_Penalty>
0.310831

> <b_epik_Metal_Only>
0

> <s_lp_Force_Field>
OPLS_2005

> <r_lp_Energy>
20.8584

> <b_lp_Chiralities_Consistent>
1

> <s_lp_Variant>
AV-unprocessed.smi:686-3

> <Gold.Version>
5.8.1

> <Gold.Id.Protein>
6NUR|6NUR_protein|mol2

> <Gold.PLP.Fitness>
39.9959

> <Gold.PLP.PLP>
-27.2097

> <Gold.PLP.part.hbond>
-4.0000

> <Gold.PLP.part.metal>
0.0000

> <Gold.PLP.part.buried>
-2.7728

> <Gold.PLP.part.nonpolar>
-19.7502

> <Gold.PLP.part.repulsive>
0.0323

> <Gold.PLP.ligand.clash>
0.0000

> <Gold.PLP.ligand.torsion>
0.6659

> <Gold.PLP.Chemscore.Hbond>
4.6416

> <Gold.PLP.Chemscore.CHOScore>
0.0000

> <Gold.PLP.Chemscore.Metal>
0.0000

> <Gold.Chemscore.Hbonds>
donor molecule, donor type, donor heavy atom, donor atom, acceptor molecule, acceptor atom, score
      L1  H     4    41       P1  7948  1.76
      L1  H    10    36       P1  7948  0.85
      P1  H  7997  8010       L1    18  1.00
      P1  H 10752 10765       L1    13  1.00

> <Gold.PLP.Chemscore.Internal.Correction>
0.1933

> <Gold.Rescore>
     Score         DG    S(hbond)    S(metal)    S(lipo)     H(rot)  DE(clash)    DE(int)     intcor
     15.98     -17.05       2.87        0.00      58.68       1.91       0.19       0.89       ----

> <Gold.Chemscore.Fitness>
15.9753

> <Gold.Chemscore.DG>
-17.0495

> <Gold.Chemscore.ZeroCoef>
-5.4800

> <Gold.Chemscore.Hbond>
2.8734

> <Gold.Chemscore.Metal>
0.0000

> <Gold.Chemscore.Lipo>
58.6834

> <Gold.Chemscore.Internal_Hbond>
0.0000

> <Gold.Chemscore.DEClash>
0.1854

> <Gold.Chemscore.DEInternal>
0.8887

> <Gold.Chemscore.Rot>
1.9115

> <Gold.Chemscore.Internal.Correction>
   9.000000E+99

> <Gold.Chemscore.Hbonds>
donor molecule, donor type, donor heavy atom, donor atom, acceptor molecule, acceptor atom, score
      L1  H     4    41       P1  7948  0.32
      L1  H    10    36       P1  7948  0.16
      P1  H  7997  8010       L1    18  0.26
      P1  H 10752 10765       L1    13  0.97

> <Gold.Chemscore.Hbond.Weighted>
-9.5970

> <Gold.Chemscore.Metal.Weighted>
-0.0000

> <Gold.Chemscore.Lipo.Weighted>
-6.8660

> <Gold.Chemscore.Internal_Hbond.Weighted>
0.0000

> <Gold.Chemscore.DEClash.Weighted>
0.1854

> <Gold.Chemscore.DEInternal.Weighted>
0.8887

> <Gold.Chemscore.Rot.Weighted>
4.8935

> <Gold.Chemscore.Internal.Correction.Weighted>
   9.000000E+99

> <Gold.Protein.RotatedTorsions>
[ 6907 6896 6895 6894 ] final  -26.70 input  -60.11 | X-H torsion
[ 7974 7965 7964 7962 ] final  159.62 input  175.53 | X-H torsion
[ 8008 7997 7996 7995 ] final   84.16 input   59.86 | X-H torsion
[ 10167 10162 10161 10158 ] final  -23.12 input  -65.29 | X-H torsion
[ 10718 10713 10712 10709 ] final -142.07 input   66.30 | X-H torsion
[ 10763 10752 10751 10750 ] final -161.91 input  -60.55 | X-H torsion
[ 11005 11000 10999 10996 ] final   87.23 input  -57.11 | X-H torsion

> <Gold.Protein.ActiveResidues>
 VAL166  LYS551  ARG553  GLY616  TRP617  ASP618  TYR619  PRO620  LYS621  CYS622 
 ASP623  PHE694  ASN695  SER759  ASP760  ASP761  ALA762  ILE779  LEU786  VAL792 
 PHE793  MET794  SER795  GLU796  ALA797  LYS798  CYS799  TRP800  GLU811  SER814 

> <Gold.Protein.RotatedAtoms>
  151.1573  135.0256  159.8694 H   0  0  0  0  0  0  0  0  0  0  0  0  # atno 6907 bound_to 6896
  152.5452  134.1320  159.8453 H   0  0  0  0  0  0  0  0  0  0  0  0  # atno 6908 bound_to 6896
  151.1411  133.4924  159.2629 H   0  0  0  0  0  0  0  0  0  0  0  0  # atno 6909 bound_to 6896
  144.7780  139.7642  143.6271 H   0  0  0  0  0  0  0  0  0  0  0  0  # atno 7974 bound_to 7965
  155.9334  140.3413  155.6268 H   0  0  0  0  0  0  0  0  0  0  0  0  # atno 8008 bound_to 7997
  155.7129  140.0774  157.2382 H   0  0  0  0  0  0  0  0  0  0  0  0  # atno 8009 bound_to 7997
  154.4089  140.1619  156.2303 H   0  0  0  0  0  0  0  0  0  0  0  0  # atno 8010 bound_to 7997
  140.7287  143.4472  151.0569 H   0  0  0  0  0  0  0  0  0  0  0  0  # atno 10167 bound_to 10162
  156.3415  130.7640  151.1777 H   0  0  0  0  0  0  0  0  0  0  0  0  # atno 10718 bound_to 10713
  154.7261  135.3036  154.8968 H   0  0  0  0  0  0  0  0  0  0  0  0  # atno 10763 bound_to 10752
  153.9825  135.6728  153.4755 H   0  0  0  0  0  0  0  0  0  0  0  0  # atno 10764 bound_to 10752
  153.0876  135.4976  154.8547 H   0  0  0  0  0  0  0  0  0  0  0  0  # atno 10765 bound_to 10752
  139.8924  134.8409  156.2832 H   0  0  0  0  0  0  0  0  0  0  0  0  # atno 11005 bound_to 11000
  146.1972  139.5245  142.9767 LP  0  0  0  0  0  0  0  0  0  0  0  0  # atno 17320 bound_to 7965
  145.6129  141.0336  143.1956 LP  0  0  0  0  0  0  0  0  0  0  0  0  # atno 17321 bound_to 7965
  139.8145  143.7905  152.3173 LP  0  0  0  0  0  0  0  0  0  0  0  0  # atno 17342 bound_to 10162
  139.7966  144.7390  150.9882 LP  0  0  0  0  0  0  0  0  0  0  0  0  # atno 17343 bound_to 10162
  157.7447  131.0453  150.4836 LP  0  0  0  0  0  0  0  0  0  0  0  0  # atno 17370 bound_to 10713
  156.5017  130.4119  149.6349 LP  0  0  0  0  0  0  0  0  0  0  0  0  # atno 17371 bound_to 10713
  141.0025  133.7143  156.0983 LP  0  0  0  0  0  0  0  0  0  0  0  0  # atno 17394 bound_to 11000
  140.7478  134.4078  157.5546 LP  0  0  0  0  0  0  0  0  0  0  0  0  # atno 17395 bound_to 11000

$$$$
