#       Name:                AV-unprocessed.smi:2217
#       Creating user name   scv26
#       Creation time:       Fri Mar 27 12:18:45 2020


#       File generated by GOLD software.
#

@<TRIPOS>MOLECULE
AV-unprocessed.smi:2217
    50    53     1
SMALL
NO_CHARGES


@<TRIPOS>ATOM
      1 ****         1.6410  -8.2304  -1.9187 C.3            1 S1                 0.0000
      2 ****         1.4719  -6.7767  -1.5306 C.ar           1 S1                 0.0000
      3 ****         0.1942  -6.1965  -1.4220 C.ar           1 S1                 0.0000
      4 ****         0.0930  -4.8407  -1.0548 C.ar           1 S1                 0.0000
      5 ****         1.2664  -4.0951  -0.8017 C.ar           1 S1                 0.0000
      6 ****         1.0361  -2.7325  -0.4450 N.am           1 S1                 0.0000
      7 ****         1.8882  -1.7443  -0.0961 C.2            1 S1                 0.0000
      8 ****         3.1013  -1.9388  -0.0442 O.2            1 S1                 0.0000
      9 ****         1.3286  -0.5579   0.1827 N.am           1 S1                 0.0000
     10 ****         2.0307   0.6517   0.6097 C.3            1 S1                 0.0000
     11 ****         1.5051   1.2034   1.9552 C.3            1 S1                 0.0000
     12 ****         0.5998   0.4089   2.8654 C.3            1 S1                 0.0000
     13 ****        -0.7956   0.9144   2.4856 C.3            1 S1                 0.0000
     14 ****        -0.6386   1.4917   1.1908 O.3            1 S1                 0.0000
     15 ****         0.6252   2.1515   1.1557 C.3            1 S1                 0.0000
     16 ****         1.4893   1.9147  -0.1006 C.3            1 S1                 0.0000
     17 ****         0.7704   1.7970  -1.4450 C.3            1 S1                 0.0000
     18 ****         0.6767   3.2109  -2.0196 C.3            1 S1                 0.0000
     19 ****         1.8474   3.9810  -1.4014 C.3            1 S1                 0.0000
     20 ****         2.5032   3.0165  -0.4071 C.3            1 S1                 0.0000
     21 ****         2.4927  -4.6673  -0.9108 N.ar           1 S1                 0.0000
     22 ****         2.5909  -5.9662  -1.2621 C.ar           1 S1                 0.0000
     23 ****         0.7615  -8.5994  -2.4471 H              1 S1                 0.0000
     24 ****         1.7897  -8.8422  -1.0288 H              1 S1                 0.0000
     25 ****         2.5056  -8.3553  -2.5712 H              1 S1                 0.0000
     26 ****        -0.6956  -6.7772  -1.6155 H              1 S1                 0.0000
     27 ****        -0.8810  -4.3813  -0.9683 H              1 S1                 0.0000
     28 ****         0.0675  -2.4508  -0.4865 H              1 S1                 0.0000
     29 ****         0.3226  -0.4910   0.1119 H              1 S1                 0.0000
     30 ****         3.1191   0.5792   0.5790 H              1 S1                 0.0000
     31 ****         2.2899   1.7490   2.4816 H              1 S1                 0.0000
     32 ****         0.6909  -0.6646   2.7006 H              1 S1                 0.0000
     33 ****         0.8101   0.5938   3.9190 H              1 S1                 0.0000
     34 ****        -1.5436   0.1211   2.4803 H              1 S1                 0.0000
     35 ****        -1.1238   1.6886   3.1805 H              1 S1                 0.0000
     36 ****         0.5983   3.1714   1.5423 H              1 S1                 0.0000
     37 ****         1.3526   1.1708  -2.1227 H              1 S1                 0.0000
     38 ****        -0.2147   1.3371  -1.3619 H              1 S1                 0.0000
     39 ****         0.7091   3.2092  -3.1094 H              1 S1                 0.0000
     40 ****        -0.2650   3.6715  -1.7183 H              1 S1                 0.0000
     41 ****         2.5610   4.3101  -2.1574 H              1 S1                 0.0000
     42 ****         1.4797   4.8703  -0.8882 H              1 S1                 0.0000
     43 ****         2.8361   3.5392   0.4905 H              1 S1                 0.0000
     44 ****         3.3944   2.5828  -0.8632 H              1 S1                 0.0000
     45 ****         3.5917  -6.3667  -1.3302 H              1 S1                 0.0000
     46 ****         3.4727  -2.8412  -0.2625 LP             1 S1                 0.0000
     47 ****         3.7163  -1.1946   0.2162 LP             1 S1                 0.0000
     48 ****        -1.3711   2.1512   1.0216 LP             1 S1                 0.0000
     49 ****        -0.6675   0.7754   0.4936 LP             1 S1                 0.0000
     50 ****         3.3170  -4.1300  -0.7322 LP             1 S1                 0.0000
@<TRIPOS>BOND
    1    1    2 1     
    2    1   23 1     
    3    1   24 1     
    4    1   25 1     
    5    2   22 ar    
    6    2    3 ar    
    7    3    4 ar    
    8    3   26 1     
    9    4    5 ar    
   10    4   27 1     
   11    5    6 1     
   12    5   21 ar    
   13    6    7 am    
   14    6   28 1     
   15    7    8 2     
   16    7    9 am    
   17    9   10 1     
   18    9   29 1     
   19   10   16 1     
   20   10   11 1     
   21   10   30 1     
   22   11   15 1     
   23   11   12 1     
   24   11   31 1     
   25   12   13 1     
   26   12   32 1     
   27   12   33 1     
   28   13   14 1     
   29   13   34 1     
   30   13   35 1     
   31   14   15 1     
   32   15   16 1     
   33   15   36 1     
   34   16   20 1     
   35   16   17 1     
   36   17   18 1     
   37   17   37 1     
   38   17   38 1     
   39   18   19 1     
   40   18   39 1     
   41   18   40 1     
   42   19   20 1     
   43   19   41 1     
   44   19   42 1     
   45   20   43 1     
   46   20   44 1     
   47   21   22 ar    
   48   22   45 1     
   49    8   46 1     
   50    8   47 1     
   51   14   48 1     
   52   14   49 1     
   53   21   50 1     
@<TRIPOS>SUBSTRUCTURE
      1 S1             1
@<TRIPOS>SET
LONE_PAIRS      STATIC     ATOMS    <user>   **** ""
5 46 47 48 49 50
DONOR_HYDROGENS      STATIC     ATOMS    <user>   **** ""
2 28 29
ATOM$BLUE        STATIC     ATOMS    COLORGROUP SYSTEM
5 46 47 48 49 50
ATOM$RED        STATIC     ATOMS    COLORGROUP SYSTEM
2 28 29
