AV-unprocessed.smi:99|AV-procd|sdf|882|dock5
  -GOLD-   2262017363D 1   1.00000     0.00000
 Structure written by MMmdl.
 52 55  0  0  0  0  0  0  0  0  2 V2000
  149.3941  135.3735  158.4302 O   0  0  0  0  0  0  0  0  0  0  0  0
  149.0145  136.0649  159.3773 C   0  0  0  0  0  0  0  0  0  0  0  0
  149.3455  137.3615  159.5366 O   0  0  0  0  0  0  0  0  0  0  0  0
  150.5234  137.8794  158.9379 C   0  0  0  0  0  0  0  0  0  0  0  0
  150.3874  137.8137  157.4093 C   0  0  1  0  0  0  0  0  0  0  0  0
  149.0308  138.0141  157.0177 O   0  0  0  0  0  0  0  0  0  0  0  0
  148.9717  138.5895  155.7428 C   0  0  1  0  0  0  0  0  0  0  0  0
  148.1001  139.8293  155.8008 N   0  0  0  0  0  0  0  0  0  0  0  0
  148.2964  140.7888  156.7790 C   0  0  0  0  0  0  0  0  0  0  0  0
  147.5324  141.8980  156.8420 C   0  0  0  0  0  0  0  0  0  0  0  0
  146.4687  142.0913  155.8616 C   0  0  0  0  0  0  0  0  0  0  0  0
  145.7809  143.1085  155.9222 O   0  0  0  0  0  0  0  0  0  0  0  0
  146.2842  141.1256  154.9157 N   0  5  0  0  0  0  0  0  0  0  0  0
  147.0576  140.0025  154.8490 C   0  0  0  0  0  0  0  0  0  0  0  0
  146.9027  139.1289  153.9956 O   0  0  0  0  0  0  0  0  0  0  0  0
  150.4221  138.8885  155.3118 C   0  0  1  0  0  0  0  0  0  0  0  0
  150.6445  140.0729  154.5687 O   0  0  0  0  0  0  0  0  0  0  0  0
  151.1849  138.8649  156.6265 C   0  0  1  0  0  0  0  0  0  0  0  0
  151.1134  140.1183  157.3093 O   0  0  0  0  0  0  0  0  0  0  0  0
  152.1102  140.5174  158.1348 C   0  0  0  0  0  0  0  0  0  0  0  0
  153.0281  139.7840  158.5073 O   0  0  0  0  0  0  0  0  0  0  0  0
  151.9859  141.9422  158.5558 C   0  0  0  0  0  0  0  0  0  0  0  0
  152.6416  142.3765  159.7314 C   0  0  0  0  0  0  0  0  0  0  0  0
  152.5454  143.7168  160.1534 C   0  0  0  0  0  0  0  0  0  0  0  0
  151.7899  144.6392  159.4062 C   0  0  0  0  0  0  0  0  0  0  0  0
  151.1286  144.2183  158.2378 C   0  0  0  0  0  0  0  0  0  0  0  0
  151.2242  142.8783  157.8156 C   0  0  0  0  0  0  0  0  0  0  0  0
  148.1335  135.5554  160.4670 C   0  0  0  0  0  0  0  0  0  0  0  0
  147.6259  134.2375  160.3891 C   0  0  0  0  0  0  0  0  0  0  0  0
  146.7884  133.7304  161.4017 C   0  0  0  0  0  0  0  0  0  0  0  0
  146.4467  134.5358  162.5036 C   0  0  0  0  0  0  0  0  0  0  0  0
  146.9423  135.8498  162.5908 C   0  0  0  0  0  0  0  0  0  0  0  0
  147.7805  136.3585  161.5796 C   0  0  0  0  0  0  0  0  0  0  0  0
  150.6778  138.9082  159.2641 H   0  0  0  0  0  0  0  0  0  0  0  0
  151.3973  137.3057  159.2511 H   0  0  0  0  0  0  0  0  0  0  0  0
  150.6844  136.8232  157.0610 H   0  0  0  0  0  0  0  0  0  0  0  0
  148.4601  137.8968  155.0729 H   0  0  0  0  0  0  0  0  0  0  0  0
  149.0732  140.6570  157.5160 H   0  0  0  0  0  0  0  0  0  0  0  0
  147.7026  142.6350  157.6130 H   0  0  0  0  0  0  0  0  0  0  0  0
  150.7537  138.0437  154.7067 H   0  0  0  0  0  0  0  0  0  0  0  0
  149.8332  140.5565  154.5303 H   0  0  0  0  0  0  0  0  0  0  0  0
  152.2136  138.5350  156.4766 H   0  0  0  0  0  0  0  0  0  0  0  0
  153.2294  141.6873  160.3205 H   0  0  0  0  0  0  0  0  0  0  0  0
  153.0530  144.0373  161.0510 H   0  0  0  0  0  0  0  0  0  0  0  0
  151.7169  145.6673  159.7290 H   0  0  0  0  0  0  0  0  0  0  0  0
  150.5463  144.9235  157.6631 H   0  0  0  0  0  0  0  0  0  0  0  0
  150.6991  142.5883  156.9202 H   0  0  0  0  0  0  0  0  0  0  0  0
  147.8740  133.6004  159.5523 H   0  0  0  0  0  0  0  0  0  0  0  0
  146.4078  132.7219  161.3322 H   0  0  0  0  0  0  0  0  0  0  0  0
  145.8044  134.1467  163.2799 H   0  0  0  0  0  0  0  0  0  0  0  0
  146.6787  136.4699  163.4349 H   0  0  0  0  0  0  0  0  0  0  0  0
  148.1394  137.3727  161.6754 H   0  0  0  0  0  0  0  0  0  0  0  0
  1  2  2  0  0  0  0
  2  3  1  0  0  0  0
  2 28  1  0  0  0  0
  3  4  1  0  0  0  0
  4  5  1  0  0  0  0
  4 34  1  0  0  0  0
  4 35  1  0  0  0  0
  5 18  1  0  0  0  0
  5  6  1  0  0  0  0
  5 36  1  0  0  0  0
  6  7  1  0  0  0  0
  7  8  1  0  0  0  0
  7 16  1  0  0  0  0
  7 37  1  0  0  0  0
  8 14  1  0  0  0  0
  8  9  1  0  0  0  0
  9 10  2  0  0  0  0
  9 38  1  0  0  0  0
 10 11  1  0  0  0  0
 10 39  1  0  0  0  0
 11 12  2  0  0  0  0
 11 13  1  0  0  0  0
 13 14  1  0  0  0  0
 14 15  2  0  0  0  0
 16 17  1  0  0  0  0
 16 18  1  0  0  0  0
 16 40  1  0  0  0  0
 17 41  1  0  0  0  0
 18 19  1  0  0  0  0
 18 42  1  0  0  0  0
 19 20  1  0  0  0  0
 20 21  2  0  0  0  0
 20 22  1  0  0  0  0
 22 27  1  0  0  0  0
 22 23  2  0  0  0  0
 23 24  1  0  0  0  0
 23 43  1  0  0  0  0
 24 25  2  0  0  0  0
 24 44  1  0  0  0  0
 25 26  1  0  0  0  0
 25 45  1  0  0  0  0
 26 27  2  0  0  0  0
 26 46  1  0  0  0  0
 27 47  1  0  0  0  0
 28 33  1  0  0  0  0
 28 29  2  0  0  0  0
 29 30  1  0  0  0  0
 29 48  1  0  0  0  0
 30 31  2  0  0  0  0
 30 49  1  0  0  0  0
 31 32  1  0  0  0  0
 31 50  1  0  0  0  0
 32 33  2  0  0  0  0
 32 51  1  0  0  0  0
 33 52  1  0  0  0  0
M  CHG  1  13  -1
M  END
> <s_m_source_file>
AV-unprocessed.smi

> <i_m_source_file_index>
99

> <i_lp_mmshare_version>
43012

> <i_f3d_flags>
0

> <s_epik_input>
W2NIXTFbY0hdW2NIXVtjSF1bY0hdYzFDKD1PKU9bQ0gyXVtDQEBIXTJPW0NAQEhdKG4zW2NIXVtjSF1jKD1PKVtuSF1jMz1PKVtDQEBIXShbT0hdKVtDQEhdMk9DKD1PKWM0W2NIXVtjSF1bY0hdW2NIXVtjSF00

> <s_epik_cmdline>
J2VwaWtfcHl0aG9uJywgJy1waCcsICc3LjAnLCAnLXRuJywgJzgnLCAnLW1hJywgJzIwMCcsICctbWV0YWxfYmluZGluZycsICctaW1hZScsICc8aW5maWxlLm1hZT4nLCAnLW9tYWUnLCAnPG91dGZpbGUubWFlPic=

> <r_lp_tautomer_probability>
1

> <r_epik_Ionization_Penalty>
2.89159

> <r_epik_Ionization_Penalty_Charging>
2.1077e-08

> <r_epik_Ionization_Penalty_Neutral>
2.89159

> <r_epik_State_Penalty>
2.88671

> <r_epik_Charging_Adjusted_Penalty>
2.88671

> <i_epik_Tot_Q>
-1

> <i_epik_Tot_abs_Q>
1

> <r_epik_Metal_State_Penalty>
0.0727308

> <b_epik_Metal_Only>
1

> <s_epik_Chemistry_Notes>
This compound has an ester and may undergo hydrolysis at high or low pH. This compound contains an acetal/aminal-like group ( X-CH(R)-Y where X, Y are N, S, or O) that may be acid/base labile, releasing an aldehyde.

> <s_lp_Force_Field>
OPLS_2005

> <r_lp_Energy>
51.9735

> <b_lp_Chiralities_Consistent>
1

> <s_lp_Variant>
AV-unprocessed.smi:99-18

> <Gold.Version>
5.8.1

> <Gold.Id.Protein>
6NUR|6NUR_protein|mol2

> <Gold.PLP.Fitness>
59.7871

> <Gold.PLP.PLP>
-53.2705

> <Gold.PLP.part.hbond>
-4.0000

> <Gold.PLP.part.metal>
0.0000

> <Gold.PLP.part.buried>
-5.4920

> <Gold.PLP.part.nonpolar>
-44.4015

> <Gold.PLP.part.repulsive>
0.4235

> <Gold.PLP.ligand.clash>
0.0000

> <Gold.PLP.ligand.torsion>
1.5943

> <Gold.PLP.Chemscore.Hbond>
2.9920

> <Gold.PLP.Chemscore.CHOScore>
0.0000

> <Gold.PLP.Chemscore.Metal>
0.0000

> <Gold.Chemscore.Hbonds>
donor molecule, donor type, donor heavy atom, donor atom, acceptor molecule, acceptor atom, score
      P1  H  6896  6907       L1     1  0.85
      P1  H  7989  7998       L1    17  1.00
      P1  H  7997  8009       L1    21  0.59

> <Gold.PLP.Chemscore.Internal.Correction>
0.7293

> <Gold.Rescore>
     Score         DG    S(hbond)    S(metal)    S(lipo)     H(rot)  DE(clash)    DE(int)     intcor
     14.84     -19.10       1.89        0.00     131.06       3.13       0.40       3.86       ----

> <Gold.Chemscore.Fitness>
14.8379

> <Gold.Chemscore.DG>
-19.0995

> <Gold.Chemscore.ZeroCoef>
-5.4800

> <Gold.Chemscore.Hbond>
1.8892

> <Gold.Chemscore.Metal>
0.0000

> <Gold.Chemscore.Lipo>
131.0599

> <Gold.Chemscore.Internal_Hbond>
0.0000

> <Gold.Chemscore.DEClash>
0.4006

> <Gold.Chemscore.DEInternal>
3.8611

> <Gold.Chemscore.Rot>
3.1346

> <Gold.Chemscore.Internal.Correction>
   9.000000E+99

> <Gold.Chemscore.Hbonds>
donor molecule, donor type, donor heavy atom, donor atom, acceptor molecule, acceptor atom, score
      P1  H  6896  6907       L1     1  0.14
      P1  H  7989  7998       L1    17  0.45
      P1  H  7997  8009       L1    21  0.42

> <Gold.Chemscore.Hbond.Weighted>
-6.3101

> <Gold.Chemscore.Metal.Weighted>
-0.0000

> <Gold.Chemscore.Lipo.Weighted>
-15.3340

> <Gold.Chemscore.Internal_Hbond.Weighted>
0.0000

> <Gold.Chemscore.DEClash.Weighted>
0.4006

> <Gold.Chemscore.DEInternal.Weighted>
3.8611

> <Gold.Chemscore.Rot.Weighted>
8.0246

> <Gold.Chemscore.Internal.Correction.Weighted>
   9.000000E+99

> <Gold.Protein.RotatedTorsions>
[ 6907 6896 6895 6894 ] final  -90.85 input  -60.11 | X-H torsion
[ 7974 7965 7964 7962 ] final -139.84 input  175.53 | X-H torsion
[ 8008 7997 7996 7995 ] final  141.26 input   59.86 | X-H torsion
[ 10167 10162 10161 10158 ] final -110.17 input  -65.29 | X-H torsion
[ 10718 10713 10712 10709 ] final -103.26 input   66.30 | X-H torsion
[ 10763 10752 10751 10750 ] final  111.24 input  -60.55 | X-H torsion
[ 11005 11000 10999 10996 ] final  -73.29 input  -57.11 | X-H torsion

> <Gold.Protein.ActiveResidues>
 VAL166  LYS551  ARG553  GLY616  TRP617  ASP618  TYR619  PRO620  LYS621  CYS622 
 ASP623  PHE694  ASN695  SER759  ASP760  ASP761  ALA762  ILE779  LEU786  VAL792 
 PHE793  MET794  SER795  GLU796  ALA797  LYS798  CYS799  TRP800  GLU811  SER814 

> <Gold.Protein.RotatedAtoms>
  150.6886  134.2367  159.4455 H   0  0  0  0  0  0  0  0  0  0  0  0  # atno 6907 bound_to 6896
  152.0314  134.9763  160.0582 H   0  0  0  0  0  0  0  0  0  0  0  0  # atno 6908 bound_to 6896
  152.1300  133.4367  159.4753 H   0  0  0  0  0  0  0  0  0  0  0  0  # atno 6909 bound_to 6896
  144.8644  140.6271  143.5307 H   0  0  0  0  0  0  0  0  0  0  0  0  # atno 7974 bound_to 7965
  156.2968  140.2320  156.4536 H   0  0  0  0  0  0  0  0  0  0  0  0  # atno 8008 bound_to 7997
  154.8080  140.0444  157.1343 H   0  0  0  0  0  0  0  0  0  0  0  0  # atno 8009 bound_to 7997
  154.9456  140.3035  155.5103 H   0  0  0  0  0  0  0  0  0  0  0  0  # atno 8010 bound_to 7997
  140.1474  143.4228  152.1519 H   0  0  0  0  0  0  0  0  0  0  0  0  # atno 10167 bound_to 10162
  156.0259  130.5459  150.7227 H   0  0  0  0  0  0  0  0  0  0  0  0  # atno 10718 bound_to 10713
  153.4605  135.3723  155.2335 H   0  0  0  0  0  0  0  0  0  0  0  0  # atno 10763 bound_to 10752
  154.8757  135.3907  154.3930 H   0  0  0  0  0  0  0  0  0  0  0  0  # atno 10764 bound_to 10752
  153.4503  135.7085  153.6177 H   0  0  0  0  0  0  0  0  0  0  0  0  # atno 10765 bound_to 10752
  141.1621  133.6874  156.7190 H   0  0  0  0  0  0  0  0  0  0  0  0  # atno 11005 bound_to 11000
  145.4249  139.1558  143.4054 LP  0  0  0  0  0  0  0  0  0  0  0  0  # atno 17320 bound_to 7965
  146.2885  140.4362  142.8748 LP  0  0  0  0  0  0  0  0  0  0  0  0  # atno 17321 bound_to 7965
  139.5442  144.7284  151.4635 LP  0  0  0  0  0  0  0  0  0  0  0  0  # atno 17342 bound_to 10162
  140.6724  143.8265  150.7015 LP  0  0  0  0  0  0  0  0  0  0  0  0  # atno 17343 bound_to 10162
  157.4839  131.0905  151.0505 LP  0  0  0  0  0  0  0  0  0  0  0  0  # atno 17370 bound_to 10713
  157.0931  130.5950  149.5444 LP  0  0  0  0  0  0  0  0  0  0  0  0  # atno 17371 bound_to 10713
  140.2830  134.8301  157.3950 LP  0  0  0  0  0  0  0  0  0  0  0  0  # atno 17394 bound_to 11000
  140.1416  134.4965  155.8027 LP  0  0  0  0  0  0  0  0  0  0  0  0  # atno 17395 bound_to 11000

$$$$
