AV-unprocessed.smi:21|AV-procd|sdf|164|dock7
  -GOLD-   2262015403D 1   1.00000     0.00000
 Structure written by MMmdl.
 61 64  0  0  0  0  0  0  0  0  1 V2000
  150.7429  144.6719  160.5108 C   0  0  0  0  0  0  0  0  0  0  0  0
  151.5721  145.3491  159.5796 O   0  0  0  0  0  0  0  0  0  0  0  0
  152.3367  144.4741  158.7610 C   0  0  2  0  0  0  0  0  0  0  0  0
  151.4372  143.5626  157.9077 C   0  0  0  0  0  0  0  0  0  0  0  0
  151.9042  142.1367  158.2380 C   0  0  2  0  0  0  0  0  0  0  0  0
  150.8134  141.0620  158.0200 C   0  0  0  0  0  0  0  0  0  0  0  0
  150.5475  140.7784  156.6087 N   0  0  0  0  0  0  0  0  0  0  0  0
  151.7050  140.6109  155.7332 C   0  0  0  0  0  0  0  0  0  0  0  0
  149.3828  141.2192  156.0566 C   0  0  0  0  0  0  0  0  0  0  0  0
  149.2796  141.2784  154.7009 N   0  0  0  0  0  0  0  0  0  0  0  0
  148.1693  141.7388  154.1194 C   0  0  0  0  0  0  0  0  0  0  0  0
  147.0522  142.1852  154.6936 N   0  0  0  0  0  0  0  0  0  0  0  0
  147.1359  142.1162  156.0524 C   0  0  0  0  0  0  0  0  0  0  0  0
  148.2479  141.6455  156.8097 C   0  0  0  0  0  0  0  0  0  0  0  0
  147.9451  141.7116  158.1656 N   0  0  0  0  0  0  0  0  0  0  0  0
  146.7400  142.2083  158.2079 C   0  0  0  0  0  0  0  0  0  0  0  0
  146.1766  142.4764  156.9825 N   0  0  0  0  0  0  0  0  0  0  0  0
  144.8562  143.0332  156.7417 C   0  0  0  0  0  0  0  0  0  0  0  0
  144.6455  144.4204  157.3987 C   0  0  2  0  0  0  0  0  0  0  0  0
  144.5484  144.2971  158.9410 C   0  0  0  0  0  0  0  0  0  0  0  0
  145.0443  145.4482  159.5909 O   0  0  0  0  0  0  0  0  0  0  0  0
  143.4037  145.1221  156.7826 C   0  0  1  0  0  0  0  0  0  0  0  0
  143.0300  146.4621  157.3933 C   0  0  0  0  0  0  0  0  0  0  0  0
  142.1357  147.0709  156.3201 C   0  0  0  0  0  0  0  0  0  0  0  0
  142.6574  146.6044  155.0826 O   0  0  0  0  0  0  0  0  0  0  0  0
  143.5642  145.5308  155.3122 C   0  0  0  0  0  0  0  0  0  0  0  0
  152.3832  142.2339  159.6078 N   0  0  0  0  0  0  0  0  0  0  0  0
  153.2117  141.1112  160.0279 C   0  0  0  0  0  0  0  0  0  0  0  0
  153.1091  143.4899  159.6462 C   0  0  0  0  0  0  0  0  0  0  0  0
  153.0403  145.0386  158.1467 H   0  0  0  0  0  0  0  0  0  0  0  0
  152.7563  141.9074  157.5956 H   0  0  0  0  0  0  0  0  0  0  0  0
  150.1830  145.4006  161.0969 H   0  0  0  0  0  0  0  0  0  0  0  0
  151.3255  144.0632  161.2032 H   0  0  0  0  0  0  0  0  0  0  0  0
  150.0242  144.0285  160.0020 H   0  0  0  0  0  0  0  0  0  0  0  0
  150.3937  143.6894  158.1988 H   0  0  0  0  0  0  0  0  0  0  0  0
  151.5160  143.7884  156.8439 H   0  0  0  0  0  0  0  0  0  0  0  0
  151.1348  140.1233  158.4700 H   0  0  0  0  0  0  0  0  0  0  0  0
  149.9095  141.3310  158.5610 H   0  0  0  0  0  0  0  0  0  0  0  0
  151.4447  140.0201  154.8540 H   0  0  0  0  0  0  0  0  0  0  0  0
  152.5095  140.0905  156.2532 H   0  0  0  0  0  0  0  0  0  0  0  0
  152.0863  141.5780  155.4029 H   0  0  0  0  0  0  0  0  0  0  0  0
  148.1800  141.7553  153.0395 H   0  0  0  0  0  0  0  0  0  0  0  0
  146.2242  142.3905  159.1395 H   0  0  0  0  0  0  0  0  0  0  0  0
  144.7307  143.0916  155.6610 H   0  0  0  0  0  0  0  0  0  0  0  0
  144.1046  142.3288  157.1000 H   0  0  0  0  0  0  0  0  0  0  0  0
  145.5258  145.0217  157.1658 H   0  0  0  0  0  0  0  0  0  0  0  0
  143.5190  144.1152  159.2511 H   0  0  0  0  0  0  0  0  0  0  0  0
  145.1391  143.4625  159.3156 H   0  0  0  0  0  0  0  0  0  0  0  0
  145.9124  145.6276  159.2632 H   0  0  0  0  0  0  0  0  0  0  0  0
  142.5405  144.4591  156.8629 H   0  0  0  0  0  0  0  0  0  0  0  0
  142.5180  146.3723  158.3515 H   0  0  0  0  0  0  0  0  0  0  0  0
  143.9186  147.0795  157.5337 H   0  0  0  0  0  0  0  0  0  0  0  0
  141.1131  146.7066  156.4257 H   0  0  0  0  0  0  0  0  0  0  0  0
  142.1148  148.1599  156.3610 H   0  0  0  0  0  0  0  0  0  0  0  0
  144.5746  145.8934  155.1189 H   0  0  0  0  0  0  0  0  0  0  0  0
  143.3657  144.7065  154.6270 H   0  0  0  0  0  0  0  0  0  0  0  0
  153.5872  141.2716  161.0389 H   0  0  0  0  0  0  0  0  0  0  0  0
  154.0684  140.9811  159.3653 H   0  0  0  0  0  0  0  0  0  0  0  0
  152.6419  140.1825  160.0349 H   0  0  0  0  0  0  0  0  0  0  0  0
  154.1073  143.3519  159.2269 H   0  0  0  0  0  0  0  0  0  0  0  0
  153.2323  143.8505  160.6681 H   0  0  0  0  0  0  0  0  0  0  0  0
  1  2  1  0  0  0  0
  1 32  1  0  0  0  0
  1 33  1  0  0  0  0
  1 34  1  0  0  0  0
  2  3  1  0  0  0  0
  3 30  1  0  0  0  0
  3 29  1  0  0  0  0
  3  4  1  0  0  0  0
  4  5  1  0  0  0  0
  4 35  1  0  0  0  0
  4 36  1  0  0  0  0
  5 31  1  0  0  0  0
  5  6  1  0  0  0  0
  5 27  1  0  0  0  0
  6  7  1  0  0  0  0
  6 37  1  0  0  0  0
  6 38  1  0  0  0  0
  7  8  1  0  0  0  0
  7  9  1  0  0  0  0
  8 39  1  0  0  0  0
  8 40  1  0  0  0  0
  8 41  1  0  0  0  0
  9 14  1  0  0  0  0
  9 10  2  0  0  0  0
 10 11  1  0  0  0  0
 11 12  2  0  0  0  0
 11 42  1  0  0  0  0
 12 13  1  0  0  0  0
 13 17  1  0  0  0  0
 13 14  2  0  0  0  0
 14 15  1  0  0  0  0
 15 16  2  0  0  0  0
 16 17  1  0  0  0  0
 16 43  1  0  0  0  0
 17 18  1  0  0  0  0
 18 19  1  0  0  0  0
 18 44  1  0  0  0  0
 18 45  1  0  0  0  0
 19 20  1  0  0  0  0
 19 22  1  0  0  0  0
 19 46  1  0  0  0  0
 20 21  1  0  0  0  0
 20 47  1  0  0  0  0
 20 48  1  0  0  0  0
 21 49  1  0  0  0  0
 22 26  1  0  0  0  0
 22 23  1  0  0  0  0
 22 50  1  0  0  0  0
 23 24  1  0  0  0  0
 23 51  1  0  0  0  0
 23 52  1  0  0  0  0
 24 25  1  0  0  0  0
 24 53  1  0  0  0  0
 24 54  1  0  0  0  0
 25 26  1  0  0  0  0
 26 55  1  0  0  0  0
 26 56  1  0  0  0  0
 27 28  1  0  0  0  0
 27 29  1  0  0  0  0
 28 57  1  0  0  0  0
 28 58  1  0  0  0  0
 28 59  1  0  0  0  0
 29 60  1  0  0  0  0
 29 61  1  0  0  0  0
M  END
> <s_m_source_file>
AV-unprocessed.smi

> <i_m_source_file_index>
21

> <i_lp_mmshare_version>
43012

> <i_f3d_flags>
0

> <s_epik_input>
W0NIM11PW0NASF0xW0NIMl1bQ0BIXShOKFtDSDNdKVtDSDJdMSlbQ0gyXU4oW0NIM10pYyhuW2NIXW4yKWMoYzIzKW5bY0hdbjNbQ0gyXVtDQEhdKFtDSDJdW09IXSlbQ0BASF00W0NIMl1bQ0gyXU9bQ0gyXTQ=

> <s_epik_cmdline>
J2VwaWtfcHl0aG9uJywgJy1waCcsICc3LjAnLCAnLXRuJywgJzgnLCAnLW1hJywgJzIwMCcsICctbWV0YWxfYmluZGluZycsICctaW1hZScsICc8aW5maWxlLm1hZT4nLCAnLW9tYWUnLCAnPG91dGZpbGUubWFlPic=

> <r_lp_tautomer_probability>
1

> <r_epik_Ionization_Penalty>
2.17574

> <r_epik_Ionization_Penalty_Charging>
0

> <r_epik_Ionization_Penalty_Neutral>
2.17574

> <r_epik_State_Penalty>
2.31336

> <r_epik_Charging_Adjusted_Penalty>
2.31336

> <i_epik_Tot_Q>
0

> <i_epik_Tot_abs_Q>
0

> <r_epik_Metal_State_Penalty>
2.31025

> <b_epik_Metal_Only>
0

> <s_lp_Force_Field>
OPLS_2005

> <r_lp_Energy>
70.4108

> <b_lp_Chiralities_Consistent>
1

> <s_lp_Variant>
AV-unprocessed.smi:21-44

> <Gold.Version>
5.8.1

> <Gold.Id.Protein>
6NUR|6NUR_protein|mol2

> <Gold.PLP.Fitness>
58.6953

> <Gold.PLP.PLP>
-53.0384

> <Gold.PLP.part.hbond>
-4.8765

> <Gold.PLP.part.metal>
0.0000

> <Gold.PLP.part.buried>
-5.3269

> <Gold.PLP.part.nonpolar>
-40.9191

> <Gold.PLP.part.repulsive>
0.6028

> <Gold.PLP.ligand.clash>
0.0000

> <Gold.PLP.ligand.torsion>
0.8637

> <Gold.PLP.Chemscore.Hbond>
1.1927

> <Gold.PLP.Chemscore.CHOScore>
1.0000

> <Gold.PLP.Chemscore.Metal>
0.0000

> <Gold.Chemscore.Hbonds>
donor molecule, donor type, donor heavy atom, donor atom, acceptor molecule, acceptor atom, score
      L1  C    11    42       P1  7957  0.08

> <Gold.PLP.Chemscore.Internal.Correction>
0.8064

> <Gold.Rescore>
     Score         DG    S(hbond)    S(metal)    S(lipo)     H(rot)  DE(clash)    DE(int)     intcor
     12.62     -15.16       1.03        0.00     119.02       3.00       0.41       2.14       ----

> <Gold.Chemscore.Fitness>
12.6242

> <Gold.Chemscore.DG>
-15.1645

> <Gold.Chemscore.ZeroCoef>
-5.4800

> <Gold.Chemscore.Hbond>
1.0320

> <Gold.Chemscore.Metal>
0.0000

> <Gold.Chemscore.Lipo>
119.0207

> <Gold.Chemscore.Internal_Hbond>
0.0000

> <Gold.Chemscore.DEClash>
0.4050

> <Gold.Chemscore.DEInternal>
2.1352

> <Gold.Chemscore.Rot>
3.0031

> <Gold.Chemscore.Internal.Correction>
   9.000000E+99

> <Gold.Chemscore.Hbond.Weighted>
-3.4470

> <Gold.Chemscore.Metal.Weighted>
-0.0000

> <Gold.Chemscore.Lipo.Weighted>
-13.9254

> <Gold.Chemscore.Internal_Hbond.Weighted>
0.0000

> <Gold.Chemscore.DEClash.Weighted>
0.4050

> <Gold.Chemscore.DEInternal.Weighted>
2.1352

> <Gold.Chemscore.Rot.Weighted>
7.6880

> <Gold.Chemscore.Internal.Correction.Weighted>
   9.000000E+99

> <Gold.Protein.RotatedTorsions>
[ 6907 6896 6895 6894 ] final  149.02 input  -60.11 | X-H torsion
[ 7974 7965 7964 7962 ] final -119.05 input  175.53 | X-H torsion
[ 8008 7997 7996 7995 ] final   76.10 input   59.86 | X-H torsion
[ 10167 10162 10161 10158 ] final   63.64 input  -65.29 | X-H torsion
[ 10718 10713 10712 10709 ] final   54.79 input   66.30 | X-H torsion
[ 10763 10752 10751 10750 ] final  -41.37 input  -60.55 | X-H torsion
[ 11005 11000 10999 10996 ] final   -5.09 input  -57.11 | X-H torsion

> <Gold.Protein.ActiveResidues>
 VAL166  LYS551  ARG553  GLY616  TRP617  ASP618  TYR619  PRO620  LYS621  CYS622 
 ASP623  PHE694  ASN695  SER759  ASP760  ASP761  ALA762  ILE779  LEU786  VAL792 
 PHE793  MET794  SER795  GLU796  ALA797  LYS798  CYS799  TRP800  GLU811  SER814 

> <Gold.Protein.RotatedAtoms>
  152.1337  133.4422  159.4732 H   0  0  0  0  0  0  0  0  0  0  0  0  # atno 6907 bound_to 6896
  150.6880  134.2390  159.4474 H   0  0  0  0  0  0  0  0  0  0  0  0  # atno 6908 bound_to 6896
  152.0276  134.9786  160.0622 H   0  0  0  0  0  0  0  0  0  0  0  0  # atno 6909 bound_to 6896
  145.0669  140.8331  143.4119 H   0  0  0  0  0  0  0  0  0  0  0  0  # atno 7974 bound_to 7965
  155.8225  140.3469  155.5523 H   0  0  0  0  0  0  0  0  0  0  0  0  # atno 8008 bound_to 7997
  155.8327  140.0929  157.1803 H   0  0  0  0  0  0  0  0  0  0  0  0  # atno 8009 bound_to 7997
  154.4004  140.1409  156.3621 H   0  0  0  0  0  0  0  0  0  0  0  0  # atno 8010 bound_to 7997
  140.1309  144.4644  150.6865 H   0  0  0  0  0  0  0  0  0  0  0  0  # atno 10167 bound_to 10162
  157.5288  130.8616  149.8658 H   0  0  0  0  0  0  0  0  0  0  0  0  # atno 10718 bound_to 10713
  153.9614  135.6739  153.4745 H   0  0  0  0  0  0  0  0  0  0  0  0  # atno 10763 bound_to 10752
  153.0836  135.4910  154.8550 H   0  0  0  0  0  0  0  0  0  0  0  0  # atno 10764 bound_to 10752
  154.7271  135.3130  154.8913 H   0  0  0  0  0  0  0  0  0  0  0  0  # atno 10765 bound_to 10752
  140.6874  133.9101  155.8595 H   0  0  0  0  0  0  0  0  0  0  0  0  # atno 11005 bound_to 11000
  145.1340  139.2614  143.5524 LP  0  0  0  0  0  0  0  0  0  0  0  0  # atno 17320 bound_to 7965
  146.3527  140.0999  142.8608 LP  0  0  0  0  0  0  0  0  0  0  0  0  # atno 17321 bound_to 7965
  140.6818  143.2330  151.5365 LP  0  0  0  0  0  0  0  0  0  0  0  0  # atno 17342 bound_to 10162
  139.5520  144.2371  152.1547 LP  0  0  0  0  0  0  0  0  0  0  0  0  # atno 17343 bound_to 10162
  156.0407  130.3740  150.1444 LP  0  0  0  0  0  0  0  0  0  0  0  0  # atno 17370 bound_to 10713
  156.9629  130.9810  151.3475 LP  0  0  0  0  0  0  0  0  0  0  0  0  # atno 17371 bound_to 10713
  141.0269  134.0811  157.4058 LP  0  0  0  0  0  0  0  0  0  0  0  0  # atno 17394 bound_to 11000
  139.8933  135.0130  156.6894 LP  0  0  0  0  0  0  0  0  0  0  0  0  # atno 17395 bound_to 11000

$$$$
