#       Name:                AV-unprocessed.smi:672
#       Creating user name   scv26
#       Creation time:       Fri Mar 27 00:25:21 2020


#       File generated by GOLD software.
#

@<TRIPOS>MOLECULE
AV-unprocessed.smi:672
    40    41     1
SMALL
NO_CHARGES


@<TRIPOS>ATOM
      1 ****        -6.7899   0.8909   0.7288 C.3            1 S1                 0.0000
      2 ****        -6.1457   2.0341  -0.0624 C.3            1 S1                 0.0000
      3 ****        -4.8318   1.6497  -0.6561 C.2            1 S1                 0.0000
      4 ****        -4.7190   1.0747  -1.8563 N.2            1 S1                 0.0000
      5 ****        -3.4003   0.7853  -2.1754 N.2            1 S1                 0.0000
      6 ****        -2.5388   1.1206  -1.2046 C.2            1 S1                 0.0000
      7 ****        -1.2151   0.9210  -1.3147 N.pl3          1 S1                -1.0000
      8 ****        -0.6480  -0.1699  -0.7511 C.2            1 S1                 0.0000
      9 ****        -1.2319  -1.0526  -0.1180 O.2            1 S1                 0.0000
     10 ****         0.6792  -0.2405  -0.9272 N.am           1 S1                 0.0000
     11 ****         1.5521  -1.3021  -0.4303 C.3            1 S1                 0.0000
     12 ****         1.8232  -1.1628   1.0829 C.3            1 S1                 0.0000
     13 ****         3.3426  -1.2201   1.2515 C.3            1 S1                 0.0000
     14 ****         3.8899  -0.6734  -0.0661 C.3            1 S1                 0.0000
     15 ****         5.6155  -1.1471  -0.3777 S.3            1 S1                 0.0000
     16 ****         6.4572  -0.1336   0.8670 C.3            1 S1                 0.0000
     17 ****         2.9278  -1.2330  -1.1162 C.3            1 S1                 0.0000
     18 ****        -3.3124   1.8568   0.1985 S.3            1 S1                 0.0000
     19 ****        -7.7444   1.2016   1.1536 H              1 S1                 0.0000
     20 ****        -6.1476   0.5704   1.5496 H              1 S1                 0.0000
     21 ****        -6.9739   0.0264   0.0902 H              1 S1                 0.0000
     22 ****        -6.8138   2.3572  -0.8616 H              1 S1                 0.0000
     23 ****        -5.9959   2.8969   0.5871 H              1 S1                 0.0000
     24 ****         1.1166   0.5028  -1.4518 H              1 S1                 0.0000
     25 ****         1.0978  -2.2704  -0.6480 H              1 S1                 0.0000
     26 ****         1.4602  -0.2025   1.4527 H              1 S1                 0.0000
     27 ****         1.3210  -1.9388   1.6614 H              1 S1                 0.0000
     28 ****         3.6842  -0.6542   2.1183 H              1 S1                 0.0000
     29 ****         3.6559  -2.2565   1.3847 H              1 S1                 0.0000
     30 ****         3.8149   0.4150  -0.0653 H              1 S1                 0.0000
     31 ****         7.5360  -0.2712   0.7948 H              1 S1                 0.0000
     32 ****         6.1416  -0.4165   1.8710 H              1 S1                 0.0000
     33 ****         6.2323   0.9221   0.7145 H              1 S1                 0.0000
     34 ****         3.2346  -2.2426  -1.3930 H              1 S1                 0.0000
     35 ****         2.9255  -0.6391  -2.0312 H              1 S1                 0.0000
     36 ****        -5.4948   0.8760  -2.4552 LP             1 S1                 0.0000
     37 ****        -3.1210   0.3693  -3.0408 LP             1 S1                 0.0000
     38 ****        -0.6495   1.5783  -1.8128 LP             1 S1                 0.0000
     39 ****        -2.2212  -0.9993   0.0178 LP             1 S1                 0.0000
     40 ****        -0.7160  -1.8215   0.2596 LP             1 S1                 0.0000
@<TRIPOS>BOND
    1    1    2 1     
    2    1   19 1     
    3    1   20 1     
    4    1   21 1     
    5    2    3 1     
    6    2   22 1     
    7    2   23 1     
    8    3   18 1     
    9    3    4 2     
   10    4    5 1     
   11    5    6 2     
   12    6    7 1     
   13    6   18 1     
   14    7    8 1     
   15    8    9 2     
   16    8   10 am    
   17   10   11 1     
   18   10   24 1     
   19   11   17 1     
   20   11   12 1     
   21   11   25 1     
   22   12   13 1     
   23   12   26 1     
   24   12   27 1     
   25   13   14 1     
   26   13   28 1     
   27   13   29 1     
   28   14   15 1     
   29   14   17 1     
   30   14   30 1     
   31   15   16 1     
   32   16   31 1     
   33   16   32 1     
   34   16   33 1     
   35   17   34 1     
   36   17   35 1     
   37    4   36 1     
   38    5   37 1     
   39    7   38 1     
   40    9   39 1     
   41    9   40 1     
@<TRIPOS>SUBSTRUCTURE
      1 S1             1
@<TRIPOS>SET
LONE_PAIRS      STATIC     ATOMS    <user>   **** ""
5 36 37 38 39 40
DONOR_HYDROGENS      STATIC     ATOMS    <user>   **** ""
1 24
ATOM$BLUE        STATIC     ATOMS    COLORGROUP SYSTEM
5 36 37 38 39 40
ATOM$RED        STATIC     ATOMS    COLORGROUP SYSTEM
1 24
