AV-unprocessed.smi:1225|AV-procd|sdf|5142|dock8
  -GOLD-   22720 4213D 1   1.00000     0.00000
 Structure written by MMmdl.
 49 51  0  0  0  0  0  0  0  0  2 V2000
  146.1045  132.1448  151.3949 C   0  0  0  0  0  0  0  0  0  0  0  0
  145.9449  133.5786  151.7695 C   0  0  0  0  0  0  0  0  0  0  0  0
  145.2348  134.4547  151.0554 N   0  0  0  0  0  0  0  0  0  0  0  0
  145.2443  135.7332  151.6161 C   0  0  0  0  0  0  0  0  0  0  0  0
  145.9657  135.8230  152.7812 C   0  0  0  0  0  0  0  0  0  0  0  0
  146.1734  137.0372  153.6272 C   0  0  0  0  0  0  0  0  0  0  0  0
  146.9903  138.0681  152.9366 N   0  3  1  0  0  0  0  0  0  0  0  0
  146.3755  138.5241  151.6679 C   0  0  0  0  0  0  0  0  0  0  0  0
  147.3612  139.2055  153.8161 C   0  0  0  0  0  0  0  0  0  0  0  0
  148.7664  139.0316  154.4357 C   0  0  1  0  0  0  0  0  0  0  0  0
  149.4849  138.0780  153.6795 O   0  0  0  0  0  0  0  0  0  0  0  0
  149.5957  140.3301  154.4639 C   0  0  0  0  0  0  0  0  0  0  0  0
  150.7245  140.2504  155.3727 N   0  0  0  0  0  0  0  0  0  0  0  0
  151.8063  139.4571  155.2517 C   0  0  0  0  0  0  0  0  0  0  0  0
  152.7277  139.5349  156.2071 N   0  0  0  0  0  0  0  0  0  0  0  0
  152.1850  140.4968  157.0417 C   0  0  0  0  0  0  0  0  0  0  0  0
  152.6718  141.0437  158.2489 C   0  0  0  0  0  0  0  0  0  0  0  0
  151.9383  142.0304  158.9454 C   0  0  0  0  0  0  0  0  0  0  0  0
  152.5006  142.5923  160.2394 C   0  0  0  0  0  0  0  0  0  0  0  0
  150.6958  142.4848  158.4349 C   0  0  0  0  0  0  0  0  0  0  0  0
  149.8923  143.5467  159.1646 C   0  0  0  0  0  0  0  0  0  0  0  0
  150.1935  141.9473  157.2315 C   0  0  0  0  0  0  0  0  0  0  0  0
  150.9332  140.9666  156.5468 C   0  0  0  0  0  0  0  0  0  0  0  0
  146.6802  134.2873  153.2022 S   0  0  0  0  0  0  0  0  0  0  0  0
  145.4438  131.8871  150.5663 H   0  0  0  0  0  0  0  0  0  0  0  0
  145.8615  131.5075  152.2452 H   0  0  0  0  0  0  0  0  0  0  0  0
  147.1343  131.9514  151.0947 H   0  0  0  0  0  0  0  0  0  0  0  0
  144.7035  136.5254  151.1198 H   0  0  0  0  0  0  0  0  0  0  0  0
  145.2154  137.4666  153.9240 H   0  0  0  0  0  0  0  0  0  0  0  0
  146.6576  136.7264  154.5522 H   0  0  0  0  0  0  0  0  0  0  0  0
  145.4271  139.0296  151.8538 H   0  0  0  0  0  0  0  0  0  0  0  0
  146.1907  137.6875  150.9943 H   0  0  0  0  0  0  0  0  0  0  0  0
  147.0356  139.2172  151.1454 H   0  0  0  0  0  0  0  0  0  0  0  0
  147.3492  140.1380  153.2492 H   0  0  0  0  0  0  0  0  0  0  0  0
  146.5964  139.3114  154.5868 H   0  0  0  0  0  0  0  0  0  0  0  0
  148.6879  138.6535  155.4546 H   0  0  0  0  0  0  0  0  0  0  0  0
  148.9474  137.7974  152.9540 H   0  0  0  0  0  0  0  0  0  0  0  0
  149.9773  140.5574  153.4673 H   0  0  0  0  0  0  0  0  0  0  0  0
  148.9721  141.1753  154.7575 H   0  0  0  0  0  0  0  0  0  0  0  0
  151.9214  138.7807  154.4171 H   0  0  0  0  0  0  0  0  0  0  0  0
  153.6189  140.6984  158.6370 H   0  0  0  0  0  0  0  0  0  0  0  0
  152.6689  143.6657  160.1487 H   0  0  0  0  0  0  0  0  0  0  0  0
  153.4518  142.1254  160.4966 H   0  0  0  0  0  0  0  0  0  0  0  0
  151.8096  142.4181  161.0645 H   0  0  0  0  0  0  0  0  0  0  0  0
  148.9763  143.7930  158.6271 H   0  0  0  0  0  0  0  0  0  0  0  0
  150.4743  144.4626  159.2687 H   0  0  0  0  0  0  0  0  0  0  0  0
  149.6139  143.1985  160.1593 H   0  0  0  0  0  0  0  0  0  0  0  0
  149.2482  142.2854  156.8337 H   0  0  0  0  0  0  0  0  0  0  0  0
  147.8626  137.6256  152.6834 H   0  0  0  0  0  0  0  0  0  0  0  0
  1  2  1  0  0  0  0
  1 25  1  0  0  0  0
  1 26  1  0  0  0  0
  1 27  1  0  0  0  0
  2 24  1  0  0  0  0
  2  3  2  0  0  0  0
  3  4  1  0  0  0  0
  4  5  2  0  0  0  0
  4 28  1  0  0  0  0
  5  6  1  0  0  0  0
  5 24  1  0  0  0  0
  6  7  1  0  0  0  0
  6 29  1  0  0  0  0
  6 30  1  0  0  0  0
  7  8  1  0  0  0  0
  7  9  1  0  0  0  0
  7 49  1  0  0  0  0
  8 31  1  0  0  0  0
  8 32  1  0  0  0  0
  8 33  1  0  0  0  0
  9 10  1  0  0  0  0
  9 34  1  0  0  0  0
  9 35  1  0  0  0  0
 10 11  1  0  0  0  0
 10 12  1  0  0  0  0
 10 36  1  0  0  0  0
 11 37  1  0  0  0  0
 12 13  1  0  0  0  0
 12 38  1  0  0  0  0
 12 39  1  0  0  0  0
 13 23  1  0  0  0  0
 13 14  1  0  0  0  0
 14 15  2  0  0  0  0
 14 40  1  0  0  0  0
 15 16  1  0  0  0  0
 16 23  2  0  0  0  0
 16 17  1  0  0  0  0
 17 18  2  0  0  0  0
 17 41  1  0  0  0  0
 18 19  1  0  0  0  0
 18 20  1  0  0  0  0
 19 42  1  0  0  0  0
 19 43  1  0  0  0  0
 19 44  1  0  0  0  0
 20 21  1  0  0  0  0
 20 22  2  0  0  0  0
 21 45  1  0  0  0  0
 21 46  1  0  0  0  0
 21 47  1  0  0  0  0
 22 23  1  0  0  0  0
 22 48  1  0  0  0  0
M  CHG  1   7   1
M  END
> <s_m_source_file>
AV-unprocessed.smi

> <i_m_source_file_index>
1225

> <i_lp_mmshare_version>
43012

> <i_f3d_flags>
0

> <s_epik_input>
W0NIM11jMW5bY0hdYyhzMSlbQ0gyXU4oW0NIM10pW0NIMl1bQ0BIXShbT0hdKVtDSDJdbihbY0hdbjIpYyhjMjMpW2NIXWMoW0NIM10pYyhbY0hdMylbQ0gzXQ==

> <s_epik_cmdline>
J2VwaWtfcHl0aG9uJywgJy1waCcsICc3LjAnLCAnLXRuJywgJzgnLCAnLW1hJywgJzIwMCcsICctbWV0YWxfYmluZGluZycsICctaW1hZScsICc8aW5maWxlLm1hZT4nLCAnLW9tYWUnLCAnPG91dGZpbGUubWFlPic=

> <r_epik_Ionization_Penalty>
1.62543

> <r_epik_Ionization_Penalty_Charging>
1.53932

> <r_epik_Ionization_Penalty_Neutral>
0.0861152

> <r_epik_State_Penalty>
1.73127

> <r_epik_Charging_Adjusted_Penalty>
3.27059

> <i_epik_Tot_Q>
1

> <i_epik_Tot_abs_Q>
1

> <r_epik_Metal_State_Penalty>
1.71387

> <b_epik_Metal_Only>
0

> <s_lp_Force_Field>
OPLS_2005

> <r_lp_Energy>
12.5973

> <b_lp_Chiralities_Consistent>
1

> <s_lp_Variant>
AV-unprocessed.smi:1225-7

> <Gold.Version>
5.8.1

> <Gold.Id.Protein>
6NUR|6NUR_protein|mol2

> <Gold.PLP.Fitness>
56.4341

> <Gold.PLP.PLP>
-44.7169

> <Gold.PLP.part.hbond>
-3.3772

> <Gold.PLP.part.metal>
0.0000

> <Gold.PLP.part.buried>
-1.4209

> <Gold.PLP.part.nonpolar>
-40.4917

> <Gold.PLP.part.repulsive>
0.2491

> <Gold.PLP.ligand.clash>
0.0000

> <Gold.PLP.ligand.torsion>
1.3727

> <Gold.PLP.Chemscore.Hbond>
3.7200

> <Gold.PLP.Chemscore.CHOScore>
1.0000

> <Gold.PLP.Chemscore.Metal>
0.0000

> <Gold.Chemscore.Hbonds>
donor molecule, donor type, donor heavy atom, donor atom, acceptor molecule, acceptor atom, score
      L1  H     7    49       P1  7948  2.00
      L1  H    11    37       P1  7948  0.66
      P1  H  7997  8008       L1    15  0.90
      L1  C     4    28       P1 10171  0.89

> <Gold.PLP.Chemscore.Internal.Correction>
0.3027

> <Gold.Rescore>
     Score         DG    S(hbond)    S(metal)    S(lipo)     H(rot)  DE(clash)    DE(int)     intcor
     17.19     -19.89       2.18        0.00     112.93       2.37       0.97       1.74       ----

> <Gold.Chemscore.Fitness>
17.1860

> <Gold.Chemscore.DG>
-19.8920

> <Gold.Chemscore.ZeroCoef>
-5.4800

> <Gold.Chemscore.Hbond>
2.1796

> <Gold.Chemscore.Metal>
0.0000

> <Gold.Chemscore.Lipo>
112.9251

> <Gold.Chemscore.Internal_Hbond>
0.0000

> <Gold.Chemscore.DEClash>
0.9667

> <Gold.Chemscore.DEInternal>
1.7394

> <Gold.Chemscore.Rot>
2.3750

> <Gold.Chemscore.Internal.Correction>
   9.000000E+99

> <Gold.Chemscore.Hbonds>
donor molecule, donor type, donor heavy atom, donor atom, acceptor molecule, acceptor atom, score
      L1  H     7    49       P1  7948  0.97
      L1  H    11    37       P1  7948  0.66
      P1  H  7997  8008       L1    15  0.18

> <Gold.Chemscore.Hbond.Weighted>
-7.2798

> <Gold.Chemscore.Metal.Weighted>
-0.0000

> <Gold.Chemscore.Lipo.Weighted>
-13.2122

> <Gold.Chemscore.Internal_Hbond.Weighted>
0.0000

> <Gold.Chemscore.DEClash.Weighted>
0.9667

> <Gold.Chemscore.DEInternal.Weighted>
1.7394

> <Gold.Chemscore.Rot.Weighted>
6.0800

> <Gold.Chemscore.Internal.Correction.Weighted>
   9.000000E+99

> <Gold.Protein.RotatedTorsions>
[ 6907 6896 6895 6894 ] final  -21.60 input  -60.11 | X-H torsion
[ 7974 7965 7964 7962 ] final   36.64 input  175.53 | X-H torsion
[ 8008 7997 7996 7995 ] final  -32.09 input   59.86 | X-H torsion
[ 10167 10162 10161 10158 ] final  121.40 input  -65.29 | X-H torsion
[ 10718 10713 10712 10709 ] final   48.94 input   66.30 | X-H torsion
[ 10763 10752 10751 10750 ] final -107.06 input  -60.55 | X-H torsion
[ 11005 11000 10999 10996 ] final   68.28 input  -57.11 | X-H torsion

> <Gold.Protein.ActiveResidues>
 VAL166  LYS551  ARG553  GLY616  TRP617  ASP618  TYR619  PRO620  LYS621  CYS622 
 ASP623  PHE694  ASN695  SER759  ASP760  ASP761  ALA762  ILE779  LEU786  VAL792 
 PHE793  MET794  SER795  GLU796  ALA797  LYS798  CYS799  TRP800  GLU811  SER814 

> <Gold.Protein.RotatedAtoms>
  151.2309  135.0554  159.8986 H   0  0  0  0  0  0  0  0  0  0  0  0  # atno 6907 bound_to 6896
  152.5405  134.0538  159.8132 H   0  0  0  0  0  0  0  0  0  0  0  0  # atno 6908 bound_to 6896
  151.0718  133.5412  159.2658 H   0  0  0  0  0  0  0  0  0  0  0  0  # atno 6909 bound_to 6896
  146.1196  139.5992  142.9298 H   0  0  0  0  0  0  0  0  0  0  0  0  # atno 7974 bound_to 7965
  154.4191  140.1747  156.1671 H   0  0  0  0  0  0  0  0  0  0  0  0  # atno 8008 bound_to 7997
  155.9791  140.3379  155.6622 H   0  0  0  0  0  0  0  0  0  0  0  0  # atno 8009 bound_to 7997
  155.6524  140.0692  157.2573 H   0  0  0  0  0  0  0  0  0  0  0  0  # atno 8010 bound_to 7997
  139.5922  144.7029  151.3262 H   0  0  0  0  0  0  0  0  0  0  0  0  # atno 10167 bound_to 10162
  157.4737  130.8271  149.8016 H   0  0  0  0  0  0  0  0  0  0  0  0  # atno 10718 bound_to 10713
  154.8051  135.4689  154.0373 H   0  0  0  0  0  0  0  0  0  0  0  0  # atno 10763 bound_to 10752
  153.1848  135.6846  153.8437 H   0  0  0  0  0  0  0  0  0  0  0  0  # atno 10764 bound_to 10752
  153.7975  135.3234  155.3363 H   0  0  0  0  0  0  0  0  0  0  0  0  # atno 10765 bound_to 10752
  139.9720  134.6884  156.0427 H   0  0  0  0  0  0  0  0  0  0  0  0  # atno 11005 bound_to 11000
  145.5494  141.0414  143.2287 LP  0  0  0  0  0  0  0  0  0  0  0  0  # atno 17320 bound_to 7965
  144.7585  139.7015  143.7244 LP  0  0  0  0  0  0  0  0  0  0  0  0  # atno 17321 bound_to 7965
  140.7182  143.7207  150.7698 LP  0  0  0  0  0  0  0  0  0  0  0  0  # atno 17342 bound_to 10162
  140.0765  143.5010  152.2552 LP  0  0  0  0  0  0  0  0  0  0  0  0  # atno 17343 bound_to 10162
  156.0086  130.3844  150.2343 LP  0  0  0  0  0  0  0  0  0  0  0  0  # atno 17370 bound_to 10713
  157.0527  131.0067  151.3248 LP  0  0  0  0  0  0  0  0  0  0  0  0  # atno 17371 bound_to 10713
  141.1399  133.6567  156.3701 LP  0  0  0  0  0  0  0  0  0  0  0  0  # atno 17394 bound_to 11000
  140.5273  134.6247  157.5338 LP  0  0  0  0  0  0  0  0  0  0  0  0  # atno 17395 bound_to 11000

$$$$
