AV-unprocessed.smi:3018|AV-procd|sdf|11479|dock3
  -GOLD-   2272016413D 1   1.00000     0.00000
 Structure written by MMmdl.
 45 46  0  0  0  0  0  0  0  0  1 V2000
  148.7350  140.7734  154.2528 C   0  0  0  0  0  0  0  0  0  0  0  0
  149.6360  140.3930  155.4340 C   0  0  0  0  0  0  0  0  0  0  0  0
  149.5788  141.4185  156.5812 C   0  0  2  0  0  0  0  0  0  0  0  0
  150.5228  141.0166  157.5727 O   0  0  0  0  0  0  0  0  0  0  0  0
  150.9303  142.0096  158.5113 C   0  0  0  0  0  0  0  0  0  0  0  0
  151.2774  143.3274  157.7888 C   0  0  0  0  0  0  0  0  0  0  0  0
  151.8526  144.3656  158.7665 C   0  0  0  0  0  0  0  0  0  0  0  0
  153.0716  143.8107  159.5209 C   0  0  0  0  0  0  0  0  0  0  0  0
  152.7308  142.4939  160.2359 C   0  0  0  0  0  0  0  0  0  0  0  0
  152.1626  141.4604  159.2503 C   0  0  0  0  0  0  0  0  0  0  0  0
  148.1722  141.4742  157.1959 C   0  0  0  0  0  0  0  0  0  0  0  0
  147.7094  140.4899  157.7727 O   0  0  0  0  0  0  0  0  0  0  0  0
  147.5101  142.6349  157.0680 N   0  0  0  0  0  0  0  0  0  0  0  0
  146.1570  142.8983  157.5514 C   0  0  0  0  0  0  0  0  0  0  0  0
  146.0404  142.7247  159.0804 C   0  0  0  0  0  0  0  0  0  0  0  0
  146.6871  143.8351  159.8925 C   0  0  0  0  0  0  0  0  0  0  0  0
  147.5560  143.7307  160.8356 N   0  0  0  0  0  0  0  0  0  0  0  0
  147.7684  145.0348  161.1420 N   0  0  0  0  0  0  0  0  0  0  0  0
  147.0562  145.8982  160.4085 C   0  0  0  0  0  0  0  0  0  0  0  0
  147.0605  147.1251  160.4743 O   0  0  0  0  0  0  0  0  0  0  0  0
  146.3432  145.1299  159.5947 N   0  0  0  0  0  0  0  0  0  0  0  0
  148.4274  145.2693  161.8706 H   0  0  0  0  0  0  0  0  0  0  0  0
  145.6921  145.4268  158.8828 H   0  0  0  0  0  0  0  0  0  0  0  0
  148.7963  140.0251  153.4624 H   0  0  0  0  0  0  0  0  0  0  0  0
  149.0277  141.7325  153.8248 H   0  0  0  0  0  0  0  0  0  0  0  0
  147.6917  140.8476  154.5606 H   0  0  0  0  0  0  0  0  0  0  0  0
  149.3313  139.4117  155.8016 H   0  0  0  0  0  0  0  0  0  0  0  0
  150.6628  140.2825  155.0823 H   0  0  0  0  0  0  0  0  0  0  0  0
  149.8407  142.3993  156.1818 H   0  0  0  0  0  0  0  0  0  0  0  0
  150.1500  142.1952  159.2504 H   0  0  0  0  0  0  0  0  0  0  0  0
  152.0027  143.1305  156.9983 H   0  0  0  0  0  0  0  0  0  0  0  0
  150.3961  143.7433  157.3013 H   0  0  0  0  0  0  0  0  0  0  0  0
  152.1316  145.2704  158.2258 H   0  0  0  0  0  0  0  0  0  0  0  0
  151.0828  144.6579  159.4820 H   0  0  0  0  0  0  0  0  0  0  0  0
  153.8901  143.6433  158.8197 H   0  0  0  0  0  0  0  0  0  0  0  0
  153.4291  144.5451  160.2432 H   0  0  0  0  0  0  0  0  0  0  0  0
  153.6202  142.0935  160.7231 H   0  0  0  0  0  0  0  0  0  0  0  0
  152.0036  142.6837  161.0264 H   0  0  0  0  0  0  0  0  0  0  0  0
  151.8982  140.5466  159.7829 H   0  0  0  0  0  0  0  0  0  0  0  0
  152.9319  141.1856  158.5276 H   0  0  0  0  0  0  0  0  0  0  0  0
  147.9754  143.3904  156.5858 H   0  0  0  0  0  0  0  0  0  0  0  0
  145.8062  143.8829  157.2367 H   0  0  0  0  0  0  0  0  0  0  0  0
  145.4982  142.1796  157.0637 H   0  0  0  0  0  0  0  0  0  0  0  0
  144.9867  142.6744  159.3561 H   0  0  0  0  0  0  0  0  0  0  0  0
  146.4740  141.7683  159.3762 H   0  0  0  0  0  0  0  0  0  0  0  0
  1  2  1  0  0  0  0
  1 24  1  0  0  0  0
  1 25  1  0  0  0  0
  1 26  1  0  0  0  0
  2  3  1  0  0  0  0
  2 27  1  0  0  0  0
  2 28  1  0  0  0  0
  3  4  1  0  0  0  0
  3 11  1  0  0  0  0
  3 29  1  0  0  0  0
  4  5  1  0  0  0  0
  5 10  1  0  0  0  0
  5  6  1  0  0  0  0
  5 30  1  0  0  0  0
  6  7  1  0  0  0  0
  6 31  1  0  0  0  0
  6 32  1  0  0  0  0
  7  8  1  0  0  0  0
  7 33  1  0  0  0  0
  7 34  1  0  0  0  0
  8  9  1  0  0  0  0
  8 35  1  0  0  0  0
  8 36  1  0  0  0  0
  9 10  1  0  0  0  0
  9 37  1  0  0  0  0
  9 38  1  0  0  0  0
 10 39  1  0  0  0  0
 10 40  1  0  0  0  0
 11 12  2  0  0  0  0
 11 13  1  0  0  0  0
 13 14  1  0  0  0  0
 13 41  1  0  0  0  0
 14 15  1  0  0  0  0
 14 42  1  0  0  0  0
 14 43  1  0  0  0  0
 15 16  1  0  0  0  0
 15 44  1  0  0  0  0
 15 45  1  0  0  0  0
 16 21  1  0  0  0  0
 16 17  2  0  0  0  0
 17 18  1  0  0  0  0
 18 22  1  0  0  0  0
 18 19  1  0  0  0  0
 19 20  2  0  0  0  0
 19 21  1  0  0  0  0
 21 23  1  0  0  0  0
M  END
> <s_m_source_file>
AV-unprocessed.smi

> <i_m_source_file_index>
3018

> <i_lp_mmshare_version>
43012

> <i_f3d_flags>
0

> <s_epik_input>
W0NIMl0xW0NIMl1bQ0gyXVtDSDJdW0NIMl1bQ0hdMU9bQ0BASF0oW0NIMl1bQ0gzXSlDKD1PKVtOSF1bQ0gyXVtDSDJdYzJuW25IXWMoPU8pW25IXTI=

> <s_epik_cmdline>
J2VwaWtfcHl0aG9uJywgJy1waCcsICc3LjAnLCAnLXRuJywgJzgnLCAnLW1hJywgJzIwMCcsICctbWV0YWxfYmluZGluZycsICctaW1hZScsICc8aW5maWxlLm1hZT4nLCAnLW9tYWUnLCAnPG91dGZpbGUubWFlPic=

> <r_lp_tautomer_probability>
1

> <r_epik_Ionization_Penalty>
0.000773817

> <r_epik_Ionization_Penalty_Charging>
0.000773741

> <r_epik_Ionization_Penalty_Neutral>
7.58514e-08

> <r_epik_State_Penalty>
-0

> <r_epik_Charging_Adjusted_Penalty>
0.000773741

> <i_epik_Tot_Q>
0

> <i_epik_Tot_abs_Q>
0

> <r_epik_Metal_State_Penalty>
0.495152

> <b_epik_Metal_Only>
0

> <s_lp_Force_Field>
OPLS_2005

> <r_lp_Energy>
32.5004

> <b_lp_Chiralities_Consistent>
1

> <s_lp_Variant>
AV-unprocessed.smi:3018-1

> <Gold.Version>
5.8.1

> <Gold.Id.Protein>
6NUR|6NUR_protein|mol2

> <Gold.PLP.Fitness>
43.4982

> <Gold.PLP.PLP>
-38.9262

> <Gold.PLP.part.hbond>
-5.3130

> <Gold.PLP.part.metal>
0.0000

> <Gold.PLP.part.buried>
-5.9835

> <Gold.PLP.part.nonpolar>
-27.3299

> <Gold.PLP.part.repulsive>
0.5695

> <Gold.PLP.ligand.clash>
0.0000

> <Gold.PLP.ligand.torsion>
0.3934

> <Gold.PLP.Chemscore.Hbond>
1.7000

> <Gold.PLP.Chemscore.CHOScore>
0.0000

> <Gold.PLP.Chemscore.Metal>
0.0000

> <Gold.Chemscore.Hbonds>
donor molecule, donor type, donor heavy atom, donor atom, acceptor molecule, acceptor atom, score
      L1  H    13    41       P1  8028  0.65
      P1  H  6933  6944       L1    17  1.00

> <Gold.PLP.Chemscore.Internal.Correction>
0.2589

> <Gold.Rescore>
     Score         DG    S(hbond)    S(metal)    S(lipo)     H(rot)  DE(clash)    DE(int)     intcor
     11.76     -12.34       1.18        0.00      91.48       3.04       0.15       0.44       ----

> <Gold.Chemscore.Fitness>
11.7572

> <Gold.Chemscore.DG>
-12.3399

> <Gold.Chemscore.ZeroCoef>
-5.4800

> <Gold.Chemscore.Hbond>
1.1768

> <Gold.Chemscore.Metal>
0.0000

> <Gold.Chemscore.Lipo>
91.4825

> <Gold.Chemscore.Internal_Hbond>
0.0000

> <Gold.Chemscore.DEClash>
0.1476

> <Gold.Chemscore.DEInternal>
0.4351

> <Gold.Chemscore.Rot>
3.0367

> <Gold.Chemscore.Internal.Correction>
   9.000000E+99

> <Gold.Chemscore.Hbonds>
donor molecule, donor type, donor heavy atom, donor atom, acceptor molecule, acceptor atom, score
      L1  H    13    41       P1  8028  0.06
      P1  H  6933  6944       L1    17  1.00

> <Gold.Chemscore.Hbond.Weighted>
-3.9304

> <Gold.Chemscore.Metal.Weighted>
-0.0000

> <Gold.Chemscore.Lipo.Weighted>
-10.7035

> <Gold.Chemscore.Internal_Hbond.Weighted>
0.0000

> <Gold.Chemscore.DEClash.Weighted>
0.1476

> <Gold.Chemscore.DEInternal.Weighted>
0.4351

> <Gold.Chemscore.Rot.Weighted>
7.7739

> <Gold.Chemscore.Internal.Correction.Weighted>
   9.000000E+99

> <Gold.Protein.RotatedTorsions>
[ 6907 6896 6895 6894 ] final -137.07 input  -60.11 | X-H torsion
[ 7974 7965 7964 7962 ] final  -73.35 input  175.53 | X-H torsion
[ 8008 7997 7996 7995 ] final  169.02 input   59.86 | X-H torsion
[ 10167 10162 10161 10158 ] final  100.21 input  -65.29 | X-H torsion
[ 10718 10713 10712 10709 ] final   48.95 input   66.30 | X-H torsion
[ 10763 10752 10751 10750 ] final   59.79 input  -60.55 | X-H torsion
[ 11005 11000 10999 10996 ] final  130.55 input  -57.11 | X-H torsion

> <Gold.Protein.ActiveResidues>
 VAL166  LYS551  ARG553  GLY616  TRP617  ASP618  TYR619  PRO620  LYS621  CYS622 
 ASP623  PHE694  ASN695  SER759  ASP760  ASP761  ALA762  ILE779  LEU786  VAL792 
 PHE793  MET794  SER795  GLU796  ALA797  LYS798  CYS799  TRP800  GLU811  SER814 

> <Gold.Protein.RotatedAtoms>
  151.0178  133.5904  159.2674 H   0  0  0  0  0  0  0  0  0  0  0  0  # atno 6907 bound_to 6896
  151.3032  135.0773  159.9256 H   0  0  0  0  0  0  0  0  0  0  0  0  # atno 6908 bound_to 6896
  152.5316  133.9856  159.7881 H   0  0  0  0  0  0  0  0  0  0  0  0  # atno 6909 bound_to 6896
  145.6533  140.9276  143.0973 H   0  0  0  0  0  0  0  0  0  0  0  0  # atno 7974 bound_to 7965
  156.1495  140.1575  156.8792 H   0  0  0  0  0  0  0  0  0  0  0  0  # atno 8008 bound_to 7997
  154.5058  140.0813  156.7929 H   0  0  0  0  0  0  0  0  0  0  0  0  # atno 8009 bound_to 7997
  155.3923  140.3410  155.4254 H   0  0  0  0  0  0  0  0  0  0  0  0  # atno 8010 bound_to 7997
  139.7548  144.6973  151.0379 H   0  0  0  0  0  0  0  0  0  0  0  0  # atno 10167 bound_to 10162
  157.4738  130.8272  149.8017 H   0  0  0  0  0  0  0  0  0  0  0  0  # atno 10718 bound_to 10713
  152.9903  135.5559  154.5769 H   0  0  0  0  0  0  0  0  0  0  0  0  # atno 10763 bound_to 10752
  154.5158  135.2805  155.1306 H   0  0  0  0  0  0  0  0  0  0  0  0  # atno 10764 bound_to 10752
  154.2679  135.6368  153.5352 H   0  0  0  0  0  0  0  0  0  0  0  0  # atno 10765 bound_to 10752
  139.9678  134.9586  156.9310 H   0  0  0  0  0  0  0  0  0  0  0  0  # atno 11005 bound_to 11000
  144.7115  139.8355  143.7413 LP  0  0  0  0  0  0  0  0  0  0  0  0  # atno 17320 bound_to 7965
  146.1185  139.4200  143.0243 LP  0  0  0  0  0  0  0  0  0  0  0  0  # atno 17321 bound_to 7965
  140.7801  143.4767  151.0073 LP  0  0  0  0  0  0  0  0  0  0  0  0  # atno 17342 bound_to 10162
  139.8454  143.7509  152.3179 LP  0  0  0  0  0  0  0  0  0  0  0  0  # atno 17343 bound_to 10162
  156.0087  130.3843  150.2341 LP  0  0  0  0  0  0  0  0  0  0  0  0  # atno 17370 bound_to 10713
  157.0524  131.0066  151.3249 LP  0  0  0  0  0  0  0  0  0  0  0  0  # atno 17371 bound_to 10713
  140.5358  134.0769  155.7328 LP  0  0  0  0  0  0  0  0  0  0  0  0  # atno 17394 bound_to 11000
  141.1358  133.9224  157.2436 LP  0  0  0  0  0  0  0  0  0  0  0  0  # atno 17395 bound_to 11000

$$$$
