AV-unprocessed.smi:36|AV-procd|sdf|287|dock5
  -GOLD-   2262016 73D 1   1.00000     0.00000
 Structure written by MMmdl.
 64 67  0  0  0  0  0  0  0  0  1 V2000
  148.2100  133.1108  161.4810 C   0  0  0  0  0  0  0  0  0  0  0  0
  147.2596  134.2870  161.7600 C   0  0  0  0  0  0  0  0  0  0  0  0
  146.1941  133.8592  162.7840 C   0  0  0  0  0  0  0  0  0  0  0  0
  148.0550  135.4866  162.3007 C   0  0  0  0  0  0  0  0  0  0  0  0
  146.3870  134.7827  160.1352 Si  0  0  0  0  0  0  0  0  0  0  0  0
  145.2186  133.4020  159.5455 C   0  0  0  0  0  0  0  0  0  0  0  0
  145.4074  136.3964  160.3432 C   0  0  0  0  0  0  0  0  0  0  0  0
  147.5910  135.0501  158.9742 O   0  0  0  0  0  0  0  0  0  0  0  0
  148.2913  134.0301  158.2916 C   0  0  0  0  0  0  0  0  0  0  0  0
  149.5176  134.6405  157.6005 C   0  0  2  0  0  0  0  0  0  0  0  0
  149.1093  135.7023  156.7457 O   0  0  0  0  0  0  0  0  0  0  0  0
  150.0556  135.8867  155.7352 C   0  0  1  0  0  0  0  0  0  0  0  0
  150.8171  137.1439  156.0158 N   0  0  0  0  0  0  0  0  0  0  0  0
  151.2591  138.0621  155.1333 C   0  0  0  0  0  0  0  0  0  0  0  0
  151.9095  139.0949  155.6634 N   0  0  0  0  0  0  0  0  0  0  0  0
  151.8795  138.8075  157.0240 C   0  0  0  0  0  0  0  0  0  0  0  0
  152.4315  139.5568  158.1735 C   0  0  0  0  0  0  0  0  0  0  0  0
  153.0472  140.6732  157.9263 N   0  0  0  0  0  0  0  0  0  0  0  0
  153.6026  141.4093  158.9654 C   0  0  0  0  0  0  0  0  0  0  0  0
  154.5077  141.0884  159.7409 O   0  0  0  0  0  0  0  0  0  0  0  0
  152.9329  142.7287  159.1801 C   0  0  0  0  0  0  0  0  0  0  0  0
  152.2918  143.3841  158.1069 C   0  0  0  0  0  0  0  0  0  0  0  0
  151.6583  144.6251  158.3135 C   0  0  0  0  0  0  0  0  0  0  0  0
  151.6639  145.2153  159.5921 C   0  0  0  0  0  0  0  0  0  0  0  0
  152.3023  144.5642  160.6650 C   0  0  0  0  0  0  0  0  0  0  0  0
  152.9351  143.3227  160.4604 C   0  0  0  0  0  0  0  0  0  0  0  0
  152.1594  138.8695  159.3637 N   0  0  0  0  0  0  0  0  0  0  0  0
  151.4633  137.6554  159.4728 C   0  0  0  0  0  0  0  0  0  0  0  0
  150.9679  136.9851  158.4669 N   0  0  0  0  0  0  0  0  0  0  0  0
  151.2170  137.6221  157.2594 C   0  0  0  0  0  0  0  0  0  0  0  0
  151.0016  134.6797  155.7690 C   0  0  0  0  0  0  0  0  0  0  0  0
  150.2333  133.6986  156.6342 C   0  0  1  0  0  0  0  0  0  0  0  0
  151.1122  132.8138  157.2980 O   0  0  0  0  0  0  0  0  0  0  0  0
  148.7145  132.7839  162.3909 H   0  0  0  0  0  0  0  0  0  0  0  0
  148.9802  133.3834  160.7592 H   0  0  0  0  0  0  0  0  0  0  0  0
  147.6703  132.2534  161.0780 H   0  0  0  0  0  0  0  0  0  0  0  0
  145.5975  133.0265  162.4100 H   0  0  0  0  0  0  0  0  0  0  0  0
  145.5089  134.6759  163.0122 H   0  0  0  0  0  0  0  0  0  0  0  0
  146.6499  133.5428  163.7226 H   0  0  0  0  0  0  0  0  0  0  0  0
  148.5623  135.2373  163.2331 H   0  0  0  0  0  0  0  0  0  0  0  0
  147.4040  136.3384  162.4993 H   0  0  0  0  0  0  0  0  0  0  0  0
  148.8152  135.8115  161.5900 H   0  0  0  0  0  0  0  0  0  0  0  0
  144.4036  133.2428  160.2509 H   0  0  0  0  0  0  0  0  0  0  0  0
  145.7382  132.4507  159.4362 H   0  0  0  0  0  0  0  0  0  0  0  0
  144.7689  133.6398  158.5821 H   0  0  0  0  0  0  0  0  0  0  0  0
  144.6350  136.3007  161.1057 H   0  0  0  0  0  0  0  0  0  0  0  0
  144.9138  136.6851  159.4154 H   0  0  0  0  0  0  0  0  0  0  0  0
  146.0543  137.2227  160.6364 H   0  0  0  0  0  0  0  0  0  0  0  0
  148.5945  133.2605  159.0019 H   0  0  0  0  0  0  0  0  0  0  0  0
  147.6303  133.5560  157.5658 H   0  0  0  0  0  0  0  0  0  0  0  0
  150.2280  135.0267  158.3314 H   0  0  0  0  0  0  0  0  0  0  0  0
  149.5654  136.0483  154.7748 H   0  0  0  0  0  0  0  0  0  0  0  0
  151.1039  137.9747  154.0684 H   0  0  0  0  0  0  0  0  0  0  0  0
  152.2811  142.9374  157.1231 H   0  0  0  0  0  0  0  0  0  0  0  0
  151.1674  145.1240  157.4910 H   0  0  0  0  0  0  0  0  0  0  0  0
  151.1780  146.1668  159.7500 H   0  0  0  0  0  0  0  0  0  0  0  0
  152.3067  145.0171  161.6455 H   0  0  0  0  0  0  0  0  0  0  0  0
  153.4219  142.8293  161.2894 H   0  0  0  0  0  0  0  0  0  0  0  0
  151.3594  137.2945  160.4971 H   0  0  0  0  0  0  0  0  0  0  0  0
  151.2036  134.3092  154.7636 H   0  0  0  0  0  0  0  0  0  0  0  0
  151.9466  134.9609  156.2387 H   0  0  0  0  0  0  0  0  0  0  0  0
  149.5147  133.1421  156.0308 H   0  0  0  0  0  0  0  0  0  0  0  0
  151.8662  133.3022  157.5913 H   0  0  0  0  0  0  0  0  0  0  0  0
  152.4919  139.2884  160.2202 H   0  0  0  0  0  0  0  0  0  0  0  0
  1  2  1  0  0  0  0
  1 34  1  0  0  0  0
  1 35  1  0  0  0  0
  1 36  1  0  0  0  0
  2  3  1  0  0  0  0
  2  4  1  0  0  0  0
  2  5  1  0  0  0  0
  3 37  1  0  0  0  0
  3 38  1  0  0  0  0
  3 39  1  0  0  0  0
  4 40  1  0  0  0  0
  4 41  1  0  0  0  0
  4 42  1  0  0  0  0
  5  6  1  0  0  0  0
  5  7  1  0  0  0  0
  5  8  1  0  0  0  0
  6 43  1  0  0  0  0
  6 44  1  0  0  0  0
  6 45  1  0  0  0  0
  7 46  1  0  0  0  0
  7 47  1  0  0  0  0
  7 48  1  0  0  0  0
  8  9  1  0  0  0  0
  9 10  1  0  0  0  0
  9 49  1  0  0  0  0
  9 50  1  0  0  0  0
 10 32  1  0  0  0  0
 10 11  1  0  0  0  0
 10 51  1  0  0  0  0
 11 12  1  0  0  0  0
 12 13  1  0  0  0  0
 12 31  1  0  0  0  0
 12 52  1  0  0  0  0
 13 30  1  0  0  0  0
 13 14  1  0  0  0  0
 14 15  2  0  0  0  0
 14 53  1  0  0  0  0
 15 16  1  0  0  0  0
 16 30  2  0  0  0  0
 16 17  1  0  0  0  0
 17 18  2  0  0  0  0
 17 27  1  0  0  0  0
 18 19  1  0  0  0  0
 19 20  2  0  0  0  0
 19 21  1  0  0  0  0
 21 26  1  0  0  0  0
 21 22  2  0  0  0  0
 22 23  1  0  0  0  0
 22 54  1  0  0  0  0
 23 24  2  0  0  0  0
 23 55  1  0  0  0  0
 24 25  1  0  0  0  0
 24 56  1  0  0  0  0
 25 26  2  0  0  0  0
 25 57  1  0  0  0  0
 26 58  1  0  0  0  0
 27 28  1  0  0  0  0
 27 64  1  0  0  0  0
 28 29  2  0  0  0  0
 28 59  1  0  0  0  0
 29 30  1  0  0  0  0
 31 32  1  0  0  0  0
 31 60  1  0  0  0  0
 31 61  1  0  0  0  0
 32 33  1  0  0  0  0
 32 62  1  0  0  0  0
 33 63  1  0  0  0  0
M  END
> <s_m_source_file>
AV-unprocessed.smi

> <i_m_source_file_index>
36

> <i_lp_mmshare_version>
43012

> <i_f3d_flags>
0

> <s_epik_input>
W0NIM11DKFtDSDNdKShbQ0gzXSlbU2ldKFtDSDNdKShbQ0gzXSlPW0NIMl1bQ0BASF0xT1tDQEhdKFtDSDJdW0NASF0xW09IXSluKFtjSF1uMiljKGMyMyluW2NIXW5jM1tOSF1DKD1PKWM0W2NIXVtjSF1bY0hdW2NIXVtjSF00

> <s_epik_cmdline>
J2VwaWtfcHl0aG9uJywgJy1waCcsICc3LjAnLCAnLXRuJywgJzgnLCAnLW1hJywgJzIwMCcsICctbWV0YWxfYmluZGluZycsICctaW1hZScsICc8aW5maWxlLm1hZT4nLCAnLW9tYWUnLCAnPG91dGZpbGUubWFlPic=

> <r_epik_Ionization_Penalty>
0.0850405

> <r_epik_Ionization_Penalty_Charging>
0.0850403

> <r_epik_Ionization_Penalty_Neutral>
1.47497e-07

> <r_epik_State_Penalty>
2.6133

> <r_epik_Charging_Adjusted_Penalty>
2.69834

> <i_epik_Tot_Q>
0

> <i_epik_Tot_abs_Q>
0

> <r_epik_Metal_State_Penalty>
2.92945

> <b_epik_Metal_Only>
0

> <s_epik_Chemistry_Notes>
This compound contains an acetal/aminal-like group ( X-CH(R)-Y where X, Y are N, S, or O) that may be acid/base labile, releasing an aldehyde.

> <s_lp_Force_Field>
OPLS_2005

> <r_lp_Energy>
46.6166

> <b_lp_Chiralities_Consistent>
1

> <s_lp_Variant>
AV-unprocessed.smi:36-9

> <Gold.Version>
5.8.1

> <Gold.Id.Protein>
6NUR|6NUR_protein|mol2

> <Gold.PLP.Fitness>
50.7970

> <Gold.PLP.PLP>
-51.9678

> <Gold.PLP.part.hbond>
-2.0054

> <Gold.PLP.part.metal>
0.0000

> <Gold.PLP.part.buried>
-7.3457

> <Gold.PLP.part.nonpolar>
-42.1085

> <Gold.PLP.part.repulsive>
0.1367

> <Gold.PLP.ligand.clash>
0.0000

> <Gold.PLP.ligand.torsion>
1.9210

> <Gold.PLP.Chemscore.Hbond>
0.7930

> <Gold.PLP.Chemscore.CHOScore>
0.0000

> <Gold.PLP.Chemscore.Metal>
0.0000

> <Gold.Chemscore.Hbonds>
donor molecule, donor type, donor heavy atom, donor atom, acceptor molecule, acceptor atom, score
      P1  H  6896  6909       L1    29  0.03
      P1  H  7997  8008       L1    18  0.70

> <Gold.PLP.Chemscore.Internal.Correction>
0.2922

> <Gold.Rescore>
     Score         DG    S(hbond)    S(metal)    S(lipo)     H(rot)  DE(clash)    DE(int)     intcor
      9.89     -14.38       0.57        0.00     119.12       2.70       0.14       4.35       ----

> <Gold.Chemscore.Fitness>
9.8905

> <Gold.Chemscore.DG>
-14.3849

> <Gold.Chemscore.ZeroCoef>
-5.4800

> <Gold.Chemscore.Hbond>
0.5661

> <Gold.Chemscore.Metal>
0.0000

> <Gold.Chemscore.Lipo>
119.1165

> <Gold.Chemscore.Internal_Hbond>
0.0000

> <Gold.Chemscore.DEClash>
0.1420

> <Gold.Chemscore.DEInternal>
4.3524

> <Gold.Chemscore.Rot>
2.7041

> <Gold.Chemscore.Internal.Correction>
   9.000000E+99

> <Gold.Chemscore.Hbonds>
donor molecule, donor type, donor heavy atom, donor atom, acceptor molecule, acceptor atom, score
      P1  H  7997  8008       L1    18  0.13

> <Gold.Chemscore.Hbond.Weighted>
-1.8907

> <Gold.Chemscore.Metal.Weighted>
-0.0000

> <Gold.Chemscore.Lipo.Weighted>
-13.9366

> <Gold.Chemscore.Internal_Hbond.Weighted>
0.0000

> <Gold.Chemscore.DEClash.Weighted>
0.1420

> <Gold.Chemscore.DEInternal.Weighted>
4.3524

> <Gold.Chemscore.Rot.Weighted>
6.9225

> <Gold.Chemscore.Internal.Correction.Weighted>
   9.000000E+99

> <Gold.Protein.RotatedTorsions>
[ 6907 6896 6895 6894 ] final  102.25 input  -60.11 | X-H torsion
[ 7974 7965 7964 7962 ] final   36.86 input  175.53 | X-H torsion
[ 8008 7997 7996 7995 ] final  -74.27 input   59.86 | X-H torsion
[ 10167 10162 10161 10158 ] final  146.91 input  -65.29 | X-H torsion
[ 10718 10713 10712 10709 ] final  -52.31 input   66.30 | X-H torsion
[ 10763 10752 10751 10750 ] final  139.96 input  -60.55 | X-H torsion
[ 11005 11000 10999 10996 ] final  -91.62 input  -57.11 | X-H torsion

> <Gold.Protein.ActiveResidues>
 VAL166  LYS551  ARG553  GLY616  TRP617  ASP618  TYR619  PRO620  LYS621  CYS622 
 ASP623  PHE694  ASN695  SER759  ASP760  ASP761  ALA762  ILE779  LEU786  VAL792 
 PHE793  MET794  SER795  GLU796  ALA797  LYS798  CYS799  TRP800  GLU811  SER814 

> <Gold.Protein.RotatedAtoms>
  152.5328  134.0004  159.7891 H   0  0  0  0  0  0  0  0  0  0  0  0  # atno 6907 bound_to 6896
  151.0223  133.5857  159.2677 H   0  0  0  0  0  0  0  0  0  0  0  0  # atno 6908 bound_to 6896
  151.2892  135.0744  159.9251 H   0  0  0  0  0  0  0  0  0  0  0  0  # atno 6909 bound_to 6896
  146.1181  139.5966  142.9308 H   0  0  0  0  0  0  0  0  0  0  0  0  # atno 7974 bound_to 7965
  154.5316  140.0764  156.8355 H   0  0  0  0  0  0  0  0  0  0  0  0  # atno 8008 bound_to 7997
  155.3362  140.3404  155.4221 H   0  0  0  0  0  0  0  0  0  0  0  0  # atno 8009 bound_to 7997
  156.1787  140.1645  156.8301 H   0  0  0  0  0  0  0  0  0  0  0  0  # atno 8010 bound_to 7997
  139.4899  144.5795  151.6900 H   0  0  0  0  0  0  0  0  0  0  0  0  # atno 10167 bound_to 10162
  156.1633  130.4149  149.9759 H   0  0  0  0  0  0  0  0  0  0  0  0  # atno 10718 bound_to 10713
  153.9147  135.3007  155.3448 H   0  0  0  0  0  0  0  0  0  0  0  0  # atno 10763 bound_to 10752
  154.7605  135.4936  153.9459 H   0  0  0  0  0  0  0  0  0  0  0  0  # atno 10764 bound_to 10752
  153.1173  135.6774  153.9497 H   0  0  0  0  0  0  0  0  0  0  0  0  # atno 10765 bound_to 10752
  141.1540  133.7767  156.9905 H   0  0  0  0  0  0  0  0  0  0  0  0  # atno 11005 bound_to 11000
  145.5525  141.0412  143.2270 LP  0  0  0  0  0  0  0  0  0  0  0  0  # atno 17320 bound_to 7965
  144.7571  139.7047  143.7249 LP  0  0  0  0  0  0  0  0  0  0  0  0  # atno 17321 bound_to 7965
  140.5398  144.0597  150.6084 LP  0  0  0  0  0  0  0  0  0  0  0  0  # atno 17342 bound_to 10162
  140.3616  143.2905  152.0378 LP  0  0  0  0  0  0  0  0  0  0  0  0  # atno 17343 bound_to 10162
  156.7582  130.9141  151.3640 LP  0  0  0  0  0  0  0  0  0  0  0  0  # atno 17370 bound_to 10713
  157.6749  130.9085  150.0126 LP  0  0  0  0  0  0  0  0  0  0  0  0  # atno 17371 bound_to 10713
  140.1006  134.9538  157.1917 LP  0  0  0  0  0  0  0  0  0  0  0  0  # atno 17394 bound_to 11000
  140.3324  134.2795  155.7226 LP  0  0  0  0  0  0  0  0  0  0  0  0  # atno 17395 bound_to 11000

$$$$
