AV-unprocessed.smi:2256|AV-procd|sdf|9127|dock1
  -GOLD-   2272012333D 1   1.00000     0.00000
 Structure written by MMmdl.
 42 44  0  0  0  0  0  0  0  0  1 V2000
  152.4174  143.6350  160.8794 C   0  0  0  0  0  0  0  0  0  0  0  0
  152.0456  142.8166  159.6556 C   0  0  0  0  0  0  0  0  0  0  0  0
  150.8809  143.2153  158.9932 N   0  0  0  0  0  0  0  0  0  0  0  0
  150.4896  142.5792  157.9377 C   0  0  0  0  0  0  0  0  0  0  0  0
  151.2082  141.4866  157.4261 N   0  0  0  0  0  0  0  0  0  0  0  0
  150.6552  140.8510  156.2188 C   0  0  0  0  0  0  0  0  0  0  0  0
  149.2385  141.3711  155.8868 C   0  0  1  0  0  0  0  0  0  0  0  0
  149.2952  142.3234  154.8439 O   0  0  0  0  0  0  0  0  0  0  0  0
  148.2723  140.2577  155.4488 C   0  0  0  0  0  0  0  0  0  0  0  0
  147.1208  140.8299  154.8401 O   0  0  0  0  0  0  0  0  0  0  0  0
  146.1848  141.4427  155.6460 C   0  0  0  0  0  0  0  0  0  0  0  0
  145.9414  141.0735  156.9949 C   0  0  0  0  0  0  0  0  0  0  0  0
  144.9689  141.7431  157.7617 C   0  0  0  0  0  0  0  0  0  0  0  0
  144.2253  142.7908  157.1938 C   0  0  0  0  0  0  0  0  0  0  0  0
  144.4654  143.1574  155.8591 C   0  0  0  0  0  0  0  0  0  0  0  0
  143.9067  144.1248  155.0468 N   0  0  0  0  0  0  0  0  0  0  0  0
  144.4830  144.0992  153.7891 C   0  0  0  0  0  0  0  0  0  0  0  0
  145.4326  143.1115  153.7564 C   0  0  0  0  0  0  0  0  0  0  0  0
  145.4432  142.4976  155.0572 C   0  0  0  0  0  0  0  0  0  0  0  0
  152.3440  141.0204  158.0214 C   0  0  0  0  0  0  0  0  0  0  0  0
  152.9519  140.0433  157.5800 O   0  0  0  0  0  0  0  0  0  0  0  0
  152.7821  141.7597  159.2162 C   0  0  0  0  0  0  0  0  0  0  0  0
  154.0594  141.2809  159.8951 C   0  0  0  0  0  0  0  0  0  0  0  0
  143.1783  144.7741  155.3076 H   0  0  0  0  0  0  0  0  0  0  0  0
  153.3913  144.1059  160.7435 H   0  0  0  0  0  0  0  0  0  0  0  0
  152.4566  143.0006  161.7651 H   0  0  0  0  0  0  0  0  0  0  0  0
  151.6880  144.4237  161.0672 H   0  0  0  0  0  0  0  0  0  0  0  0
  149.5856  142.8459  157.3874 H   0  0  0  0  0  0  0  0  0  0  0  0
  151.3169  140.9618  155.3570 H   0  0  0  0  0  0  0  0  0  0  0  0
  150.6139  139.7728  156.3846 H   0  0  0  0  0  0  0  0  0  0  0  0
  148.8038  141.8660  156.7561 H   0  0  0  0  0  0  0  0  0  0  0  0
  149.1855  143.1839  155.2194 H   0  0  0  0  0  0  0  0  0  0  0  0
  148.7805  139.6225  154.7214 H   0  0  0  0  0  0  0  0  0  0  0  0
  147.9991  139.6330  156.3011 H   0  0  0  0  0  0  0  0  0  0  0  0
  146.4906  140.2744  157.4690 H   0  0  0  0  0  0  0  0  0  0  0  0
  144.7946  141.4509  158.7868 H   0  0  0  0  0  0  0  0  0  0  0  0
  143.4781  143.3084  157.7771 H   0  0  0  0  0  0  0  0  0  0  0  0
  144.1693  144.7878  153.0184 H   0  0  0  0  0  0  0  0  0  0  0  0
  146.0591  142.8371  152.9207 H   0  0  0  0  0  0  0  0  0  0  0  0
  153.9443  140.2487  160.2266 H   0  0  0  0  0  0  0  0  0  0  0  0
  154.3327  141.8758  160.7649 H   0  0  0  0  0  0  0  0  0  0  0  0
  154.8950  141.3208  159.1958 H   0  0  0  0  0  0  0  0  0  0  0  0
  1  2  1  0  0  0  0
  1 25  1  0  0  0  0
  1 26  1  0  0  0  0
  1 27  1  0  0  0  0
  2 22  2  0  0  0  0
  2  3  1  0  0  0  0
  3  4  2  0  0  0  0
  4  5  1  0  0  0  0
  4 28  1  0  0  0  0
  5  6  1  0  0  0  0
  5 20  1  0  0  0  0
  6  7  1  0  0  0  0
  6 29  1  0  0  0  0
  6 30  1  0  0  0  0
  7  8  1  0  0  0  0
  7  9  1  0  0  0  0
  7 31  1  0  0  0  0
  8 32  1  0  0  0  0
  9 10  1  0  0  0  0
  9 33  1  0  0  0  0
  9 34  1  0  0  0  0
 10 11  1  0  0  0  0
 11 19  1  0  0  0  0
 11 12  2  0  0  0  0
 12 13  1  0  0  0  0
 12 35  1  0  0  0  0
 13 14  2  0  0  0  0
 13 36  1  0  0  0  0
 14 15  1  0  0  0  0
 14 37  1  0  0  0  0
 15 19  2  0  0  0  0
 15 16  1  0  0  0  0
 16 24  1  0  0  0  0
 16 17  1  0  0  0  0
 17 18  2  0  0  0  0
 17 38  1  0  0  0  0
 18 19  1  0  0  0  0
 18 39  1  0  0  0  0
 20 21  2  0  0  0  0
 20 22  1  0  0  0  0
 22 23  1  0  0  0  0
 23 40  1  0  0  0  0
 23 41  1  0  0  0  0
 23 42  1  0  0  0  0
M  END
> <s_m_source_file>
AV-unprocessed.smi

> <i_m_source_file_index>
2256

> <i_lp_mmshare_version>
43012

> <i_f3d_flags>
0

> <s_epik_input>
W0NIM11jMW5bY0hdbihjKD1PKWMxW0NIM10pW0NIMl1bQ0BIXShbT0hdKVtDSDJdT2MoW2NIXVtjSF1bY0hdMiljKGMyMylbY0hdW2NIXVtuSF0z

> <s_epik_cmdline>
J2VwaWtfcHl0aG9uJywgJy1waCcsICc3LjAnLCAnLXRuJywgJzgnLCAnLW1hJywgJzIwMCcsICctbWV0YWxfYmluZGluZycsICctaW1hZScsICc8aW5maWxlLm1hZT4nLCAnLW9tYWUnLCAnPG91dGZpbGUubWFlPic=

> <r_lp_tautomer_probability>
1

> <r_epik_Ionization_Penalty>
4.18314e-05

> <r_epik_Ionization_Penalty_Charging>
1.04093e-07

> <r_epik_Ionization_Penalty_Neutral>
4.17273e-05

> <r_epik_State_Penalty>
-0

> <r_epik_Charging_Adjusted_Penalty>
1.04093e-07

> <i_epik_Tot_Q>
0

> <i_epik_Tot_abs_Q>
0

> <r_epik_Metal_State_Penalty>
-0

> <b_epik_Metal_Only>
0

> <s_lp_Force_Field>
OPLS_2005

> <r_lp_Energy>
26.3199

> <b_lp_Chiralities_Consistent>
1

> <s_lp_Variant>
AV-unprocessed.smi:2256-2

> <Gold.Version>
5.8.1

> <Gold.Id.Protein>
6NUR|6NUR_protein|mol2

> <Gold.PLP.Fitness>
45.3095

> <Gold.PLP.PLP>
-40.7213

> <Gold.PLP.part.hbond>
-3.5242

> <Gold.PLP.part.metal>
0.0000

> <Gold.PLP.part.buried>
-3.8521

> <Gold.PLP.part.nonpolar>
-33.2220

> <Gold.PLP.part.repulsive>
0.2697

> <Gold.PLP.ligand.clash>
2.1910

> <Gold.PLP.ligand.torsion>
1.2364

> <Gold.PLP.Chemscore.Hbond>
2.0234

> <Gold.PLP.Chemscore.CHOScore>
1.0000

> <Gold.PLP.Chemscore.Metal>
0.0000

> <Gold.Chemscore.Hbonds>
donor molecule, donor type, donor heavy atom, donor atom, acceptor molecule, acceptor atom, score
      L1  H     8    32       P1  8028  1.00
      P1  H  7997  8008       L1    21  0.99
      L1  C     4    28       P1  8028  0.74
      L1  C    17    38       P1 10174  0.01

> <Gold.PLP.Chemscore.Internal.Correction>
0.1818

> <Gold.Rescore>
     Score         DG    S(hbond)    S(metal)    S(lipo)     H(rot)  DE(clash)    DE(int)     intcor
     14.89     -16.28       1.94        0.00      93.55       2.58       0.46       0.94       ----

> <Gold.Chemscore.Fitness>
14.8851

> <Gold.Chemscore.DG>
-16.2844

> <Gold.Chemscore.ZeroCoef>
-5.4800

> <Gold.Chemscore.Hbond>
1.9355

> <Gold.Chemscore.Metal>
0.0000

> <Gold.Chemscore.Lipo>
93.5526

> <Gold.Chemscore.Internal_Hbond>
0.0000

> <Gold.Chemscore.DEClash>
0.4636

> <Gold.Chemscore.DEInternal>
0.9356

> <Gold.Chemscore.Rot>
2.5804

> <Gold.Chemscore.Internal.Correction>
   9.000000E+99

> <Gold.Chemscore.Hbonds>
donor molecule, donor type, donor heavy atom, donor atom, acceptor molecule, acceptor atom, score
      L1  H     8    32       P1  8028  0.99
      P1  H  7997  8008       L1    21  0.94

> <Gold.Chemscore.Hbond.Weighted>
-6.4647

> <Gold.Chemscore.Metal.Weighted>
-0.0000

> <Gold.Chemscore.Lipo.Weighted>
-10.9457

> <Gold.Chemscore.Internal_Hbond.Weighted>
0.0000

> <Gold.Chemscore.DEClash.Weighted>
0.4636

> <Gold.Chemscore.DEInternal.Weighted>
0.9356

> <Gold.Chemscore.Rot.Weighted>
6.6059

> <Gold.Chemscore.Internal.Correction.Weighted>
   9.000000E+99

> <Gold.Protein.RotatedTorsions>
[ 6907 6896 6895 6894 ] final  -17.91 input  -60.11 | X-H torsion
[ 7974 7965 7964 7962 ] final   -5.72 input  175.53 | X-H torsion
[ 8008 7997 7996 7995 ] final  -59.16 input   59.86 | X-H torsion
[ 10167 10162 10161 10158 ] final -113.96 input  -65.29 | X-H torsion
[ 10718 10713 10712 10709 ] final  -35.76 input   66.30 | X-H torsion
[ 10763 10752 10751 10750 ] final    1.45 input  -60.55 | X-H torsion
[ 11005 11000 10999 10996 ] final -127.71 input  -57.11 | X-H torsion

> <Gold.Protein.ActiveResidues>
 VAL166  LYS551  ARG553  GLY616  TRP617  ASP618  TYR619  PRO620  LYS621  CYS622 
 ASP623  PHE694  ASN695  SER759  ASP760  ASP761  ALA762  ILE779  LEU786  VAL792 
 PHE793  MET794  SER795  GLU796  ALA797  LYS798  CYS799  TRP800  GLU811  SER814 

> <Gold.Protein.RotatedAtoms>
  151.2861  135.0728  159.9186 H   0  0  0  0  0  0  0  0  0  0  0  0  # atno 6907 bound_to 6896
  152.5325  133.9980  159.7892 H   0  0  0  0  0  0  0  0  0  0  0  0  # atno 6908 bound_to 6896
  151.0242  133.5798  159.2698 H   0  0  0  0  0  0  0  0  0  0  0  0  # atno 6909 bound_to 6896
  146.2347  140.2064  142.8334 H   0  0  0  0  0  0  0  0  0  0  0  0  # atno 7974 bound_to 7965
  154.4340  140.1068  156.6072 H   0  0  0  0  0  0  0  0  0  0  0  0  # atno 8008 bound_to 7997
  155.5848  140.3491  155.4531 H   0  0  0  0  0  0  0  0  0  0  0  0  # atno 8009 bound_to 7997
  156.0291  140.1256  157.0267 H   0  0  0  0  0  0  0  0  0  0  0  0  # atno 8010 bound_to 7997
  140.1062  143.4568  152.1781 H   0  0  0  0  0  0  0  0  0  0  0  0  # atno 10167 bound_to 10162
  156.3348  130.4284  149.7840 H   0  0  0  0  0  0  0  0  0  0  0  0  # atno 10718 bound_to 10713
  153.3079  135.6960  153.7142 H   0  0  0  0  0  0  0  0  0  0  0  0  # atno 10763 bound_to 10752
  153.6031  135.3458  155.2953 H   0  0  0  0  0  0  0  0  0  0  0  0  # atno 10764 bound_to 10752
  154.8568  135.4345  154.2209 H   0  0  0  0  0  0  0  0  0  0  0  0  # atno 10765 bound_to 10752
  140.9577  134.0979  157.4000 H   0  0  0  0  0  0  0  0  0  0  0  0  # atno 11005 bound_to 11000
  144.9741  140.8397  143.5437 LP  0  0  0  0  0  0  0  0  0  0  0  0  # atno 17320 bound_to 7965
  145.2049  139.2233  143.5173 LP  0  0  0  0  0  0  0  0  0  0  0  0  # atno 17321 bound_to 7965
  139.5644  144.7426  151.4064 LP  0  0  0  0  0  0  0  0  0  0  0  0  # atno 17342 bound_to 10162
  140.6951  143.7769  150.7314 LP  0  0  0  0  0  0  0  0  0  0  0  0  # atno 17343 bound_to 10162
  156.5099  130.8167  151.3165 LP  0  0  0  0  0  0  0  0  0  0  0  0  # atno 17370 bound_to 10713
  157.7437  130.9917  150.2611 LP  0  0  0  0  0  0  0  0  0  0  0  0  # atno 17371 bound_to 10713
  139.8867  135.0084  156.6518 LP  0  0  0  0  0  0  0  0  0  0  0  0  # atno 17394 bound_to 11000
  140.7512  133.8895  155.8348 LP  0  0  0  0  0  0  0  0  0  0  0  0  # atno 17395 bound_to 11000

$$$$
