AV-unprocessed.smi:3054|AV-procd|sdf|11640|dock4
  -GOLD-   2272017 33D 1   1.00000     0.00000
 Structure written by MMmdl.
 40 41  0  0  0  0  0  0  0  0  2 V2000
  149.1864  140.1496  154.1430 C   0  0  0  0  0  0  0  0  0  0  0  0
  148.1489  139.0378  154.3533 C   0  0  0  0  0  0  0  0  0  0  0  0
  146.8258  139.2685  153.5775 C   0  0  1  0  0  0  0  0  0  0  0  0
  145.8743  138.0526  153.6674 C   0  0  0  0  0  0  0  0  0  0  0  0
  146.2846  136.9547  152.7939 N   0  0  0  0  0  0  0  0  0  0  0  0
  145.4677  136.0395  152.2535 C   0  0  0  0  0  0  0  0  0  0  0  0
  144.2478  136.0394  152.4139 O   0  0  0  0  0  0  0  0  0  0  0  0
  146.1504  135.1479  151.5176 N   0  0  0  0  0  0  0  0  0  0  0  0
  145.6217  134.0451  150.8015 C   0  0  0  0  0  0  0  0  0  0  0  0
  146.2929  132.8958  150.2897 C   0  0  0  0  0  0  0  0  0  0  0  0
  145.4479  132.0827  149.6723 N   0  0  0  0  0  0  0  0  0  0  0  0
  144.2499  132.6995  149.7815 N   0  0  0  0  0  0  0  0  0  0  0  0
  144.3104  133.8961  150.4611 C   0  0  0  0  0  0  0  0  0  0  0  0
  146.1280  140.5287  153.9676 N   0  3  0  0  0  0  0  0  0  0  0  0
  145.8244  140.7146  155.4095 C   0  0  0  0  0  0  0  0  0  0  0  0
  146.4781  142.0352  155.8197 C   0  0  0  0  0  0  0  0  0  0  0  0
  146.4830  142.8392  154.5256 C   0  0  0  0  0  0  0  0  0  0  0  0
  146.7528  141.7750  153.4629 C   0  0  0  0  0  0  0  0  0  0  0  0
  143.4103  132.2960  149.3905 H   0  0  0  0  0  0  0  0  0  0  0  0
  150.0673  139.9758  154.7613 H   0  0  0  0  0  0  0  0  0  0  0  0
  148.7811  141.1247  154.4141 H   0  0  0  0  0  0  0  0  0  0  0  0
  149.5221  140.2002  153.1075 H   0  0  0  0  0  0  0  0  0  0  0  0
  148.5981  138.0858  154.0710 H   0  0  0  0  0  0  0  0  0  0  0  0
  147.9526  138.9684  155.4228 H   0  0  0  0  0  0  0  0  0  0  0  0
  147.0800  139.3869  152.5225 H   0  0  0  0  0  0  0  0  0  0  0  0
  145.8645  137.6578  154.6825 H   0  0  0  0  0  0  0  0  0  0  0  0
  144.8470  138.3541  153.4557 H   0  0  0  0  0  0  0  0  0  0  0  0
  147.2735  136.8720  152.6071 H   0  0  0  0  0  0  0  0  0  0  0  0
  147.1515  135.2672  151.4651 H   0  0  0  0  0  0  0  0  0  0  0  0
  147.3364  132.6225  150.3386 H   0  0  0  0  0  0  0  0  0  0  0  0
  143.4422  134.5147  150.6358 H   0  0  0  0  0  0  0  0  0  0  0  0
  144.7423  140.8038  155.5077 H   0  0  0  0  0  0  0  0  0  0  0  0
  146.1291  139.8855  156.0464 H   0  0  0  0  0  0  0  0  0  0  0  0
  145.9481  142.5365  156.6301 H   0  0  0  0  0  0  0  0  0  0  0  0
  147.5032  141.8560  156.1475 H   0  0  0  0  0  0  0  0  0  0  0  0
  145.5015  143.2876  154.3650 H   0  0  0  0  0  0  0  0  0  0  0  0
  147.2245  143.6388  154.5238 H   0  0  0  0  0  0  0  0  0  0  0  0
  147.8292  141.6496  153.3442 H   0  0  0  0  0  0  0  0  0  0  0  0
  146.3469  142.0506  152.4892 H   0  0  0  0  0  0  0  0  0  0  0  0
  145.2255  140.4844  153.5158 H   0  0  0  0  0  0  0  0  0  0  0  0
  1  2  1  0  0  0  0
  1 20  1  0  0  0  0
  1 21  1  0  0  0  0
  1 22  1  0  0  0  0
  2  3  1  0  0  0  0
  2 23  1  0  0  0  0
  2 24  1  0  0  0  0
  3  4  1  0  0  0  0
  3 14  1  0  0  0  0
  3 25  1  0  0  0  0
  4  5  1  0  0  0  0
  4 26  1  0  0  0  0
  4 27  1  0  0  0  0
  5  6  1  0  0  0  0
  5 28  1  0  0  0  0
  6  7  2  0  0  0  0
  6  8  1  0  0  0  0
  8  9  1  0  0  0  0
  8 29  1  0  0  0  0
  9 13  2  0  0  0  0
  9 10  1  0  0  0  0
 10 11  2  0  0  0  0
 10 30  1  0  0  0  0
 11 12  1  0  0  0  0
 12 19  1  0  0  0  0
 12 13  1  0  0  0  0
 13 31  1  0  0  0  0
 14 18  1  0  0  0  0
 14 15  1  0  0  0  0
 14 40  1  0  0  0  0
 15 16  1  0  0  0  0
 15 32  1  0  0  0  0
 15 33  1  0  0  0  0
 16 17  1  0  0  0  0
 16 34  1  0  0  0  0
 16 35  1  0  0  0  0
 17 18  1  0  0  0  0
 17 36  1  0  0  0  0
 17 37  1  0  0  0  0
 18 38  1  0  0  0  0
 18 39  1  0  0  0  0
M  CHG  1  14   1
M  END
> <s_m_source_file>
AV-unprocessed.smi

> <i_m_source_file_index>
3054

> <i_lp_mmshare_version>
43012

> <i_f3d_flags>
0

> <s_epik_input>
W0NIMl0xW0NIMl1bQ0gyXVtDSDJdTjFbQ0BIXShbQ0gyXVtDSDNdKVtDSDJdW05IXUMoPU8pW05IXWMyW2NIXW5bbkhdW2NIXTI=

> <s_epik_cmdline>
J2VwaWtfcHl0aG9uJywgJy1waCcsICc3LjAnLCAnLXRuJywgJzgnLCAnLW1hJywgJzIwMCcsICctbWV0YWxfYmluZGluZycsICctaW1hZScsICc8aW5maWxlLm1hZT4nLCAnLW9tYWUnLCAnPG91dGZpbGUubWFlPic=

> <r_lp_tautomer_probability>
0.5

> <r_epik_Ionization_Penalty>
0.00108132

> <r_epik_Ionization_Penalty_Charging>
0.00104139

> <r_epik_Ionization_Penalty_Neutral>
3.99244e-05

> <r_epik_State_Penalty>
0.00068071

> <r_epik_Charging_Adjusted_Penalty>
0.0017221

> <i_epik_Tot_Q>
1

> <i_epik_Tot_abs_Q>
1

> <r_epik_Metal_State_Penalty>
-0

> <b_epik_Metal_Only>
0

> <s_lp_Force_Field>
OPLS_2005

> <r_lp_Energy>
40.663

> <b_lp_Chiralities_Consistent>
1

> <s_lp_Variant>
AV-unprocessed.smi:3054-2

> <Gold.Version>
5.8.1

> <Gold.Id.Protein>
6NUR|6NUR_protein|mol2

> <Gold.PLP.Fitness>
42.2653

> <Gold.PLP.PLP>
-26.2831

> <Gold.PLP.part.hbond>
-3.0332

> <Gold.PLP.part.metal>
0.0000

> <Gold.PLP.part.buried>
-4.9062

> <Gold.PLP.part.nonpolar>
-19.1534

> <Gold.PLP.part.repulsive>
0.5228

> <Gold.PLP.ligand.clash>
0.0000

> <Gold.PLP.ligand.torsion>
0.6641

> <Gold.PLP.Chemscore.Hbond>
4.0000

> <Gold.PLP.Chemscore.CHOScore>
1.7036

> <Gold.PLP.Chemscore.Metal>
0.0000

> <Gold.Chemscore.Hbonds>
donor molecule, donor type, donor heavy atom, donor atom, acceptor molecule, acceptor atom, score
      L1  H     5    28       P1  7948  1.00
      L1  H     8    29       P1  7948  0.99
      L1  H    14    40       P1 10175  2.00
      L1  C    10    30       P1 10747  1.00
      L1  C    13    31       P1 10186  0.68

> <Gold.PLP.Chemscore.Internal.Correction>
0.1996

> <Gold.Rescore>
     Score         DG    S(hbond)    S(metal)    S(lipo)     H(rot)  DE(clash)    DE(int)     intcor
     15.24     -17.21       2.85        0.00      58.56       1.81       0.00       1.97       ----

> <Gold.Chemscore.Fitness>
15.2356

> <Gold.Chemscore.DG>
-17.2123

> <Gold.Chemscore.ZeroCoef>
-5.4800

> <Gold.Chemscore.Hbond>
2.8483

> <Gold.Chemscore.Metal>
0.0000

> <Gold.Chemscore.Lipo>
58.5579

> <Gold.Chemscore.Internal_Hbond>
0.0000

> <Gold.Chemscore.DEClash>
0.0024

> <Gold.Chemscore.DEInternal>
1.9743

> <Gold.Chemscore.Rot>
1.8094

> <Gold.Chemscore.Internal.Correction>
   9.000000E+99

> <Gold.Chemscore.Hbonds>
donor molecule, donor type, donor heavy atom, donor atom, acceptor molecule, acceptor atom, score
      L1  H     5    28       P1  7948  0.99
      L1  H     8    29       P1  7948  0.82
      L1  H    14    40       P1 10175  0.99

> <Gold.Chemscore.Hbond.Weighted>
-9.5132

> <Gold.Chemscore.Metal.Weighted>
-0.0000

> <Gold.Chemscore.Lipo.Weighted>
-6.8513

> <Gold.Chemscore.Internal_Hbond.Weighted>
0.0000

> <Gold.Chemscore.DEClash.Weighted>
0.0024

> <Gold.Chemscore.DEInternal.Weighted>
1.9743

> <Gold.Chemscore.Rot.Weighted>
4.6322

> <Gold.Chemscore.Internal.Correction.Weighted>
   9.000000E+99

> <Gold.Protein.RotatedTorsions>
[ 6907 6896 6895 6894 ] final  146.47 input  -60.11 | X-H torsion
[ 7974 7965 7964 7962 ] final  -58.59 input  175.53 | X-H torsion
[ 8008 7997 7996 7995 ] final  -35.81 input   59.86 | X-H torsion
[ 10167 10162 10161 10158 ] final -140.03 input  -65.29 | X-H torsion
[ 10718 10713 10712 10709 ] final  -73.64 input   66.30 | X-H torsion
[ 10763 10752 10751 10750 ] final -139.92 input  -60.55 | X-H torsion
[ 11005 11000 10999 10996 ] final  -69.19 input  -57.11 | X-H torsion

> <Gold.Protein.ActiveResidues>
 VAL166  LYS551  ARG553  GLY616  TRP617  ASP618  TYR619  PRO620  LYS621  CYS622 
 ASP623  PHE694  ASN695  SER759  ASP760  ASP761  ALA762  ILE779  LEU786  VAL792 
 PHE793  MET794  SER795  GLU796  ALA797  LYS798  CYS799  TRP800  GLU811  SER814 

> <Gold.Protein.RotatedAtoms>
  152.1675  133.4621  159.4891 H   0  0  0  0  0  0  0  0  0  0  0  0  # atno 6907 bound_to 6896
  150.6915  134.1995  159.4325 H   0  0  0  0  0  0  0  0  0  0  0  0  # atno 6908 bound_to 6896
  151.9900  134.9984  160.0612 H   0  0  0  0  0  0  0  0  0  0  0  0  # atno 6909 bound_to 6896
  145.8375  140.8439  143.0052 H   0  0  0  0  0  0  0  0  0  0  0  0  # atno 7974 bound_to 7965
  154.4087  140.1647  156.2272 H   0  0  0  0  0  0  0  0  0  0  0  0  # atno 8008 bound_to 7997
  155.9314  140.3414  155.6229 H   0  0  0  0  0  0  0  0  0  0  0  0  # atno 8009 bound_to 7997
  155.7102  140.0756  157.2365 H   0  0  0  0  0  0  0  0  0  0  0  0  # atno 8010 bound_to 7997
  139.8321  143.7433  152.2665 H   0  0  0  0  0  0  0  0  0  0  0  0  # atno 10167 bound_to 10162
  156.0272  130.4399  150.2773 H   0  0  0  0  0  0  0  0  0  0  0  0  # atno 10718 bound_to 10713
  154.8595  135.3568  154.5624 H   0  0  0  0  0  0  0  0  0  0  0  0  # atno 10763 bound_to 10752
  153.6238  135.7005  153.5305 H   0  0  0  0  0  0  0  0  0  0  0  0  # atno 10764 bound_to 10752
  153.3106  135.4179  155.1292 H   0  0  0  0  0  0  0  0  0  0  0  0  # atno 10765 bound_to 10752
  141.1549  133.6758  156.6562 H   0  0  0  0  0  0  0  0  0  0  0  0  # atno 11005 bound_to 11000
  144.6735  140.0763  143.7471 LP  0  0  0  0  0  0  0  0  0  0  0  0  # atno 17320 bound_to 7965
  145.9502  139.2729  143.1216 LP  0  0  0  0  0  0  0  0  0  0  0  0  # atno 17321 bound_to 7965
  139.7643  144.7496  151.0317 LP  0  0  0  0  0  0  0  0  0  0  0  0  # atno 17342 bound_to 10162
  140.7806  143.4715  151.0140 LP  0  0  0  0  0  0  0  0  0  0  0  0  # atno 17343 bound_to 10162
  157.0876  131.0161  151.3133 LP  0  0  0  0  0  0  0  0  0  0  0  0  # atno 17370 bound_to 10713
  157.4879  130.7804  149.7478 LP  0  0  0  0  0  0  0  0  0  0  0  0  # atno 17371 bound_to 10713
  140.3283  134.7950  157.4306 LP  0  0  0  0  0  0  0  0  0  0  0  0  # atno 17394 bound_to 11000
  140.1039  134.5436  155.8328 LP  0  0  0  0  0  0  0  0  0  0  0  0  # atno 17395 bound_to 11000

$$$$
