#       Name:                AV-unprocessed.smi:2102
#       Creating user name   scv26
#       Creation time:       Fri Mar 27 11:31:15 2020


#       File generated by GOLD software.
#

@<TRIPOS>MOLECULE
AV-unprocessed.smi:2102
    35    36     1
SMALL
NO_CHARGES


@<TRIPOS>ATOM
      1 ****        -3.6273  -2.0856  -0.7926 C.3            1 S1                 0.0000
      2 ****        -3.0302  -0.7727  -0.9220 N.am           1 S1                 0.0000
      3 ****        -3.8693   0.3588  -1.0670 C.2            1 S1                 0.0000
      4 ****        -5.0979   0.2782  -1.0849 O.2            1 S1                 0.0000
      5 ****        -3.1570   1.6246  -1.1959 C.2            1 S1                 0.0000
      6 ****        -1.8068   1.6676  -1.1736 C.2            1 S1                 0.0000
      7 ****        -1.0107   0.5459  -1.0297 N.am           1 S1                 0.0000
      8 ****         0.4505   0.6883  -0.9936 C.3            1 S1                 0.0000
      9 ****         1.0142   0.6912   0.4342 C.2            1 S1                 0.0000
     10 ****         0.3298   1.0897   1.3779 O.2            1 S1                 0.0000
     11 ****         2.2765   0.2596   0.5689 N.am           1 S1                 0.0000
     12 ****         2.9986   0.1809   1.7975 C.3            1 S1                 0.0000
     13 ****         4.4904   0.4314   1.7543 C.3            1 S1                 0.0000
     14 ****         3.9732  -0.9645   1.9676 C.3            1 S1                 0.0000
     15 ****        -1.6194  -0.7208  -0.8999 C.2            1 S1                 0.0000
     16 ****        -0.9346  -1.7390  -0.7712 O.2            1 S1                 0.0000
     17 ****        -4.7152  -2.0294  -0.7877 H              1 S1                 0.0000
     18 ****        -3.2784  -2.5102   0.1505 H              1 S1                 0.0000
     19 ****        -3.2892  -2.6778  -1.6447 H              1 S1                 0.0000
     20 ****        -3.7188   2.5400  -1.3090 H              1 S1                 0.0000
     21 ****        -1.3272   2.6310  -1.2690 H              1 S1                 0.0000
     22 ****         0.9192  -0.1064  -1.5772 H              1 S1                 0.0000
     23 ****         0.7453   1.6208  -1.4771 H              1 S1                 0.0000
     24 ****         2.7616  -0.0440  -0.2629 H              1 S1                 0.0000
     25 ****         2.4863   0.5099   2.7008 H              1 S1                 0.0000
     26 ****         4.9419   0.6573   0.7900 H              1 S1                 0.0000
     27 ****         4.9383   0.9368   2.6076 H              1 S1                 0.0000
     28 ****         4.0743  -1.3920   2.9632 H              1 S1                 0.0000
     29 ****         4.0805  -1.6699   1.1456 H              1 S1                 0.0000
     30 ****        -5.5418  -0.6133  -0.9949 LP             1 S1                 0.0000
     31 ****        -5.6516   1.1043  -1.1895 LP             1 S1                 0.0000
     32 ****        -0.6020   1.4152   1.2174 LP             1 S1                 0.0000
     33 ****         0.7061   1.0877   2.3044 LP             1 S1                 0.0000
     34 ****        -1.3772  -2.6309  -0.6791 LP             1 S1                 0.0000
     35 ****         0.0631  -1.6723  -0.7590 LP             1 S1                 0.0000
@<TRIPOS>BOND
    1    1    2 1     
    2    1   17 1     
    3    1   18 1     
    4    1   19 1     
    5    2   15 am    
    6    2    3 am    
    7    3    4 2     
    8    3    5 1     
    9    5    6 2     
   10    5   20 1     
   11    6    7 1     
   12    6   21 1     
   13    7    8 1     
   14    7   15 am    
   15    8    9 1     
   16    8   22 1     
   17    8   23 1     
   18    9   10 2     
   19    9   11 am    
   20   11   12 1     
   21   11   24 1     
   22   12   14 1     
   23   12   13 1     
   24   12   25 1     
   25   13   14 1     
   26   13   26 1     
   27   13   27 1     
   28   14   28 1     
   29   14   29 1     
   30   15   16 2     
   31    4   30 1     
   32    4   31 1     
   33   10   32 1     
   34   10   33 1     
   35   16   34 1     
   36   16   35 1     
@<TRIPOS>SUBSTRUCTURE
      1 S1             1
@<TRIPOS>SET
LONE_PAIRS      STATIC     ATOMS    <user>   **** ""
6 30 31 32 33 34 35
DONOR_HYDROGENS      STATIC     ATOMS    <user>   **** ""
1 24
ATOM$BLUE        STATIC     ATOMS    COLORGROUP SYSTEM
6 30 31 32 33 34 35
ATOM$RED        STATIC     ATOMS    COLORGROUP SYSTEM
1 24
