AV-unprocessed.smi:3204|AV-procd|sdf|12250|dock7
  -GOLD-   2272018 83D 1   1.00000     0.00000
 Structure written by MMmdl.
 30 31  0  0  0  0  0  0  0  0  1 V2000
  153.2671  141.3855  160.7154 C   0  0  0  0  0  0  0  0  0  0  0  0
  153.0896  142.1495  159.3985 C   0  0  0  0  0  0  0  0  0  0  0  0
  152.2874  141.3631  158.3783 C   0  0  0  0  0  0  0  0  0  0  0  0
  152.7629  140.1434  158.0407 N   0  0  0  0  0  0  0  0  0  0  0  0
  152.0561  139.4493  157.1454 C   0  0  0  0  0  0  0  0  0  0  0  0
  150.9244  139.8335  156.5493 N   0  0  0  0  0  0  0  0  0  0  0  0
  150.4316  141.0510  156.8807 C   0  0  0  0  0  0  0  0  0  0  0  0
  149.2468  141.5050  156.2836 N   0  0  0  0  0  0  0  0  0  0  0  0
  148.9984  141.3402  154.8557 C   0  0  2  0  0  0  0  0  0  0  0  0
  147.6014  141.8340  154.4757 C   0  0  0  0  0  0  0  0  0  0  0  0
  147.2722  141.0614  153.3358 O   0  0  0  0  0  0  0  0  0  0  0  0
  147.6842  139.7307  153.6062 C   0  0  0  0  0  0  0  0  0  0  0  0
  148.9853  139.8754  154.4060 C   0  0  1  0  0  0  0  0  0  0  0  0
  150.0858  139.6082  153.5610 O   0  0  0  0  0  0  0  0  0  0  0  0
  151.0960  141.8729  157.8166 C   0  0  0  0  0  0  0  0  0  0  0  0
  150.6111  143.0912  158.1605 F   0  0  0  0  0  0  0  0  0  0  0  0
  153.8443  141.9727  161.4299 H   0  0  0  0  0  0  0  0  0  0  0  0
  153.7925  140.4432  160.5575 H   0  0  0  0  0  0  0  0  0  0  0  0
  152.3026  141.1601  161.1714 H   0  0  0  0  0  0  0  0  0  0  0  0
  152.6020  143.1060  159.5885 H   0  0  0  0  0  0  0  0  0  0  0  0
  154.0671  142.3857  158.9757 H   0  0  0  0  0  0  0  0  0  0  0  0
  152.4387  138.4763  156.8751 H   0  0  0  0  0  0  0  0  0  0  0  0
  148.5153  141.8899  156.8636 H   0  0  0  0  0  0  0  0  0  0  0  0
  149.7304  141.9093  154.2799 H   0  0  0  0  0  0  0  0  0  0  0  0
  146.8736  141.6270  155.2628 H   0  0  0  0  0  0  0  0  0  0  0  0
  147.5774  142.9025  154.2605 H   0  0  0  0  0  0  0  0  0  0  0  0
  146.9197  139.2484  154.2172 H   0  0  0  0  0  0  0  0  0  0  0  0
  147.7932  139.1497  152.6896 H   0  0  0  0  0  0  0  0  0  0  0  0
  148.9981  139.1755  155.2428 H   0  0  0  0  0  0  0  0  0  0  0  0
  149.7765  139.5919  152.6679 H   0  0  0  0  0  0  0  0  0  0  0  0
  1  2  1  0  0  0  0
  1 17  1  0  0  0  0
  1 18  1  0  0  0  0
  1 19  1  0  0  0  0
  2  3  1  0  0  0  0
  2 20  1  0  0  0  0
  2 21  1  0  0  0  0
  3 15  1  0  0  0  0
  3  4  2  0  0  0  0
  4  5  1  0  0  0  0
  5  6  2  0  0  0  0
  5 22  1  0  0  0  0
  6  7  1  0  0  0  0
  7  8  1  0  0  0  0
  7 15  2  0  0  0  0
  8  9  1  0  0  0  0
  8 23  1  0  0  0  0
  9 13  1  0  0  0  0
  9 10  1  0  0  0  0
  9 24  1  0  0  0  0
 10 11  1  0  0  0  0
 10 25  1  0  0  0  0
 10 26  1  0  0  0  0
 11 12  1  0  0  0  0
 12 13  1  0  0  0  0
 12 27  1  0  0  0  0
 12 28  1  0  0  0  0
 13 14  1  0  0  0  0
 13 29  1  0  0  0  0
 14 30  1  0  0  0  0
 15 16  1  0  0  0  0
M  END
> <s_m_source_file>
AV-unprocessed.smi

> <i_m_source_file_index>
3204

> <i_lp_mmshare_version>
43012

> <i_f3d_flags>
0

> <s_epik_input>
W0NIM11bQ0gyXWMxbltjSF1uYyhjMUYpW05IXVtDQEBIXTJbQ0gyXU9bQ0gyXVtDQEhdMltPSF0=

> <s_epik_cmdline>
J2VwaWtfcHl0aG9uJywgJy1waCcsICc3LjAnLCAnLXRuJywgJzgnLCAnLW1hJywgJzIwMCcsICctbWV0YWxfYmluZGluZycsICctaW1hZScsICc8aW5maWxlLm1hZT4nLCAnLW9tYWUnLCAnPG91dGZpbGUubWFlPic=

> <r_lp_tautomer_probability>
1

> <r_epik_Ionization_Penalty>
0.000484964

> <r_epik_Ionization_Penalty_Charging>
0

> <r_epik_Ionization_Penalty_Neutral>
0.000484964

> <r_epik_State_Penalty>
-0

> <r_epik_Charging_Adjusted_Penalty>
0

> <i_epik_Tot_Q>
0

> <i_epik_Tot_abs_Q>
0

> <r_epik_Metal_State_Penalty>
-0

> <b_epik_Metal_Only>
0

> <s_lp_Force_Field>
OPLS_2005

> <r_lp_Energy>
13.6654

> <b_lp_Chiralities_Consistent>
1

> <s_lp_Variant>
AV-unprocessed.smi:3204-1

> <Gold.Version>
5.8.1

> <Gold.Id.Protein>
6NUR|6NUR_protein|mol2

> <Gold.PLP.Fitness>
36.3228

> <Gold.PLP.PLP>
-28.8161

> <Gold.PLP.part.hbond>
-3.0410

> <Gold.PLP.part.metal>
0.0000

> <Gold.PLP.part.buried>
-2.3690

> <Gold.PLP.part.nonpolar>
-23.1242

> <Gold.PLP.part.repulsive>
0.2232

> <Gold.PLP.ligand.clash>
0.0000

> <Gold.PLP.ligand.torsion>
0.3677

> <Gold.PLP.Chemscore.Hbond>
2.7440

> <Gold.PLP.Chemscore.CHOScore>
0.0000

> <Gold.PLP.Chemscore.Metal>
0.0000

> <Gold.Chemscore.Hbonds>
donor molecule, donor type, donor heavy atom, donor atom, acceptor molecule, acceptor atom, score
      L1  H    14    30       P1  7957  1.00
      P1  H  7989  7998       L1    14  0.80
      P1  H  7997  8008       L1     4  0.68

> <Gold.PLP.Chemscore.Internal.Correction>
0.0100

> <Gold.Rescore>
     Score         DG    S(hbond)    S(metal)    S(lipo)     H(rot)  DE(clash)    DE(int)     intcor
     12.34     -14.31       1.79        0.00      64.47       1.83       0.31       1.66       ----

> <Gold.Chemscore.Fitness>
12.3428

> <Gold.Chemscore.DG>
-14.3125

> <Gold.Chemscore.ZeroCoef>
-5.4800

> <Gold.Chemscore.Hbond>
1.7916

> <Gold.Chemscore.Metal>
0.0000

> <Gold.Chemscore.Lipo>
64.4695

> <Gold.Chemscore.Internal_Hbond>
0.0000

> <Gold.Chemscore.DEClash>
0.3050

> <Gold.Chemscore.DEInternal>
1.6647

> <Gold.Chemscore.Rot>
1.8337

> <Gold.Chemscore.Internal.Correction>
   9.000000E+99

> <Gold.Chemscore.Hbonds>
donor molecule, donor type, donor heavy atom, donor atom, acceptor molecule, acceptor atom, score
      L1  H    14    30       P1  7957  0.97
      P1  H  7989  7998       L1    14  0.27
      P1  H  7997  8008       L1     4  0.12

> <Gold.Chemscore.Hbond.Weighted>
-5.9838

> <Gold.Chemscore.Metal.Weighted>
-0.0000

> <Gold.Chemscore.Lipo.Weighted>
-7.5429

> <Gold.Chemscore.Internal_Hbond.Weighted>
0.0000

> <Gold.Chemscore.DEClash.Weighted>
0.3050

> <Gold.Chemscore.DEInternal.Weighted>
1.6647

> <Gold.Chemscore.Rot.Weighted>
4.6942

> <Gold.Chemscore.Internal.Correction.Weighted>
   9.000000E+99

> <Gold.Protein.RotatedTorsions>
[ 6907 6896 6895 6894 ] final  -92.86 input  -60.11 | X-H torsion
[ 7974 7965 7964 7962 ] final  176.63 input  175.53 | X-H torsion
[ 8008 7997 7996 7995 ] final  -89.30 input   59.86 | X-H torsion
[ 10167 10162 10161 10158 ] final -163.71 input  -65.29 | X-H torsion
[ 10718 10713 10712 10709 ] final  116.58 input   66.30 | X-H torsion
[ 10763 10752 10751 10750 ] final   32.48 input  -60.55 | X-H torsion
[ 11005 11000 10999 10996 ] final  165.42 input  -57.11 | X-H torsion

> <Gold.Protein.ActiveResidues>
 VAL166  LYS551  ARG553  GLY616  TRP617  ASP618  TYR619  PRO620  LYS621  CYS622 
 ASP623  PHE694  ASN695  SER759  ASP760  ASP761  ALA762  ILE779  LEU786  VAL792 
 PHE793  MET794  SER795  GLU796  ALA797  LYS798  CYS799  TRP800  GLU811  SER814 

> <Gold.Protein.RotatedAtoms>
  150.6913  134.2057  159.4339 H   0  0  0  0  0  0  0  0  0  0  0  0  # atno 6907 bound_to 6896
  152.0021  134.9920  160.0574 H   0  0  0  0  0  0  0  0  0  0  0  0  # atno 6908 bound_to 6896
  152.1569  133.4522  159.4878 H   0  0  0  0  0  0  0  0  0  0  0  0  # atno 6909 bound_to 6896
  144.7181  140.0125  143.6440 H   0  0  0  0  0  0  0  0  0  0  0  0  # atno 7974 bound_to 7965
  154.6850  140.0543  157.0305 H   0  0  0  0  0  0  0  0  0  0  0  0  # atno 8008 bound_to 7997
  155.0898  140.3218  155.4558 H   0  0  0  0  0  0  0  0  0  0  0  0  # atno 8009 bound_to 7997
  156.2708  140.2050  156.6025 H   0  0  0  0  0  0  0  0  0  0  0  0  # atno 8010 bound_to 7997
  139.6302  144.0455  152.2009 H   0  0  0  0  0  0  0  0  0  0  0  0  # atno 10167 bound_to 10162
  157.6151  131.1027  150.7493 H   0  0  0  0  0  0  0  0  0  0  0  0  # atno 10718 bound_to 10713
  153.0260  135.6412  154.1361 H   0  0  0  0  0  0  0  0  0  0  0  0  # atno 10763 bound_to 10752
  154.1090  135.2854  155.3236 H   0  0  0  0  0  0  0  0  0  0  0  0  # atno 10764 bound_to 10752
  154.6345  135.5481  153.7781 H   0  0  0  0  0  0  0  0  0  0  0  0  # atno 10765 bound_to 10752
  140.2560  134.7940  157.3546 H   0  0  0  0  0  0  0  0  0  0  0  0  # atno 11005 bound_to 11000
  146.0247  139.3281  143.0792 LP  0  0  0  0  0  0  0  0  0  0  0  0  # atno 17320 bound_to 7965
  145.8526  140.9520  143.0741 LP  0  0  0  0  0  0  0  0  0  0  0  0  # atno 17321 bound_to 7965
  140.0118  144.6218  150.7640 LP  0  0  0  0  0  0  0  0  0  0  0  0  # atno 17342 bound_to 10162
  140.7434  143.2846  151.3500 LP  0  0  0  0  0  0  0  0  0  0  0  0  # atno 17343 bound_to 10162
  156.7862  130.4875  149.5392 LP  0  0  0  0  0  0  0  0  0  0  0  0  # atno 17370 bound_to 10713
  156.1270  130.6151  151.0278 LP  0  0  0  0  0  0  0  0  0  0  0  0  # atno 17371 bound_to 10713
  140.1511  134.4848  155.7960 LP  0  0  0  0  0  0  0  0  0  0  0  0  # atno 17394 bound_to 11000
  141.2196  133.6863  156.7381 LP  0  0  0  0  0  0  0  0  0  0  0  0  # atno 17395 bound_to 11000

$$$$
