AV-unprocessed.smi:3293|AV-procd|sdf|12630|dock7
  -GOLD-   2272018563D 1   1.00000     0.00000
 Structure written by MMmdl.
 44 45  0  0  0  0  0  0  0  0  2 V2000
  152.0633  144.7088  158.0362 C   0  0  0  0  0  0  0  0  0  0  0  0
  152.3187  143.4294  158.8160 C   0  0  0  0  0  0  0  0  0  0  0  0
  153.0201  143.4764  159.9648 C   0  0  0  0  0  0  0  0  0  0  0  0
  153.3987  142.2636  160.7830 C   0  0  0  0  0  0  0  0  0  0  0  0
  153.3456  140.9909  159.9351 C   0  0  0  0  0  0  0  0  0  0  0  0
  152.0189  140.8840  159.1654 C   0  0  2  0  0  0  0  0  0  0  0  0
  151.9762  139.5443  158.4047 C   0  0  0  0  0  0  0  0  0  0  0  0
  151.7736  142.1097  158.2316 C   0  0  1  0  0  0  0  0  0  0  0  0
  150.2718  142.1959  157.8501 C   0  0  0  0  0  0  0  0  0  0  0  0
  150.0525  142.3115  156.3935 N   0  3  0  0  0  0  0  0  0  0  0  0
  149.4302  141.1220  155.7817 C   0  0  0  0  0  0  0  0  0  0  0  0
  150.1742  140.7048  154.5066 C   0  0  0  0  0  0  0  0  0  0  0  0
  150.6352  139.2764  154.5819 C   0  0  0  0  0  0  0  0  0  0  0  0
  151.9735  138.7897  154.6007 C   0  0  0  0  0  0  0  0  0  0  0  0
  152.0401  137.4703  154.6667 N   0  0  0  0  0  0  0  0  0  0  0  0
  150.7527  137.0693  154.6958 N   0  0  0  0  0  0  0  0  0  0  0  0
  150.4471  135.6567  154.7710 C   0  0  0  0  0  0  0  0  0  0  0  0
  149.8826  138.1371  154.6463 C   0  0  0  0  0  0  0  0  0  0  0  0
  152.3567  144.5865  156.9933 H   0  0  0  0  0  0  0  0  0  0  0  0
  152.6374  145.5419  158.4435 H   0  0  0  0  0  0  0  0  0  0  0  0
  151.0110  144.9889  158.0804 H   0  0  0  0  0  0  0  0  0  0  0  0
  153.3634  144.4263  160.3486 H   0  0  0  0  0  0  0  0  0  0  0  0
  154.4049  142.3998  161.1804 H   0  0  0  0  0  0  0  0  0  0  0  0
  152.7232  142.1917  161.6361 H   0  0  0  0  0  0  0  0  0  0  0  0
  154.1779  140.9884  159.2296 H   0  0  0  0  0  0  0  0  0  0  0  0
  153.4854  140.1221  160.5795 H   0  0  0  0  0  0  0  0  0  0  0  0
  151.2237  140.8646  159.9125 H   0  0  0  0  0  0  0  0  0  0  0  0
  152.7436  139.5046  157.6311 H   0  0  0  0  0  0  0  0  0  0  0  0
  151.0148  139.3658  157.9260 H   0  0  0  0  0  0  0  0  0  0  0  0
  152.1508  138.7072  159.0814 H   0  0  0  0  0  0  0  0  0  0  0  0
  152.3481  141.9386  157.3197 H   0  0  0  0  0  0  0  0  0  0  0  0
  149.7324  141.3100  158.1812 H   0  0  0  0  0  0  0  0  0  0  0  0
  149.8093  143.0428  158.3596 H   0  0  0  0  0  0  0  0  0  0  0  0
  149.4553  143.1086  156.2242 H   0  0  0  0  0  0  0  0  0  0  0  0
  149.4364  140.3032  156.5025 H   0  0  0  0  0  0  0  0  0  0  0  0
  148.3870  141.3425  155.5507 H   0  0  0  0  0  0  0  0  0  0  0  0
  149.5215  140.8483  153.6445 H   0  0  0  0  0  0  0  0  0  0  0  0
  151.0236  141.3708  154.3498 H   0  0  0  0  0  0  0  0  0  0  0  0
  152.8942  139.3536  154.5660 H   0  0  0  0  0  0  0  0  0  0  0  0
  149.3676  135.5053  154.7519 H   0  0  0  0  0  0  0  0  0  0  0  0
  150.8469  135.2416  155.6968 H   0  0  0  0  0  0  0  0  0  0  0  0
  150.8926  135.1360  153.9231 H   0  0  0  0  0  0  0  0  0  0  0  0
  148.8112  137.9997  154.6601 H   0  0  0  0  0  0  0  0  0  0  0  0
  150.9435  142.4750  155.9466 H   0  0  0  0  0  0  0  0  0  0  0  0
  1  2  1  0  0  0  0
  1 19  1  0  0  0  0
  1 20  1  0  0  0  0
  1 21  1  0  0  0  0
  2  8  1  0  0  0  0
  2  3  2  0  0  0  0
  3  4  1  0  0  0  0
  3 22  1  0  0  0  0
  4  5  1  0  0  0  0
  4 23  1  0  0  0  0
  4 24  1  0  0  0  0
  5  6  1  0  0  0  0
  5 25  1  0  0  0  0
  5 26  1  0  0  0  0
  6  7  1  0  0  0  0
  6  8  1  0  0  0  0
  6 27  1  0  0  0  0
  7 28  1  0  0  0  0
  7 29  1  0  0  0  0
  7 30  1  0  0  0  0
  8  9  1  0  0  0  0
  8 31  1  0  0  0  0
  9 10  1  0  0  0  0
  9 32  1  0  0  0  0
  9 33  1  0  0  0  0
 10 11  1  0  0  0  0
 10 34  1  0  0  0  0
 10 44  1  0  0  0  0
 11 12  1  0  0  0  0
 11 35  1  0  0  0  0
 11 36  1  0  0  0  0
 12 13  1  0  0  0  0
 12 37  1  0  0  0  0
 12 38  1  0  0  0  0
 13 18  2  0  0  0  0
 13 14  1  0  0  0  0
 14 15  2  0  0  0  0
 14 39  1  0  0  0  0
 15 16  1  0  0  0  0
 16 17  1  0  0  0  0
 16 18  1  0  0  0  0
 17 40  1  0  0  0  0
 17 41  1  0  0  0  0
 17 42  1  0  0  0  0
 18 43  1  0  0  0  0
M  CHG  1  10   1
M  END
> <s_m_source_file>
AV-unprocessed.smi

> <i_m_source_file_index>
3293

> <i_lp_mmshare_version>
43012

> <i_f3d_flags>
0

> <s_epik_input>
W0NIM11DMT1bQ0hdW0NIMl1bQ0gyXVtDQEBIXShbQ0gzXSlbQ0BIXTFbQ0gyXVtOSF1bQ0gyXVtDSDJdYzJbY0hdbm4oW0NIM10pW2NIXTI=

> <s_epik_cmdline>
J2VwaWtfcHl0aG9uJywgJy1waCcsICc3LjAnLCAnLXRuJywgJzgnLCAnLW1hJywgJzIwMCcsICctbWV0YWxfYmluZGluZycsICctaW1hZScsICc8aW5maWxlLm1hZT4nLCAnLW9tYWUnLCAnPG91dGZpbGUubWFlPic=

> <r_lp_tautomer_probability>
1

> <r_epik_Ionization_Penalty>
0.000598621

> <r_epik_Ionization_Penalty_Charging>
0.000582095

> <r_epik_Ionization_Penalty_Neutral>
1.65262e-05

> <r_epik_State_Penalty>
-0

> <r_epik_Charging_Adjusted_Penalty>
0.000582095

> <i_epik_Tot_Q>
1

> <i_epik_Tot_abs_Q>
1

> <r_epik_Metal_State_Penalty>
-0

> <b_epik_Metal_Only>
0

> <s_lp_Force_Field>
OPLS_2005

> <r_lp_Energy>
11.6167

> <b_lp_Chiralities_Consistent>
1

> <s_lp_Variant>
AV-unprocessed.smi:3293-2

> <Gold.Version>
5.8.1

> <Gold.Id.Protein>
6NUR|6NUR_protein|mol2

> <Gold.PLP.Fitness>
49.0854

> <Gold.PLP.PLP>
-43.8652

> <Gold.PLP.part.hbond>
-2.0000

> <Gold.PLP.part.metal>
0.0000

> <Gold.PLP.part.buried>
-3.4082

> <Gold.PLP.part.nonpolar>
-38.7087

> <Gold.PLP.part.repulsive>
0.1748

> <Gold.PLP.ligand.clash>
0.0000

> <Gold.PLP.ligand.torsion>
1.7535

> <Gold.PLP.Chemscore.Hbond>
2.8800

> <Gold.PLP.Chemscore.CHOScore>
0.0000

> <Gold.PLP.Chemscore.Metal>
0.0000

> <Gold.Chemscore.Hbonds>
donor molecule, donor type, donor heavy atom, donor atom, acceptor molecule, acceptor atom, score
      L1  H    10    34       P1  8028  2.00
      P1  H 10752 10764       L1    15  0.76

> <Gold.PLP.Chemscore.Internal.Correction>
0.0873

> <Gold.Rescore>
     Score         DG    S(hbond)    S(metal)    S(lipo)     H(rot)  DE(clash)    DE(int)     intcor
     19.72     -22.58       1.95        0.00     122.83       1.48       1.14       1.72       ----

> <Gold.Chemscore.Fitness>
19.7183

> <Gold.Chemscore.DG>
-22.5762

> <Gold.Chemscore.ZeroCoef>
-5.4800

> <Gold.Chemscore.Hbond>
1.9538

> <Gold.Chemscore.Metal>
0.0000

> <Gold.Chemscore.Lipo>
122.8310

> <Gold.Chemscore.Internal_Hbond>
0.0000

> <Gold.Chemscore.DEClash>
1.1386

> <Gold.Chemscore.DEInternal>
1.7192

> <Gold.Chemscore.Rot>
1.4847

> <Gold.Chemscore.Internal.Correction>
   9.000000E+99

> <Gold.Chemscore.Hbonds>
donor molecule, donor type, donor heavy atom, donor atom, acceptor molecule, acceptor atom, score
      L1  H    10    34       P1  8028  1.00
      P1  H 10752 10764       L1    15  0.16

> <Gold.Chemscore.Hbond.Weighted>
-6.5258

> <Gold.Chemscore.Metal.Weighted>
-0.0000

> <Gold.Chemscore.Lipo.Weighted>
-14.3712

> <Gold.Chemscore.Internal_Hbond.Weighted>
0.0000

> <Gold.Chemscore.DEClash.Weighted>
1.1386

> <Gold.Chemscore.DEInternal.Weighted>
1.7192

> <Gold.Chemscore.Rot.Weighted>
3.8008

> <Gold.Chemscore.Internal.Correction.Weighted>
   9.000000E+99

> <Gold.Protein.RotatedTorsions>
[ 6907 6896 6895 6894 ] final -167.09 input  -60.11 | X-H torsion
[ 7974 7965 7964 7962 ] final -155.93 input  175.53 | X-H torsion
[ 8008 7997 7996 7995 ] final   17.44 input   59.86 | X-H torsion
[ 10167 10162 10161 10158 ] final -140.60 input  -65.29 | X-H torsion
[ 10718 10713 10712 10709 ] final   -7.87 input   66.30 | X-H torsion
[ 10763 10752 10751 10750 ] final  -66.51 input  -60.55 | X-H torsion
[ 11005 11000 10999 10996 ] final  -45.02 input  -57.11 | X-H torsion

> <Gold.Protein.ActiveResidues>
 VAL166  LYS551  ARG553  GLY616  TRP617  ASP618  TYR619  PRO620  LYS621  CYS622 
 ASP623  PHE694  ASN695  SER759  ASP760  ASP761  ALA762  ILE779  LEU786  VAL792 
 PHE793  MET794  SER795  GLU796  ALA797  LYS798  CYS799  TRP800  GLU811  SER814 

> <Gold.Protein.RotatedAtoms>
  151.4540  133.3610  159.2799 H   0  0  0  0  0  0  0  0  0  0  0  0  # atno 6907 bound_to 6896
  150.9071  134.8488  159.7411 H   0  0  0  0  0  0  0  0  0  0  0  0  # atno 6908 bound_to 6896
  152.4912  134.4466  159.9613 H   0  0  0  0  0  0  0  0  0  0  0  0  # atno 6909 bound_to 6896
  144.7617  140.4181  143.5972 H   0  0  0  0  0  0  0  0  0  0  0  0  # atno 7974 bound_to 7965
  154.8915  140.2987  155.5368 H   0  0  0  0  0  0  0  0  0  0  0  0  # atno 8008 bound_to 7997
  156.3021  140.2423  156.3866 H   0  0  0  0  0  0  0  0  0  0  0  0  # atno 8009 bound_to 7997
  154.8613  140.0405  157.1656 H   0  0  0  0  0  0  0  0  0  0  0  0  # atno 8010 bound_to 7997
  139.8265  143.7503  152.2666 H   0  0  0  0  0  0  0  0  0  0  0  0  # atno 10167 bound_to 10162
  156.7109  130.5122  149.5892 H   0  0  0  0  0  0  0  0  0  0  0  0  # atno 10718 bound_to 10713
  154.3608  135.6116  153.5690 H   0  0  0  0  0  0  0  0  0  0  0  0  # atno 10763 bound_to 10752
  152.9793  135.5815  154.4635 H   0  0  0  0  0  0  0  0  0  0  0  0  # atno 10764 bound_to 10752
  154.4372  135.2849  155.1849 H   0  0  0  0  0  0  0  0  0  0  0  0  # atno 10765 bound_to 10752
  141.0489  133.6750  156.2955 H   0  0  0  0  0  0  0  0  0  0  0  0  # atno 11005 bound_to 11000
  145.6599  139.1579  143.2814 LP  0  0  0  0  0  0  0  0  0  0  0  0  # atno 17320 bound_to 7965
  146.1686  140.6680  142.9244 LP  0  0  0  0  0  0  0  0  0  0  0  0  # atno 17321 bound_to 7965
  139.7698  144.7480  151.0241 LP  0  0  0  0  0  0  0  0  0  0  0  0  # atno 17342 bound_to 10162
  140.7810  143.4658  151.0215 LP  0  0  0  0  0  0  0  0  0  0  0  0  # atno 17343 bound_to 10162
  156.1661  130.6406  151.0780 LP  0  0  0  0  0  0  0  0  0  0  0  0  # atno 17370 bound_to 10713
  157.6936  131.0801  150.7035 LP  0  0  0  0  0  0  0  0  0  0  0  0  # atno 17371 bound_to 10713
  140.6094  134.5474  157.5531 LP  0  0  0  0  0  0  0  0  0  0  0  0  # atno 17394 bound_to 11000
  139.9334  134.7921  156.0869 LP  0  0  0  0  0  0  0  0  0  0  0  0  # atno 17395 bound_to 11000

$$$$
