AV-unprocessed.smi:2533|AV-procd|sdf|9973|dock5
  -GOLD-   2272014 23D 1   1.00000     0.00000
 Structure written by MMmdl.
 35 36  0  0  0  0  0  0  0  0  1 V2000
  153.4867  142.1778  161.4427 C   0  0  0  0  0  0  0  0  0  0  0  0
  153.1404  142.9996  160.3377 O   0  0  0  0  0  0  0  0  0  0  0  0
  152.2548  142.4983  159.4074 C   0  0  0  0  0  0  0  0  0  0  0  0
  151.6524  141.2180  159.4936 C   0  0  0  0  0  0  0  0  0  0  0  0
  150.7513  140.7847  158.5021 C   0  0  0  0  0  0  0  0  0  0  0  0
  150.4379  141.6187  157.4087 C   0  0  0  0  0  0  0  0  0  0  0  0
  149.4267  141.1750  156.3590 C   0  0  1  0  0  0  0  0  0  0  0  0
  148.5874  142.2332  155.9445 O   0  0  0  0  0  0  0  0  0  0  0  0
  150.0952  140.5598  155.1068 C   0  0  0  0  0  0  0  0  0  0  0  0
  150.6251  139.2109  155.3510 N   0  0  0  0  0  0  0  0  0  0  0  0
  149.6626  138.2727  155.6847 N   0  0  0  0  0  0  0  0  0  0  0  0
  149.9687  137.0283  155.8616 C   0  0  0  0  0  0  0  0  0  0  0  0
  148.8443  136.0781  156.1903 C   0  0  0  0  0  0  0  0  0  0  0  0
  147.6676  136.7050  156.1805 F   0  0  0  0  0  0  0  0  0  0  0  0
  148.8047  135.0885  155.2976 F   0  0  0  0  0  0  0  0  0  0  0  0
  149.0325  135.5490  157.4001 F   0  0  0  0  0  0  0  0  0  0  0  0
  151.3570  136.6182  155.7323 C   0  0  0  0  0  0  0  0  0  0  0  0
  152.2959  137.5378  155.4227 C   0  0  0  0  0  0  0  0  0  0  0  0
  151.9545  138.9412  155.2044 C   0  0  0  0  0  0  0  0  0  0  0  0
  152.7832  139.7994  154.9026 O   0  0  0  0  0  0  0  0  0  0  0  0
  151.0388  142.8906  157.3172 C   0  0  0  0  0  0  0  0  0  0  0  0
  151.9380  143.3253  158.3093 C   0  0  0  0  0  0  0  0  0  0  0  0
  152.4981  144.5542  158.2071 F   0  0  0  0  0  0  0  0  0  0  0  0
  154.1859  142.7143  162.0841 H   0  0  0  0  0  0  0  0  0  0  0  0
  153.9757  141.2586  161.1179 H   0  0  0  0  0  0  0  0  0  0  0  0
  152.6113  141.9294  162.0443 H   0  0  0  0  0  0  0  0  0  0  0  0
  151.8606  140.5494  160.3147 H   0  0  0  0  0  0  0  0  0  0  0  0
  150.2908  139.8116  158.5909 H   0  0  0  0  0  0  0  0  0  0  0  0
  148.7755  140.4261  156.8115 H   0  0  0  0  0  0  0  0  0  0  0  0
  148.8455  143.0175  156.4045 H   0  0  0  0  0  0  0  0  0  0  0  0
  149.3916  140.5438  154.2724 H   0  0  0  0  0  0  0  0  0  0  0  0
  150.9113  141.2080  154.7804 H   0  0  0  0  0  0  0  0  0  0  0  0
  151.6324  135.5853  155.8854 H   0  0  0  0  0  0  0  0  0  0  0  0
  153.3267  137.2289  155.3287 H   0  0  0  0  0  0  0  0  0  0  0  0
  150.8002  143.5457  156.4922 H   0  0  0  0  0  0  0  0  0  0  0  0
  1  2  1  0  0  0  0
  1 24  1  0  0  0  0
  1 25  1  0  0  0  0
  1 26  1  0  0  0  0
  2  3  1  0  0  0  0
  3 22  1  0  0  0  0
  3  4  2  0  0  0  0
  4  5  1  0  0  0  0
  4 27  1  0  0  0  0
  5  6  2  0  0  0  0
  5 28  1  0  0  0  0
  6  7  1  0  0  0  0
  6 21  1  0  0  0  0
  7  8  1  0  0  0  0
  7  9  1  0  0  0  0
  7 29  1  0  0  0  0
  8 30  1  0  0  0  0
  9 10  1  0  0  0  0
  9 31  1  0  0  0  0
  9 32  1  0  0  0  0
 10 19  1  0  0  0  0
 10 11  1  0  0  0  0
 11 12  2  0  0  0  0
 12 13  1  0  0  0  0
 12 17  1  0  0  0  0
 13 14  1  0  0  0  0
 13 15  1  0  0  0  0
 13 16  1  0  0  0  0
 17 18  2  0  0  0  0
 17 33  1  0  0  0  0
 18 19  1  0  0  0  0
 18 34  1  0  0  0  0
 19 20  2  0  0  0  0
 21 22  2  0  0  0  0
 21 35  1  0  0  0  0
 22 23  1  0  0  0  0
M  END
> <s_m_source_file>
AV-unprocessed.smi

> <i_m_source_file_index>
2533

> <i_lp_mmshare_version>
43012

> <i_f3d_flags>
0

> <s_epik_input>
W0NIM11PYzFbY0hdW2NIXWMoW2NIXWMxRilbQ0BIXShbT0hdKVtDSDJdbjJuYyhDKEYpKEYpRilbY0hdW2NIXWMyPU8=

> <s_epik_cmdline>
J2VwaWtfcHl0aG9uJywgJy1waCcsICc3LjAnLCAnLXRuJywgJzgnLCAnLW1hJywgJzIwMCcsICctbWV0YWxfYmluZGluZycsICctaW1hZScsICc8aW5maWxlLm1hZT4nLCAnLW9tYWUnLCAnPG91dGZpbGUubWFlPic=

> <r_lp_tautomer_probability>
1

> <r_epik_Ionization_Penalty>
5.00966e-08

> <r_epik_Ionization_Penalty_Charging>
3.92872e-09

> <r_epik_Ionization_Penalty_Neutral>
4.61679e-08

> <r_epik_State_Penalty>
-0

> <r_epik_Charging_Adjusted_Penalty>
3.92872e-09

> <i_epik_Tot_Q>
0

> <i_epik_Tot_abs_Q>
0

> <r_epik_Metal_State_Penalty>
-0

> <b_epik_Metal_Only>
0

> <s_lp_Force_Field>
OPLS_2005

> <r_lp_Energy>
30.5098

> <b_lp_Chiralities_Consistent>
1

> <s_lp_Variant>
AV-unprocessed.smi:2533-2

> <Gold.Version>
5.8.1

> <Gold.Id.Protein>
6NUR|6NUR_protein|mol2

> <Gold.PLP.Fitness>
42.5990

> <Gold.PLP.PLP>
-38.3132

> <Gold.PLP.part.hbond>
-2.9663

> <Gold.PLP.part.metal>
0.0000

> <Gold.PLP.part.buried>
-1.2786

> <Gold.PLP.part.nonpolar>
-35.1867

> <Gold.PLP.part.repulsive>
0.0722

> <Gold.PLP.ligand.clash>
0.0000

> <Gold.PLP.ligand.torsion>
0.7970

> <Gold.PLP.Chemscore.Hbond>
1.9440

> <Gold.PLP.Chemscore.CHOScore>
0.0000

> <Gold.PLP.Chemscore.Metal>
0.0000

> <Gold.Chemscore.Hbonds>
donor molecule, donor type, donor heavy atom, donor atom, acceptor molecule, acceptor atom, score
      L1  H     8    30       P1  8028  0.50
      P1  H  7989  7998       L1    20  0.43
      P1  H  7997  8008       L1    20  1.00

> <Gold.PLP.Chemscore.Internal.Correction>
0.0478

> <Gold.Rescore>
     Score         DG    S(hbond)    S(metal)    S(lipo)     H(rot)  DE(clash)    DE(int)     intcor
     15.42     -16.22       1.99        0.00      89.62       2.50       0.14       0.65       ----

> <Gold.Chemscore.Fitness>
15.4222

> <Gold.Chemscore.DG>
-16.2163

> <Gold.Chemscore.ZeroCoef>
-5.4800

> <Gold.Chemscore.Hbond>
1.9935

> <Gold.Chemscore.Metal>
0.0000

> <Gold.Chemscore.Lipo>
89.6246

> <Gold.Chemscore.Internal_Hbond>
0.0000

> <Gold.Chemscore.DEClash>
0.1437

> <Gold.Chemscore.DEInternal>
0.6505

> <Gold.Chemscore.Rot>
2.5031

> <Gold.Chemscore.Internal.Correction>
   9.000000E+99

> <Gold.Chemscore.Hbonds>
donor molecule, donor type, donor heavy atom, donor atom, acceptor molecule, acceptor atom, score
      L1  H     8    30       P1  8028  0.49
      P1  H  7989  7998       L1    20  0.11
      P1  H  7997  8008       L1    20  0.96

> <Gold.Chemscore.Hbond.Weighted>
-6.6581

> <Gold.Chemscore.Metal.Weighted>
-0.0000

> <Gold.Chemscore.Lipo.Weighted>
-10.4861

> <Gold.Chemscore.Internal_Hbond.Weighted>
0.0000

> <Gold.Chemscore.DEClash.Weighted>
0.1437

> <Gold.Chemscore.DEInternal.Weighted>
0.6505

> <Gold.Chemscore.Rot.Weighted>
6.4079

> <Gold.Chemscore.Internal.Correction.Weighted>
   9.000000E+99

> <Gold.Protein.RotatedTorsions>
[ 6907 6896 6895 6894 ] final  104.09 input  -60.11 | X-H torsion
[ 7974 7965 7964 7962 ] final  -47.79 input  175.53 | X-H torsion
[ 8008 7997 7996 7995 ] final   -5.68 input   59.86 | X-H torsion
[ 10167 10162 10161 10158 ] final -113.78 input  -65.29 | X-H torsion
[ 10718 10713 10712 10709 ] final -137.42 input   66.30 | X-H torsion
[ 10763 10752 10751 10750 ] final   66.55 input  -60.55 | X-H torsion
[ 11005 11000 10999 10996 ] final    5.41 input  -57.11 | X-H torsion

> <Gold.Protein.ActiveResidues>
 VAL166  LYS551  ARG553  GLY616  TRP617  ASP618  TYR619  PRO620  LYS621  CYS622 
 ASP623  PHE694  ASN695  SER759  ASP760  ASP761  ALA762  ILE779  LEU786  VAL792 
 PHE793  MET794  SER795  GLU796  ALA797  LYS798  CYS799  TRP800  GLU811  SER814 

> <Gold.Protein.RotatedAtoms>
  152.5275  133.9729  159.7769 H   0  0  0  0  0  0  0  0  0  0  0  0  # atno 6907 bound_to 6896
  150.9997  133.6060  159.2704 H   0  0  0  0  0  0  0  0  0  0  0  0  # atno 6908 bound_to 6896
  151.3173  135.0816  159.9347 H   0  0  0  0  0  0  0  0  0  0  0  0  # atno 6909 bound_to 6896
  145.9579  140.7508  142.9472 H   0  0  0  0  0  0  0  0  0  0  0  0  # atno 7974 bound_to 7965
  154.6014  140.2452  155.7787 H   0  0  0  0  0  0  0  0  0  0  0  0  # atno 8008 bound_to 7997
  156.2313  140.2965  156.0148 H   0  0  0  0  0  0  0  0  0  0  0  0  # atno 8009 bound_to 7997
  155.2205  140.0400  157.2938 H   0  0  0  0  0  0  0  0  0  0  0  0  # atno 8010 bound_to 7997
  140.1081  143.4552  152.1770 H   0  0  0  0  0  0  0  0  0  0  0  0  # atno 10167 bound_to 10162
  156.2879  130.7358  151.1375 H   0  0  0  0  0  0  0  0  0  0  0  0  # atno 10718 bound_to 10713
  153.0145  135.5316  154.6841 H   0  0  0  0  0  0  0  0  0  0  0  0  # atno 10763 bound_to 10752
  154.5993  135.2866  155.0555 H   0  0  0  0  0  0  0  0  0  0  0  0  # atno 10764 bound_to 10752
  154.1618  135.6546  153.5040 H   0  0  0  0  0  0  0  0  0  0  0  0  # atno 10765 bound_to 10752
  140.5711  134.0102  155.8009 H   0  0  0  0  0  0  0  0  0  0  0  0  # atno 11005 bound_to 11000
  144.6809  140.2543  143.7327 LP  0  0  0  0  0  0  0  0  0  0  0  0  # atno 17320 bound_to 7965
  145.8080  139.1991  143.2009 LP  0  0  0  0  0  0  0  0  0  0  0  0  # atno 17321 bound_to 7965
  139.5634  144.7420  151.4090 LP  0  0  0  0  0  0  0  0  0  0  0  0  # atno 17342 bound_to 10162
  140.6941  143.7792  150.7299 LP  0  0  0  0  0  0  0  0  0  0  0  0  # atno 17343 bound_to 10162
  157.7334  131.0591  150.5579 LP  0  0  0  0  0  0  0  0  0  0  0  0  # atno 17370 bound_to 10713
  156.5692  130.4275  149.6027 LP  0  0  0  0  0  0  0  0  0  0  0  0  # atno 17371 bound_to 10713
  141.1056  133.9699  157.3003 LP  0  0  0  0  0  0  0  0  0  0  0  0  # atno 17394 bound_to 11000
  139.9361  135.0196  156.8561 LP  0  0  0  0  0  0  0  0  0  0  0  0  # atno 17395 bound_to 11000

$$$$
