AV-unprocessed.smi:3349|AV-procd|sdf|12938|dock2
  -GOLD-   2272019373D 1   1.00000     0.00000
 Structure written by MMmdl.
 41 42  0  0  0  0  0  0  0  0  2 V2000
  151.7729  138.1776  159.1672 C   0  0  0  0  0  0  0  0  0  0  0  0
  152.3044  139.3302  158.2788 C   0  0  1  0  0  0  0  0  0  0  0  0
  151.1280  140.1557  157.6918 C   0  0  0  0  0  0  0  0  0  0  0  0
  150.4071  139.4500  156.6349 N   0  0  0  0  0  0  0  0  0  0  0  0
  150.8541  139.2431  155.3855 C   0  0  0  0  0  0  0  0  0  0  0  0
  151.9444  139.6512  154.9842 O   0  0  0  0  0  0  0  0  0  0  0  0
  149.9176  138.4589  154.4526 C   0  0  1  0  0  0  0  0  0  0  0  0
  149.5218  137.0845  155.0223 C   0  0  0  0  0  0  0  0  0  0  0  0
  148.7356  139.2469  154.1314 N   0  0  0  0  0  0  0  0  0  0  0  0
  147.6404  138.9427  153.4285 C   0  0  0  0  0  0  0  0  0  0  0  0
  146.7722  139.9393  153.3289 N   0  0  0  0  0  0  0  0  0  0  0  0
  147.4450  140.8987  154.0308 C   0  0  0  0  0  0  0  0  0  0  0  0
  148.6277  140.5374  154.5283 N   0  0  0  0  0  0  0  0  0  0  0  0
  153.2686  140.2302  158.9959 N   0  3  0  0  0  0  0  0  0  0  0  0
  152.6762  141.0728  160.0727 C   0  0  0  0  0  0  0  0  0  0  0  0
  153.7384  141.9722  160.7286 C   0  0  0  0  0  0  0  0  0  0  0  0
  154.8007  141.1780  161.2334 O   0  0  0  0  0  0  0  0  0  0  0  0
  155.4491  140.4609  160.1945 C   0  0  0  0  0  0  0  0  0  0  0  0
  154.4489  139.4981  159.5344 C   0  0  0  0  0  0  0  0  0  0  0  0
  151.0665  137.5439  158.6324 H   0  0  0  0  0  0  0  0  0  0  0  0
  151.2635  138.5598  160.0526 H   0  0  0  0  0  0  0  0  0  0  0  0
  152.5681  137.5061  159.4907 H   0  0  0  0  0  0  0  0  0  0  0  0
  152.8427  138.8636  157.4520 H   0  0  0  0  0  0  0  0  0  0  0  0
  150.4523  140.4610  158.4926 H   0  0  0  0  0  0  0  0  0  0  0  0
  151.4811  141.0776  157.2341 H   0  0  0  0  0  0  0  0  0  0  0  0
  149.4995  139.0769  156.8754 H   0  0  0  0  0  0  0  0  0  0  0  0
  150.4654  138.2813  153.5249 H   0  0  0  0  0  0  0  0  0  0  0  0
  150.4020  136.4874  155.2643 H   0  0  0  0  0  0  0  0  0  0  0  0
  148.9339  136.5199  154.2982 H   0  0  0  0  0  0  0  0  0  0  0  0
  148.9227  137.1795  155.9289 H   0  0  0  0  0  0  0  0  0  0  0  0
  147.4754  137.9733  152.9813 H   0  0  0  0  0  0  0  0  0  0  0  0
  147.0521  141.8940  154.1784 H   0  0  0  0  0  0  0  0  0  0  0  0
  151.9025  141.7281  159.6743 H   0  0  0  0  0  0  0  0  0  0  0  0
  152.2113  140.4329  160.8245 H   0  0  0  0  0  0  0  0  0  0  0  0
  154.1214  142.7056  160.0169 H   0  0  0  0  0  0  0  0  0  0  0  0
  153.2966  142.5324  161.5529 H   0  0  0  0  0  0  0  0  0  0  0  0
  155.8710  141.1511  159.4620 H   0  0  0  0  0  0  0  0  0  0  0  0
  156.2820  139.9015  160.6210 H   0  0  0  0  0  0  0  0  0  0  0  0
  154.1165  138.7568  160.2628 H   0  0  0  0  0  0  0  0  0  0  0  0
  154.9720  138.9564  158.7493 H   0  0  0  0  0  0  0  0  0  0  0  0
  153.6168  140.8777  158.3030 H   0  0  0  0  0  0  0  0  0  0  0  0
  1  2  1  0  0  0  0
  1 20  1  0  0  0  0
  1 21  1  0  0  0  0
  1 22  1  0  0  0  0
  2  3  1  0  0  0  0
  2 14  1  0  0  0  0
  2 23  1  0  0  0  0
  3  4  1  0  0  0  0
  3 24  1  0  0  0  0
  3 25  1  0  0  0  0
  4  5  1  0  0  0  0
  4 26  1  0  0  0  0
  5  6  2  0  0  0  0
  5  7  1  0  0  0  0
  7  8  1  0  0  0  0
  7  9  1  0  0  0  0
  7 27  1  0  0  0  0
  8 28  1  0  0  0  0
  8 29  1  0  0  0  0
  8 30  1  0  0  0  0
  9 13  1  0  0  0  0
  9 10  1  0  0  0  0
 10 11  2  0  0  0  0
 10 31  1  0  0  0  0
 11 12  1  0  0  0  0
 12 13  2  0  0  0  0
 12 32  1  0  0  0  0
 14 19  1  0  0  0  0
 14 15  1  0  0  0  0
 14 41  1  0  0  0  0
 15 16  1  0  0  0  0
 15 33  1  0  0  0  0
 15 34  1  0  0  0  0
 16 17  1  0  0  0  0
 16 35  1  0  0  0  0
 16 36  1  0  0  0  0
 17 18  1  0  0  0  0
 18 19  1  0  0  0  0
 18 37  1  0  0  0  0
 18 38  1  0  0  0  0
 19 39  1  0  0  0  0
 19 40  1  0  0  0  0
M  CHG  1  14   1
M  END
> <s_m_source_file>
AV-unprocessed.smi

> <i_m_source_file_index>
3349

> <i_lp_mmshare_version>
43012

> <i_f3d_flags>
0

> <s_epik_input>
W0NIMl0xW0NIMl1PW0NIMl1bQ0gyXU4xW0NASF0oW0NIM10pW0NIMl1bTkhdQyg9TylbQ0BIXShbQ0gzXSluMltjSF1uW2NIXW4y

> <s_epik_cmdline>
J2VwaWtfcHl0aG9uJywgJy1waCcsICc3LjAnLCAnLXRuJywgJzgnLCAnLW1hJywgJzIwMCcsICctbWV0YWxfYmluZGluZycsICctaW1hZScsICc8aW5maWxlLm1hZT4nLCAnLW9tYWUnLCAnPG91dGZpbGUubWFlPic=

> <r_lp_tautomer_probability>
1

> <r_epik_Ionization_Penalty>
0.71326

> <r_epik_Ionization_Penalty_Charging>
0.713252

> <r_epik_Ionization_Penalty_Neutral>
8.10337e-06

> <r_epik_State_Penalty>
0.737017

> <r_epik_Charging_Adjusted_Penalty>
1.45027

> <i_epik_Tot_Q>
1

> <i_epik_Tot_abs_Q>
1

> <r_epik_Metal_State_Penalty>
0.73702

> <b_epik_Metal_Only>
0

> <s_lp_Force_Field>
OPLS_2005

> <r_lp_Energy>
26.9228

> <b_lp_Chiralities_Consistent>
1

> <s_lp_Variant>
AV-unprocessed.smi:3349-8

> <Gold.Version>
5.8.1

> <Gold.Id.Protein>
6NUR|6NUR_protein|mol2

> <Gold.PLP.Fitness>
34.4449

> <Gold.PLP.PLP>
-29.4350

> <Gold.PLP.part.hbond>
-2.0000

> <Gold.PLP.part.metal>
0.0000

> <Gold.PLP.part.buried>
-3.9626

> <Gold.PLP.part.nonpolar>
-24.5275

> <Gold.PLP.part.repulsive>
0.4781

> <Gold.PLP.ligand.clash>
0.0000

> <Gold.PLP.ligand.torsion>
0.4686

> <Gold.PLP.Chemscore.Hbond>
0.9440

> <Gold.PLP.Chemscore.CHOScore>
0.9973

> <Gold.PLP.Chemscore.Metal>
0.0000

> <Gold.Chemscore.Hbonds>
donor molecule, donor type, donor heavy atom, donor atom, acceptor molecule, acceptor atom, score
      P1  H  7989  7998       L1     6  0.94
      L1  C    10    31       P1  7948  0.99

> <Gold.PLP.Chemscore.Internal.Correction>
0.1233

> <Gold.Rescore>
     Score         DG    S(hbond)    S(metal)    S(lipo)     H(rot)  DE(clash)    DE(int)     intcor
      6.68      -8.44       0.97        0.00      55.32       2.63       0.13       1.63       ----

> <Gold.Chemscore.Fitness>
6.6806

> <Gold.Chemscore.DG>
-8.4444

> <Gold.Chemscore.ZeroCoef>
-5.4800

> <Gold.Chemscore.Hbond>
0.9678

> <Gold.Chemscore.Metal>
0.0000

> <Gold.Chemscore.Lipo>
55.3192

> <Gold.Chemscore.Internal_Hbond>
0.0000

> <Gold.Chemscore.DEClash>
0.1321

> <Gold.Chemscore.DEInternal>
1.6316

> <Gold.Chemscore.Rot>
2.6329

> <Gold.Chemscore.Internal.Correction>
   9.000000E+99

> <Gold.Chemscore.Hbonds>
donor molecule, donor type, donor heavy atom, donor atom, acceptor molecule, acceptor atom, score
      P1  H  7989  7998       L1     6  0.63

> <Gold.Chemscore.Hbond.Weighted>
-3.2323

> <Gold.Chemscore.Metal.Weighted>
-0.0000

> <Gold.Chemscore.Lipo.Weighted>
-6.4724

> <Gold.Chemscore.Internal_Hbond.Weighted>
0.0000

> <Gold.Chemscore.DEClash.Weighted>
0.1321

> <Gold.Chemscore.DEInternal.Weighted>
1.6316

> <Gold.Chemscore.Rot.Weighted>
6.7403

> <Gold.Chemscore.Internal.Correction.Weighted>
   9.000000E+99

> <Gold.Protein.RotatedTorsions>
[ 6907 6896 6895 6894 ] final  113.25 input  -60.11 | X-H torsion
[ 7974 7965 7964 7962 ] final   12.17 input  175.53 | X-H torsion
[ 8008 7997 7996 7995 ] final -123.76 input   59.86 | X-H torsion
[ 10167 10162 10161 10158 ] final -100.93 input  -65.29 | X-H torsion
[ 10718 10713 10712 10709 ] final   94.69 input   66.30 | X-H torsion
[ 10763 10752 10751 10750 ] final -145.01 input  -60.55 | X-H torsion
[ 11005 11000 10999 10996 ] final  -36.38 input  -57.11 | X-H torsion

> <Gold.Protein.ActiveResidues>
 VAL166  LYS551  ARG553  GLY616  TRP617  ASP618  TYR619  PRO620  LYS621  CYS622 
 ASP623  PHE694  ASN695  SER759  ASP760  ASP761  ALA762  ILE779  LEU786  VAL792 
 PHE793  MET794  SER795  GLU796  ALA797  LYS798  CYS799  TRP800  GLU811  SER814 

> <Gold.Protein.RotatedAtoms>
  152.4871  133.8402  159.7148 H   0  0  0  0  0  0  0  0  0  0  0  0  # atno 6907 bound_to 6896
  150.8968  133.7162  159.2896 H   0  0  0  0  0  0  0  0  0  0  0  0  # atno 6908 bound_to 6896
  151.4616  135.1042  159.9779 H   0  0  0  0  0  0  0  0  0  0  0  0  # atno 6909 bound_to 6896
  146.2357  139.9377  142.8487 H   0  0  0  0  0  0  0  0  0  0  0  0  # atno 7974 bound_to 7965
  155.1859  140.0412  157.2891 H   0  0  0  0  0  0  0  0  0  0  0  0  # atno 8008 bound_to 7997
  154.6172  140.2491  155.7567 H   0  0  0  0  0  0  0  0  0  0  0  0  # atno 8009 bound_to 7997
  156.2413  140.2902  156.0462 H   0  0  0  0  0  0  0  0  0  0  0  0  # atno 8010 bound_to 7997
  140.2467  143.3501  152.0752 H   0  0  0  0  0  0  0  0  0  0  0  0  # atno 10167 bound_to 10162
  157.6946  131.0521  150.4225 H   0  0  0  0  0  0  0  0  0  0  0  0  # atno 10718 bound_to 10713
  154.8403  135.3425  154.6437 H   0  0  0  0  0  0  0  0  0  0  0  0  # atno 10763 bound_to 10752
  153.7048  135.6967  153.5058 H   0  0  0  0  0  0  0  0  0  0  0  0  # atno 10764 bound_to 10752
  153.2495  135.4358  155.0737 H   0  0  0  0  0  0  0  0  0  0  0  0  # atno 10765 bound_to 10752
  140.9870  133.7025  156.1782 H   0  0  0  0  0  0  0  0  0  0  0  0  # atno 11005 bound_to 11000
  145.1983  140.9843  143.4170 LP  0  0  0  0  0  0  0  0  0  0  0  0  # atno 17320 bound_to 7965
  144.9796  139.3797  143.6268 LP  0  0  0  0  0  0  0  0  0  0  0  0  # atno 17321 bound_to 7965
  139.5059  144.6804  151.6022 LP  0  0  0  0  0  0  0  0  0  0  0  0  # atno 17342 bound_to 10162
  140.6072  143.9502  150.6427 LP  0  0  0  0  0  0  0  0  0  0  0  0  # atno 17343 bound_to 10162
  156.4599  130.4029  149.6583 LP  0  0  0  0  0  0  0  0  0  0  0  0  # atno 17370 bound_to 10713
  156.3702  130.7526  151.2508 LP  0  0  0  0  0  0  0  0  0  0  0  0  # atno 17371 bound_to 10713
  140.7099  134.4473  157.5582 LP  0  0  0  0  0  0  0  0  0  0  0  0  # atno 17394 bound_to 11000
  139.8975  134.8635  156.2042 LP  0  0  0  0  0  0  0  0  0  0  0  0  # atno 17395 bound_to 11000

$$$$
