AV-unprocessed.smi:2323|AV-procd|sdf|9289|dock8
  -GOLD-   2272012513D 1   1.00000     0.00000
 Structure written by MMmdl.
 30 31  0  0  0  0  0  0  0  0  1 V2000
  148.3358  141.7001  154.1752 C   0  0  0  0  0  0  0  0  0  0  0  0
  149.1179  141.3867  155.3610 N   0  0  0  0  0  0  0  0  0  0  0  0
  149.9398  140.3314  155.4670 C   0  0  0  0  0  0  0  0  0  0  0  0
  150.0964  139.5013  154.5710 O   0  0  0  0  0  0  0  0  0  0  0  0
  150.6264  140.1729  156.7935 C   0  0  0  0  0  0  0  0  0  0  0  0
  151.3070  138.9764  157.1071 C   0  0  0  0  0  0  0  0  0  0  0  0
  151.9572  138.8747  158.3516 C   0  0  0  0  0  0  0  0  0  0  0  0
  151.9703  139.8681  159.2640 N   0  0  0  0  0  0  0  0  0  0  0  0
  151.3274  141.0235  158.9641 C   0  0  0  0  0  0  0  0  0  0  0  0
  151.3366  142.0552  159.8819 O   0  0  0  0  0  0  0  0  0  0  0  0
  152.5310  142.8154  160.0773 C   0  0  2  0  0  0  0  0  0  0  0  0
  152.3039  143.9460  161.0732 C   0  0  0  0  0  0  0  0  0  0  0  0
  151.8155  145.0777  160.1815 C   0  0  0  0  0  0  0  0  0  0  0  0
  152.6360  144.9488  159.0333 O   0  0  0  0  0  0  0  0  0  0  0  0
  152.8367  143.5633  158.7704 C   0  0  0  0  0  0  0  0  0  0  0  0
  150.6489  141.2197  157.7441 C   0  0  0  0  0  0  0  0  0  0  0  0
  147.7387  142.5951  154.3495 H   0  0  0  0  0  0  0  0  0  0  0  0
  147.6588  140.8814  153.9282 H   0  0  0  0  0  0  0  0  0  0  0  0
  148.9864  141.8851  153.3196 H   0  0  0  0  0  0  0  0  0  0  0  0
  149.0306  142.0076  156.1526 H   0  0  0  0  0  0  0  0  0  0  0  0
  151.3324  138.1483  156.4134 H   0  0  0  0  0  0  0  0  0  0  0  0
  152.4830  137.9706  158.6209 H   0  0  0  0  0  0  0  0  0  0  0  0
  153.3731  142.1790  160.3547 H   0  0  0  0  0  0  0  0  0  0  0  0
  151.6020  143.7013  161.8707 H   0  0  0  0  0  0  0  0  0  0  0  0
  153.2517  144.2272  161.5341 H   0  0  0  0  0  0  0  0  0  0  0  0
  150.7699  144.9335  159.9042 H   0  0  0  0  0  0  0  0  0  0  0  0
  151.9204  146.0588  160.6451 H   0  0  0  0  0  0  0  0  0  0  0  0
  153.8656  143.4031  158.4464 H   0  0  0  0  0  0  0  0  0  0  0  0
  152.1798  143.2409  157.9612 H   0  0  0  0  0  0  0  0  0  0  0  0
  150.1617  142.1644  157.5512 H   0  0  0  0  0  0  0  0  0  0  0  0
  1  2  1  0  0  0  0
  1 17  1  0  0  0  0
  1 18  1  0  0  0  0
  1 19  1  0  0  0  0
  2  3  1  0  0  0  0
  2 20  1  0  0  0  0
  3  4  2  0  0  0  0
  3  5  1  0  0  0  0
  5 16  1  0  0  0  0
  5  6  2  0  0  0  0
  6  7  1  0  0  0  0
  6 21  1  0  0  0  0
  7  8  2  0  0  0  0
  7 22  1  0  0  0  0
  8  9  1  0  0  0  0
  9 10  1  0  0  0  0
  9 16  2  0  0  0  0
 10 11  1  0  0  0  0
 11 15  1  0  0  0  0
 11 12  1  0  0  0  0
 11 23  1  0  0  0  0
 12 13  1  0  0  0  0
 12 24  1  0  0  0  0
 12 25  1  0  0  0  0
 13 14  1  0  0  0  0
 13 26  1  0  0  0  0
 13 27  1  0  0  0  0
 14 15  1  0  0  0  0
 15 28  1  0  0  0  0
 15 29  1  0  0  0  0
 16 30  1  0  0  0  0
M  END
> <s_m_source_file>
AV-unprocessed.smi

> <i_m_source_file_index>
2323

> <i_lp_mmshare_version>
43012

> <i_f3d_flags>
0

> <s_epik_input>
W0NIM11bTkhdQyg9TyljMVtjSF1bY0hdbmMoW2NIXTEpT1tDQEBIXTJbQ0gyXVtDSDJdT1tDSDJdMg==

> <s_epik_cmdline>
J2VwaWtfcHl0aG9uJywgJy1waCcsICc3LjAnLCAnLXRuJywgJzgnLCAnLW1hJywgJzIwMCcsICctbWV0YWxfYmluZGluZycsICctaW1hZScsICc8aW5maWxlLm1hZT4nLCAnLW9tYWUnLCAnPG91dGZpbGUubWFlPic=

> <r_lp_tautomer_probability>
1

> <r_epik_Ionization_Penalty>
2.2633e-06

> <r_epik_Ionization_Penalty_Charging>
0

> <r_epik_Ionization_Penalty_Neutral>
2.2633e-06

> <r_epik_State_Penalty>
-0

> <r_epik_Charging_Adjusted_Penalty>
0

> <i_epik_Tot_Q>
0

> <i_epik_Tot_abs_Q>
0

> <r_epik_Metal_State_Penalty>
-0

> <b_epik_Metal_Only>
0

> <s_lp_Force_Field>
OPLS_2005

> <r_lp_Energy>
16.8838

> <b_lp_Chiralities_Consistent>
1

> <s_lp_Variant>
AV-unprocessed.smi:2323-1

> <Gold.Version>
5.8.1

> <Gold.Id.Protein>
6NUR|6NUR_protein|mol2

> <Gold.PLP.Fitness>
37.3644

> <Gold.PLP.PLP>
-34.8092

> <Gold.PLP.part.hbond>
-1.8057

> <Gold.PLP.part.metal>
0.0000

> <Gold.PLP.part.buried>
-5.1678

> <Gold.PLP.part.nonpolar>
-28.4303

> <Gold.PLP.part.repulsive>
0.3261

> <Gold.PLP.ligand.clash>
0.0000

> <Gold.PLP.ligand.torsion>
0.2317

> <Gold.PLP.Chemscore.Hbond>
1.0000

> <Gold.PLP.Chemscore.CHOScore>
0.0000

> <Gold.PLP.Chemscore.Metal>
0.0000

> <Gold.Chemscore.Hbonds>
donor molecule, donor type, donor heavy atom, donor atom, acceptor molecule, acceptor atom, score
      P1  H  7989  7998       L1     4  0.18

> <Gold.PLP.Chemscore.Internal.Correction>
0.0185

> <Gold.Rescore>
     Score         DG    S(hbond)    S(metal)    S(lipo)     H(rot)  DE(clash)    DE(int)     intcor
     14.10     -14.47       0.97        0.00      76.43       1.24       0.12       0.25       ----

> <Gold.Chemscore.Fitness>
14.0956

> <Gold.Chemscore.DG>
-14.4651

> <Gold.Chemscore.ZeroCoef>
-5.4800

> <Gold.Chemscore.Hbond>
0.9668

> <Gold.Chemscore.Metal>
0.0000

> <Gold.Chemscore.Lipo>
76.4328

> <Gold.Chemscore.Internal_Hbond>
0.0000

> <Gold.Chemscore.DEClash>
0.1193

> <Gold.Chemscore.DEInternal>
0.2503

> <Gold.Chemscore.Rot>
1.2448

> <Gold.Chemscore.Internal.Correction>
   9.000000E+99

> <Gold.Chemscore.Hbonds>
donor molecule, donor type, donor heavy atom, donor atom, acceptor molecule, acceptor atom, score
      P1  H  7989  7998       L1     4  0.01

> <Gold.Chemscore.Hbond.Weighted>
-3.2291

> <Gold.Chemscore.Metal.Weighted>
-0.0000

> <Gold.Chemscore.Lipo.Weighted>
-8.9426

> <Gold.Chemscore.Internal_Hbond.Weighted>
0.0000

> <Gold.Chemscore.DEClash.Weighted>
0.1193

> <Gold.Chemscore.DEInternal.Weighted>
0.2503

> <Gold.Chemscore.Rot.Weighted>
3.1866

> <Gold.Chemscore.Internal.Correction.Weighted>
   9.000000E+99

> <Gold.Protein.RotatedTorsions>
[ 6907 6896 6895 6894 ] final  -31.86 input  -60.11 | X-H torsion
[ 7974 7965 7964 7962 ] final  167.39 input  175.53 | X-H torsion
[ 8008 7997 7996 7995 ] final   98.64 input   59.86 | X-H torsion
[ 10167 10162 10161 10158 ] final  130.50 input  -65.29 | X-H torsion
[ 10718 10713 10712 10709 ] final  -50.31 input   66.30 | X-H torsion
[ 10763 10752 10751 10750 ] final   54.87 input  -60.55 | X-H torsion
[ 11005 11000 10999 10996 ] final   10.55 input  -57.11 | X-H torsion

> <Gold.Protein.ActiveResidues>
 VAL166  LYS551  ARG553  GLY616  TRP617  ASP618  TYR619  PRO620  LYS621  CYS622 
 ASP623  PHE694  ASN695  SER759  ASP760  ASP761  ALA762  ILE779  LEU786  VAL792 
 PHE793  MET794  SER795  GLU796  ALA797  LYS798  CYS799  TRP800  GLU811  SER814 

> <Gold.Protein.RotatedAtoms>
  151.0864  134.9890  159.8381 H   0  0  0  0  0  0  0  0  0  0  0  0  # atno 6907 bound_to 6896
  152.5425  134.2119  159.8763 H   0  0  0  0  0  0  0  0  0  0  0  0  # atno 6908 bound_to 6896
  151.2152  133.4489  159.2632 H   0  0  0  0  0  0  0  0  0  0  0  0  # atno 6909 bound_to 6896
  144.7426  139.8753  143.6392 H   0  0  0  0  0  0  0  0  0  0  0  0  # atno 7974 bound_to 7965
  156.1024  140.3241  155.7960 H   0  0  0  0  0  0  0  0  0  0  0  0  # atno 8008 bound_to 7997
  155.4813  140.0554  157.2984 H   0  0  0  0  0  0  0  0  0  0  0  0  # atno 8009 bound_to 7997
  154.4706  140.2009  156.0020 H   0  0  0  0  0  0  0  0  0  0  0  0  # atno 8010 bound_to 7997
  139.5427  144.6745  151.4572 H   0  0  0  0  0  0  0  0  0  0  0  0  # atno 10167 bound_to 10162
  156.1813  130.4150  149.9503 H   0  0  0  0  0  0  0  0  0  0  0  0  # atno 10718 bound_to 10713
  152.9810  135.5730  154.4975 H   0  0  0  0  0  0  0  0  0  0  0  0  # atno 10763 bound_to 10752
  154.4500  135.2778  155.1790 H   0  0  0  0  0  0  0  0  0  0  0  0  # atno 10764 bound_to 10752
  154.3422  135.6227  153.5655 H   0  0  0  0  0  0  0  0  0  0  0  0  # atno 10765 bound_to 10752
  140.5132  134.0632  155.7824 H   0  0  0  0  0  0  0  0  0  0  0  0  # atno 11005 bound_to 11000
  146.1250  139.4275  143.0204 LP  0  0  0  0  0  0  0  0  0  0  0  0  # atno 17320 bound_to 7965
  145.7248  141.0063  143.1383 LP  0  0  0  0  0  0  0  0  0  0  0  0  # atno 17321 bound_to 7965
  140.6663  143.8390  150.6946 LP  0  0  0  0  0  0  0  0  0  0  0  0  # atno 17342 bound_to 10162
  140.1800  143.4122  152.1939 LP  0  0  0  0  0  0  0  0  0  0  0  0  # atno 17343 bound_to 10162
  156.7273  130.9030  151.3623 LP  0  0  0  0  0  0  0  0  0  0  0  0  # atno 17370 bound_to 10713
  157.6870  130.9195  150.0411 LP  0  0  0  0  0  0  0  0  0  0  0  0  # atno 17371 bound_to 10713
  141.1374  133.9197  157.2402 LP  0  0  0  0  0  0  0  0  0  0  0  0  # atno 17394 bound_to 11000
  139.9647  135.0145  156.9355 LP  0  0  0  0  0  0  0  0  0  0  0  0  # atno 17395 bound_to 11000

$$$$
