#       Name:                AV-unprocessed.smi:3231
#       Creating user name   scv26
#       Creation time:       Fri Mar 27 18:19:32 2020


#       File generated by GOLD software.
#

@<TRIPOS>MOLECULE
AV-unprocessed.smi:3231
    47    48     1
SMALL
NO_CHARGES


@<TRIPOS>ATOM
      1 ****        -1.2397  -2.9791   1.0480 O.3            1 S1                 0.0000
      2 ****        -0.6418  -1.9442   0.2948 C.3            1 S1                 0.0000
      3 ****         0.8703  -2.2213   0.2568 C.3            1 S1                 0.0000
      4 ****         1.5517  -1.3228  -0.6695 N.3            1 S1                 0.0000
      5 ****         2.9940  -1.5403  -0.7393 C.3            1 S1                 0.0000
      6 ****         3.6650  -0.5625  -1.7171 C.3            1 S1                 0.0000
      7 ****         3.5952   0.8124  -1.2562 N.pl3          1 S1                 0.0000
      8 ****         2.7550   1.8186  -1.6846 C.2            1 S1                 0.0000
      9 ****         3.0541   2.9347  -0.9570 C.2            1 S1                 0.0000
     10 ****         4.1049   2.5066  -0.0984 C.2            1 S1                 0.0000
     11 ****         4.4276   1.2363  -0.2807 N.2            1 S1                 0.0000
     12 ****        -0.9726  -0.5984   0.9779 C.3            1 S1                 0.0000
     13 ****        -2.3791  -0.1945   0.9372 N.3            1 S1                 0.0000
     14 ****        -2.6160   0.9492   1.8120 C.3            1 S1                 0.0000
     15 ****        -4.0881   1.3951   1.7925 C.3            1 S1                 0.0000
     16 ****        -4.4755   1.6973   0.4564 O.3            1 S1                 0.0000
     17 ****        -4.3041   0.5932  -0.4259 C.3            1 S1                 0.0000
     18 ****        -2.8335   0.1404  -0.4114 C.3            1 S1                 0.0000
     19 ****        -0.9289  -2.9193   1.9383 H              1 S1                 0.0000
     20 ****        -1.0330  -1.9895  -0.7210 H              1 S1                 0.0000
     21 ****         1.2933  -2.1250   1.2576 H              1 S1                 0.0000
     22 ****         1.0396  -3.2530  -0.0546 H              1 S1                 0.0000
     23 ****         1.1453  -1.4137  -1.5952 H              1 S1                 0.0000
     24 ****         3.4400  -1.4377   0.2508 H              1 S1                 0.0000
     25 ****         3.1946  -2.5614  -1.0650 H              1 S1                 0.0000
     26 ****         4.7153  -0.8279  -1.8440 H              1 S1                 0.0000
     27 ****         3.2055  -0.6285  -2.7043 H              1 S1                 0.0000
     28 ****         2.0214   1.6569  -2.4603 H              1 S1                 0.0000
     29 ****         2.5924   3.9084  -1.0268 H              1 S1                 0.0000
     30 ****         4.6393   3.0774   0.6467 H              1 S1                 0.0000
     31 ****        -0.6463  -0.6597   2.0172 H              1 S1                 0.0000
     32 ****        -0.3688   0.1920   0.5294 H              1 S1                 0.0000
     33 ****        -2.3313   0.6981   2.8344 H              1 S1                 0.0000
     34 ****        -1.9829   1.7846   1.5086 H              1 S1                 0.0000
     35 ****        -4.7339   0.6152   2.1991 H              1 S1                 0.0000
     36 ****        -4.2249   2.2811   2.4124 H              1 S1                 0.0000
     37 ****        -4.9622  -0.2244  -0.1277 H              1 S1                 0.0000
     38 ****        -4.5993   0.8915  -1.4319 H              1 S1                 0.0000
     39 ****        -2.2085   0.9323  -0.8272 H              1 S1                 0.0000
     40 ****        -2.7322  -0.7184  -1.0731 H              1 S1                 0.0000
     41 ****        -0.9880  -3.8664   0.6616 LP             1 S1                 0.0000
     42 ****        -2.2345  -2.8779   1.0303 LP             1 S1                 0.0000
     43 ****         1.4211  -0.3962  -0.3169 LP             1 S1                 0.0000
     44 ****         5.1301   0.7086   0.1967 LP             1 S1                 0.0000
     45 ****        -2.9026  -0.9855   1.2541 LP             1 S1                 0.0000
     46 ****        -3.9197   2.4603   0.1265 LP             1 S1                 0.0000
     47 ****        -5.4398   1.9622   0.4546 LP             1 S1                 0.0000
@<TRIPOS>BOND
    1    1    2 1     
    2    1   19 1     
    3    2    3 1     
    4    2   12 1     
    5    2   20 1     
    6    3    4 1     
    7    3   21 1     
    8    3   22 1     
    9    4    5 1     
   10    4   23 1     
   11    5    6 1     
   12    5   24 1     
   13    5   25 1     
   14    6    7 1     
   15    6   26 1     
   16    6   27 1     
   17    7   11 1     
   18    7    8 1     
   19    8    9 2     
   20    8   28 1     
   21    9   10 1     
   22    9   29 1     
   23   10   11 2     
   24   10   30 1     
   25   12   13 1     
   26   12   31 1     
   27   12   32 1     
   28   13   18 1     
   29   13   14 1     
   30   14   15 1     
   31   14   33 1     
   32   14   34 1     
   33   15   16 1     
   34   15   35 1     
   35   15   36 1     
   36   16   17 1     
   37   17   18 1     
   38   17   37 1     
   39   17   38 1     
   40   18   39 1     
   41   18   40 1     
   42    1   41 1     
   43    1   42 1     
   44    4   43 1     
   45   11   44 1     
   46   13   45 1     
   47   16   46 1     
   48   16   47 1     
@<TRIPOS>SUBSTRUCTURE
      1 S1             1
@<TRIPOS>SET
LONE_PAIRS      STATIC     ATOMS    <user>   **** ""
7 41 42 43 44 45 46 47
DONOR_HYDROGENS      STATIC     ATOMS    <user>   **** ""
2 19 23
ATOM$BLUE        STATIC     ATOMS    COLORGROUP SYSTEM
7 41 42 43 44 45 46 47
ATOM$RED        STATIC     ATOMS    COLORGROUP SYSTEM
2 19 23
