AV-unprocessed.smi:1732|AV-procd|sdf|6976|dock9
  -GOLD-   22720 8193D 1   1.00000     0.00000
 Structure written by MMmdl.
 36 37  0  0  0  0  0  0  0  0  1 V2000
  150.7855  140.3491  158.4848 O   0  0  0  0  0  0  0  0  0  0  0  0
  151.8862  140.2351  157.9472 C   0  0  0  0  0  0  0  0  0  0  0  0
  153.1457  140.5587  158.7486 C   0  0  0  0  0  0  0  0  0  0  0  0
  152.7724  140.8543  160.0869 O   0  0  0  0  0  0  0  0  0  0  0  0
  153.0317  142.1953  160.4730 C   0  0  0  0  0  0  0  0  0  0  0  0
  152.6295  142.4141  161.9297 C   0  0  0  0  0  0  0  0  0  0  0  0
  152.4638  143.9298  162.0485 C   0  0  0  0  0  0  0  0  0  0  0  0
  152.0172  144.4121  160.6599 C   0  0  0  0  0  0  0  0  0  0  0  0
  152.1787  143.2159  159.7106 C   0  0  0  0  0  0  0  0  0  0  0  0
  152.0993  139.8106  156.6857 N   0  0  0  0  0  0  0  0  0  0  0  0
  151.1714  139.4716  155.6870 C   0  0  0  0  0  0  0  0  0  0  0  0
  149.9692  140.0781  155.5051 C   0  0  0  0  0  0  0  0  0  0  0  0
  149.0643  139.6915  154.4356 C   0  0  0  0  0  0  0  0  0  0  0  0
  147.6880  140.3223  154.2912 C   0  0  0  0  0  0  0  0  0  0  0  0
  147.0653  139.8819  153.1971 F   0  0  0  0  0  0  0  0  0  0  0  0
  146.9230  140.0469  155.3477 F   0  0  0  0  0  0  0  0  0  0  0  0
  147.8046  141.6463  154.1979 F   0  0  0  0  0  0  0  0  0  0  0  0
  149.4754  138.6923  153.6331 C   0  0  0  0  0  0  0  0  0  0  0  0
  150.7189  138.0787  153.7998 N   0  0  0  0  0  0  0  0  0  0  0  0
  151.6001  138.3994  154.7734 C   0  0  0  0  0  0  0  0  0  0  0  0
  152.6770  137.8093  154.8550 O   0  0  0  0  0  0  0  0  0  0  0  0
  150.9611  137.3476  153.1468 H   0  0  0  0  0  0  0  0  0  0  0  0
  153.8298  139.7088  158.7256 H   0  0  0  0  0  0  0  0  0  0  0  0
  153.6500  141.4071  158.2846 H   0  0  0  0  0  0  0  0  0  0  0  0
  154.0917  142.4320  160.3618 H   0  0  0  0  0  0  0  0  0  0  0  0
  151.6739  141.9264  162.1279 H   0  0  0  0  0  0  0  0  0  0  0  0
  153.3599  142.0127  162.6330 H   0  0  0  0  0  0  0  0  0  0  0  0
  151.7570  144.2047  162.8321 H   0  0  0  0  0  0  0  0  0  0  0  0
  153.4237  144.3829  162.2996 H   0  0  0  0  0  0  0  0  0  0  0  0
  150.9810  144.7515  160.6734 H   0  0  0  0  0  0  0  0  0  0  0  0
  152.6307  145.2538  160.3370 H   0  0  0  0  0  0  0  0  0  0  0  0
  152.6222  143.4995  158.7558 H   0  0  0  0  0  0  0  0  0  0  0  0
  151.1968  142.7887  159.5018 H   0  0  0  0  0  0  0  0  0  0  0  0
  153.0660  139.6983  156.4149 H   0  0  0  0  0  0  0  0  0  0  0  0
  149.6555  140.8910  156.1395 H   0  0  0  0  0  0  0  0  0  0  0  0
  148.8933  138.2879  152.8181 H   0  0  0  0  0  0  0  0  0  0  0  0
  1  2  2  0  0  0  0
  2  3  1  0  0  0  0
  2 10  1  0  0  0  0
  3  4  1  0  0  0  0
  3 23  1  0  0  0  0
  3 24  1  0  0  0  0
  4  5  1  0  0  0  0
  5  9  1  0  0  0  0
  5  6  1  0  0  0  0
  5 25  1  0  0  0  0
  6  7  1  0  0  0  0
  6 26  1  0  0  0  0
  6 27  1  0  0  0  0
  7  8  1  0  0  0  0
  7 28  1  0  0  0  0
  7 29  1  0  0  0  0
  8  9  1  0  0  0  0
  8 30  1  0  0  0  0
  8 31  1  0  0  0  0
  9 32  1  0  0  0  0
  9 33  1  0  0  0  0
 10 11  1  0  0  0  0
 10 34  1  0  0  0  0
 11 20  1  0  0  0  0
 11 12  2  0  0  0  0
 12 13  1  0  0  0  0
 12 35  1  0  0  0  0
 13 14  1  0  0  0  0
 13 18  2  0  0  0  0
 14 15  1  0  0  0  0
 14 16  1  0  0  0  0
 14 17  1  0  0  0  0
 18 19  1  0  0  0  0
 18 36  1  0  0  0  0
 19 22  1  0  0  0  0
 19 20  1  0  0  0  0
 20 21  2  0  0  0  0
M  END
> <s_m_source_file>
AV-unprocessed.smi

> <i_m_source_file_index>
1732

> <i_lp_mmshare_version>
43012

> <i_f3d_flags>
0

> <s_epik_input>
W0NIMl0xW0NIMl1bQ0gyXVtDSDJdW0NIXTFPW0NIMl1DKD1PKVtOSF1jMltjSF1jKEMoRikoRilGKVtjSF1bbkhdYzI9Tw==

> <s_epik_cmdline>
J2VwaWtfcHl0aG9uJywgJy1waCcsICc3LjAnLCAnLXRuJywgJzgnLCAnLW1hJywgJzIwMCcsICctbWV0YWxfYmluZGluZycsICctaW1hZScsICc8aW5maWxlLm1hZT4nLCAnLW9tYWUnLCAnPG91dGZpbGUubWFlPic=

> <r_lp_tautomer_probability>
0.999

> <r_epik_Ionization_Penalty>
0.0109735

> <r_epik_Ionization_Penalty_Charging>
0.0109734

> <r_epik_Ionization_Penalty_Neutral>
9.17026e-08

> <r_epik_State_Penalty>
0.0084206

> <r_epik_Charging_Adjusted_Penalty>
0.019394

> <i_epik_Tot_Q>
0

> <i_epik_Tot_abs_Q>
0

> <r_epik_Metal_State_Penalty>
0.328349

> <b_epik_Metal_Only>
0

> <s_lp_Force_Field>
OPLS_2005

> <r_lp_Energy>
36.3652

> <b_lp_Chiralities_Consistent>
1

> <s_lp_Variant>
AV-unprocessed.smi:1732-1

> <Gold.Version>
5.8.1

> <Gold.Id.Protein>
6NUR|6NUR_protein|mol2

> <Gold.PLP.Fitness>
46.4201

> <Gold.PLP.PLP>
-41.8147

> <Gold.PLP.part.hbond>
-2.4302

> <Gold.PLP.part.metal>
0.0000

> <Gold.PLP.part.buried>
-0.3154

> <Gold.PLP.part.nonpolar>
-37.9197

> <Gold.PLP.part.repulsive>
0.2763

> <Gold.PLP.ligand.clash>
0.9798

> <Gold.PLP.ligand.torsion>
0.7467

> <Gold.PLP.Chemscore.Hbond>
1.0455

> <Gold.PLP.Chemscore.CHOScore>
1.2910

> <Gold.PLP.Chemscore.Metal>
0.0000

> <Gold.Chemscore.Hbonds>
donor molecule, donor type, donor heavy atom, donor atom, acceptor molecule, acceptor atom, score
      L1  H    19    22       P1  7949  0.70
      P1  H 10752 10764       L1    21  0.24
      L1  C    18    36       P1  7948  1.00
      L1  C    18    36       P1  7957  0.31

> <Gold.PLP.Chemscore.Internal.Correction>
0.0690

> <Gold.Rescore>
     Score         DG    S(hbond)    S(metal)    S(lipo)     H(rot)  DE(clash)    DE(int)     intcor
     12.34     -14.96       0.67        0.00      96.87       1.60       1.78       0.84       ----

> <Gold.Chemscore.Fitness>
12.3371

> <Gold.Chemscore.DG>
-14.9596

> <Gold.Chemscore.ZeroCoef>
-5.4800

> <Gold.Chemscore.Hbond>
0.6720

> <Gold.Chemscore.Metal>
0.0000

> <Gold.Chemscore.Lipo>
96.8669

> <Gold.Chemscore.Internal_Hbond>
0.0000

> <Gold.Chemscore.DEClash>
1.7777

> <Gold.Chemscore.DEInternal>
0.8448

> <Gold.Chemscore.Rot>
1.6009

> <Gold.Chemscore.Internal.Correction>
   9.000000E+99

> <Gold.Chemscore.Hbonds>
donor molecule, donor type, donor heavy atom, donor atom, acceptor molecule, acceptor atom, score
      L1  H    19    22       P1  7949  0.18
      P1  H 10752 10764       L1    21  0.23

> <Gold.Chemscore.Hbond.Weighted>
-2.2444

> <Gold.Chemscore.Metal.Weighted>
-0.0000

> <Gold.Chemscore.Lipo.Weighted>
-11.3334

> <Gold.Chemscore.Internal_Hbond.Weighted>
0.0000

> <Gold.Chemscore.DEClash.Weighted>
1.7777

> <Gold.Chemscore.DEInternal.Weighted>
0.8448

> <Gold.Chemscore.Rot.Weighted>
4.0982

> <Gold.Chemscore.Internal.Correction.Weighted>
   9.000000E+99

> <Gold.Protein.RotatedTorsions>
[ 6907 6896 6895 6894 ] final   32.19 input  -60.11 | X-H torsion
[ 7974 7965 7964 7962 ] final -139.94 input  175.53 | X-H torsion
[ 8008 7997 7996 7995 ] final -118.13 input   59.86 | X-H torsion
[ 10167 10162 10161 10158 ] final  170.68 input  -65.29 | X-H torsion
[ 10718 10713 10712 10709 ] final  170.25 input   66.30 | X-H torsion
[ 10763 10752 10751 10750 ] final  -77.86 input  -60.55 | X-H torsion
[ 11005 11000 10999 10996 ] final -151.30 input  -57.11 | X-H torsion

> <Gold.Protein.ActiveResidues>
 VAL166  LYS551  ARG553  GLY616  TRP617  ASP618  TYR619  PRO620  LYS621  CYS622 
 ASP623  PHE694  ASN695  SER759  ASP760  ASP761  ALA762  ILE779  LEU786  VAL792 
 PHE793  MET794  SER795  GLU796  ALA797  LYS798  CYS799  TRP800  GLU811  SER814 

> <Gold.Protein.RotatedAtoms>
  152.0709  134.9534  160.0574 H   0  0  0  0  0  0  0  0  0  0  0  0  # atno 6907 bound_to 6896
  152.0860  133.4172  159.4531 H   0  0  0  0  0  0  0  0  0  0  0  0  # atno 6908 bound_to 6896
  150.6836  134.2846  159.4685 H   0  0  0  0  0  0  0  0  0  0  0  0  # atno 6909 bound_to 6896
  144.8637  140.6259  143.5312 H   0  0  0  0  0  0  0  0  0  0  0  0  # atno 7974 bound_to 7965
  155.0947  140.0395  157.2679 H   0  0  0  0  0  0  0  0  0  0  0  0  # atno 8008 bound_to 7997
  154.6804  140.2632  155.6889 H   0  0  0  0  0  0  0  0  0  0  0  0  # atno 8009 bound_to 7997
  156.2692  140.2779  156.1347 H   0  0  0  0  0  0  0  0  0  0  0  0  # atno 8010 bound_to 7997
  139.5025  144.3569  151.9865 H   0  0  0  0  0  0  0  0  0  0  0  0  # atno 10167 bound_to 10162
  157.0109  131.0204  151.2803 H   0  0  0  0  0  0  0  0  0  0  0  0  # atno 10718 bound_to 10713
  154.5185  135.5749  153.6661 H   0  0  0  0  0  0  0  0  0  0  0  0  # atno 10763 bound_to 10752
  152.9912  135.6176  154.2786 H   0  0  0  0  0  0  0  0  0  0  0  0  # atno 10764 bound_to 10752
  154.2705  135.2853  155.2720 H   0  0  0  0  0  0  0  0  0  0  0  0  # atno 10765 bound_to 10752
  140.7310  134.3621  157.5166 H   0  0  0  0  0  0  0  0  0  0  0  0  # atno 11005 bound_to 11000
  145.4263  139.1556  143.4047 LP  0  0  0  0  0  0  0  0  0  0  0  0  # atno 17320 bound_to 7965
  146.2880  140.4376  142.8750 LP  0  0  0  0  0  0  0  0  0  0  0  0  # atno 17321 bound_to 7965
  140.3005  144.3651  150.6061 LP  0  0  0  0  0  0  0  0  0  0  0  0  # atno 17342 bound_to 10162
  140.5877  143.2169  151.7312 LP  0  0  0  0  0  0  0  0  0  0  0  0  # atno 17343 bound_to 10162
  157.5321  130.8065  149.7929 LP  0  0  0  0  0  0  0  0  0  0  0  0  # atno 17370 bound_to 10713
  156.0136  130.3823  150.2182 LP  0  0  0  0  0  0  0  0  0  0  0  0  # atno 17371 bound_to 10713
  139.8826  134.9018  156.2819 LP  0  0  0  0  0  0  0  0  0  0  0  0  # atno 17394 bound_to 11000
  140.9921  133.7202  156.0829 LP  0  0  0  0  0  0  0  0  0  0  0  0  # atno 17395 bound_to 11000

$$$$
