AV-unprocessed.smi:1718|AV-procd|sdf|6927|dock10
  -GOLD-   22720 8133D 1   1.00000     0.00000
 Structure written by MMmdl.
 39 40  0  0  0  0  0  0  0  0  2 V2000
  151.2364  138.2853  153.8999 C   0  0  0  0  0  0  0  0  0  0  0  0
  151.1299  137.9783  155.4012 C   0  0  1  0  0  0  0  0  0  0  0  0
  151.5997  136.6475  155.5987 O   0  0  0  0  0  0  0  0  0  0  0  0
  151.3267  136.0852  156.8773 C   0  0  0  0  0  0  0  0  0  0  0  0
  150.1596  135.1005  156.7404 C   0  0  2  0  0  0  0  0  0  0  0  0
  149.0745  135.5456  155.7626 C   0  0  0  0  0  0  0  0  0  0  0  0
  147.8887  134.7425  156.2463 C   0  0  0  0  0  0  0  0  0  0  0  0
  148.0848  134.7602  157.7613 C   0  0  0  0  0  0  0  0  0  0  0  0
  149.4808  134.9509  157.9833 O   0  0  0  0  0  0  0  0  0  0  0  0
  151.9588  138.9675  156.2371 C   0  0  0  0  0  0  0  0  0  0  0  0
  153.1455  139.1447  155.9620 O   0  0  0  0  0  0  0  0  0  0  0  0
  151.2911  139.5800  157.2346 N   0  0  0  0  0  0  0  0  0  0  0  0
  151.7590  140.4883  158.1993 C   0  0  0  0  0  0  0  0  0  0  0  0
  151.6364  141.8420  158.1166 C   0  0  0  0  0  0  0  0  0  0  0  0
  152.1586  142.7370  159.1416 C   0  0  0  0  0  0  0  0  0  0  0  0
  151.9531  144.2415  159.1313 C   0  0  0  0  0  0  0  0  0  0  0  0
  152.3892  144.7926  160.2641 F   0  0  0  0  0  0  0  0  0  0  0  0
  152.6277  144.7847  158.1191 F   0  0  0  0  0  0  0  0  0  0  0  0
  150.6641  144.5472  158.9836 F   0  0  0  0  0  0  0  0  0  0  0  0
  152.7658  142.0515  160.1758 C   0  0  0  0  0  0  0  0  0  0  0  0
  152.9534  140.7214  160.3203 N   0  5  0  0  0  0  0  0  0  0  0  0
  152.4629  139.8941  159.3547 C   0  0  0  0  0  0  0  0  0  0  0  0
  152.5948  138.6717  159.4256 O   0  0  0  0  0  0  0  0  0  0  0  0
  150.9022  139.2994  153.6781 H   0  0  0  0  0  0  0  0  0  0  0  0
  150.6155  137.6007  153.3217 H   0  0  0  0  0  0  0  0  0  0  0  0
  152.2608  138.1823  153.5399 H   0  0  0  0  0  0  0  0  0  0  0  0
  150.0779  138.0371  155.6876 H   0  0  0  0  0  0  0  0  0  0  0  0
  152.1999  135.5553  157.2591 H   0  0  0  0  0  0  0  0  0  0  0  0
  151.0801  136.8685  157.5956 H   0  0  0  0  0  0  0  0  0  0  0  0
  150.5333  134.1178  156.4481 H   0  0  0  0  0  0  0  0  0  0  0  0
  148.8722  136.6126  155.8688 H   0  0  0  0  0  0  0  0  0  0  0  0
  149.3318  135.3467  154.7219 H   0  0  0  0  0  0  0  0  0  0  0  0
  146.9305  135.1591  155.9348 H   0  0  0  0  0  0  0  0  0  0  0  0
  147.9547  133.7203  155.8713 H   0  0  0  0  0  0  0  0  0  0  0  0
  147.5460  135.5959  158.2088 H   0  0  0  0  0  0  0  0  0  0  0  0
  147.7323  133.8412  158.2302 H   0  0  0  0  0  0  0  0  0  0  0  0
  150.3012  139.3885  157.2924 H   0  0  0  0  0  0  0  0  0  0  0  0
  151.1620  142.3041  157.2669 H   0  0  0  0  0  0  0  0  0  0  0  0
  153.1565  142.6646  161.0160 H   0  0  0  0  0  0  0  0  0  0  0  0
  1  2  1  0  0  0  0
  1 24  1  0  0  0  0
  1 25  1  0  0  0  0
  1 26  1  0  0  0  0
  2  3  1  0  0  0  0
  2 10  1  0  0  0  0
  2 27  1  0  0  0  0
  3  4  1  0  0  0  0
  4  5  1  0  0  0  0
  4 28  1  0  0  0  0
  4 29  1  0  0  0  0
  5  9  1  0  0  0  0
  5  6  1  0  0  0  0
  5 30  1  0  0  0  0
  6  7  1  0  0  0  0
  6 31  1  0  0  0  0
  6 32  1  0  0  0  0
  7  8  1  0  0  0  0
  7 33  1  0  0  0  0
  7 34  1  0  0  0  0
  8  9  1  0  0  0  0
  8 35  1  0  0  0  0
  8 36  1  0  0  0  0
 10 11  2  0  0  0  0
 10 12  1  0  0  0  0
 12 13  1  0  0  0  0
 12 37  1  0  0  0  0
 13 22  1  0  0  0  0
 13 14  2  0  0  0  0
 14 15  1  0  0  0  0
 14 38  1  0  0  0  0
 15 16  1  0  0  0  0
 15 20  2  0  0  0  0
 16 17  1  0  0  0  0
 16 18  1  0  0  0  0
 16 19  1  0  0  0  0
 20 21  1  0  0  0  0
 20 39  1  0  0  0  0
 21 22  1  0  0  0  0
 22 23  2  0  0  0  0
M  CHG  1  21  -1
M  END
> <s_m_source_file>
AV-unprocessed.smi

> <i_m_source_file_index>
1718

> <i_lp_mmshare_version>
43012

> <i_f3d_flags>
0

> <s_epik_input>
TzFbQ0gyXVtDSDJdW0NIMl1bQ0BIXTFbQ0gyXU9bQ0BASF0oW0NIM10pQyg9TylbTkhdYzJbY0hdYyhDKEYpKEYpRilbY0hdW25IXWMyPU8=

> <s_epik_cmdline>
J2VwaWtfcHl0aG9uJywgJy1waCcsICc3LjAnLCAnLXRuJywgJzgnLCAnLW1hJywgJzIwMCcsICctbWV0YWxfYmluZGluZycsICctaW1hZScsICc8aW5maWxlLm1hZT4nLCAnLW9tYWUnLCAnPG91dGZpbGUubWFlPic=

> <r_epik_Ionization_Penalty>
2.5466

> <r_epik_Ionization_Penalty_Charging>
0.0575837

> <r_epik_Ionization_Penalty_Neutral>
2.48901

> <r_epik_State_Penalty>
2.6532

> <r_epik_Charging_Adjusted_Penalty>
2.71078

> <i_epik_Tot_Q>
-1

> <i_epik_Tot_abs_Q>
1

> <r_epik_Metal_State_Penalty>
0.516196

> <b_epik_Metal_Only>
0

> <s_lp_Force_Field>
OPLS_2005

> <r_lp_Energy>
37.0387

> <b_lp_Chiralities_Consistent>
1

> <s_lp_Variant>
AV-unprocessed.smi:1718-6

> <Gold.Version>
5.8.1

> <Gold.Id.Protein>
6NUR|6NUR_protein|mol2

> <Gold.PLP.Fitness>
46.6002

> <Gold.PLP.PLP>
-40.8232

> <Gold.PLP.part.hbond>
-3.0000

> <Gold.PLP.part.metal>
0.0000

> <Gold.PLP.part.buried>
-8.1494

> <Gold.PLP.part.nonpolar>
-30.5171

> <Gold.PLP.part.repulsive>
0.1141

> <Gold.PLP.ligand.clash>
0.0000

> <Gold.PLP.ligand.torsion>
1.5648

> <Gold.PLP.Chemscore.Hbond>
2.9360

> <Gold.PLP.Chemscore.CHOScore>
0.0000

> <Gold.PLP.Chemscore.Metal>
0.0000

> <Gold.Chemscore.Hbonds>
donor molecule, donor type, donor heavy atom, donor atom, acceptor molecule, acceptor atom, score
      P1  H  6896  6908       L1     9  1.00
      P1  H  7997  8010       L1    11  1.00
      P1  H 10752 10763       L1     3  1.00

> <Gold.PLP.Chemscore.Internal.Correction>
0.0985

> <Gold.Rescore>
     Score         DG    S(hbond)    S(metal)    S(lipo)     H(rot)  DE(clash)    DE(int)     intcor
     17.98     -19.40       2.92        0.00      76.13       1.85       0.02       1.40       ----

> <Gold.Chemscore.Fitness>
17.9764

> <Gold.Chemscore.DG>
-19.4023

> <Gold.Chemscore.ZeroCoef>
-5.4800

> <Gold.Chemscore.Hbond>
2.9159

> <Gold.Chemscore.Metal>
0.0000

> <Gold.Chemscore.Lipo>
76.1346

> <Gold.Chemscore.Internal_Hbond>
0.0000

> <Gold.Chemscore.DEClash>
0.0214

> <Gold.Chemscore.DEInternal>
1.4045

> <Gold.Chemscore.Rot>
1.8455

> <Gold.Chemscore.Internal.Correction>
   9.000000E+99

> <Gold.Chemscore.Hbonds>
donor molecule, donor type, donor heavy atom, donor atom, acceptor molecule, acceptor atom, score
      P1  H  6896  6908       L1     9  0.73
      P1  H  7997  8010       L1    11  0.95
      P1  H 10752 10763       L1     3  0.69

> <Gold.Chemscore.Hbond.Weighted>
-9.7391

> <Gold.Chemscore.Metal.Weighted>
-0.0000

> <Gold.Chemscore.Lipo.Weighted>
-8.9077

> <Gold.Chemscore.Internal_Hbond.Weighted>
0.0000

> <Gold.Chemscore.DEClash.Weighted>
0.0214

> <Gold.Chemscore.DEInternal.Weighted>
1.4045

> <Gold.Chemscore.Rot.Weighted>
4.7245

> <Gold.Chemscore.Internal.Correction.Weighted>
   9.000000E+99

> <Gold.Protein.RotatedTorsions>
[ 6907 6896 6895 6894 ] final  140.69 input  -60.11 | X-H torsion
[ 7974 7965 7964 7962 ] final  174.22 input  175.53 | X-H torsion
[ 8008 7997 7996 7995 ] final   66.07 input   59.86 | X-H torsion
[ 10167 10162 10161 10158 ] final  -95.20 input  -65.29 | X-H torsion
[ 10718 10713 10712 10709 ] final  -23.40 input   66.30 | X-H torsion
[ 10763 10752 10751 10750 ] final   66.25 input  -60.55 | X-H torsion
[ 11005 11000 10999 10996 ] final -102.41 input  -57.11 | X-H torsion

> <Gold.Protein.ActiveResidues>
 VAL166  LYS551  ARG553  GLY616  TRP617  ASP618  TYR619  PRO620  LYS621  CYS622 
 ASP623  PHE694  ASN695  SER759  ASP760  ASP761  ALA762  ILE779  LEU786  VAL792 
 PHE793  MET794  SER795  GLU796  ALA797  LYS798  CYS799  TRP800  GLU811  SER814 

> <Gold.Protein.RotatedAtoms>
  152.2400  133.5128  159.5264 H   0  0  0  0  0  0  0  0  0  0  0  0  # atno 6907 bound_to 6896
  150.7062  134.1101  159.4006 H   0  0  0  0  0  0  0  0  0  0  0  0  # atno 6908 bound_to 6896
  151.9022  135.0373  160.0558 H   0  0  0  0  0  0  0  0  0  0  0  0  # atno 6909 bound_to 6896
  144.7226  139.9765  143.6438 H   0  0  0  0  0  0  0  0  0  0  0  0  # atno 7974 bound_to 7965
  155.6716  140.3497  155.4820 H   0  0  0  0  0  0  0  0  0  0  0  0  # atno 8008 bound_to 7997
  155.9683  140.1151  157.0857 H   0  0  0  0  0  0  0  0  0  0  0  0  # atno 8009 bound_to 7997
  154.4160  140.1162  156.5259 H   0  0  0  0  0  0  0  0  0  0  0  0  # atno 8010 bound_to 7997
  140.3066  143.3130  152.0193 H   0  0  0  0  0  0  0  0  0  0  0  0  # atno 10167 bound_to 10162
  156.4916  130.4567  149.6752 H   0  0  0  0  0  0  0  0  0  0  0  0  # atno 10718 bound_to 10713
  153.0131  135.5327  154.6794 H   0  0  0  0  0  0  0  0  0  0  0  0  # atno 10763 bound_to 10752
  154.5958  135.2863  155.0590 H   0  0  0  0  0  0  0  0  0  0  0  0  # atno 10764 bound_to 10752
  154.1666  135.6539  153.5051 H   0  0  0  0  0  0  0  0  0  0  0  0  # atno 10765 bound_to 10752
  141.1190  133.8556  157.1356 H   0  0  0  0  0  0  0  0  0  0  0  0  # atno 11005 bound_to 11000
  146.0522  139.3522  143.0632 LP  0  0  0  0  0  0  0  0  0  0  0  0  # atno 17320 bound_to 7965
  145.8201  140.9683  143.0903 LP  0  0  0  0  0  0  0  0  0  0  0  0  # atno 17321 bound_to 7965
  139.4903  144.6416  151.6865 LP  0  0  0  0  0  0  0  0  0  0  0  0  # atno 17342 bound_to 10162
  140.5605  144.0277  150.6167 LP  0  0  0  0  0  0  0  0  0  0  0  0  # atno 17343 bound_to 10162
  156.3421  130.7387  151.2334 LP  0  0  0  0  0  0  0  0  0  0  0  0  # atno 17370 bound_to 10713
  157.7473  131.0401  150.4580 LP  0  0  0  0  0  0  0  0  0  0  0  0  # atno 17371 bound_to 10713
  140.0133  134.9978  157.0441 LP  0  0  0  0  0  0  0  0  0  0  0  0  # atno 17394 bound_to 11000
  140.4562  134.1531  155.7186 LP  0  0  0  0  0  0  0  0  0  0  0  0  # atno 17395 bound_to 11000

$$$$
