AV-unprocessed.smi:2923|AV-procd|sdf|11213|dock3
  -GOLD-   2272016103D 1   1.00000     0.00000
 Structure written by MMmdl.
 46 48  0  0  0  0  0  0  0  0  1 V2000
  144.1106  133.1114  149.5819 C   0  0  0  0  0  0  0  0  0  0  0  0
  144.1936  133.2079  151.0308 N   0  0  0  0  0  0  0  0  0  0  0  0
  145.0816  132.2616  151.6886 C   0  0  0  0  0  0  0  0  0  0  0  0
  144.3644  134.5249  151.4774 C   0  0  0  0  0  0  0  0  0  0  0  0
  143.3597  135.1854  152.2203 C   0  0  0  0  0  0  0  0  0  0  0  0
  143.5887  136.5079  152.6451 C   0  0  0  0  0  0  0  0  0  0  0  0
  144.8192  137.1269  152.3198 C   0  0  0  0  0  0  0  0  0  0  0  0
  145.1652  138.4589  152.6735 N   0  0  0  0  0  0  0  0  0  0  0  0
  146.3846  138.9774  152.8973 C   0  0  0  0  0  0  0  0  0  0  0  0
  147.4466  138.3594  152.8273 O   0  0  0  0  0  0  0  0  0  0  0  0
  146.3038  140.2803  153.1956 N   0  0  0  0  0  0  0  0  0  0  0  0
  147.4410  141.1543  153.4912 C   0  0  1  0  0  0  0  0  0  0  0  0
  147.0128  142.5302  154.0497 C   0  0  1  0  0  0  0  0  0  0  0  0
  145.5840  143.0166  154.0277 C   0  0  0  0  0  0  0  0  0  0  0  0
  145.0873  142.6715  155.4348 C   0  0  0  0  0  0  0  0  0  0  0  0
  145.9743  141.6541  155.8954 O   0  0  0  0  0  0  0  0  0  0  0  0
  147.2857  141.9811  155.4407 C   0  0  1  0  0  0  0  0  0  0  0  0
  148.1174  140.8241  154.8478 C   0  0  0  0  0  0  0  0  0  0  0  0
  147.8955  139.4369  155.4661 C   0  0  0  0  0  0  0  0  0  0  0  0
  149.6295  141.0667  154.8688 C   0  0  0  0  0  0  0  0  0  0  0  0
  145.7477  136.3828  151.5627 C   0  0  0  0  0  0  0  0  0  0  0  0
  145.5356  135.1140  151.1542 N   0  0  0  0  0  0  0  0  0  0  0  0
  143.4181  133.8531  149.1817 H   0  0  0  0  0  0  0  0  0  0  0  0
  143.7508  132.1243  149.2908 H   0  0  0  0  0  0  0  0  0  0  0  0
  145.0877  133.2681  149.1236 H   0  0  0  0  0  0  0  0  0  0  0  0
  145.0642  132.4020  152.7702 H   0  0  0  0  0  0  0  0  0  0  0  0
  146.1086  132.3793  151.3408 H   0  0  0  0  0  0  0  0  0  0  0  0
  144.7647  131.2402  151.4772 H   0  0  0  0  0  0  0  0  0  0  0  0
  142.4287  134.6927  152.4598 H   0  0  0  0  0  0  0  0  0  0  0  0
  142.8149  137.0192  153.1958 H   0  0  0  0  0  0  0  0  0  0  0  0
  144.3953  139.1114  152.7008 H   0  0  0  0  0  0  0  0  0  0  0  0
  145.3889  140.7061  153.2265 H   0  0  0  0  0  0  0  0  0  0  0  0
  148.1589  141.2490  152.6745 H   0  0  0  0  0  0  0  0  0  0  0  0
  147.7404  143.2987  153.7841 H   0  0  0  0  0  0  0  0  0  0  0  0
  145.5166  144.0885  153.8399 H   0  0  0  0  0  0  0  0  0  0  0  0
  144.9904  142.5158  153.2630 H   0  0  0  0  0  0  0  0  0  0  0  0
  145.1703  143.5376  156.0928 H   0  0  0  0  0  0  0  0  0  0  0  0
  144.0509  142.3338  155.4444 H   0  0  0  0  0  0  0  0  0  0  0  0
  147.8170  142.6721  156.0970 H   0  0  0  0  0  0  0  0  0  0  0  0
  148.3457  139.3643  156.4565 H   0  0  0  0  0  0  0  0  0  0  0  0
  148.3313  138.6513  154.8481 H   0  0  0  0  0  0  0  0  0  0  0  0
  146.8377  139.2025  155.5870 H   0  0  0  0  0  0  0  0  0  0  0  0
  150.0222  141.0617  155.8860 H   0  0  0  0  0  0  0  0  0  0  0  0
  149.8894  142.0306  154.4300 H   0  0  0  0  0  0  0  0  0  0  0  0
  150.1648  140.3022  154.3045 H   0  0  0  0  0  0  0  0  0  0  0  0
  146.6955  136.8162  151.2783 H   0  0  0  0  0  0  0  0  0  0  0  0
  1  2  1  0  0  0  0
  1 23  1  0  0  0  0
  1 24  1  0  0  0  0
  1 25  1  0  0  0  0
  2  3  1  0  0  0  0
  2  4  1  0  0  0  0
  3 26  1  0  0  0  0
  3 27  1  0  0  0  0
  3 28  1  0  0  0  0
  4 22  1  0  0  0  0
  4  5  2  0  0  0  0
  5  6  1  0  0  0  0
  5 29  1  0  0  0  0
  6  7  2  0  0  0  0
  6 30  1  0  0  0  0
  7  8  1  0  0  0  0
  7 21  1  0  0  0  0
  8  9  1  0  0  0  0
  8 31  1  0  0  0  0
  9 10  2  0  0  0  0
  9 11  1  0  0  0  0
 11 12  1  0  0  0  0
 11 32  1  0  0  0  0
 12 18  1  0  0  0  0
 12 13  1  0  0  0  0
 12 33  1  0  0  0  0
 13 17  1  0  0  0  0
 13 14  1  0  0  0  0
 13 34  1  0  0  0  0
 14 15  1  0  0  0  0
 14 35  1  0  0  0  0
 14 36  1  0  0  0  0
 15 16  1  0  0  0  0
 15 37  1  0  0  0  0
 15 38  1  0  0  0  0
 16 17  1  0  0  0  0
 17 18  1  0  0  0  0
 17 39  1  0  0  0  0
 18 19  1  0  0  0  0
 18 20  1  0  0  0  0
 19 40  1  0  0  0  0
 19 41  1  0  0  0  0
 19 42  1  0  0  0  0
 20 43  1  0  0  0  0
 20 44  1  0  0  0  0
 20 45  1  0  0  0  0
 21 22  2  0  0  0  0
 21 46  1  0  0  0  0
M  END
> <s_m_source_file>
AV-unprocessed.smi

> <i_m_source_file_index>
2923

> <i_lp_mmshare_version>
43012

> <i_f3d_flags>
0

> <s_epik_input>
W0NIM11OKFtDSDNdKWMxW2NIXVtjSF1jKFtjSF1uMSlbTkhdQyg9TylbTkhdW0NASF0yQyhbQ0gzXSkoW0NIM10pW0NAQEhdKFtDQEhdMjMpT1tDSDJdW0NIMl0z

> <s_epik_cmdline>
J2VwaWtfcHl0aG9uJywgJy1waCcsICc3LjAnLCAnLXRuJywgJzgnLCAnLW1hJywgJzIwMCcsICctbWV0YWxfYmluZGluZycsICctaW1hZScsICc8aW5maWxlLm1hZT4nLCAnLW9tYWUnLCAnPG91dGZpbGUubWFlPic=

> <r_lp_tautomer_probability>
1

> <r_epik_Ionization_Penalty>
0.628785

> <r_epik_Ionization_Penalty_Charging>
0

> <r_epik_Ionization_Penalty_Neutral>
0.628785

> <r_epik_State_Penalty>
0.644286

> <r_epik_Charging_Adjusted_Penalty>
0.644286

> <i_epik_Tot_Q>
0

> <i_epik_Tot_abs_Q>
0

> <r_epik_Metal_State_Penalty>
0.308404

> <b_epik_Metal_Only>
0

> <s_lp_Force_Field>
OPLS_2005

> <r_lp_Energy>
44.9089

> <b_lp_Chiralities_Consistent>
1

> <s_lp_Variant>
AV-unprocessed.smi:2923-12

> <Gold.Version>
5.8.1

> <Gold.Id.Protein>
6NUR|6NUR_protein|mol2

> <Gold.PLP.Fitness>
42.2136

> <Gold.PLP.PLP>
-34.1733

> <Gold.PLP.part.hbond>
-2.5586

> <Gold.PLP.part.metal>
0.0000

> <Gold.PLP.part.buried>
-3.1409

> <Gold.PLP.part.nonpolar>
-31.5614

> <Gold.PLP.part.repulsive>
3.0111

> <Gold.PLP.ligand.clash>
0.0000

> <Gold.PLP.ligand.torsion>
0.3782

> <Gold.PLP.Chemscore.Hbond>
1.8000

> <Gold.PLP.Chemscore.CHOScore>
1.0000

> <Gold.PLP.Chemscore.Metal>
0.0000

> <Gold.Chemscore.Hbonds>
donor molecule, donor type, donor heavy atom, donor atom, acceptor molecule, acceptor atom, score
      L1  H     8    31       P1 10175  1.00
      L1  H    11    32       P1 10175  0.80
      L1  C    21    46       P1  7948  1.00

> <Gold.PLP.Chemscore.Internal.Correction>
0.3967

> <Gold.Rescore>
     Score         DG    S(hbond)    S(metal)    S(lipo)     H(rot)  DE(clash)    DE(int)     intcor
     14.17     -17.57       1.78        0.00      78.57       1.19       1.20       2.20       ----

> <Gold.Chemscore.Fitness>
14.1702

> <Gold.Chemscore.DG>
-17.5670

> <Gold.Chemscore.ZeroCoef>
-5.4800

> <Gold.Chemscore.Hbond>
1.7816

> <Gold.Chemscore.Metal>
0.0000

> <Gold.Chemscore.Lipo>
78.5672

> <Gold.Chemscore.Internal_Hbond>
0.0000

> <Gold.Chemscore.DEClash>
1.1980

> <Gold.Chemscore.DEInternal>
2.1988

> <Gold.Chemscore.Rot>
1.1937

> <Gold.Chemscore.Internal.Correction>
   9.000000E+99

> <Gold.Chemscore.Hbonds>
donor molecule, donor type, donor heavy atom, donor atom, acceptor molecule, acceptor atom, score
      L1  H     8    31       P1 10175  0.93
      L1  H    11    32       P1 10175  0.65

> <Gold.Chemscore.Hbond.Weighted>
-5.9505

> <Gold.Chemscore.Metal.Weighted>
-0.0000

> <Gold.Chemscore.Lipo.Weighted>
-9.1924

> <Gold.Chemscore.Internal_Hbond.Weighted>
0.0000

> <Gold.Chemscore.DEClash.Weighted>
1.1980

> <Gold.Chemscore.DEInternal.Weighted>
2.1988

> <Gold.Chemscore.Rot.Weighted>
3.0559

> <Gold.Chemscore.Internal.Correction.Weighted>
   9.000000E+99

> <Gold.Protein.RotatedTorsions>
[ 6907 6896 6895 6894 ] final  -19.73 input  -60.11 | X-H torsion
[ 7974 7965 7964 7962 ] final  102.97 input  175.53 | X-H torsion
[ 8008 7997 7996 7995 ] final -155.40 input   59.86 | X-H torsion
[ 10167 10162 10161 10158 ] final  -72.10 input  -65.29 | X-H torsion
[ 10718 10713 10712 10709 ] final   83.98 input   66.30 | X-H torsion
[ 10763 10752 10751 10750 ] final   78.34 input  -60.55 | X-H torsion
[ 11005 11000 10999 10996 ] final  -97.60 input  -57.11 | X-H torsion

> <Gold.Protein.ActiveResidues>
 VAL166  LYS551  ARG553  GLY616  TRP617  ASP618  TYR619  PRO620  LYS621  CYS622 
 ASP623  PHE694  ASN695  SER759  ASP760  ASP761  ALA762  ILE779  LEU786  VAL792 
 PHE793  MET794  SER795  GLU796  ALA797  LYS798  CYS799  TRP800  GLU811  SER814 

> <Gold.Protein.RotatedAtoms>
  151.2588  135.0647  159.9089 H   0  0  0  0  0  0  0  0  0  0  0  0  # atno 6907 bound_to 6896
  152.5369  134.0253  159.8010 H   0  0  0  0  0  0  0  0  0  0  0  0  # atno 6908 bound_to 6896
  151.0473  133.5605  159.2676 H   0  0  0  0  0  0  0  0  0  0  0  0  # atno 6909 bound_to 6896
  145.3521  139.2437  143.3552 H   0  0  0  0  0  0  0  0  0  0  0  0  # atno 7974 bound_to 7965
  155.7013  140.0767  157.2409 H   0  0  0  0  0  0  0  0  0  0  0  0  # atno 8008 bound_to 7997
  154.4072  140.1647  156.2247 H   0  0  0  0  0  0  0  0  0  0  0  0  # atno 8009 bound_to 7997
  155.9365  140.3387  155.6295 H   0  0  0  0  0  0  0  0  0  0  0  0  # atno 8010 bound_to 7997
  140.5219  143.2330  151.7414 H   0  0  0  0  0  0  0  0  0  0  0  0  # atno 10167 bound_to 10162
  157.6889  131.0114  150.2604 H   0  0  0  0  0  0  0  0  0  0  0  0  # atno 10718 bound_to 10713
  153.0867  135.4880  154.8610 H   0  0  0  0  0  0  0  0  0  0  0  0  # atno 10763 bound_to 10752
  154.7219  135.3041  154.9035 H   0  0  0  0  0  0  0  0  0  0  0  0  # atno 10764 bound_to 10752
  153.9697  135.6802  153.4800 H   0  0  0  0  0  0  0  0  0  0  0  0  # atno 10765 bound_to 10752
  141.1373  133.8182  157.0727 H   0  0  0  0  0  0  0  0  0  0  0  0  # atno 11005 bound_to 11000
  146.2963  140.4139  142.8720 LP  0  0  0  0  0  0  0  0  0  0  0  0  # atno 17320 bound_to 7965
  144.8710  140.7272  143.6047 LP  0  0  0  0  0  0  0  0  0  0  0  0  # atno 17321 bound_to 7965
  139.4926  144.4242  151.9944 LP  0  0  0  0  0  0  0  0  0  0  0  0  # atno 17342 bound_to 10162
  140.3339  144.3284  150.5981 LP  0  0  0  0  0  0  0  0  0  0  0  0  # atno 17343 bound_to 10162
  156.3184  130.3782  149.7597 LP  0  0  0  0  0  0  0  0  0  0  0  0  # atno 17370 bound_to 10713
  156.5175  130.8200  151.3191 LP  0  0  0  0  0  0  0  0  0  0  0  0  # atno 17371 bound_to 10713
  140.0501  134.9810  157.1120 LP  0  0  0  0  0  0  0  0  0  0  0  0  # atno 17394 bound_to 11000
  140.4003  134.2090  155.7163 LP  0  0  0  0  0  0  0  0  0  0  0  0  # atno 17395 bound_to 11000

$$$$
