AV-unprocessed.smi:1703|AV-procd|sdf|6853|dock4
  -GOLD-   22720 8 33D 1   1.00000     0.00000
 Structure written by MMmdl.
 48 50  0  0  0  0  0  0  0  0  1 V2000
  146.2390  143.1818  157.6812 C   0  0  0  0  0  0  0  0  0  0  0  0
  145.7517  142.2336  156.5723 C   0  0  2  0  0  0  0  0  0  0  0  0
  146.8602  141.3088  156.0303 C   0  0  0  0  0  0  0  0  0  0  0  0
  147.8134  142.0108  155.1719 N   0  0  0  0  0  0  0  0  0  0  0  0
  148.8467  141.1267  154.6299 C   0  0  0  0  0  0  0  0  0  0  0  0
  150.0887  140.9253  155.5217 C   0  0  2  0  0  0  0  0  0  0  0  0
  150.9740  140.0332  154.8727 O   0  0  0  0  0  0  0  0  0  0  0  0
  149.7040  140.3476  156.8980 C   0  0  0  0  0  0  0  0  0  0  0  0
  150.8322  140.2735  157.8187 N   0  0  0  0  0  0  0  0  0  0  0  0
  151.4186  139.1681  158.3474 C   0  0  0  0  0  0  0  0  0  0  0  0
  150.9322  137.7790  158.0415 C   0  0  0  0  0  0  0  0  0  0  0  0
  150.7599  136.9750  159.1908 O   0  0  0  0  0  0  0  0  0  0  0  0
  152.4397  139.3986  159.1759 N   0  0  0  0  0  0  0  0  0  0  0  0
  152.5284  140.7761  159.1798 C   0  0  0  0  0  0  0  0  0  0  0  0
  153.4171  141.6364  159.8638 C   0  0  0  0  0  0  0  0  0  0  0  0
  153.3134  143.0348  159.7142 C   0  0  0  0  0  0  0  0  0  0  0  0
  152.3211  143.5914  158.8816 C   0  0  0  0  0  0  0  0  0  0  0  0
  151.4262  142.7518  158.1907 C   0  0  0  0  0  0  0  0  0  0  0  0
  151.5352  141.3559  158.3414 C   0  0  0  0  0  0  0  0  0  0  0  0
  147.0825  142.6733  154.0993 C   0  0  0  0  0  0  0  0  0  0  0  0
  146.0223  143.6490  154.6402 C   0  0  1  0  0  0  0  0  0  0  0  0
  145.1982  144.2854  153.5159 C   0  0  0  0  0  0  0  0  0  0  0  0
  145.1294  142.9449  155.5012 O   0  0  0  0  0  0  0  0  0  0  0  0
  146.6048  142.6174  158.5392 H   0  0  0  0  0  0  0  0  0  0  0  0
  145.4286  143.8227  158.0288 H   0  0  0  0  0  0  0  0  0  0  0  0
  147.0526  143.8238  157.3444 H   0  0  0  0  0  0  0  0  0  0  0  0
  144.9768  141.6047  157.0116 H   0  0  0  0  0  0  0  0  0  0  0  0
  147.3681  140.8449  156.8742 H   0  0  0  0  0  0  0  0  0  0  0  0
  146.3966  140.4978  155.4665 H   0  0  0  0  0  0  0  0  0  0  0  0
  148.4013  140.1546  154.4126 H   0  0  0  0  0  0  0  0  0  0  0  0
  149.1845  141.5157  153.6680 H   0  0  0  0  0  0  0  0  0  0  0  0
  150.6092  141.8683  155.6771 H   0  0  0  0  0  0  0  0  0  0  0  0
  150.4845  139.2765  154.5891 H   0  0  0  0  0  0  0  0  0  0  0  0
  148.9127  140.9401  157.3569 H   0  0  0  0  0  0  0  0  0  0  0  0
  149.2869  139.3472  156.7776 H   0  0  0  0  0  0  0  0  0  0  0  0
  149.9797  137.8486  157.5160 H   0  0  0  0  0  0  0  0  0  0  0  0
  151.6308  137.2656  157.3825 H   0  0  0  0  0  0  0  0  0  0  0  0
  150.1576  137.4100  159.7745 H   0  0  0  0  0  0  0  0  0  0  0  0
  154.1792  141.2192  160.5051 H   0  0  0  0  0  0  0  0  0  0  0  0
  153.9976  143.6834  160.2414 H   0  0  0  0  0  0  0  0  0  0  0  0
  152.2472  144.6637  158.7741 H   0  0  0  0  0  0  0  0  0  0  0  0
  150.6650  143.1780  157.5548 H   0  0  0  0  0  0  0  0  0  0  0  0
  147.7788  143.2214  153.4633 H   0  0  0  0  0  0  0  0  0  0  0  0
  146.6026  141.9268  153.4641 H   0  0  0  0  0  0  0  0  0  0  0  0
  146.5125  144.4465  155.1998 H   0  0  0  0  0  0  0  0  0  0  0  0
  145.8345  144.8496  152.8335 H   0  0  0  0  0  0  0  0  0  0  0  0
  144.4541  144.9721  153.9200 H   0  0  0  0  0  0  0  0  0  0  0  0
  144.6717  143.5278  152.9346 H   0  0  0  0  0  0  0  0  0  0  0  0
  1  2  1  0  0  0  0
  1 24  1  0  0  0  0
  1 25  1  0  0  0  0
  1 26  1  0  0  0  0
  2 23  1  0  0  0  0
  2  3  1  0  0  0  0
  2 27  1  0  0  0  0
  3  4  1  0  0  0  0
  3 28  1  0  0  0  0
  3 29  1  0  0  0  0
  4  5  1  0  0  0  0
  4 20  1  0  0  0  0
  5  6  1  0  0  0  0
  5 30  1  0  0  0  0
  5 31  1  0  0  0  0
  6  7  1  0  0  0  0
  6  8  1  0  0  0  0
  6 32  1  0  0  0  0
  7 33  1  0  0  0  0
  8  9  1  0  0  0  0
  8 34  1  0  0  0  0
  8 35  1  0  0  0  0
  9 19  1  0  0  0  0
  9 10  1  0  0  0  0
 10 11  1  0  0  0  0
 10 13  2  0  0  0  0
 11 12  1  0  0  0  0
 11 36  1  0  0  0  0
 11 37  1  0  0  0  0
 12 38  1  0  0  0  0
 13 14  1  0  0  0  0
 14 19  2  0  0  0  0
 14 15  1  0  0  0  0
 15 16  2  0  0  0  0
 15 39  1  0  0  0  0
 16 17  1  0  0  0  0
 16 40  1  0  0  0  0
 17 18  2  0  0  0  0
 17 41  1  0  0  0  0
 18 19  1  0  0  0  0
 18 42  1  0  0  0  0
 20 21  1  0  0  0  0
 20 43  1  0  0  0  0
 20 44  1  0  0  0  0
 21 22  1  0  0  0  0
 21 23  1  0  0  0  0
 21 45  1  0  0  0  0
 22 46  1  0  0  0  0
 22 47  1  0  0  0  0
 22 48  1  0  0  0  0
M  END
> <s_m_source_file>
AV-unprocessed.smi

> <i_m_source_file_index>
1703

> <i_lp_mmshare_version>
43012

> <i_f3d_flags>
0

> <s_epik_input>
W0NIM11bQ0BASF0xW0NIMl1OKFtDSDJdW0NASF0oTzEpW0NIM10pW0NIMl1bQ0BIXShbT0hdKVtDSDJdbihjKG4yKVtDSDJdW09IXSljKGMyMylbY0hdW2NIXVtjSF1bY0hdMw==

> <s_epik_cmdline>
J2VwaWtfcHl0aG9uJywgJy1waCcsICc3LjAnLCAnLXRuJywgJzgnLCAnLW1hJywgJzIwMCcsICctbWV0YWxfYmluZGluZycsICctaW1hZScsICc8aW5maWxlLm1hZT4nLCAnLW9tYWUnLCAnPG91dGZpbGUubWFlPic=

> <r_epik_Ionization_Penalty>
0.307685

> <r_epik_Ionization_Penalty_Charging>
0

> <r_epik_Ionization_Penalty_Neutral>
0.307685

> <r_epik_State_Penalty>
0.277856

> <r_epik_Charging_Adjusted_Penalty>
0.277856

> <i_epik_Tot_Q>
0

> <i_epik_Tot_abs_Q>
0

> <r_epik_Metal_State_Penalty>
0.238959

> <b_epik_Metal_Only>
0

> <s_lp_Force_Field>
OPLS_2005

> <r_lp_Energy>
33.4043

> <b_lp_Chiralities_Consistent>
1

> <s_lp_Variant>
AV-unprocessed.smi:1703-1

> <Gold.Version>
5.8.1

> <Gold.Id.Protein>
6NUR|6NUR_protein|mol2

> <Gold.PLP.Fitness>
46.8105

> <Gold.PLP.PLP>
-41.7971

> <Gold.PLP.part.hbond>
-2.0000

> <Gold.PLP.part.metal>
0.0000

> <Gold.PLP.part.buried>
-7.3000

> <Gold.PLP.part.nonpolar>
-33.6720

> <Gold.PLP.part.repulsive>
0.8627

> <Gold.PLP.ligand.clash>
0.0000

> <Gold.PLP.ligand.torsion>
0.5150

> <Gold.PLP.Chemscore.Hbond>
1.9913

> <Gold.PLP.Chemscore.CHOScore>
0.0000

> <Gold.PLP.Chemscore.Metal>
0.0000

> <Gold.Chemscore.Hbonds>
donor molecule, donor type, donor heavy atom, donor atom, acceptor molecule, acceptor atom, score
      P1  H  6896  6908       L1    12  0.98
      P1  H  7989  7998       L1     7  1.00

> <Gold.PLP.Chemscore.Internal.Correction>
0.0696

> <Gold.Rescore>
     Score         DG    S(hbond)    S(metal)    S(lipo)     H(rot)  DE(clash)    DE(int)     intcor
     15.06     -15.73       1.68        0.00     102.49       2.88       0.22       0.45       ----

> <Gold.Chemscore.Fitness>
15.0556

> <Gold.Chemscore.DG>
-15.7282

> <Gold.Chemscore.ZeroCoef>
-5.4800

> <Gold.Chemscore.Hbond>
1.6837

> <Gold.Chemscore.Metal>
0.0000

> <Gold.Chemscore.Lipo>
102.4937

> <Gold.Chemscore.Internal_Hbond>
0.0000

> <Gold.Chemscore.DEClash>
0.2196

> <Gold.Chemscore.DEInternal>
0.4530

> <Gold.Chemscore.Rot>
2.8778

> <Gold.Chemscore.Internal.Correction>
   9.000000E+99

> <Gold.Chemscore.Hbonds>
donor molecule, donor type, donor heavy atom, donor atom, acceptor molecule, acceptor atom, score
      P1  H  6896  6908       L1    12  0.69
      P1  H  7989  7998       L1     7  0.45

> <Gold.Chemscore.Hbond.Weighted>
-5.6236

> <Gold.Chemscore.Metal.Weighted>
-0.0000

> <Gold.Chemscore.Lipo.Weighted>
-11.9918

> <Gold.Chemscore.Internal_Hbond.Weighted>
0.0000

> <Gold.Chemscore.DEClash.Weighted>
0.2196

> <Gold.Chemscore.DEInternal.Weighted>
0.4530

> <Gold.Chemscore.Rot.Weighted>
7.3671

> <Gold.Chemscore.Internal.Correction.Weighted>
   9.000000E+99

> <Gold.Protein.RotatedTorsions>
[ 6907 6896 6895 6894 ] final -150.13 input  -60.11 | X-H torsion
[ 7974 7965 7964 7962 ] final  103.57 input  175.53 | X-H torsion
[ 8008 7997 7996 7995 ] final  167.59 input   59.86 | X-H torsion
[ 10167 10162 10161 10158 ] final  -39.12 input  -65.29 | X-H torsion
[ 10718 10713 10712 10709 ] final   55.75 input   66.30 | X-H torsion
[ 10763 10752 10751 10750 ] final   41.74 input  -60.55 | X-H torsion
[ 11005 11000 10999 10996 ] final   88.78 input  -57.11 | X-H torsion

> <Gold.Protein.ActiveResidues>
 VAL166  LYS551  ARG553  GLY616  TRP617  ASP618  TYR619  PRO620  LYS621  CYS622 
 ASP623  PHE694  ASN695  SER759  ASP760  ASP761  ALA762  ILE779  LEU786  VAL792 
 PHE793  MET794  SER795  GLU796  ALA797  LYS798  CYS799  TRP800  GLU811  SER814 

> <Gold.Protein.RotatedAtoms>
  151.1940  133.4650  159.2595 H   0  0  0  0  0  0  0  0  0  0  0  0  # atno 6907 bound_to 6896
  151.1135  135.0040  159.8515 H   0  0  0  0  0  0  0  0  0  0  0  0  # atno 6908 bound_to 6896
  152.5452  134.1858  159.8707 H   0  0  0  0  0  0  0  0  0  0  0  0  # atno 6909 bound_to 6896
  145.3441  139.2455  143.3593 H   0  0  0  0  0  0  0  0  0  0  0  0  # atno 7974 bound_to 7965
  156.1621  140.1613  156.8594 H   0  0  0  0  0  0  0  0  0  0  0  0  # atno 8008 bound_to 7997
  154.5171  140.0787  156.8137 H   0  0  0  0  0  0  0  0  0  0  0  0  # atno 8009 bound_to 7997
  155.3686  140.3399  155.4245 H   0  0  0  0  0  0  0  0  0  0  0  0  # atno 8010 bound_to 7997
  140.7073  143.3234  151.2737 H   0  0  0  0  0  0  0  0  0  0  0  0  # atno 10167 bound_to 10162
  157.5372  130.8672  149.8770 H   0  0  0  0  0  0  0  0  0  0  0  0  # atno 10718 bound_to 10713
  152.9900  135.6153  154.2836 H   0  0  0  0  0  0  0  0  0  0  0  0  # atno 10763 bound_to 10752
  154.2564  135.2783  155.2797 H   0  0  0  0  0  0  0  0  0  0  0  0  # atno 10764 bound_to 10752
  154.5244  135.5806  153.6764 H   0  0  0  0  0  0  0  0  0  0  0  0  # atno 10765 bound_to 10752
  139.8889  134.8510  156.3049 H   0  0  0  0  0  0  0  0  0  0  0  0  # atno 11005 bound_to 11000
  146.2995  140.4044  142.8709 LP  0  0  0  0  0  0  0  0  0  0  0  0  # atno 17320 bound_to 7965
  144.8767  140.7346  143.6012 LP  0  0  0  0  0  0  0  0  0  0  0  0  # atno 17321 bound_to 7965
  139.6695  144.0045  152.2744 LP  0  0  0  0  0  0  0  0  0  0  0  0  # atno 17342 bound_to 10162
  139.9639  144.6539  150.8053 LP  0  0  0  0  0  0  0  0  0  0  0  0  # atno 17343 bound_to 10162
  156.0468  130.3726  150.1298 LP  0  0  0  0  0  0  0  0  0  0  0  0  # atno 17370 bound_to 10713
  156.9480  130.9765  151.3504 LP  0  0  0  0  0  0  0  0  0  0  0  0  # atno 17371 bound_to 10713
  140.9889  133.7221  156.0783 LP  0  0  0  0  0  0  0  0  0  0  0  0  # atno 17394 bound_to 11000
  140.7652  134.3895  157.5518 LP  0  0  0  0  0  0  0  0  0  0  0  0  # atno 17395 bound_to 11000

$$$$
