#       Name:                AV-unprocessed.smi:2099
#       Creating user name   scv26
#       Creation time:       Fri Mar 27 11:30:00 2020


#       File generated by GOLD software.
#

@<TRIPOS>MOLECULE
AV-unprocessed.smi:2099
    36    37     1
SMALL
NO_CHARGES


@<TRIPOS>ATOM
      1 ****        -4.4378  -1.6664  -0.2855 C.3            1 S1                 0.0000
      2 ****        -2.9151  -1.5291  -0.1433 C.3            1 S1                 0.0000
      3 ****        -2.5228  -1.0060   1.2520 C.3            1 S1                 0.0000
      4 ****        -0.9987  -0.8625   1.3960 C.3            1 S1                 0.0000
      5 ****        -0.4124   0.0442   0.2987 C.3            1 S1                 0.0000
      6 ****         1.0399   0.1104   0.4380 N.am           1 S1                 0.0000
      7 ****         1.8136   1.1159   0.0026 C.2            1 S1                 0.0000
      8 ****         1.3731   2.1101  -0.5754 O.2            1 S1                 0.0000
      9 ****         3.1098   0.8881   0.2791 N.am           1 S1                 0.0000
     10 ****         4.2315   1.7047  -0.0244 C.2            1 S1                 0.0000
     11 ****         4.1441   2.8838  -0.6600 N.2            1 S1                 0.0000
     12 ****         5.3890   3.4753  -0.8319 N.2            1 S1                 0.0000
     13 ****         6.3652   2.7203  -0.3202 C.2            1 S1                 0.0000
     14 ****         5.8589   1.2134   0.4236 S.3            1 S1                 0.0000
     15 ****        -0.8028  -0.4755  -1.0997 C.3            1 S1                 0.0000
     16 ****        -2.3268  -0.6212  -1.2403 C.3            1 S1                 0.0000
     17 ****        -4.9357  -0.7029  -0.1716 H              1 S1                 0.0000
     18 ****        -4.8433  -2.3423   0.4679 H              1 S1                 0.0000
     19 ****        -4.7063  -2.0659  -1.2639 H              1 S1                 0.0000
     20 ****        -2.4837  -2.5240  -0.2633 H              1 S1                 0.0000
     21 ****        -2.9959  -0.0390   1.4295 H              1 S1                 0.0000
     22 ****        -2.8998  -1.6790   2.0228 H              1 S1                 0.0000
     23 ****        -0.7612  -0.4587   2.3809 H              1 S1                 0.0000
     24 ****        -0.5372  -1.8498   1.3472 H              1 S1                 0.0000
     25 ****        -0.8272   1.0453   0.4317 H              1 S1                 0.0000
     26 ****         1.4869  -0.6687   0.8990 H              1 S1                 0.0000
     27 ****         3.3202   0.0269   0.7612 H              1 S1                 0.0000
     28 ****         7.3905   3.0537  -0.3809 H              1 S1                 0.0000
     29 ****        -0.4301   0.1995  -1.8710 H              1 S1                 0.0000
     30 ****        -0.3291  -1.4415  -1.2805 H              1 S1                 0.0000
     31 ****        -2.5642  -1.0246  -2.2253 H              1 S1                 0.0000
     32 ****        -2.7912   0.3648  -1.1918 H              1 S1                 0.0000
     33 ****         0.3909   2.1976  -0.7417 LP             1 S1                 0.0000
     34 ****         1.9975   2.8300  -0.8785 LP             1 S1                 0.0000
     35 ****         3.2846   3.2884  -0.9727 LP             1 S1                 0.0000
     36 ****         5.5361   4.3560  -1.2823 LP             1 S1                 0.0000
@<TRIPOS>BOND
    1    1    2 1     
    2    1   17 1     
    3    1   18 1     
    4    1   19 1     
    5    2   16 1     
    6    2    3 1     
    7    2   20 1     
    8    3    4 1     
    9    3   21 1     
   10    3   22 1     
   11    4    5 1     
   12    4   23 1     
   13    4   24 1     
   14    5    6 1     
   15    5   15 1     
   16    5   25 1     
   17    6    7 am    
   18    6   26 1     
   19    7    8 2     
   20    7    9 am    
   21    9   10 1     
   22    9   27 1     
   23   10   14 1     
   24   10   11 2     
   25   11   12 1     
   26   12   13 2     
   27   13   14 1     
   28   13   28 1     
   29   15   16 1     
   30   15   29 1     
   31   15   30 1     
   32   16   31 1     
   33   16   32 1     
   34    8   33 1     
   35    8   34 1     
   36   11   35 1     
   37   12   36 1     
@<TRIPOS>SUBSTRUCTURE
      1 S1             1
@<TRIPOS>SET
LONE_PAIRS      STATIC     ATOMS    <user>   **** ""
4 33 34 35 36
DONOR_HYDROGENS      STATIC     ATOMS    <user>   **** ""
2 26 27
ATOM$BLUE        STATIC     ATOMS    COLORGROUP SYSTEM
4 33 34 35 36
ATOM$RED        STATIC     ATOMS    COLORGROUP SYSTEM
2 26 27
