AV-unprocessed.smi:95|AV-procd|sdf|856|dock5
  -GOLD-   2262017303D 1   1.00000     0.00000
 Structure written by MMmdl.
 41 44  0  0  0  0  0  0  0  0  1 V2000
  150.1681  141.5816  156.5384 O   0  0  0  0  0  0  0  0  0  0  0  0
  149.5594  142.2080  157.4081 C   0  0  0  0  0  0  0  0  0  0  0  0
  148.1148  142.1290  157.5939 C   0  0  0  0  0  0  0  0  0  0  0  0
  147.3816  141.3512  156.7793 F   0  0  0  0  0  0  0  0  0  0  0  0
  147.4977  142.8235  158.5745 C   0  0  0  0  0  0  0  0  0  0  0  0
  148.1754  143.6477  159.4588 N   0  0  0  0  0  0  0  0  0  0  0  0
  147.4646  144.4006  160.5644 C   0  0  1  0  0  0  0  0  0  0  0  0
  146.0558  144.8306  160.1106 C   0  0  0  0  0  0  0  0  0  0  0  0
  145.1701  144.3094  161.2248 C   0  0  0  0  0  0  0  0  0  0  0  0
  145.9558  143.1022  161.7138 C   0  0  0  0  0  0  0  0  0  0  0  0
  147.2978  143.5686  161.6772 O   0  0  0  0  0  0  0  0  0  0  0  0
  149.5784  143.7758  159.3591 C   0  0  0  0  0  0  0  0  0  0  0  0
  150.2031  144.4794  160.1564 O   0  0  0  0  0  0  0  0  0  0  0  0
  150.2236  143.0614  158.3217 N   0  0  0  0  0  0  0  0  0  0  0  0
  151.6720  143.1538  158.2126 C   0  0  0  0  0  0  0  0  0  0  0  0
  152.4614  142.5105  159.3474 C   0  0  0  0  0  0  0  0  0  0  0  0
  153.1963  141.3320  159.1097 C   0  0  0  0  0  0  0  0  0  0  0  0
  153.9256  140.7693  160.1726 C   0  0  0  0  0  0  0  0  0  0  0  0
  153.8975  141.4066  161.4297 C   0  0  0  0  0  0  0  0  0  0  0  0
  154.6178  140.8669  162.5153 C   0  0  0  0  0  0  0  0  0  0  0  0
  154.5856  141.5069  163.7677 C   0  0  0  0  0  0  0  0  0  0  0  0
  153.8344  142.6848  163.9328 C   0  0  0  0  0  0  0  0  0  0  0  0
  153.1168  143.2222  162.8465 C   0  0  0  0  0  0  0  0  0  0  0  0
  153.1345  142.5970  161.5815 C   0  0  0  0  0  0  0  0  0  0  0  0
  152.4389  143.1285  160.5511 N   0  0  0  0  0  0  0  0  0  0  0  0
  146.4274  142.7135  158.6564 H   0  0  0  0  0  0  0  0  0  0  0  0
  148.1237  145.2303  160.8265 H   0  0  0  0  0  0  0  0  0  0  0  0
  145.9981  145.9123  159.9856 H   0  0  0  0  0  0  0  0  0  0  0  0
  145.7991  144.3504  159.1650 H   0  0  0  0  0  0  0  0  0  0  0  0
  145.0915  145.0514  162.0204 H   0  0  0  0  0  0  0  0  0  0  0  0
  144.1637  144.0576  160.8892 H   0  0  0  0  0  0  0  0  0  0  0  0
  145.6671  142.7859  162.7161 H   0  0  0  0  0  0  0  0  0  0  0  0
  145.8316  142.2570  161.0355 H   0  0  0  0  0  0  0  0  0  0  0  0
  151.9438  142.7103  157.2528 H   0  0  0  0  0  0  0  0  0  0  0  0
  151.9488  144.2040  158.1160 H   0  0  0  0  0  0  0  0  0  0  0  0
  153.2003  140.8667  158.1348 H   0  0  0  0  0  0  0  0  0  0  0  0
  154.4959  139.8646  160.0216 H   0  0  0  0  0  0  0  0  0  0  0  0
  155.1959  139.9625  162.3921 H   0  0  0  0  0  0  0  0  0  0  0  0
  155.1363  141.0947  164.6006 H   0  0  0  0  0  0  0  0  0  0  0  0
  153.8083  143.1777  164.8935 H   0  0  0  0  0  0  0  0  0  0  0  0
  152.5442  144.1272  162.9872 H   0  0  0  0  0  0  0  0  0  0  0  0
  1  2  2  0  0  0  0
  2 14  1  0  0  0  0
  2  3  1  0  0  0  0
  3  4  1  0  0  0  0
  3  5  2  0  0  0  0
  5  6  1  0  0  0  0
  5 26  1  0  0  0  0
  6  7  1  0  0  0  0
  6 12  1  0  0  0  0
  7 11  1  0  0  0  0
  7  8  1  0  0  0  0
  7 27  1  0  0  0  0
  8  9  1  0  0  0  0
  8 28  1  0  0  0  0
  8 29  1  0  0  0  0
  9 10  1  0  0  0  0
  9 30  1  0  0  0  0
  9 31  1  0  0  0  0
 10 11  1  0  0  0  0
 10 32  1  0  0  0  0
 10 33  1  0  0  0  0
 12 13  2  0  0  0  0
 12 14  1  0  0  0  0
 14 15  1  0  0  0  0
 15 16  1  0  0  0  0
 15 34  1  0  0  0  0
 15 35  1  0  0  0  0
 16 25  1  0  0  0  0
 16 17  2  0  0  0  0
 17 18  1  0  0  0  0
 17 36  1  0  0  0  0
 18 19  2  0  0  0  0
 18 37  1  0  0  0  0
 19 24  1  0  0  0  0
 19 20  1  0  0  0  0
 20 21  2  0  0  0  0
 20 38  1  0  0  0  0
 21 22  1  0  0  0  0
 21 39  1  0  0  0  0
 22 23  2  0  0  0  0
 22 40  1  0  0  0  0
 23 24  1  0  0  0  0
 23 41  1  0  0  0  0
 24 25  2  0  0  0  0
M  END
> <s_m_source_file>
AV-unprocessed.smi

> <i_m_source_file_index>
95

> <i_lp_mmshare_version>
43012

> <i_f3d_flags>
0

> <s_epik_input>
TzFbQ0gyXVtDSDJdW0NIMl1bQ0BIXTFuKFtjSF1jKEYpYzI9TyljKD1PKW4yW0NIMl1jKFtjSF1bY0hdMyluYyhjMzQpW2NIXVtjSF1bY0hdW2NIXTQ=

> <s_epik_cmdline>
J2VwaWtfcHl0aG9uJywgJy1waCcsICc3LjAnLCAnLXRuJywgJzgnLCAnLW1hJywgJzIwMCcsICctbWV0YWxfYmluZGluZycsICctaW1hZScsICc8aW5maWxlLm1hZT4nLCAnLW9tYWUnLCAnPG91dGZpbGUubWFlPic=

> <r_lp_tautomer_probability>
1

> <r_epik_Ionization_Penalty>
0.0274176

> <r_epik_Ionization_Penalty_Charging>
1.11818e-08

> <r_epik_Ionization_Penalty_Neutral>
0.0274176

> <r_epik_State_Penalty>
0.0224396

> <r_epik_Charging_Adjusted_Penalty>
0.0224396

> <i_epik_Tot_Q>
0

> <i_epik_Tot_abs_Q>
0

> <r_epik_Metal_State_Penalty>
2.28695e-05

> <b_epik_Metal_Only>
0

> <s_epik_Chemistry_Notes>
This compound contains an acetal/aminal-like group ( X-CH(R)-Y where X, Y are N, S, or O) that may be acid/base labile, releasing an aldehyde.

> <s_lp_Force_Field>
OPLS_2005

> <r_lp_Energy>
34.6925

> <b_lp_Chiralities_Consistent>
1

> <s_lp_Variant>
AV-unprocessed.smi:95-2

> <Gold.Version>
5.8.1

> <Gold.Id.Protein>
6NUR|6NUR_protein|mol2

> <Gold.PLP.Fitness>
47.0215

> <Gold.PLP.PLP>
-45.7947

> <Gold.PLP.part.hbond>
-1.0000

> <Gold.PLP.part.metal>
0.0000

> <Gold.PLP.part.buried>
-2.9244

> <Gold.PLP.part.nonpolar>
-41.7692

> <Gold.PLP.part.repulsive>
0.3793

> <Gold.PLP.ligand.clash>
0.0000

> <Gold.PLP.ligand.torsion>
0.8934

> <Gold.PLP.Chemscore.Hbond>
1.0000

> <Gold.PLP.Chemscore.CHOScore>
0.0000

> <Gold.PLP.Chemscore.Metal>
0.0000

> <Gold.Chemscore.Hbonds>
donor molecule, donor type, donor heavy atom, donor atom, acceptor molecule, acceptor atom, score
      P1  H  6933  6944       L1    11  1.00

> <Gold.PLP.Chemscore.Internal.Correction>
0.0137

> <Gold.Rescore>
     Score         DG    S(hbond)    S(metal)    S(lipo)     H(rot)  DE(clash)    DE(int)     intcor
     13.98     -16.70       0.29        0.00     120.47       1.50       0.69       2.03       ----

> <Gold.Chemscore.Fitness>
13.9840

> <Gold.Chemscore.DG>
-16.7002

> <Gold.Chemscore.ZeroCoef>
-5.4800

> <Gold.Chemscore.Hbond>
0.2879

> <Gold.Chemscore.Metal>
0.0000

> <Gold.Chemscore.Lipo>
120.4681

> <Gold.Chemscore.Internal_Hbond>
0.0000

> <Gold.Chemscore.DEClash>
0.6869

> <Gold.Chemscore.DEInternal>
2.0294

> <Gold.Chemscore.Rot>
1.4985

> <Gold.Chemscore.Internal.Correction>
   9.000000E+99

> <Gold.Chemscore.Hbonds>
donor molecule, donor type, donor heavy atom, donor atom, acceptor molecule, acceptor atom, score
      P1  H  6933  6944       L1    11  0.40

> <Gold.Chemscore.Hbond.Weighted>
-0.9617

> <Gold.Chemscore.Metal.Weighted>
-0.0000

> <Gold.Chemscore.Lipo.Weighted>
-14.0948

> <Gold.Chemscore.Internal_Hbond.Weighted>
0.0000

> <Gold.Chemscore.DEClash.Weighted>
0.6869

> <Gold.Chemscore.DEInternal.Weighted>
2.0294

> <Gold.Chemscore.Rot.Weighted>
3.8362

> <Gold.Chemscore.Internal.Correction.Weighted>
   9.000000E+99

> <Gold.Protein.RotatedTorsions>
[ 6907 6896 6895 6894 ] final -111.11 input  -60.11 | X-H torsion
[ 7974 7965 7964 7962 ] final -131.68 input  175.53 | X-H torsion
[ 8008 7997 7996 7995 ] final  143.23 input   59.86 | X-H torsion
[ 10167 10162 10161 10158 ] final  -19.99 input  -65.29 | X-H torsion
[ 10718 10713 10712 10709 ] final   10.65 input   66.30 | X-H torsion
[ 10763 10752 10751 10750 ] final -178.52 input  -60.55 | X-H torsion
[ 11005 11000 10999 10996 ] final    0.44 input  -57.11 | X-H torsion

> <Gold.Protein.ActiveResidues>
 VAL166  LYS551  ARG553  GLY616  TRP617  ASP618  TYR619  PRO620  LYS621  CYS622 
 ASP623  PHE694  ASN695  SER759  ASP760  ASP761  ALA762  ILE779  LEU786  VAL792 
 PHE793  MET794  SER795  GLU796  ALA797  LYS798  CYS799  TRP800  GLU811  SER814 

> <Gold.Protein.RotatedAtoms>
  150.7669  133.9282  159.3418 H   0  0  0  0  0  0  0  0  0  0  0  0  # atno 6907 bound_to 6896
  151.7178  135.0898  160.0288 H   0  0  0  0  0  0  0  0  0  0  0  0  # atno 6908 bound_to 6896
  152.3669  133.6330  159.6093 H   0  0  0  0  0  0  0  0  0  0  0  0  # atno 6909 bound_to 6896
  144.9356  140.7179  143.4878 H   0  0  0  0  0  0  0  0  0  0  0  0  # atno 7974 bound_to 7965
  156.2934  140.2268  156.4856 H   0  0  0  0  0  0  0  0  0  0  0  0  # atno 8008 bound_to 7997
  154.7815  140.0460  157.1152 H   0  0  0  0  0  0  0  0  0  0  0  0  # atno 8009 bound_to 7997
  154.9753  140.3071  155.4973 H   0  0  0  0  0  0  0  0  0  0  0  0  # atno 8010 bound_to 7997
  140.7273  143.4765  151.0175 H   0  0  0  0  0  0  0  0  0  0  0  0  # atno 10167 bound_to 10162
  156.9840  130.6017  149.5679 H   0  0  0  0  0  0  0  0  0  0  0  0  # atno 10718 bound_to 10713
  154.5466  135.2810  155.1047 H   0  0  0  0  0  0  0  0  0  0  0  0  # atno 10763 bound_to 10752
  154.2508  135.6339  153.5243 H   0  0  0  0  0  0  0  0  0  0  0  0  # atno 10764 bound_to 10752
  152.9992  135.5582  154.6021 H   0  0  0  0  0  0  0  0  0  0  0  0  # atno 10765 bound_to 10752
  140.6266  133.9613  155.8252 H   0  0  0  0  0  0  0  0  0  0  0  0  # atno 11005 bound_to 11000
  145.3072  139.1830  143.4658 LP  0  0  0  0  0  0  0  0  0  0  0  0  # atno 17320 bound_to 7965
  146.3265  140.3072  142.8624 LP  0  0  0  0  0  0  0  0  0  0  0  0  # atno 17321 bound_to 7965
  139.8461  143.7500  152.3179 LP  0  0  0  0  0  0  0  0  0  0  0  0  # atno 17342 bound_to 10162
  139.7665  144.7490  151.0286 LP  0  0  0  0  0  0  0  0  0  0  0  0  # atno 17343 bound_to 10162
  156.0233  130.5327  150.8337 LP  0  0  0  0  0  0  0  0  0  0  0  0  # atno 17370 bound_to 10713
  157.5506  131.0943  150.9701 LP  0  0  0  0  0  0  0  0  0  0  0  0  # atno 17371 bound_to 10713
  141.0705  134.0212  157.3533 LP  0  0  0  0  0  0  0  0  0  0  0  0  # atno 17394 bound_to 11000
  139.9132  135.0193  156.7778 LP  0  0  0  0  0  0  0  0  0  0  0  0  # atno 17395 bound_to 11000

$$$$
