AV-unprocessed.smi:1749|AV-procd|sdf|7051|dock8
  -GOLD-   22720 8263D 1   1.00000     0.00000
 Structure written by MMmdl.
 31 32  0  0  0  0  0  0  0  0  2 V2000
  153.3391  141.6968  161.0487 C   0  0  0  0  0  0  0  0  0  0  0  0
  152.4301  142.7214  160.3553 C   0  0  1  0  0  0  0  0  0  0  0  0
  152.3754  144.0472  161.1384 C   0  0  0  0  0  0  0  0  0  0  0  0
  151.4704  145.0772  160.4441 C   0  0  0  0  0  0  0  0  0  0  0  0
  151.9145  145.3227  158.9921 C   0  0  0  0  0  0  0  0  0  0  0  0
  151.9893  144.0121  158.1811 C   0  0  2  0  0  0  0  0  0  0  0  0
  150.6571  143.4571  157.9519 N   0  0  0  0  0  0  0  0  0  0  0  0
  150.3598  142.2618  157.4065 C   0  0  0  0  0  0  0  0  0  0  0  0
  151.2773  141.5174  157.0631 O   0  0  0  0  0  0  0  0  0  0  0  0
  149.0461  141.9432  157.2632 N   0  5  0  0  0  0  0  0  0  0  0  0
  148.5513  141.4128  156.1291 C   0  0  0  0  0  0  0  0  0  0  0  0
  147.2747  141.0118  156.0191 N   0  0  0  0  0  0  0  0  0  0  0  0
  146.9746  140.4816  154.7716 N   0  0  0  0  0  0  0  0  0  0  0  0
  148.0350  140.5072  153.9650 C   0  0  0  0  0  0  0  0  0  0  0  0
  149.4964  141.1794  154.6561 S   0  0  0  0  0  0  0  0  0  0  0  0
  152.8735  142.9726  158.8981 C   0  0  0  0  0  0  0  0  0  0  0  0
  154.3682  142.0529  161.1036 H   0  0  0  0  0  0  0  0  0  0  0  0
  153.3425  140.7485  160.5108 H   0  0  0  0  0  0  0  0  0  0  0  0
  153.0006  141.4972  162.0658 H   0  0  0  0  0  0  0  0  0  0  0  0
  151.4234  142.3007  160.3378 H   0  0  0  0  0  0  0  0  0  0  0  0
  152.0125  143.8681  162.1510 H   0  0  0  0  0  0  0  0  0  0  0  0
  153.3810  144.4579  161.2390 H   0  0  0  0  0  0  0  0  0  0  0  0
  150.4373  144.7269  160.4595 H   0  0  0  0  0  0  0  0  0  0  0  0
  151.4837  146.0158  160.9984 H   0  0  0  0  0  0  0  0  0  0  0  0
  151.2402  146.0318  158.5106 H   0  0  0  0  0  0  0  0  0  0  0  0
  152.8969  145.7959  158.9961 H   0  0  0  0  0  0  0  0  0  0  0  0
  152.4438  144.2247  157.2119 H   0  0  0  0  0  0  0  0  0  0  0  0
  149.8794  144.0433  158.2174 H   0  0  0  0  0  0  0  0  0  0  0  0
  147.9559  140.1290  152.9568 H   0  0  0  0  0  0  0  0  0  0  0  0
  153.9066  143.3229  158.8922 H   0  0  0  0  0  0  0  0  0  0  0  0
  152.8693  142.0359  158.3389 H   0  0  0  0  0  0  0  0  0  0  0  0
  1  2  1  0  0  0  0
  1 17  1  0  0  0  0
  1 18  1  0  0  0  0
  1 19  1  0  0  0  0
  2 16  1  0  0  0  0
  2  3  1  0  0  0  0
  2 20  1  0  0  0  0
  3  4  1  0  0  0  0
  3 21  1  0  0  0  0
  3 22  1  0  0  0  0
  4  5  1  0  0  0  0
  4 23  1  0  0  0  0
  4 24  1  0  0  0  0
  5  6  1  0  0  0  0
  5 25  1  0  0  0  0
  5 26  1  0  0  0  0
  6  7  1  0  0  0  0
  6 16  1  0  0  0  0
  6 27  1  0  0  0  0
  7  8  1  0  0  0  0
  7 28  1  0  0  0  0
  8  9  2  0  0  0  0
  8 10  1  0  0  0  0
 10 11  1  0  0  0  0
 11 15  1  0  0  0  0
 11 12  2  0  0  0  0
 12 13  1  0  0  0  0
 13 14  2  0  0  0  0
 14 15  1  0  0  0  0
 14 29  1  0  0  0  0
 16 30  1  0  0  0  0
 16 31  1  0  0  0  0
M  CHG  1  10  -1
M  END
> <s_m_source_file>
AV-unprocessed.smi

> <i_m_source_file_index>
1749

> <i_lp_mmshare_version>
43012

> <i_f3d_flags>
0

> <s_epik_input>
W0NIM11bQ0BASF0xW0NIMl1bQ0gyXVtDSDJdW0NASF0oW0NIMl0xKVtOSF1DKD1PKVtOSF1jMm5uW2NIXXMy

> <s_epik_cmdline>
J2VwaWtfcHl0aG9uJywgJy1waCcsICc3LjAnLCAnLXRuJywgJzgnLCAnLW1hJywgJzIwMCcsICctbWV0YWxfYmluZGluZycsICctaW1hZScsICc8aW5maWxlLm1hZT4nLCAnLW9tYWUnLCAnPG91dGZpbGUubWFlPic=

> <r_lp_tautomer_probability>
1

> <r_epik_Ionization_Penalty>
4.55442

> <r_epik_Ionization_Penalty_Charging>
4.5081

> <r_epik_Ionization_Penalty_Neutral>
0.0463156

> <r_epik_State_Penalty>
4.50781

> <r_epik_Charging_Adjusted_Penalty>
9.01591

> <i_epik_Tot_Q>
-1

> <i_epik_Tot_abs_Q>
1

> <r_epik_Metal_State_Penalty>
0.823335

> <b_epik_Metal_Only>
1

> <s_lp_Force_Field>
OPLS_2005

> <r_lp_Energy>
7.79441

> <b_lp_Chiralities_Consistent>
1

> <s_lp_Variant>
AV-unprocessed.smi:1749-8

> <Gold.Version>
5.8.1

> <Gold.Id.Protein>
6NUR|6NUR_protein|mol2

> <Gold.PLP.Fitness>
38.9749

> <Gold.PLP.PLP>
-36.8964

> <Gold.PLP.part.hbond>
-0.6141

> <Gold.PLP.part.metal>
0.0000

> <Gold.PLP.part.buried>
-3.8657

> <Gold.PLP.part.nonpolar>
-33.2760

> <Gold.PLP.part.repulsive>
0.3356

> <Gold.PLP.ligand.clash>
0.0000

> <Gold.PLP.ligand.torsion>
0.4664

> <Gold.PLP.Chemscore.Hbond>
0.0000

> <Gold.PLP.Chemscore.CHOScore>
1.0000

> <Gold.PLP.Chemscore.Metal>
0.0000

> <Gold.Chemscore.Hbonds>
donor molecule, donor type, donor heavy atom, donor atom, acceptor molecule, acceptor atom, score
      L1  C    14    29       P1  7957  1.00

> <Gold.PLP.Chemscore.Internal.Correction>
0.0112

> <Gold.Rescore>
     Score         DG    S(hbond)    S(metal)    S(lipo)     H(rot)  DE(clash)    DE(int)     intcor
     13.00     -14.77       0.00        0.00     101.28       1.00       0.09       1.68       ----

> <Gold.Chemscore.Fitness>
13.0007

> <Gold.Chemscore.DG>
-14.7701

> <Gold.Chemscore.ZeroCoef>
-5.4800

> <Gold.Chemscore.Hbond>
0.0000

> <Gold.Chemscore.Metal>
0.0000

> <Gold.Chemscore.Lipo>
101.2832

> <Gold.Chemscore.Internal_Hbond>
0.0000

> <Gold.Chemscore.DEClash>
0.0857

> <Gold.Chemscore.DEInternal>
1.6838

> <Gold.Chemscore.Rot>
1.0000

> <Gold.Chemscore.Internal.Correction>
   9.000000E+99

> <Gold.Chemscore.Hbond.Weighted>
-0.0000

> <Gold.Chemscore.Metal.Weighted>
-0.0000

> <Gold.Chemscore.Lipo.Weighted>
-11.8501

> <Gold.Chemscore.Internal_Hbond.Weighted>
0.0000

> <Gold.Chemscore.DEClash.Weighted>
0.0857

> <Gold.Chemscore.DEInternal.Weighted>
1.6838

> <Gold.Chemscore.Rot.Weighted>
2.5600

> <Gold.Chemscore.Internal.Correction.Weighted>
   9.000000E+99

> <Gold.Protein.RotatedTorsions>
[ 6907 6896 6895 6894 ] final -160.44 input  -60.11 | X-H torsion
[ 7974 7965 7964 7962 ] final   54.71 input  175.53 | X-H torsion
[ 8008 7997 7996 7995 ] final   35.88 input   59.86 | X-H torsion
[ 10167 10162 10161 10158 ] final  124.87 input  -65.29 | X-H torsion
[ 10718 10713 10712 10709 ] final  169.21 input   66.30 | X-H torsion
[ 10763 10752 10751 10750 ] final -121.84 input  -60.55 | X-H torsion
[ 11005 11000 10999 10996 ] final -153.77 input  -57.11 | X-H torsion

> <Gold.Protein.ActiveResidues>
 VAL166  LYS551  ARG553  GLY616  TRP617  ASP618  TYR619  PRO620  LYS621  CYS622 
 ASP623  PHE694  ASN695  SER759  ASP760  ASP761  ALA762  ILE779  LEU786  VAL792 
 PHE793  MET794  SER795  GLU796  ALA797  LYS798  CYS799  TRP800  GLU811  SER814 

> <Gold.Protein.RotatedAtoms>
  151.3490  133.3932  159.2678 H   0  0  0  0  0  0  0  0  0  0  0  0  # atno 6907 bound_to 6896
  150.9816  134.9171  159.7858 H   0  0  0  0  0  0  0  0  0  0  0  0  # atno 6908 bound_to 6896
  152.5219  134.3454  159.9284 H   0  0  0  0  0  0  0  0  0  0  0  0  # atno 6909 bound_to 6896
  145.9580  139.4033  143.0265 H   0  0  0  0  0  0  0  0  0  0  0  0  # atno 7974 bound_to 7965
  155.1784  140.3298  155.4379 H   0  0  0  0  0  0  0  0  0  0  0  0  # atno 8008 bound_to 7997
  156.2485  140.1931  156.6833 H   0  0  0  0  0  0  0  0  0  0  0  0  # atno 8009 bound_to 7997
  154.6289  140.0585  156.9693 H   0  0  0  0  0  0  0  0  0  0  0  0  # atno 8010 bound_to 7997
  139.5717  144.6942  151.3761 H   0  0  0  0  0  0  0  0  0  0  0  0  # atno 10167 bound_to 10162
  157.0260  131.0246  151.2759 H   0  0  0  0  0  0  0  0  0  0  0  0  # atno 10718 bound_to 10713
  154.8677  135.4154  154.2685 H   0  0  0  0  0  0  0  0  0  0  0  0  # atno 10763 bound_to 10752
  153.3600  135.7003  153.6725 H   0  0  0  0  0  0  0  0  0  0  0  0  # atno 10764 bound_to 10752
  153.5630  135.3606  155.2779 H   0  0  0  0  0  0  0  0  0  0  0  0  # atno 10765 bound_to 10752
  140.7045  134.3900  157.5205 H   0  0  0  0  0  0  0  0  0  0  0  0  # atno 11005 bound_to 11000
  145.8079  140.9740  143.0964 LP  0  0  0  0  0  0  0  0  0  0  0  0  # atno 17320 bound_to 7965
  144.6809  139.9884  143.7484 LP  0  0  0  0  0  0  0  0  0  0  0  0  # atno 17321 bound_to 7965
  140.7001  143.7652  150.7389 LP  0  0  0  0  0  0  0  0  0  0  0  0  # atno 17342 bound_to 10162
  140.1160  143.4655  152.2341 LP  0  0  0  0  0  0  0  0  0  0  0  0  # atno 17343 bound_to 10162
  157.5214  130.8000  149.7813 LP  0  0  0  0  0  0  0  0  0  0  0  0  # atno 17370 bound_to 10713
  156.0086  130.3844  150.2344 LP  0  0  0  0  0  0  0  0  0  0  0  0  # atno 17371 bound_to 10713
  139.8888  134.8847  156.2456 LP  0  0  0  0  0  0  0  0  0  0  0  0  # atno 17394 bound_to 11000
  141.0136  133.7081  156.1152 LP  0  0  0  0  0  0  0  0  0  0  0  0  # atno 17395 bound_to 11000

$$$$
