AV-unprocessed.smi:1840|AV-procd|sdf|7493|dock3
  -GOLD-   22720 9193D 1   1.00000     0.00000
 Structure written by MMmdl.
 43 44  0  0  0  0  0  0  0  0  1 V2000
  150.7805  136.0200  155.9166 C   0  0  0  0  0  0  0  0  0  0  0  0
  149.8023  137.0700  155.3723 C   0  0  1  0  0  0  0  0  0  0  0  0
  150.5492  138.2519  154.7194 C   0  0  0  0  0  0  0  0  0  0  0  0
  149.6857  139.3952  154.4774 N   0  0  0  0  0  0  0  0  0  0  0  0
  148.3868  139.4048  154.0139 C   0  0  0  0  0  0  0  0  0  0  0  0
  147.9933  140.7098  153.9341 C   0  0  0  0  0  0  0  0  0  0  0  0
  149.1328  141.4340  154.3823 C   0  0  0  0  0  0  0  0  0  0  0  0
  150.1433  140.6448  154.7092 N   0  0  0  0  0  0  0  0  0  0  0  0
  148.9026  136.4312  154.4123 N   0  0  0  0  0  0  0  0  0  0  0  0
  147.6770  135.9607  154.6860 C   0  0  0  0  0  0  0  0  0  0  0  0
  147.1621  135.9827  155.8041 O   0  0  0  0  0  0  0  0  0  0  0  0
  147.0749  135.4822  153.5878 N   0  0  0  0  0  0  0  0  0  0  0  0
  145.7259  134.9153  153.5254 C   0  0  2  0  0  0  0  0  0  0  0  0
  145.8061  133.4019  153.2381 C   0  0  0  0  0  0  0  0  0  0  0  0
  146.2608  133.1035  151.7989 C   0  0  0  0  0  0  0  0  0  0  0  0
  145.3658  133.8158  150.7741 C   0  0  0  0  0  0  0  0  0  0  0  0
  145.3094  135.3286  151.0383 C   0  0  0  0  0  0  0  0  0  0  0  0
  144.8407  135.6365  152.4754 C   0  0  2  0  0  0  0  0  0  0  0  0
  144.7252  137.1515  152.7153 C   0  0  0  0  0  0  0  0  0  0  0  0
  151.4540  136.4566  156.6546 H   0  0  0  0  0  0  0  0  0  0  0  0
  151.3912  135.5947  155.1195 H   0  0  0  0  0  0  0  0  0  0  0  0
  150.2481  135.2013  156.4022 H   0  0  0  0  0  0  0  0  0  0  0  0
  149.2323  137.4480  156.2231 H   0  0  0  0  0  0  0  0  0  0  0  0
  151.3622  138.5824  155.3670 H   0  0  0  0  0  0  0  0  0  0  0  0
  151.0086  137.9420  153.7790 H   0  0  0  0  0  0  0  0  0  0  0  0
  147.8604  138.4926  153.7752 H   0  0  0  0  0  0  0  0  0  0  0  0
  147.0379  141.0890  153.6038 H   0  0  0  0  0  0  0  0  0  0  0  0
  149.2563  142.5028  154.4762 H   0  0  0  0  0  0  0  0  0  0  0  0
  149.2292  136.3704  153.4590 H   0  0  0  0  0  0  0  0  0  0  0  0
  147.5842  135.5228  152.7174 H   0  0  0  0  0  0  0  0  0  0  0  0
  145.2492  135.0279  154.5008 H   0  0  0  0  0  0  0  0  0  0  0  0
  146.4754  132.9165  153.9494 H   0  0  0  0  0  0  0  0  0  0  0  0
  144.8233  132.9563  153.3979 H   0  0  0  0  0  0  0  0  0  0  0  0
  147.2954  133.4207  151.6643 H   0  0  0  0  0  0  0  0  0  0  0  0
  146.2438  132.0279  151.6211 H   0  0  0  0  0  0  0  0  0  0  0  0
  145.7345  133.6285  149.7651 H   0  0  0  0  0  0  0  0  0  0  0  0
  144.3583  133.3999  150.8169 H   0  0  0  0  0  0  0  0  0  0  0  0
  146.2932  135.7665  150.8649 H   0  0  0  0  0  0  0  0  0  0  0  0
  144.6359  135.7970  150.3199 H   0  0  0  0  0  0  0  0  0  0  0  0
  143.8335  135.2293  152.5782 H   0  0  0  0  0  0  0  0  0  0  0  0
  145.6769  137.6561  152.5497 H   0  0  0  0  0  0  0  0  0  0  0  0
  144.4060  137.3655  153.7355 H   0  0  0  0  0  0  0  0  0  0  0  0
  143.9961  137.5998  152.0402 H   0  0  0  0  0  0  0  0  0  0  0  0
  1  2  1  0  0  0  0
  1 20  1  0  0  0  0
  1 21  1  0  0  0  0
  1 22  1  0  0  0  0
  2  3  1  0  0  0  0
  2  9  1  0  0  0  0
  2 23  1  0  0  0  0
  3  4  1  0  0  0  0
  3 24  1  0  0  0  0
  3 25  1  0  0  0  0
  4  8  1  0  0  0  0
  4  5  1  0  0  0  0
  5  6  2  0  0  0  0
  5 26  1  0  0  0  0
  6  7  1  0  0  0  0
  6 27  1  0  0  0  0
  7  8  2  0  0  0  0
  7 28  1  0  0  0  0
  9 10  1  0  0  0  0
  9 29  1  0  0  0  0
 10 11  2  0  0  0  0
 10 12  1  0  0  0  0
 12 13  1  0  0  0  0
 12 30  1  0  0  0  0
 13 18  1  0  0  0  0
 13 14  1  0  0  0  0
 13 31  1  0  0  0  0
 14 15  1  0  0  0  0
 14 32  1  0  0  0  0
 14 33  1  0  0  0  0
 15 16  1  0  0  0  0
 15 34  1  0  0  0  0
 15 35  1  0  0  0  0
 16 17  1  0  0  0  0
 16 36  1  0  0  0  0
 16 37  1  0  0  0  0
 17 18  1  0  0  0  0
 17 38  1  0  0  0  0
 17 39  1  0  0  0  0
 18 19  1  0  0  0  0
 18 40  1  0  0  0  0
 19 41  1  0  0  0  0
 19 42  1  0  0  0  0
 19 43  1  0  0  0  0
M  END
> <s_m_source_file>
AV-unprocessed.smi

> <i_m_source_file_index>
1840

> <i_lp_mmshare_version>
43012

> <i_f3d_flags>
0

> <s_epik_input>
bjFbY0hdW2NIXVtjSF1uMVtDSDJdW0NAQEhdKFtDSDNdKVtOSF1DKD1PKVtOSF1bQ0BASF0yW0NIMl1bQ0gyXVtDSDJdW0NIMl1bQ0BIXTJbQ0gzXQ==

> <s_epik_cmdline>
J2VwaWtfcHl0aG9uJywgJy1waCcsICc3LjAnLCAnLXRuJywgJzgnLCAnLW1hJywgJzIwMCcsICctbWV0YWxfYmluZGluZycsICctaW1hZScsICc8aW5maWxlLm1hZT4nLCAnLW9tYWUnLCAnPG91dGZpbGUubWFlPic=

> <r_lp_tautomer_probability>
1

> <r_epik_Ionization_Penalty>
7.38659e-05

> <r_epik_Ionization_Penalty_Charging>
0

> <r_epik_Ionization_Penalty_Neutral>
7.38659e-05

> <r_epik_State_Penalty>
-0

> <r_epik_Charging_Adjusted_Penalty>
0

> <i_epik_Tot_Q>
0

> <i_epik_Tot_abs_Q>
0

> <r_epik_Metal_State_Penalty>
-0

> <b_epik_Metal_Only>
0

> <s_lp_Force_Field>
OPLS_2005

> <r_lp_Energy>
6.71394

> <b_lp_Chiralities_Consistent>
1

> <s_lp_Variant>
AV-unprocessed.smi:1840-6

> <Gold.Version>
5.8.1

> <Gold.Id.Protein>
6NUR|6NUR_protein|mol2

> <Gold.PLP.Fitness>
39.7327

> <Gold.PLP.PLP>
-29.5894

> <Gold.PLP.part.hbond>
-3.0000

> <Gold.PLP.part.metal>
0.0000

> <Gold.PLP.part.buried>
-2.2723

> <Gold.PLP.part.nonpolar>
-23.9808

> <Gold.PLP.part.repulsive>
0.1333

> <Gold.PLP.ligand.clash>
0.0000

> <Gold.PLP.ligand.torsion>
0.7091

> <Gold.PLP.Chemscore.Hbond>
2.8400

> <Gold.PLP.Chemscore.CHOScore>
1.0000

> <Gold.PLP.Chemscore.Metal>
0.0000

> <Gold.Chemscore.Hbonds>
donor molecule, donor type, donor heavy atom, donor atom, acceptor molecule, acceptor atom, score
      L1  H     9    29       P1  7948  1.00
      L1  H    12    30       P1  7948  0.94
      P1  H  7989  7998       L1     8  0.86
      L1  C     7    28       P1  8028  1.00

> <Gold.PLP.Chemscore.Internal.Correction>
0.0415

> <Gold.Rescore>
     Score         DG    S(hbond)    S(metal)    S(lipo)     H(rot)  DE(clash)    DE(int)     intcor
     17.17     -17.86       2.73        0.00      62.08       1.56       0.02       0.66       ----

> <Gold.Chemscore.Fitness>
17.1743

> <Gold.Chemscore.DG>
-17.8612

> <Gold.Chemscore.ZeroCoef>
-5.4800

> <Gold.Chemscore.Hbond>
2.7261

> <Gold.Chemscore.Metal>
0.0000

> <Gold.Chemscore.Lipo>
62.0821

> <Gold.Chemscore.Internal_Hbond>
0.0000

> <Gold.Chemscore.DEClash>
0.0234

> <Gold.Chemscore.DEInternal>
0.6634

> <Gold.Chemscore.Rot>
1.5576

> <Gold.Chemscore.Internal.Correction>
   9.000000E+99

> <Gold.Chemscore.Hbonds>
donor molecule, donor type, donor heavy atom, donor atom, acceptor molecule, acceptor atom, score
      L1  H     9    29       P1  7948  0.89
      L1  H    12    30       P1  7948  0.91
      P1  H  7989  7998       L1     8  0.35

> <Gold.Chemscore.Hbond.Weighted>
-9.1051

> <Gold.Chemscore.Metal.Weighted>
-0.0000

> <Gold.Chemscore.Lipo.Weighted>
-7.2636

> <Gold.Chemscore.Internal_Hbond.Weighted>
0.0000

> <Gold.Chemscore.DEClash.Weighted>
0.0234

> <Gold.Chemscore.DEInternal.Weighted>
0.6634

> <Gold.Chemscore.Rot.Weighted>
3.9875

> <Gold.Chemscore.Internal.Correction.Weighted>
   9.000000E+99

> <Gold.Protein.RotatedTorsions>
[ 6907 6896 6895 6894 ] final  -90.08 input  -60.11 | X-H torsion
[ 7974 7965 7964 7962 ] final   16.86 input  175.53 | X-H torsion
[ 8008 7997 7996 7995 ] final   48.69 input   59.86 | X-H torsion
[ 10167 10162 10161 10158 ] final -174.44 input  -65.29 | X-H torsion
[ 10718 10713 10712 10709 ] final  114.44 input   66.30 | X-H torsion
[ 10763 10752 10751 10750 ] final   96.43 input  -60.55 | X-H torsion
[ 11005 11000 10999 10996 ] final -176.82 input  -57.11 | X-H torsion

> <Gold.Protein.ActiveResidues>
 VAL166  LYS551  ARG553  GLY616  TRP617  ASP618  TYR619  PRO620  LYS621  CYS622 
 ASP623  PHE694  ASN695  SER759  ASP760  ASP761  ALA762  ILE779  LEU786  VAL792 
 PHE793  MET794  SER795  GLU796  ALA797  LYS798  CYS799  TRP800  GLU811  SER814 

> <Gold.Protein.RotatedAtoms>
  150.6879  134.2487  159.4501 H   0  0  0  0  0  0  0  0  0  0  0  0  # atno 6907 bound_to 6896
  152.0426  134.9700  160.0583 H   0  0  0  0  0  0  0  0  0  0  0  0  # atno 6908 bound_to 6896
  152.1196  133.4311  159.4706 H   0  0  0  0  0  0  0  0  0  0  0  0  # atno 6909 bound_to 6896
  146.2236  139.8686  142.8591 H   0  0  0  0  0  0  0  0  0  0  0  0  # atno 7974 bound_to 7965
  155.3898  140.3433  155.4251 H   0  0  0  0  0  0  0  0  0  0  0  0  # atno 8008 bound_to 7997
  156.1564  140.1587  156.8719 H   0  0  0  0  0  0  0  0  0  0  0  0  # atno 8009 bound_to 7997
  154.5098  140.0793  156.7949 H   0  0  0  0  0  0  0  0  0  0  0  0  # atno 8010 bound_to 7997
  139.5634  144.1815  152.1274 H   0  0  0  0  0  0  0  0  0  0  0  0  # atno 10167 bound_to 10162
  157.6281  131.0998  150.7187 H   0  0  0  0  0  0  0  0  0  0  0  0  # atno 10718 bound_to 10713
  153.2649  135.4219  155.0930 H   0  0  0  0  0  0  0  0  0  0  0  0  # atno 10763 bound_to 10752
  154.8434  135.3458  154.6326 H   0  0  0  0  0  0  0  0  0  0  0  0  # atno 10764 bound_to 10752
  153.6746  135.7042  153.5194 H   0  0  0  0  0  0  0  0  0  0  0  0  # atno 10765 bound_to 10752
  140.4478  134.6371  157.4787 H   0  0  0  0  0  0  0  0  0  0  0  0  # atno 11005 bound_to 11000
  145.2631  141.0083  143.3815 LP  0  0  0  0  0  0  0  0  0  0  0  0  # atno 17320 bound_to 7965
  144.9283  139.4329  143.6508 LP  0  0  0  0  0  0  0  0  0  0  0  0  # atno 17321 bound_to 7965
  140.1333  144.5269  150.6789 LP  0  0  0  0  0  0  0  0  0  0  0  0  # atno 17342 bound_to 10162
  140.6916  143.2379  151.5116 LP  0  0  0  0  0  0  0  0  0  0  0  0  # atno 17343 bound_to 10162
  156.7531  130.4775  149.5452 LP  0  0  0  0  0  0  0  0  0  0  0  0  # atno 17370 bound_to 10713
  156.1465  130.6281  151.0539 LP  0  0  0  0  0  0  0  0  0  0  0  0  # atno 17371 bound_to 10713
  140.0026  134.6812  155.9505 LP  0  0  0  0  0  0  0  0  0  0  0  0  # atno 17394 bound_to 11000
  141.1677  133.6537  156.4539 LP  0  0  0  0  0  0  0  0  0  0  0  0  # atno 17395 bound_to 11000

$$$$
