AV-unprocessed.smi:613|AV-procd|sdf|3067|dock10
  -GOLD-   2262023593D 1   1.00000     0.00000
 Structure written by MMmdl.
 39 40  0  0  0  0  0  0  0  0  2 V2000
  151.1596  140.3854  157.7965 C   0  0  0  0  0  0  0  0  0  0  0  0
  151.2698  141.7424  157.2754 N   0  0  0  0  0  0  0  0  0  0  0  0
  150.8669  141.9971  155.8902 C   0  0  0  0  0  0  0  0  0  0  0  0
  149.5115  141.3605  155.5232 C   0  0  1  0  0  0  0  0  0  0  0  0
  148.3613  141.7789  156.4646 C   0  0  0  0  0  0  0  0  0  0  0  0
  147.0636  141.2567  156.0291 N   0  0  0  0  0  0  0  0  0  0  0  0
  145.9456  141.6423  156.9015 C   0  0  0  0  0  0  0  0  0  0  0  0
  145.9016  140.8971  158.2408 C   0  0  0  0  0  0  0  0  0  0  0  0
  145.7433  139.5723  158.1920 N   0  0  0  0  0  0  0  0  0  0  0  0
  146.0175  141.5088  159.3009 O   0  0  0  0  0  0  0  0  0  0  0  0
  146.8193  141.6473  154.6440 C   0  0  0  0  0  0  0  0  0  0  0  0
  147.9707  141.2244  153.7175 C   0  0  0  0  0  0  0  0  0  0  0  0
  149.1929  141.7746  154.1978 O   0  0  0  0  0  0  0  0  0  0  0  0
  151.4518  142.8111  158.1852 C   0  0  0  0  0  0  0  0  0  0  0  0
  152.2313  142.6957  159.3626 C   0  0  0  0  0  0  0  0  0  0  0  0
  152.3407  143.8067  160.2158 C   0  0  0  0  0  0  0  0  0  0  0  0
  151.6650  144.9809  159.8452 C   0  0  0  0  0  0  0  0  0  0  0  0
  150.9312  145.0845  158.7166 N   0  0  0  0  0  0  0  0  0  0  0  0
  150.8490  144.0034  157.9227 N   0  3  0  0  0  0  0  0  0  0  0  0
  152.0761  140.0945  158.3105 H   0  0  0  0  0  0  0  0  0  0  0  0
  150.9910  139.6704  156.9906 H   0  0  0  0  0  0  0  0  0  0  0  0
  150.3244  140.3053  158.4929 H   0  0  0  0  0  0  0  0  0  0  0  0
  150.8632  143.0617  155.6569 H   0  0  0  0  0  0  0  0  0  0  0  0
  151.6373  141.5704  155.2469 H   0  0  0  0  0  0  0  0  0  0  0  0
  149.6106  140.2735  155.5268 H   0  0  0  0  0  0  0  0  0  0  0  0
  148.5945  141.4174  157.4651 H   0  0  0  0  0  0  0  0  0  0  0  0
  148.3171  142.8677  156.5265 H   0  0  0  0  0  0  0  0  0  0  0  0
  145.9825  142.7143  157.1029 H   0  0  0  0  0  0  0  0  0  0  0  0
  144.9991  141.4648  156.3881 H   0  0  0  0  0  0  0  0  0  0  0  0
  145.7154  139.0368  159.0476 H   0  0  0  0  0  0  0  0  0  0  0  0
  145.6590  139.1094  157.2987 H   0  0  0  0  0  0  0  0  0  0  0  0
  145.8911  141.1980  154.2883 H   0  0  0  0  0  0  0  0  0  0  0  0
  146.6854  142.7286  154.5790 H   0  0  0  0  0  0  0  0  0  0  0  0
  148.0473  140.1374  153.6652 H   0  0  0  0  0  0  0  0  0  0  0  0
  147.7929  141.5828  152.7034 H   0  0  0  0  0  0  0  0  0  0  0  0
  152.7389  141.7803  159.6272 H   0  0  0  0  0  0  0  0  0  0  0  0
  152.9205  143.7602  161.1257 H   0  0  0  0  0  0  0  0  0  0  0  0
  151.7154  145.8622  160.4675 H   0  0  0  0  0  0  0  0  0  0  0  0
  150.2928  144.0772  157.0708 H   0  0  0  0  0  0  0  0  0  0  0  0
  1  2  1  0  0  0  0
  1 20  1  0  0  0  0
  1 21  1  0  0  0  0
  1 22  1  0  0  0  0
  2  3  1  0  0  0  0
  2 14  1  0  0  0  0
  3  4  1  0  0  0  0
  3 23  1  0  0  0  0
  3 24  1  0  0  0  0
  4 13  1  0  0  0  0
  4  5  1  0  0  0  0
  4 25  1  0  0  0  0
  5  6  1  0  0  0  0
  5 26  1  0  0  0  0
  5 27  1  0  0  0  0
  6  7  1  0  0  0  0
  6 11  1  0  0  0  0
  7  8  1  0  0  0  0
  7 28  1  0  0  0  0
  7 29  1  0  0  0  0
  8  9  1  0  0  0  0
  8 10  2  0  0  0  0
  9 30  1  0  0  0  0
  9 31  1  0  0  0  0
 11 12  1  0  0  0  0
 11 32  1  0  0  0  0
 11 33  1  0  0  0  0
 12 13  1  0  0  0  0
 12 34  1  0  0  0  0
 12 35  1  0  0  0  0
 14 19  1  0  0  0  0
 14 15  2  0  0  0  0
 15 16  1  0  0  0  0
 15 36  1  0  0  0  0
 16 17  2  0  0  0  0
 16 37  1  0  0  0  0
 17 18  1  0  0  0  0
 17 38  1  0  0  0  0
 18 19  2  0  0  0  0
 19 39  1  0  0  0  0
M  CHG  1  19   1
M  END
> <s_m_source_file>
AV-unprocessed.smi

> <i_m_source_file_index>
613

> <i_lp_mmshare_version>
43012

> <i_f3d_flags>
0

> <s_epik_input>
bjFuW2NIXVtjSF1bY0hdYzFOKFtDSDNdKVtDSDJdW0NAQEhdMltDSDJdTihbQ0gyXVtDSDJdTzIpW0NIMl1DKD1PKVtOSDJd

> <s_epik_cmdline>
J2VwaWtfcHl0aG9uJywgJy1waCcsICc3LjAnLCAnLXRuJywgJzgnLCAnLW1hJywgJzIwMCcsICctbWV0YWxfYmluZGluZycsICctaW1hZScsICc8aW5maWxlLm1hZT4nLCAnLW9tYWUnLCAnPG91dGZpbGUubWFlPic=

> <r_lp_tautomer_probability>
0.966961

> <r_epik_Ionization_Penalty>
1.86301

> <r_epik_Ionization_Penalty_Charging>
1.86058

> <r_epik_Ionization_Penalty_Neutral>
0.00243207

> <r_epik_State_Penalty>
1.48112

> <r_epik_Charging_Adjusted_Penalty>
3.3417

> <i_epik_Tot_Q>
1

> <i_epik_Tot_abs_Q>
1

> <r_epik_Metal_State_Penalty>
1.50193

> <b_epik_Metal_Only>
0

> <s_lp_Force_Field>
OPLS_2005

> <r_lp_Energy>
27.4635

> <b_lp_Chiralities_Consistent>
1

> <s_lp_Variant>
AV-unprocessed.smi:613-4

> <Gold.Version>
5.8.1

> <Gold.Id.Protein>
6NUR|6NUR_protein|mol2

> <Gold.PLP.Fitness>
42.0306

> <Gold.PLP.PLP>
-32.8457

> <Gold.PLP.part.hbond>
-3.8639

> <Gold.PLP.part.metal>
0.0000

> <Gold.PLP.part.buried>
-3.4463

> <Gold.PLP.part.nonpolar>
-25.7272

> <Gold.PLP.part.repulsive>
0.5451

> <Gold.PLP.ligand.clash>
0.0000

> <Gold.PLP.ligand.torsion>
0.5879

> <Gold.PLP.Chemscore.Hbond>
3.3858

> <Gold.PLP.Chemscore.CHOScore>
0.0000

> <Gold.PLP.Chemscore.Metal>
0.0000

> <Gold.Chemscore.Hbonds>
donor molecule, donor type, donor heavy atom, donor atom, acceptor molecule, acceptor atom, score
      L1  H    19    39       P1  8028  1.79
      P1  H  6934  6946       L1    10  0.91
      P1  H  8011  8017       L1    13  0.34

> <Gold.PLP.Chemscore.Internal.Correction>
0.2031

> <Gold.Rescore>
     Score         DG    S(hbond)    S(metal)    S(lipo)     H(rot)  DE(clash)    DE(int)     intcor
     13.59     -14.85       1.93        0.00      73.90       2.23       0.53       0.73       ----

> <Gold.Chemscore.Fitness>
13.5917

> <Gold.Chemscore.DG>
-14.8488

> <Gold.Chemscore.ZeroCoef>
-5.4800

> <Gold.Chemscore.Hbond>
1.9292

> <Gold.Chemscore.Metal>
0.0000

> <Gold.Chemscore.Lipo>
73.9003

> <Gold.Chemscore.Internal_Hbond>
0.0000

> <Gold.Chemscore.DEClash>
0.5314

> <Gold.Chemscore.DEInternal>
0.7257

> <Gold.Chemscore.Rot>
2.2348

> <Gold.Chemscore.Internal.Correction>
   9.000000E+99

> <Gold.Chemscore.Hbonds>
donor molecule, donor type, donor heavy atom, donor atom, acceptor molecule, acceptor atom, score
      L1  H    19    39       P1  8028  0.82
      P1  H  6934  6946       L1    10  0.87
      P1  H  8011  8017       L1    13  0.03

> <Gold.Chemscore.Hbond.Weighted>
-6.4436

> <Gold.Chemscore.Metal.Weighted>
-0.0000

> <Gold.Chemscore.Lipo.Weighted>
-8.6463

> <Gold.Chemscore.Internal_Hbond.Weighted>
0.0000

> <Gold.Chemscore.DEClash.Weighted>
0.5314

> <Gold.Chemscore.DEInternal.Weighted>
0.7257

> <Gold.Chemscore.Rot.Weighted>
5.7211

> <Gold.Chemscore.Internal.Correction.Weighted>
   9.000000E+99

> <Gold.Protein.RotatedTorsions>
[ 6907 6896 6895 6894 ] final -149.14 input  -60.11 | X-H torsion
[ 7974 7965 7964 7962 ] final   37.44 input  175.53 | X-H torsion
[ 8008 7997 7996 7995 ] final -172.06 input   59.86 | X-H torsion
[ 10167 10162 10161 10158 ] final  171.72 input  -65.29 | X-H torsion
[ 10718 10713 10712 10709 ] final  128.31 input   66.30 | X-H torsion
[ 10763 10752 10751 10750 ] final    0.61 input  -60.55 | X-H torsion
[ 11005 11000 10999 10996 ] final -159.15 input  -57.11 | X-H torsion

> <Gold.Protein.ActiveResidues>
 VAL166  LYS551  ARG553  GLY616  TRP617  ASP618  TYR619  PRO620  LYS621  CYS622 
 ASP623  PHE694  ASN695  SER759  ASP760  ASP761  ALA762  ILE779  LEU786  VAL792 
 PHE793  MET794  SER795  GLU796  ALA797  LYS798  CYS799  TRP800  GLU811  SER814 

> <Gold.Protein.RotatedAtoms>
  151.1799  133.4731  159.2593 H   0  0  0  0  0  0  0  0  0  0  0  0  # atno 6907 bound_to 6896
  151.1270  135.0110  159.8575 H   0  0  0  0  0  0  0  0  0  0  0  0  # atno 6908 bound_to 6896
  152.5458  134.1705  159.8648 H   0  0  0  0  0  0  0  0  0  0  0  0  # atno 6909 bound_to 6896
  146.1137  139.5893  142.9335 H   0  0  0  0  0  0  0  0  0  0  0  0  # atno 7974 bound_to 7965
  155.9397  140.1106  157.1066 H   0  0  0  0  0  0  0  0  0  0  0  0  # atno 8008 bound_to 7997
  154.4087  140.1221  156.4977 H   0  0  0  0  0  0  0  0  0  0  0  0  # atno 8009 bound_to 7997
  155.6977  140.3472  155.4922 H   0  0  0  0  0  0  0  0  0  0  0  0  # atno 8010 bound_to 7997
  139.5055  144.3454  151.9976 H   0  0  0  0  0  0  0  0  0  0  0  0  # atno 10167 bound_to 10162
  157.5256  131.1098  150.9088 H   0  0  0  0  0  0  0  0  0  0  0  0  # atno 10718 bound_to 10713
  153.3185  135.6967  153.7052 H   0  0  0  0  0  0  0  0  0  0  0  0  # atno 10763 bound_to 10752
  153.5901  135.3481  155.2908 H   0  0  0  0  0  0  0  0  0  0  0  0  # atno 10764 bound_to 10752
  154.8592  135.4316  154.2342 H   0  0  0  0  0  0  0  0  0  0  0  0  # atno 10765 bound_to 10752
  140.6458  134.4503  157.5234 H   0  0  0  0  0  0  0  0  0  0  0  0  # atno 11005 bound_to 11000
  145.5611  141.0404  143.2226 LP  0  0  0  0  0  0  0  0  0  0  0  0  # atno 17320 bound_to 7965
  144.7534  139.7136  143.7264 LP  0  0  0  0  0  0  0  0  0  0  0  0  # atno 17321 bound_to 7965
  140.2892  144.3773  150.6094 LP  0  0  0  0  0  0  0  0  0  0  0  0  # atno 17342 bound_to 10162
  140.5959  143.2167  151.7164 LP  0  0  0  0  0  0  0  0  0  0  0  0  # atno 17343 bound_to 10162
  156.9685  130.5482  149.5289 LP  0  0  0  0  0  0  0  0  0  0  0  0  # atno 17370 bound_to 10713
  156.0384  130.5469  150.8711 LP  0  0  0  0  0  0  0  0  0  0  0  0  # atno 17371 bound_to 10713
  139.9063  134.8441  156.1692 LP  0  0  0  0  0  0  0  0  0  0  0  0  # atno 17394 bound_to 11000
  141.0573  133.6859  156.1885 LP  0  0  0  0  0  0  0  0  0  0  0  0  # atno 17395 bound_to 11000

$$$$
