AV-unprocessed.smi:1723|AV-procd|sdf|6947|dock5
  -GOLD-   22720 8153D 1   1.00000     0.00000
 Structure written by MMmdl.
 37 37  0  0  0  0  0  0  0  0  2 V2000
  150.0591  131.7464  155.6711 C   0  0  0  0  0  0  0  0  0  0  0  0
  149.7222  133.1449  155.1421 C   0  0  0  0  0  0  0  0  0  0  0  0
  150.7522  134.2014  155.5708 C   0  0  0  0  0  0  0  0  0  0  0  0
  150.4046  135.6095  155.0726 C   0  0  0  0  0  0  0  0  0  0  0  0
  151.3613  136.5326  155.5810 O   0  0  0  0  0  0  0  0  0  0  0  0
  151.0041  137.9075  155.4675 C   0  0  2  0  0  0  0  0  0  0  0  0
  151.0490  138.2751  153.9771 C   0  0  0  0  0  0  0  0  0  0  0  0
  151.9720  138.7778  156.2856 C   0  0  0  0  0  0  0  0  0  0  0  0
  153.1841  138.6600  156.1079 O   0  0  0  0  0  0  0  0  0  0  0  0
  151.3892  139.6019  157.1787 N   0  0  0  0  0  0  0  0  0  0  0  0
  151.9676  140.5170  158.0754 C   0  0  0  0  0  0  0  0  0  0  0  0
  151.5771  141.8126  158.2338 C   0  0  0  0  0  0  0  0  0  0  0  0
  152.2162  142.7097  159.1883 C   0  0  0  0  0  0  0  0  0  0  0  0
  151.7554  144.1343  159.4419 C   0  0  0  0  0  0  0  0  0  0  0  0
  151.8972  144.4652  160.7257 F   0  0  0  0  0  0  0  0  0  0  0  0
  152.4795  144.9812  158.7118 F   0  0  0  0  0  0  0  0  0  0  0  0
  150.4742  144.2882  159.1071 F   0  0  0  0  0  0  0  0  0  0  0  0
  153.2150  142.0836  159.9083 C   0  0  0  0  0  0  0  0  0  0  0  0
  153.6677  140.8147  159.8086 N   0  5  0  0  0  0  0  0  0  0  0  0
  153.0689  139.9872  158.9065 C   0  0  0  0  0  0  0  0  0  0  0  0
  153.4256  138.8161  158.7718 O   0  0  0  0  0  0  0  0  0  0  0  0
  149.3116  131.0200  155.3520 H   0  0  0  0  0  0  0  0  0  0  0  0
  150.0903  131.7346  156.7608 H   0  0  0  0  0  0  0  0  0  0  0  0
  151.0285  131.4088  155.3038 H   0  0  0  0  0  0  0  0  0  0  0  0
  149.6626  133.1123  154.0536 H   0  0  0  0  0  0  0  0  0  0  0  0
  148.7313  133.4322  155.4956 H   0  0  0  0  0  0  0  0  0  0  0  0
  150.8445  134.2119  156.6574 H   0  0  0  0  0  0  0  0  0  0  0  0
  151.7321  133.9221  155.1821 H   0  0  0  0  0  0  0  0  0  0  0  0
  150.4264  135.6280  153.9822 H   0  0  0  0  0  0  0  0  0  0  0  0
  149.3910  135.8681  155.3810 H   0  0  0  0  0  0  0  0  0  0  0  0
  149.9817  138.0473  155.8241 H   0  0  0  0  0  0  0  0  0  0  0  0
  150.8044  139.3264  153.8208 H   0  0  0  0  0  0  0  0  0  0  0  0
  150.3297  137.6822  153.4117 H   0  0  0  0  0  0  0  0  0  0  0  0
  152.0348  138.0918  153.5476 H   0  0  0  0  0  0  0  0  0  0  0  0
  150.3832  139.5425  157.2450 H   0  0  0  0  0  0  0  0  0  0  0  0
  150.7645  142.2237  157.6593 H   0  0  0  0  0  0  0  0  0  0  0  0
  153.7255  142.6929  160.6844 H   0  0  0  0  0  0  0  0  0  0  0  0
  1  2  1  0  0  0  0
  1 22  1  0  0  0  0
  1 23  1  0  0  0  0
  1 24  1  0  0  0  0
  2  3  1  0  0  0  0
  2 25  1  0  0  0  0
  2 26  1  0  0  0  0
  3  4  1  0  0  0  0
  3 27  1  0  0  0  0
  3 28  1  0  0  0  0
  4  5  1  0  0  0  0
  4 29  1  0  0  0  0
  4 30  1  0  0  0  0
  5  6  1  0  0  0  0
  6  7  1  0  0  0  0
  6  8  1  0  0  0  0
  6 31  1  0  0  0  0
  7 32  1  0  0  0  0
  7 33  1  0  0  0  0
  7 34  1  0  0  0  0
  8  9  2  0  0  0  0
  8 10  1  0  0  0  0
 10 11  1  0  0  0  0
 10 35  1  0  0  0  0
 11 20  1  0  0  0  0
 11 12  2  0  0  0  0
 12 13  1  0  0  0  0
 12 36  1  0  0  0  0
 13 14  1  0  0  0  0
 13 18  2  0  0  0  0
 14 15  1  0  0  0  0
 14 16  1  0  0  0  0
 14 17  1  0  0  0  0
 18 19  1  0  0  0  0
 18 37  1  0  0  0  0
 19 20  1  0  0  0  0
 20 21  2  0  0  0  0
M  CHG  1  19  -1
M  END
> <s_m_source_file>
AV-unprocessed.smi

> <i_m_source_file_index>
1723

> <i_lp_mmshare_version>
43012

> <i_f3d_flags>
0

> <s_epik_input>
W0NIM11bQ0gyXVtDSDJdW0NIMl1PW0NASF0oW0NIM10pQyg9TylbTkhdYzFbY0hdYyhDKEYpKEYpRilbY0hdW25IXWMxPU8=

> <s_epik_cmdline>
J2VwaWtfcHl0aG9uJywgJy1waCcsICc3LjAnLCAnLXRuJywgJzgnLCAnLW1hJywgJzIwMCcsICctbWV0YWxfYmluZGluZycsICctaW1hZScsICc8aW5maWxlLm1hZT4nLCAnLW9tYWUnLCAnPG91dGZpbGUubWFlPic=

> <r_lp_tautomer_probability>
0.999

> <r_epik_Ionization_Penalty>
2.64397

> <r_epik_Ionization_Penalty_Charging>
0.0618254

> <r_epik_Ionization_Penalty_Neutral>
2.58215

> <r_epik_State_Penalty>
2.58023

> <r_epik_Charging_Adjusted_Penalty>
2.64205

> <i_epik_Tot_Q>
-1

> <i_epik_Tot_abs_Q>
1

> <r_epik_Metal_State_Penalty>
0.429101

> <b_epik_Metal_Only>
1

> <s_lp_Force_Field>
OPLS_2005

> <r_lp_Energy>
21.4098

> <b_lp_Chiralities_Consistent>
1

> <s_lp_Variant>
AV-unprocessed.smi:1723-3

> <Gold.Version>
5.8.1

> <Gold.Id.Protein>
6NUR|6NUR_protein|mol2

> <Gold.PLP.Fitness>
43.9726

> <Gold.PLP.PLP>
-42.9464

> <Gold.PLP.part.hbond>
-1.8816

> <Gold.PLP.part.metal>
0.0000

> <Gold.PLP.part.buried>
-7.5208

> <Gold.PLP.part.nonpolar>
-34.2635

> <Gold.PLP.part.repulsive>
0.1350

> <Gold.PLP.ligand.clash>
0.0000

> <Gold.PLP.ligand.torsion>
1.6815

> <Gold.PLP.Chemscore.Hbond>
1.3987

> <Gold.PLP.Chemscore.CHOScore>
0.0000

> <Gold.PLP.Chemscore.Metal>
0.0000

> <Gold.Chemscore.Hbonds>
donor molecule, donor type, donor heavy atom, donor atom, acceptor molecule, acceptor atom, score
      P1  H  7997  8010       L1     9  0.70
      P1  H 10752 10764       L1     5  0.65

> <Gold.PLP.Chemscore.Internal.Correction>
0.1931

> <Gold.Rescore>
     Score         DG    S(hbond)    S(metal)    S(lipo)     H(rot)  DE(clash)    DE(int)     intcor
     13.13     -15.40       1.73        0.00      78.10       1.95       0.00       2.27       ----

> <Gold.Chemscore.Fitness>
13.1307

> <Gold.Chemscore.DG>
-15.4008

> <Gold.Chemscore.ZeroCoef>
-5.4800

> <Gold.Chemscore.Hbond>
1.7296

> <Gold.Chemscore.Metal>
0.0000

> <Gold.Chemscore.Lipo>
78.1009

> <Gold.Chemscore.Internal_Hbond>
0.0000

> <Gold.Chemscore.DEClash>
0.0014

> <Gold.Chemscore.DEInternal>
2.2687

> <Gold.Chemscore.Rot>
1.9507

> <Gold.Chemscore.Internal.Correction>
   9.000000E+99

> <Gold.Chemscore.Hbonds>
donor molecule, donor type, donor heavy atom, donor atom, acceptor molecule, acceptor atom, score
      P1  H  7997  8010       L1     9  0.67
      P1  H 10752 10764       L1     5  0.06

> <Gold.Chemscore.Hbond.Weighted>
-5.7769

> <Gold.Chemscore.Metal.Weighted>
-0.0000

> <Gold.Chemscore.Lipo.Weighted>
-9.1378

> <Gold.Chemscore.Internal_Hbond.Weighted>
0.0000

> <Gold.Chemscore.DEClash.Weighted>
0.0014

> <Gold.Chemscore.DEInternal.Weighted>
2.2687

> <Gold.Chemscore.Rot.Weighted>
4.9939

> <Gold.Chemscore.Internal.Correction.Weighted>
   9.000000E+99

> <Gold.Protein.RotatedTorsions>
[ 6907 6896 6895 6894 ] final  -20.82 input  -60.11 | X-H torsion
[ 7974 7965 7964 7962 ] final -151.65 input  175.53 | X-H torsion
[ 8008 7997 7996 7995 ] final   49.23 input   59.86 | X-H torsion
[ 10167 10162 10161 10158 ] final    6.45 input  -65.29 | X-H torsion
[ 10718 10713 10712 10709 ] final -107.57 input   66.30 | X-H torsion
[ 10763 10752 10751 10750 ] final  -49.03 input  -60.55 | X-H torsion
[ 11005 11000 10999 10996 ] final  155.05 input  -57.11 | X-H torsion

> <Gold.Protein.ActiveResidues>
 VAL166  LYS551  ARG553  GLY616  TRP617  ASP618  TYR619  PRO620  LYS621  CYS622 
 ASP623  PHE694  ASN695  SER759  ASP760  ASP761  ALA762  ILE779  LEU786  VAL792 
 PHE793  MET794  SER795  GLU796  ALA797  LYS798  CYS799  TRP800  GLU811  SER814 

> <Gold.Protein.RotatedAtoms>
  151.2424  135.0593  159.9030 H   0  0  0  0  0  0  0  0  0  0  0  0  # atno 6907 bound_to 6896
  152.5391  134.0419  159.8082 H   0  0  0  0  0  0  0  0  0  0  0  0  # atno 6908 bound_to 6896
  151.0615  133.5491  159.2665 H   0  0  0  0  0  0  0  0  0  0  0  0  # atno 6909 bound_to 6896
  144.7838  140.4768  143.5821 H   0  0  0  0  0  0  0  0  0  0  0  0  # atno 7974 bound_to 7965
  155.3988  140.3437  155.4255 H   0  0  0  0  0  0  0  0  0  0  0  0  # atno 8008 bound_to 7997
  156.1516  140.1572  156.8793 H   0  0  0  0  0  0  0  0  0  0  0  0  # atno 8009 bound_to 7997
  154.5057  140.0803  156.7870 H   0  0  0  0  0  0  0  0  0  0  0  0  # atno 8010 bound_to 7997
  140.6427  143.7736  150.7452 H   0  0  0  0  0  0  0  0  0  0  0  0  # atno 10167 bound_to 10162
  156.0443  130.5669  150.7840 H   0  0  0  0  0  0  0  0  0  0  0  0  # atno 10718 bound_to 10713
  154.0874  135.6582  153.4847 H   0  0  0  0  0  0  0  0  0  0  0  0  # atno 10763 bound_to 10752
  153.0334  135.5194  154.7414 H   0  0  0  0  0  0  0  0  0  0  0  0  # atno 10764 bound_to 10752
  154.6527  135.3003  154.9934 H   0  0  0  0  0  0  0  0  0  0  0  0  # atno 10765 bound_to 10752
  140.1545  134.8652  157.2497 H   0  0  0  0  0  0  0  0  0  0  0  0  # atno 11005 bound_to 11000
  145.5978  139.1501  143.3146 LP  0  0  0  0  0  0  0  0  0  0  0  0  # atno 17320 bound_to 7965
  146.2059  140.6101  142.9081 LP  0  0  0  0  0  0  0  0  0  0  0  0  # atno 17321 bound_to 7965
  140.1371  143.4474  152.2218 LP  0  0  0  0  0  0  0  0  0  0  0  0  # atno 17342 bound_to 10162
  139.5636  144.7421  151.4084 LP  0  0  0  0  0  0  0  0  0  0  0  0  # atno 17343 bound_to 10162
  157.5299  131.0936  150.9968 LP  0  0  0  0  0  0  0  0  0  0  0  0  # atno 17370 bound_to 10713
  157.0277  130.5699  149.5339 LP  0  0  0  0  0  0  0  0  0  0  0  0  # atno 17371 bound_to 10713
  140.2564  134.3623  155.7423 LP  0  0  0  0  0  0  0  0  0  0  0  0  # atno 17394 bound_to 11000
  141.2203  133.7345  156.9013 LP  0  0  0  0  0  0  0  0  0  0  0  0  # atno 17395 bound_to 11000

$$$$
