AV-unprocessed.smi:671|AV-procd|sdf|3288|dock10
  -GOLD-   22720 0243D 1   1.00000     0.00000
 Structure written by MMmdl.
 50 51  0  0  0  0  0  0  0  0  2 V2000
  147.0374  140.4592  157.7322 C   0  0  0  0  0  0  0  0  0  0  0  0
  146.4017  141.4367  156.8014 C   0  0  0  0  0  0  0  0  0  0  0  0
  145.3398  142.2229  157.1242 N   0  3  0  0  0  0  0  0  0  0  0  0
  144.9948  142.9889  156.0796 N   0  0  0  0  0  0  0  0  0  0  0  0
  143.8682  143.9107  156.2247 C   0  0  0  0  0  0  0  0  0  0  0  0
  145.8197  142.7426  155.0222 C   0  0  0  0  0  0  0  0  0  0  0  0
  145.7197  143.4187  153.6934 C   0  0  0  0  0  0  0  0  0  0  0  0
  146.7132  141.7635  155.4761 C   0  0  0  0  0  0  0  0  0  0  0  0
  147.8242  141.1574  154.6652 C   0  0  0  0  0  0  0  0  0  0  0  0
  149.0796  140.8263  155.5036 C   0  0  1  0  0  0  0  0  0  0  0  0
  150.1696  140.1216  154.6810 C   0  0  0  0  0  0  0  0  0  0  0  0
  149.6412  142.0504  156.0806 N   0  0  0  0  0  0  0  0  0  0  0  0
  150.7317  142.1807  156.8591 C   0  0  0  0  0  0  0  0  0  0  0  0
  151.4143  141.2119  157.1846 O   0  0  0  0  0  0  0  0  0  0  0  0
  150.9986  143.4421  157.2366 N   0  0  0  0  0  0  0  0  0  0  0  0
  152.1320  143.8799  158.0455 C   0  0  1  0  0  0  0  0  0  0  0  0
  151.9856  145.3692  158.4144 C   0  0  0  0  0  0  0  0  0  0  0  0
  151.7561  145.4157  159.9259 C   0  0  0  0  0  0  0  0  0  0  0  0
  152.4585  144.1677  160.4499 C   0  0  0  0  0  0  0  0  0  0  0  0
  152.1798  143.1071  159.3811 C   0  0  2  0  0  0  0  0  0  0  0  0
  153.1861  141.9483  159.3893 C   0  0  0  0  0  0  0  0  0  0  0  0
  147.0525  139.4660  157.2829 H   0  0  0  0  0  0  0  0  0  0  0  0
  146.4847  140.4060  158.6706 H   0  0  0  0  0  0  0  0  0  0  0  0
  148.0622  140.7586  157.9508 H   0  0  0  0  0  0  0  0  0  0  0  0
  143.4857  144.1811  155.2403 H   0  0  0  0  0  0  0  0  0  0  0  0
  144.2065  144.8079  156.7437 H   0  0  0  0  0  0  0  0  0  0  0  0
  143.0736  143.4316  156.7982 H   0  0  0  0  0  0  0  0  0  0  0  0
  146.5503  143.1359  153.0484 H   0  0  0  0  0  0  0  0  0  0  0  0
  145.7362  144.5015  153.8181 H   0  0  0  0  0  0  0  0  0  0  0  0
  144.7902  143.1378  153.1982 H   0  0  0  0  0  0  0  0  0  0  0  0
  147.4780  140.2548  154.1606 H   0  0  0  0  0  0  0  0  0  0  0  0
  148.0871  141.8462  153.8614 H   0  0  0  0  0  0  0  0  0  0  0  0
  148.8033  140.1499  156.3141 H   0  0  0  0  0  0  0  0  0  0  0  0
  149.8185  139.1675  154.2880 H   0  0  0  0  0  0  0  0  0  0  0  0
  151.0483  139.9141  155.2925 H   0  0  0  0  0  0  0  0  0  0  0  0
  150.4897  140.7340  153.8371 H   0  0  0  0  0  0  0  0  0  0  0  0
  149.1309  142.8997  155.8841 H   0  0  0  0  0  0  0  0  0  0  0  0
  150.3674  144.1651  156.9250 H   0  0  0  0  0  0  0  0  0  0  0  0
  153.0720  143.7491  157.5062 H   0  0  0  0  0  0  0  0  0  0  0  0
  152.9126  145.8914  158.1731 H   0  0  0  0  0  0  0  0  0  0  0  0
  151.1859  145.8735  157.8696 H   0  0  0  0  0  0  0  0  0  0  0  0
  152.1331  146.3326  160.3798 H   0  0  0  0  0  0  0  0  0  0  0  0
  150.6887  145.3526  160.1393 H   0  0  0  0  0  0  0  0  0  0  0  0
  153.5306  144.3571  160.5233 H   0  0  0  0  0  0  0  0  0  0  0  0
  152.1046  143.8713  161.4379 H   0  0  0  0  0  0  0  0  0  0  0  0
  151.1888  142.6988  159.5902 H   0  0  0  0  0  0  0  0  0  0  0  0
  154.2012  142.3021  159.2055 H   0  0  0  0  0  0  0  0  0  0  0  0
  152.9436  141.2162  158.6183 H   0  0  0  0  0  0  0  0  0  0  0  0
  153.1820  141.4333  160.3503 H   0  0  0  0  0  0  0  0  0  0  0  0
  144.8343  142.2732  157.9997 H   0  0  0  0  0  0  0  0  0  0  0  0
  1  2  1  0  0  0  0
  1 22  1  0  0  0  0
  1 23  1  0  0  0  0
  1 24  1  0  0  0  0
  2  8  1  0  0  0  0
  2  3  2  0  0  0  0
  3  4  1  0  0  0  0
  3 50  1  0  0  0  0
  4  5  1  0  0  0  0
  4  6  1  0  0  0  0
  5 25  1  0  0  0  0
  5 26  1  0  0  0  0
  5 27  1  0  0  0  0
  6  7  1  0  0  0  0
  6  8  2  0  0  0  0
  7 28  1  0  0  0  0
  7 29  1  0  0  0  0
  7 30  1  0  0  0  0
  8  9  1  0  0  0  0
  9 10  1  0  0  0  0
  9 31  1  0  0  0  0
  9 32  1  0  0  0  0
 10 11  1  0  0  0  0
 10 12  1  0  0  0  0
 10 33  1  0  0  0  0
 11 34  1  0  0  0  0
 11 35  1  0  0  0  0
 11 36  1  0  0  0  0
 12 13  1  0  0  0  0
 12 37  1  0  0  0  0
 13 14  2  0  0  0  0
 13 15  1  0  0  0  0
 15 16  1  0  0  0  0
 15 38  1  0  0  0  0
 16 20  1  0  0  0  0
 16 17  1  0  0  0  0
 16 39  1  0  0  0  0
 17 18  1  0  0  0  0
 17 40  1  0  0  0  0
 17 41  1  0  0  0  0
 18 19  1  0  0  0  0
 18 42  1  0  0  0  0
 18 43  1  0  0  0  0
 19 20  1  0  0  0  0
 19 44  1  0  0  0  0
 19 45  1  0  0  0  0
 20 21  1  0  0  0  0
 20 46  1  0  0  0  0
 21 47  1  0  0  0  0
 21 48  1  0  0  0  0
 21 49  1  0  0  0  0
M  CHG  1   3   1
M  END
> <s_m_source_file>
AV-unprocessed.smi

> <i_m_source_file_index>
671

> <i_lp_mmshare_version>
43012

> <i_f3d_flags>
0

> <s_epik_input>
W0NIM11jMW5uKFtDSDNdKWMoW0NIM10pYzFbQ0gyXVtDQEhdKFtDSDNdKVtOSF1DKD1PKVtOSF1bQ0BASF0yW0NIMl1bQ0gyXVtDSDJdW0NASF0yW0NIM10=

> <s_epik_cmdline>
J2VwaWtfcHl0aG9uJywgJy1waCcsICc3LjAnLCAnLXRuJywgJzgnLCAnLW1hJywgJzIwMCcsICctbWV0YWxfYmluZGluZycsICctaW1hZScsICc8aW5maWxlLm1hZT4nLCAnLW9tYWUnLCAnPG91dGZpbGUubWFlPic=

> <r_lp_tautomer_probability>
1

> <r_epik_Ionization_Penalty>
2.28705

> <r_epik_Ionization_Penalty_Charging>
2.28698

> <r_epik_Ionization_Penalty_Neutral>
6.23157e-05

> <r_epik_State_Penalty>
2.43671

> <r_epik_Charging_Adjusted_Penalty>
4.72369

> <i_epik_Tot_Q>
1

> <i_epik_Tot_abs_Q>
1

> <r_epik_Metal_State_Penalty>
2.44911

> <b_epik_Metal_Only>
0

> <s_lp_Force_Field>
OPLS_2005

> <r_lp_Energy>
34.8229

> <b_lp_Chiralities_Consistent>
1

> <s_lp_Variant>
AV-unprocessed.smi:671-16

> <Gold.Version>
5.8.1

> <Gold.Id.Protein>
6NUR|6NUR_protein|mol2

> <Gold.PLP.Fitness>
51.3854

> <Gold.PLP.PLP>
-46.1757

> <Gold.PLP.part.hbond>
-2.0000

> <Gold.PLP.part.metal>
0.0000

> <Gold.PLP.part.buried>
-5.6825

> <Gold.PLP.part.nonpolar>
-38.9445

> <Gold.PLP.part.repulsive>
0.1203

> <Gold.PLP.ligand.clash>
0.0000

> <Gold.PLP.ligand.torsion>
0.4025

> <Gold.PLP.Chemscore.Hbond>
1.9920

> <Gold.PLP.Chemscore.CHOScore>
0.0000

> <Gold.PLP.Chemscore.Metal>
0.0000

> <Gold.Chemscore.Hbonds>
donor molecule, donor type, donor heavy atom, donor atom, acceptor molecule, acceptor atom, score
      L1  H    12    37       P1  8028  1.00
      L1  H    15    38       P1  8028  0.99

> <Gold.PLP.Chemscore.Internal.Correction>
0.0387

> <Gold.Rescore>
     Score         DG    S(hbond)    S(metal)    S(lipo)     H(rot)  DE(clash)    DE(int)     intcor
     19.44     -20.67       1.94        0.00     107.36       1.51       0.13       1.09       ----

> <Gold.Chemscore.Fitness>
19.4436

> <Gold.Chemscore.DG>
-20.6651

> <Gold.Chemscore.ZeroCoef>
-5.4800

> <Gold.Chemscore.Hbond>
1.9397

> <Gold.Chemscore.Metal>
0.0000

> <Gold.Chemscore.Lipo>
107.3604

> <Gold.Chemscore.Internal_Hbond>
0.0000

> <Gold.Chemscore.DEClash>
0.1290

> <Gold.Chemscore.DEInternal>
1.0926

> <Gold.Chemscore.Rot>
1.5057

> <Gold.Chemscore.Internal.Correction>
   9.000000E+99

> <Gold.Chemscore.Hbonds>
donor molecule, donor type, donor heavy atom, donor atom, acceptor molecule, acceptor atom, score
      L1  H    12    37       P1  8028  0.99
      L1  H    15    38       P1  8028  0.87

> <Gold.Chemscore.Hbond.Weighted>
-6.4786

> <Gold.Chemscore.Metal.Weighted>
-0.0000

> <Gold.Chemscore.Lipo.Weighted>
-12.5612

> <Gold.Chemscore.Internal_Hbond.Weighted>
0.0000

> <Gold.Chemscore.DEClash.Weighted>
0.1290

> <Gold.Chemscore.DEInternal.Weighted>
1.0926

> <Gold.Chemscore.Rot.Weighted>
3.8547

> <Gold.Chemscore.Internal.Correction.Weighted>
   9.000000E+99

> <Gold.Protein.RotatedTorsions>
[ 6907 6896 6895 6894 ] final   -1.53 input  -60.11 | X-H torsion
[ 7974 7965 7964 7962 ] final -122.62 input  175.53 | X-H torsion
[ 8008 7997 7996 7995 ] final -170.90 input   59.86 | X-H torsion
[ 10167 10162 10161 10158 ] final  -54.98 input  -65.29 | X-H torsion
[ 10718 10713 10712 10709 ] final   -2.25 input   66.30 | X-H torsion
[ 10763 10752 10751 10750 ] final -171.91 input  -60.55 | X-H torsion
[ 11005 11000 10999 10996 ] final  -64.82 input  -57.11 | X-H torsion

> <Gold.Protein.ActiveResidues>
 VAL166  LYS551  ARG553  GLY616  TRP617  ASP618  TYR619  PRO620  LYS621  CYS622 
 ASP623  PHE694  ASN695  SER759  ASP760  ASP761  ALA762  ILE779  LEU786  VAL792 
 PHE793  MET794  SER795  GLU796  ALA797  LYS798  CYS799  TRP800  GLU811  SER814 

> <Gold.Protein.RotatedAtoms>
  151.5446  135.1068  159.9934 H   0  0  0  0  0  0  0  0  0  0  0  0  # atno 6907 bound_to 6896
  152.4519  133.7643  159.6774 H   0  0  0  0  0  0  0  0  0  0  0  0  # atno 6908 bound_to 6896
  150.8451  133.7808  159.3070 H   0  0  0  0  0  0  0  0  0  0  0  0  # atno 6909 bound_to 6896
  145.0275  140.8040  143.4344 H   0  0  0  0  0  0  0  0  0  0  0  0  # atno 7974 bound_to 7965
  155.9245  140.1080  157.1181 H   0  0  0  0  0  0  0  0  0  0  0  0  # atno 8008 bound_to 7997
  154.4060  140.1249  156.4788 H   0  0  0  0  0  0  0  0  0  0  0  0  # atno 8009 bound_to 7997
  155.7155  140.3470  155.4995 H   0  0  0  0  0  0  0  0  0  0  0  0  # atno 8010 bound_to 7997
  140.6400  143.2502  151.5014 H   0  0  0  0  0  0  0  0  0  0  0  0  # atno 10167 bound_to 10162
  156.7936  130.5370  149.5732 H   0  0  0  0  0  0  0  0  0  0  0  0  # atno 10718 bound_to 10713
  154.6252  135.2880  155.0280 H   0  0  0  0  0  0  0  0  0  0  0  0  # atno 10763 bound_to 10752
  154.1461  135.6511  153.4957 H   0  0  0  0  0  0  0  0  0  0  0  0  # atno 10764 bound_to 10752
  153.0254  135.5344  154.7058 H   0  0  0  0  0  0  0  0  0  0  0  0  # atno 10765 bound_to 10752
  141.1436  133.6672  156.5892 H   0  0  0  0  0  0  0  0  0  0  0  0  # atno 11005 bound_to 11000
  145.1814  139.2350  143.5290 LP  0  0  0  0  0  0  0  0  0  0  0  0  # atno 17320 bound_to 7965
  146.3494  140.1589  142.8591 LP  0  0  0  0  0  0  0  0  0  0  0  0  # atno 17321 bound_to 7965
  139.5609  144.2158  152.1690 LP  0  0  0  0  0  0  0  0  0  0  0  0  # atno 17342 bound_to 10162
  140.1426  144.5188  150.6735 LP  0  0  0  0  0  0  0  0  0  0  0  0  # atno 17343 bound_to 10162
  156.1144  130.6064  151.0097 LP  0  0  0  0  0  0  0  0  0  0  0  0  # atno 17370 bound_to 10713
  157.6588  131.0884  150.7886 LP  0  0  0  0  0  0  0  0  0  0  0  0  # atno 17371 bound_to 10713
  140.3776  134.7551  157.4640 LP  0  0  0  0  0  0  0  0  0  0  0  0  # atno 17394 bound_to 11000
  140.0662  134.5926  155.8693 LP  0  0  0  0  0  0  0  0  0  0  0  0  # atno 17395 bound_to 11000

$$$$
