AV-unprocessed.smi:2106|AV-procd|sdf|8598|dock7
  -GOLD-   2272011333D 1   1.00000     0.00000
 Structure written by MMmdl.
 48 49  0  0  0  0  0  0  0  0  2 V2000
  143.7558  132.6853  148.9556 C   0  0  0  0  0  0  0  0  0  0  0  0
  144.6449  132.4002  150.1297 C   0  0  0  0  0  0  0  0  0  0  0  0
  144.8157  131.1722  150.8276 C   0  0  0  0  0  0  0  0  0  0  0  0
  145.7314  131.4602  151.7998 C   0  0  0  0  0  0  0  0  0  0  0  0
  146.3223  130.5840  152.8549 C   0  0  0  0  0  0  0  0  0  0  0  0
  146.0631  132.7960  151.6551 N   0  0  0  0  0  0  0  0  0  0  0  0
  146.9982  133.5985  152.4272 C   0  0  0  0  0  0  0  0  0  0  0  0
  146.2648  134.6645  153.2429 C   0  0  0  0  0  0  0  0  0  0  0  0
  145.3730  134.3375  154.0258 O   0  0  0  0  0  0  0  0  0  0  0  0
  146.6507  135.9358  153.0522 N   0  0  0  0  0  0  0  0  0  0  0  0
  146.1026  137.0928  153.7502 C   0  0  0  0  0  0  0  0  0  0  0  0
  146.5046  138.4157  153.0679 C   0  0  0  0  0  0  0  0  0  0  0  0
  147.4748  139.2017  153.8704 N   0  3  1  0  0  0  0  0  0  0  0  0
  148.8373  138.6214  153.8272 C   0  0  0  0  0  0  0  0  0  0  0  0
  149.7903  139.4022  154.7504 C   0  0  1  0  0  0  0  0  0  0  0  0
  151.2318  138.8908  154.6525 C   0  0  0  0  0  0  0  0  0  0  0  0
  149.7908  140.7782  154.3795 O   0  0  0  0  0  0  0  0  0  0  0  0
  148.5103  141.4076  154.4084 C   0  0  2  0  0  0  0  0  0  0  0  0
  147.9985  141.6240  155.8440 C   0  0  0  0  0  0  0  0  0  0  0  0
  147.5192  140.6408  153.5107 C   0  0  0  0  0  0  0  0  0  0  0  0
  145.3950  133.3687  150.6295 N   0  0  0  0  0  0  0  0  0  0  0  0
  143.1772  131.8043  148.6775 H   0  0  0  0  0  0  0  0  0  0  0  0
  144.3392  132.9871  148.0855 H   0  0  0  0  0  0  0  0  0  0  0  0
  143.0514  133.4865  149.1810 H   0  0  0  0  0  0  0  0  0  0  0  0
  144.3380  130.2216  150.6417 H   0  0  0  0  0  0  0  0  0  0  0  0
  145.9471  129.5643  152.7685 H   0  0  0  0  0  0  0  0  0  0  0  0
  146.0703  130.9502  153.8503 H   0  0  0  0  0  0  0  0  0  0  0  0
  147.4084  130.5486  152.7698 H   0  0  0  0  0  0  0  0  0  0  0  0
  147.5764  132.9479  153.0858 H   0  0  0  0  0  0  0  0  0  0  0  0
  147.7094  134.0725  151.7501 H   0  0  0  0  0  0  0  0  0  0  0  0
  147.3974  136.1084  152.3940 H   0  0  0  0  0  0  0  0  0  0  0  0
  145.0195  136.9845  153.8088 H   0  0  0  0  0  0  0  0  0  0  0  0
  146.4737  137.0753  154.7753 H   0  0  0  0  0  0  0  0  0  0  0  0
  146.9539  138.1757  152.1030 H   0  0  0  0  0  0  0  0  0  0  0  0
  145.6289  139.0309  152.8554 H   0  0  0  0  0  0  0  0  0  0  0  0
  148.8031  137.5769  154.1399 H   0  0  0  0  0  0  0  0  0  0  0  0
  149.2064  138.6361  152.8001 H   0  0  0  0  0  0  0  0  0  0  0  0
  149.4651  139.2988  155.7858 H   0  0  0  0  0  0  0  0  0  0  0  0
  151.2967  137.8395  154.9344 H   0  0  0  0  0  0  0  0  0  0  0  0
  151.8907  139.4533  155.3144 H   0  0  0  0  0  0  0  0  0  0  0  0
  151.6179  138.9899  153.6376 H   0  0  0  0  0  0  0  0  0  0  0  0
  148.6529  142.3976  153.9738 H   0  0  0  0  0  0  0  0  0  0  0  0
  147.0885  142.2245  155.8429 H   0  0  0  0  0  0  0  0  0  0  0  0
  148.7393  142.1522  156.4447 H   0  0  0  0  0  0  0  0  0  0  0  0
  147.7656  140.6866  156.3486 H   0  0  0  0  0  0  0  0  0  0  0  0
  147.8226  140.7368  152.4668 H   0  0  0  0  0  0  0  0  0  0  0  0
  146.5328  141.0957  153.5931 H   0  0  0  0  0  0  0  0  0  0  0  0
  147.1700  139.1446  154.8316 H   0  0  0  0  0  0  0  0  0  0  0  0
  1  2  1  0  0  0  0
  1 22  1  0  0  0  0
  1 23  1  0  0  0  0
  1 24  1  0  0  0  0
  2 21  2  0  0  0  0
  2  3  1  0  0  0  0
  3  4  2  0  0  0  0
  3 25  1  0  0  0  0
  4  5  1  0  0  0  0
  4  6  1  0  0  0  0
  5 26  1  0  0  0  0
  5 27  1  0  0  0  0
  5 28  1  0  0  0  0
  6  7  1  0  0  0  0
  6 21  1  0  0  0  0
  7  8  1  0  0  0  0
  7 29  1  0  0  0  0
  7 30  1  0  0  0  0
  8  9  2  0  0  0  0
  8 10  1  0  0  0  0
 10 11  1  0  0  0  0
 10 31  1  0  0  0  0
 11 12  1  0  0  0  0
 11 32  1  0  0  0  0
 11 33  1  0  0  0  0
 12 13  1  0  0  0  0
 12 34  1  0  0  0  0
 12 35  1  0  0  0  0
 13 20  1  0  0  0  0
 13 14  1  0  0  0  0
 13 48  1  0  0  0  0
 14 15  1  0  0  0  0
 14 36  1  0  0  0  0
 14 37  1  0  0  0  0
 15 16  1  0  0  0  0
 15 17  1  0  0  0  0
 15 38  1  0  0  0  0
 16 39  1  0  0  0  0
 16 40  1  0  0  0  0
 16 41  1  0  0  0  0
 17 18  1  0  0  0  0
 18 19  1  0  0  0  0
 18 20  1  0  0  0  0
 18 42  1  0  0  0  0
 19 43  1  0  0  0  0
 19 44  1  0  0  0  0
 19 45  1  0  0  0  0
 20 46  1  0  0  0  0
 20 47  1  0  0  0  0
M  CHG  1  13   1
M  END
> <s_m_source_file>
AV-unprocessed.smi

> <i_m_source_file_index>
2106

> <i_lp_mmshare_version>
43012

> <i_f3d_flags>
0

> <s_epik_input>
W0NIM11jMVtjSF1jKFtDSDNdKW4objEpW0NIMl1DKD1PKVtOSF1bQ0gyXVtDSDJdTjJbQ0gyXVtDQEBIXShbQ0gzXSlPW0NAQEhdKFtDSDNdKVtDSDJdMg==

> <s_epik_cmdline>
J2VwaWtfcHl0aG9uJywgJy1waCcsICc3LjAnLCAnLXRuJywgJzgnLCAnLW1hJywgJzIwMCcsICctbWV0YWxfYmluZGluZycsICctaW1hZScsICc8aW5maWxlLm1hZT4nLCAnLW9tYWUnLCAnPG91dGZpbGUubWFlPic=

> <r_lp_tautomer_probability>
1

> <r_epik_Ionization_Penalty>
0.748586

> <r_epik_Ionization_Penalty_Charging>
0.748396

> <r_epik_Ionization_Penalty_Neutral>
0.000189656

> <r_epik_State_Penalty>
0.775162

> <r_epik_Charging_Adjusted_Penalty>
1.52356

> <i_epik_Tot_Q>
1

> <i_epik_Tot_abs_Q>
1

> <r_epik_Metal_State_Penalty>
0.775295

> <b_epik_Metal_Only>
0

> <s_lp_Force_Field>
OPLS_2005

> <r_lp_Energy>
15.4858

> <b_lp_Chiralities_Consistent>
1

> <s_lp_Variant>
AV-unprocessed.smi:2106-6

> <Gold.Version>
5.8.1

> <Gold.Id.Protein>
6NUR|6NUR_protein|mol2

> <Gold.PLP.Fitness>
40.6912

> <Gold.PLP.PLP>
-36.9555

> <Gold.PLP.part.hbond>
-2.0000

> <Gold.PLP.part.metal>
0.0000

> <Gold.PLP.part.buried>
-3.0110

> <Gold.PLP.part.nonpolar>
-32.5760

> <Gold.PLP.part.repulsive>
0.3656

> <Gold.PLP.ligand.clash>
0.0000

> <Gold.PLP.ligand.torsion>
0.6613

> <Gold.PLP.Chemscore.Hbond>
1.6720

> <Gold.PLP.Chemscore.CHOScore>
0.0000

> <Gold.PLP.Chemscore.Metal>
0.0000

> <Gold.Chemscore.Hbonds>
donor molecule, donor type, donor heavy atom, donor atom, acceptor molecule, acceptor atom, score
      L1  H    10    31       P1  7948  1.00
      P1  H  7989  7998       L1    17  0.67

> <Gold.PLP.Chemscore.Internal.Correction>
0.0423

> <Gold.Rescore>
     Score         DG    S(hbond)    S(metal)    S(lipo)     H(rot)  DE(clash)    DE(int)     intcor
     17.81     -19.10       1.84        0.00     101.86       1.73       0.77       0.53       ----

> <Gold.Chemscore.Fitness>
17.8089

> <Gold.Chemscore.DG>
-19.1015

> <Gold.Chemscore.ZeroCoef>
-5.4800

> <Gold.Chemscore.Hbond>
1.8373

> <Gold.Chemscore.Metal>
0.0000

> <Gold.Chemscore.Lipo>
101.8621

> <Gold.Chemscore.Internal_Hbond>
0.0000

> <Gold.Chemscore.DEClash>
0.7664

> <Gold.Chemscore.DEInternal>
0.5262

> <Gold.Chemscore.Rot>
1.7316

> <Gold.Chemscore.Internal.Correction>
   9.000000E+99

> <Gold.Chemscore.Hbonds>
donor molecule, donor type, donor heavy atom, donor atom, acceptor molecule, acceptor atom, score
      L1  H    10    31       P1  7948  0.99
      P1  H  7989  7998       L1    17  0.16

> <Gold.Chemscore.Hbond.Weighted>
-6.1367

> <Gold.Chemscore.Metal.Weighted>
-0.0000

> <Gold.Chemscore.Lipo.Weighted>
-11.9179

> <Gold.Chemscore.Internal_Hbond.Weighted>
0.0000

> <Gold.Chemscore.DEClash.Weighted>
0.7664

> <Gold.Chemscore.DEInternal.Weighted>
0.5262

> <Gold.Chemscore.Rot.Weighted>
4.4330

> <Gold.Chemscore.Internal.Correction.Weighted>
   9.000000E+99

> <Gold.Protein.RotatedTorsions>
[ 6907 6896 6895 6894 ] final  175.70 input  -60.11 | X-H torsion
[ 7974 7965 7964 7962 ] final  -45.08 input  175.53 | X-H torsion
[ 8008 7997 7996 7995 ] final  128.04 input   59.86 | X-H torsion
[ 10167 10162 10161 10158 ] final -111.31 input  -65.29 | X-H torsion
[ 10718 10713 10712 10709 ] final -121.51 input   66.30 | X-H torsion
[ 10763 10752 10751 10750 ] final  -29.40 input  -60.55 | X-H torsion
[ 11005 11000 10999 10996 ] final  -49.29 input  -57.11 | X-H torsion

> <Gold.Protein.ActiveResidues>
 VAL166  LYS551  ARG553  GLY616  TRP617  ASP618  TYR619  PRO620  LYS621  CYS622 
 ASP623  PHE694  ASN695  SER759  ASP760  ASP761  ALA762  ILE779  LEU786  VAL792 
 PHE793  MET794  SER795  GLU796  ALA797  LYS798  CYS799  TRP800  GLU811  SER814 

> <Gold.Protein.RotatedAtoms>
  151.7320  133.3318  159.3342 H   0  0  0  0  0  0  0  0  0  0  0  0  # atno 6907 bound_to 6896
  150.7609  134.6355  159.6218 H   0  0  0  0  0  0  0  0  0  0  0  0  # atno 6908 bound_to 6896
  152.3586  134.6907  160.0266 H   0  0  0  0  0  0  0  0  0  0  0  0  # atno 6909 bound_to 6896
  145.9856  140.7236  142.9342 H   0  0  0  0  0  0  0  0  0  0  0  0  # atno 7974 bound_to 7965
  156.2905  140.2654  156.2371 H   0  0  0  0  0  0  0  0  0  0  0  0  # atno 8008 bound_to 7997
  155.0015  140.0388  157.2380 H   0  0  0  0  0  0  0  0  0  0  0  0  # atno 8009 bound_to 7997
  154.7598  140.2758  155.6229 H   0  0  0  0  0  0  0  0  0  0  0  0  # atno 8010 bound_to 7997
  140.1350  143.4328  152.1601 H   0  0  0  0  0  0  0  0  0  0  0  0  # atno 10167 bound_to 10162
  156.1343  130.6419  150.9671 H   0  0  0  0  0  0  0  0  0  0  0  0  # atno 10718 bound_to 10713
  153.7640  135.6917  153.4920 H   0  0  0  0  0  0  0  0  0  0  0  0  # atno 10763 bound_to 10752
  153.1919  135.4468  155.0159 H   0  0  0  0  0  0  0  0  0  0  0  0  # atno 10764 bound_to 10752
  154.8142  135.3391  154.7153 H   0  0  0  0  0  0  0  0  0  0  0  0  # atno 10765 bound_to 10752
  141.0751  133.6668  156.3565 H   0  0  0  0  0  0  0  0  0  0  0  0  # atno 11005 bound_to 11000
  144.6874  140.2983  143.7267 LP  0  0  0  0  0  0  0  0  0  0  0  0  # atno 17320 bound_to 7965
  145.7705  139.1855  143.2215 LP  0  0  0  0  0  0  0  0  0  0  0  0  # atno 17321 bound_to 7965
  139.5500  144.7330  151.4464 LP  0  0  0  0  0  0  0  0  0  0  0  0  # atno 17342 bound_to 10162
  140.6794  143.8116  150.7101 LP  0  0  0  0  0  0  0  0  0  0  0  0  # atno 17343 bound_to 10162
  157.6518  131.0896  150.8035 LP  0  0  0  0  0  0  0  0  0  0  0  0  # atno 17370 bound_to 10713
  156.8117  130.4954  149.5355 LP  0  0  0  0  0  0  0  0  0  0  0  0  # atno 17371 bound_to 10713
  140.5591  134.5952  157.5429 LP  0  0  0  0  0  0  0  0  0  0  0  0  # atno 17394 bound_to 11000
  139.9563  134.7529  156.0334 LP  0  0  0  0  0  0  0  0  0  0  0  0  # atno 17395 bound_to 11000

$$$$
