AV-unprocessed.smi:2583|AV-procd|sdf|10142|dock8
  -GOLD-   2272014153D 1   1.00000     0.00000
 Structure written by MMmdl.
 54 56  0  0  0  0  0  0  0  0  2 V2000
  153.2408  142.3388  161.2787 C   0  0  0  0  0  0  0  0  0  0  0  0
  152.3741  143.2414  160.4260 C   0  0  0  0  0  0  0  0  0  0  0  0
  152.1605  144.5904  160.7773 C   0  0  0  0  0  0  0  0  0  0  0  0
  151.3874  145.4293  160.0563 N   0  0  0  0  0  0  0  0  0  0  0  0
  150.7979  144.9454  158.9425 C   0  0  0  0  0  0  0  0  0  0  0  0
  150.9530  143.6188  158.4880 C   0  0  0  0  0  0  0  0  0  0  0  0
  150.2594  143.2312  157.3103 N   0  0  0  0  0  0  0  0  0  0  0  0
  150.4769  142.1601  156.5283 C   0  0  0  0  0  0  0  0  0  0  0  0
  151.3806  141.3393  156.6828 O   0  0  0  0  0  0  0  0  0  0  0  0
  149.5855  142.1049  155.5285 N   0  0  0  0  0  0  0  0  0  0  0  0
  149.5265  141.0775  154.4922 C   0  0  2  0  0  0  0  0  0  0  0  0
  148.1414  141.0886  153.8187 C   0  0  0  0  0  0  0  0  0  0  0  0
  147.9836  139.9008  152.8496 C   0  0  0  0  0  0  0  0  0  0  0  0
  148.2158  138.5947  153.5308 N   0  3  2  0  0  0  0  0  0  0  0  0
  147.1362  138.1693  154.4854 C   0  0  0  0  0  0  0  0  0  0  0  0
  147.4303  136.7927  155.1288 C   0  0  0  0  0  0  0  0  0  0  0  0
  146.2694  136.3012  156.0097 C   0  0  0  0  0  0  0  0  0  0  0  0
  145.0467  136.2028  155.2182 N   0  0  0  0  0  0  0  0  0  0  0  0
  143.9772  135.6634  156.0464 C   0  0  0  0  0  0  0  0  0  0  0  0
  144.6687  137.5299  154.7414 C   0  0  0  0  0  0  0  0  0  0  0  0
  145.7520  138.0806  153.7991 C   0  0  0  0  0  0  0  0  0  0  0  0
  149.6006  138.5717  154.0829 C   0  0  0  0  0  0  0  0  0  0  0  0
  149.8241  139.6985  155.1091 C   0  0  0  0  0  0  0  0  0  0  0  0
  151.7556  142.7454  159.2608 C   0  0  0  0  0  0  0  0  0  0  0  0
  153.6718  142.8817  162.1205 H   0  0  0  0  0  0  0  0  0  0  0  0
  154.0570  141.9275  160.6841 H   0  0  0  0  0  0  0  0  0  0  0  0
  152.6504  141.5106  161.6714 H   0  0  0  0  0  0  0  0  0  0  0  0
  152.6152  145.0087  161.6633 H   0  0  0  0  0  0  0  0  0  0  0  0
  150.1840  145.6442  158.3931 H   0  0  0  0  0  0  0  0  0  0  0  0
  149.5402  143.8695  157.0031 H   0  0  0  0  0  0  0  0  0  0  0  0
  148.8863  142.8318  155.4834 H   0  0  0  0  0  0  0  0  0  0  0  0
  150.2771  141.2657  153.7222 H   0  0  0  0  0  0  0  0  0  0  0  0
  147.3532  141.0608  154.5719 H   0  0  0  0  0  0  0  0  0  0  0  0
  148.0049  142.0238  153.2746 H   0  0  0  0  0  0  0  0  0  0  0  0
  147.0213  139.9358  152.3433 H   0  0  0  0  0  0  0  0  0  0  0  0
  148.7180  140.0004  152.0489 H   0  0  0  0  0  0  0  0  0  0  0  0
  147.0634  138.9018  155.2890 H   0  0  0  0  0  0  0  0  0  0  0  0
  147.6380  136.0535  154.3536 H   0  0  0  0  0  0  0  0  0  0  0  0
  148.3131  136.8402  155.7644 H   0  0  0  0  0  0  0  0  0  0  0  0
  146.5168  135.3213  156.4202 H   0  0  0  0  0  0  0  0  0  0  0  0
  146.1221  136.9746  156.8561 H   0  0  0  0  0  0  0  0  0  0  0  0
  143.0551  135.5753  155.4704 H   0  0  0  0  0  0  0  0  0  0  0  0
  143.7807  136.2991  156.9111 H   0  0  0  0  0  0  0  0  0  0  0  0
  144.2376  134.6674  156.4062 H   0  0  0  0  0  0  0  0  0  0  0  0
  143.7209  137.4670  154.2051 H   0  0  0  0  0  0  0  0  0  0  0  0
  144.5153  138.2076  155.5830 H   0  0  0  0  0  0  0  0  0  0  0  0
  145.4167  139.0625  153.4682 H   0  0  0  0  0  0  0  0  0  0  0  0
  145.8150  137.4524  152.9090 H   0  0  0  0  0  0  0  0  0  0  0  0
  149.8608  137.6025  154.5032 H   0  0  0  0  0  0  0  0  0  0  0  0
  150.2980  138.7066  153.2549 H   0  0  0  0  0  0  0  0  0  0  0  0
  150.8550  139.6698  155.4641 H   0  0  0  0  0  0  0  0  0  0  0  0
  149.1978  139.5319  155.9863 H   0  0  0  0  0  0  0  0  0  0  0  0
  151.8937  141.7092  158.9929 H   0  0  0  0  0  0  0  0  0  0  0  0
  148.2032  137.8988  152.7988 H   0  0  0  0  0  0  0  0  0  0  0  0
  1  2  1  0  0  0  0
  1 25  1  0  0  0  0
  1 26  1  0  0  0  0
  1 27  1  0  0  0  0
  2 24  1  0  0  0  0
  2  3  2  0  0  0  0
  3  4  1  0  0  0  0
  3 28  1  0  0  0  0
  4  5  2  0  0  0  0
  5  6  1  0  0  0  0
  5 29  1  0  0  0  0
  6  7  1  0  0  0  0
  6 24  2  0  0  0  0
  7  8  1  0  0  0  0
  7 30  1  0  0  0  0
  8  9  2  0  0  0  0
  8 10  1  0  0  0  0
 10 11  1  0  0  0  0
 10 31  1  0  0  0  0
 11 23  1  0  0  0  0
 11 12  1  0  0  0  0
 11 32  1  0  0  0  0
 12 13  1  0  0  0  0
 12 33  1  0  0  0  0
 12 34  1  0  0  0  0
 13 14  1  0  0  0  0
 13 35  1  0  0  0  0
 13 36  1  0  0  0  0
 14 15  1  0  0  0  0
 14 22  1  0  0  0  0
 14 54  1  0  0  0  0
 15 21  1  0  0  0  0
 15 16  1  0  0  0  0
 15 37  1  0  0  0  0
 16 17  1  0  0  0  0
 16 38  1  0  0  0  0
 16 39  1  0  0  0  0
 17 18  1  0  0  0  0
 17 40  1  0  0  0  0
 17 41  1  0  0  0  0
 18 19  1  0  0  0  0
 18 20  1  0  0  0  0
 19 42  1  0  0  0  0
 19 43  1  0  0  0  0
 19 44  1  0  0  0  0
 20 21  1  0  0  0  0
 20 45  1  0  0  0  0
 20 46  1  0  0  0  0
 21 47  1  0  0  0  0
 21 48  1  0  0  0  0
 22 23  1  0  0  0  0
 22 49  1  0  0  0  0
 22 50  1  0  0  0  0
 23 51  1  0  0  0  0
 23 52  1  0  0  0  0
 24 53  1  0  0  0  0
M  CHG  1  14   1
M  END
> <s_m_source_file>
AV-unprocessed.smi

> <i_m_source_file_index>
2583

> <i_lp_mmshare_version>
43012

> <i_f3d_flags>
0

> <s_epik_input>
W0NIM11jMVtjSF1uW2NIXWMoW2NIXTEpW05IXUMoPU8pW05IXVtDSF0yW0NIMl1bQ0gyXU4oW0NIMl1bQ0gyXTIpW0NIXTNbQ0gyXVtDSDJdTihbQ0gzXSlbQ0gyXVtDSDJdMw==

> <s_epik_cmdline>
J2VwaWtfcHl0aG9uJywgJy1waCcsICc3LjAnLCAnLXRuJywgJzgnLCAnLW1hJywgJzIwMCcsICctbWV0YWxfYmluZGluZycsICctaW1hZScsICc8aW5maWxlLm1hZT4nLCAnLW9tYWUnLCAnPG91dGZpbGUubWFlPic=

> <r_epik_Ionization_Penalty>
1.38006

> <r_epik_Ionization_Penalty_Charging>
0.00081195

> <r_epik_Ionization_Penalty_Neutral>
1.37925

> <r_epik_State_Penalty>
1.55585

> <r_epik_Charging_Adjusted_Penalty>
1.55666

> <i_epik_Tot_Q>
1

> <i_epik_Tot_abs_Q>
1

> <r_epik_Metal_State_Penalty>
1.55173

> <b_epik_Metal_Only>
0

> <s_lp_Force_Field>
OPLS_2005

> <r_lp_Energy>
35.4229

> <b_lp_Chiralities_Consistent>
1

> <s_lp_Variant>
AV-unprocessed.smi:2583-8

> <Gold.Version>
5.8.1

> <Gold.Id.Protein>
6NUR|6NUR_protein|mol2

> <Gold.PLP.Fitness>
49.5557

> <Gold.PLP.PLP>
-36.4435

> <Gold.PLP.part.hbond>
-3.7745

> <Gold.PLP.part.metal>
0.0000

> <Gold.PLP.part.buried>
1.9602

> <Gold.PLP.part.nonpolar>
-34.3815

> <Gold.PLP.part.repulsive>
0.4112

> <Gold.PLP.ligand.clash>
0.0000

> <Gold.PLP.ligand.torsion>
0.3616

> <Gold.PLP.Chemscore.Hbond>
3.6000

> <Gold.PLP.Chemscore.CHOScore>
0.9978

> <Gold.PLP.Chemscore.Metal>
0.0000

> <Gold.Chemscore.Hbonds>
donor molecule, donor type, donor heavy atom, donor atom, acceptor molecule, acceptor atom, score
      L1  H     7    30       P1  8028  0.93
      L1  H    10    31       P1  8028  0.72
      L1  H    14    54       P1  7948  1.95
      L1  C     5    29       P1  8029  0.97

> <Gold.PLP.Chemscore.Internal.Correction>
0.0421

> <Gold.Rescore>
     Score         DG    S(hbond)    S(metal)    S(lipo)     H(rot)  DE(clash)    DE(int)     intcor
     19.36     -24.57       2.78        0.00     109.85       1.19       2.10       3.11       ----

> <Gold.Chemscore.Fitness>
19.3640

> <Gold.Chemscore.DG>
-24.5718

> <Gold.Chemscore.ZeroCoef>
-5.4800

> <Gold.Chemscore.Hbond>
2.7810

> <Gold.Chemscore.Metal>
0.0000

> <Gold.Chemscore.Lipo>
109.8472

> <Gold.Chemscore.Internal_Hbond>
0.0000

> <Gold.Chemscore.DEClash>
2.0982

> <Gold.Chemscore.DEInternal>
3.1096

> <Gold.Chemscore.Rot>
1.1910

> <Gold.Chemscore.Internal.Correction>
   9.000000E+99

> <Gold.Chemscore.Hbonds>
donor molecule, donor type, donor heavy atom, donor atom, acceptor molecule, acceptor atom, score
      L1  H     7    30       P1  8028  0.74
      L1  H    10    31       P1  8028  0.72
      L1  H    14    54       P1  7948  0.89

> <Gold.Chemscore.Hbond.Weighted>
-9.2886

> <Gold.Chemscore.Metal.Weighted>
-0.0000

> <Gold.Chemscore.Lipo.Weighted>
-12.8521

> <Gold.Chemscore.Internal_Hbond.Weighted>
0.0000

> <Gold.Chemscore.DEClash.Weighted>
2.0982

> <Gold.Chemscore.DEInternal.Weighted>
3.1096

> <Gold.Chemscore.Rot.Weighted>
3.0489

> <Gold.Chemscore.Internal.Correction.Weighted>
   9.000000E+99

> <Gold.Protein.RotatedTorsions>
[ 6907 6896 6895 6894 ] final -167.01 input  -60.11 | X-H torsion
[ 7974 7965 7964 7962 ] final  117.37 input  175.53 | X-H torsion
[ 8008 7997 7996 7995 ] final  -66.21 input   59.86 | X-H torsion
[ 10167 10162 10161 10158 ] final   18.68 input  -65.29 | X-H torsion
[ 10718 10713 10712 10709 ] final -120.77 input   66.30 | X-H torsion
[ 10763 10752 10751 10750 ] final  -17.34 input  -60.55 | X-H torsion
[ 11005 11000 10999 10996 ] final    1.58 input  -57.11 | X-H torsion

> <Gold.Protein.ActiveResidues>
 VAL166  LYS551  ARG553  GLY616  TRP617  ASP618  TYR619  PRO620  LYS621  CYS622 
 ASP623  PHE694  ASN695  SER759  ASP760  ASP761  ALA762  ILE779  LEU786  VAL792 
 PHE793  MET794  SER795  GLU796  ALA797  LYS798  CYS799  TRP800  GLU811  SER814 

> <Gold.Protein.RotatedAtoms>
  151.4528  133.3613  159.2797 H   0  0  0  0  0  0  0  0  0  0  0  0  # atno 6907 bound_to 6896
  150.9079  134.8497  159.7416 H   0  0  0  0  0  0  0  0  0  0  0  0  # atno 6908 bound_to 6896
  152.4916  134.4455  159.9609 H   0  0  0  0  0  0  0  0  0  0  0  0  # atno 6909 bound_to 6896
  145.1681  139.3116  143.4482 H   0  0  0  0  0  0  0  0  0  0  0  0  # atno 7974 bound_to 7965
  154.4720  140.0917  156.7168 H   0  0  0  0  0  0  0  0  0  0  0  0  # atno 8008 bound_to 7997
  155.4699  140.3464  155.4306 H   0  0  0  0  0  0  0  0  0  0  0  0  # atno 8009 bound_to 7997
  156.1054  140.1433  156.9399 H   0  0  0  0  0  0  0  0  0  0  0  0  # atno 8010 bound_to 7997
  140.5635  143.9293  150.6660 H   0  0  0  0  0  0  0  0  0  0  0  0  # atno 10167 bound_to 10162
  156.1284  130.6377  150.9581 H   0  0  0  0  0  0  0  0  0  0  0  0  # atno 10718 bound_to 10713
  153.5724  135.7007  153.5499 H   0  0  0  0  0  0  0  0  0  0  0  0  # atno 10763 bound_to 10752
  153.3333  135.4041  155.1513 H   0  0  0  0  0  0  0  0  0  0  0  0  # atno 10764 bound_to 10752
  154.8631  135.3724  154.5247 H   0  0  0  0  0  0  0  0  0  0  0  0  # atno 10765 bound_to 10752
  140.6139  133.9723  155.8191 H   0  0  0  0  0  0  0  0  0  0  0  0  # atno 11005 bound_to 11000
  146.3472  140.1817  142.8589 LP  0  0  0  0  0  0  0  0  0  0  0  0  # atno 17320 bound_to 7965
  145.0261  140.8833  143.5138 LP  0  0  0  0  0  0  0  0  0  0  0  0  # atno 17321 bound_to 7965
  140.2750  143.3429  152.1203 LP  0  0  0  0  0  0  0  0  0  0  0  0  # atno 17342 bound_to 10162
  139.5081  144.6845  151.5924 LP  0  0  0  0  0  0  0  0  0  0  0  0  # atno 17343 bound_to 10162
  157.6464  131.0903  150.8143 LP  0  0  0  0  0  0  0  0  0  0  0  0  # atno 17370 bound_to 10713
  156.8231  130.4990  149.5340 LP  0  0  0  0  0  0  0  0  0  0  0  0  # atno 17371 bound_to 10713
  141.0789  134.0092  157.3416 LP  0  0  0  0  0  0  0  0  0  0  0  0  # atno 17394 bound_to 11000
  139.9181  135.0198  156.7959 LP  0  0  0  0  0  0  0  0  0  0  0  0  # atno 17395 bound_to 11000

$$$$
