AV-unprocessed.smi:1890|AV-procd|sdf|7664|dock5
  -GOLD-   22720 9403D 1   1.00000     0.00000
 Structure written by MMmdl.
 51 52  0  0  0  0  0  0  0  0  1 V2000
  150.4604  142.3384  157.0947 C   0  0  0  0  0  0  0  0  0  0  0  0
  151.5242  143.4444  157.1764 C   0  0  0  0  0  0  0  0  0  0  0  0
  151.9546  143.7278  158.5463 N   0  0  0  0  0  0  0  0  0  0  0  0
  152.5186  145.0534  158.8063 C   0  0  0  0  0  0  0  0  0  0  0  0
  151.9100  145.7211  160.0483 C   0  0  0  0  0  0  0  0  0  0  0  0
  152.4471  142.6789  159.3589 C   0  0  0  0  0  0  0  0  0  0  0  0
  152.9610  142.9061  160.6599 C   0  0  0  0  0  0  0  0  0  0  0  0
  153.4229  141.8127  161.4166 C   0  0  0  0  0  0  0  0  0  0  0  0
  153.3723  140.5189  160.8643 C   0  0  0  0  0  0  0  0  0  0  0  0
  153.8214  139.4336  161.6646 N   0  0  0  0  0  0  0  0  0  0  0  0
  153.5028  138.1313  161.5694 C   0  0  0  0  0  0  0  0  0  0  0  0
  152.7950  137.6322  160.6949 O   0  0  0  0  0  0  0  0  0  0  0  0
  154.0785  137.4206  162.5495 N   0  0  0  0  0  0  0  0  0  0  0  0
  153.9413  135.9797  162.7386 C   0  0  0  0  0  0  0  0  0  0  0  0
  153.6114  135.6803  164.2169 C   0  0  0  0  0  0  0  0  0  0  0  0
  153.6505  134.1686  164.5049 C   0  0  0  0  0  0  0  0  0  0  0  0
  154.9668  133.6492  164.1178 N   0  0  0  0  0  0  0  0  0  0  0  0
  155.8955  133.2593  165.0238 C   0  0  0  0  0  0  0  0  0  0  0  0
  155.5384  133.2660  166.5118 C   0  0  0  0  0  0  0  0  0  0  0  0
  157.0250  132.8900  164.7021 O   0  0  0  0  0  0  0  0  0  0  0  0
  155.1844  133.7572  162.6699 C   0  0  0  0  0  0  0  0  0  0  0  0
  155.2254  135.2469  162.2851 C   0  0  0  0  0  0  0  0  0  0  0  0
  152.8351  140.3852  159.5624 C   0  0  0  0  0  0  0  0  0  0  0  0
  152.3892  141.4308  158.8351 N   0  0  0  0  0  0  0  0  0  0  0  0
  150.1384  142.1935  156.0634 H   0  0  0  0  0  0  0  0  0  0  0  0
  149.5796  142.6011  157.6810 H   0  0  0  0  0  0  0  0  0  0  0  0
  150.8285  141.3798  157.4587 H   0  0  0  0  0  0  0  0  0  0  0  0
  152.3862  143.1959  156.5573 H   0  0  0  0  0  0  0  0  0  0  0  0
  151.1059  144.3541  156.7441 H   0  0  0  0  0  0  0  0  0  0  0  0
  153.5952  144.9502  158.9453 H   0  0  0  0  0  0  0  0  0  0  0  0
  152.4020  145.7034  157.9390 H   0  0  0  0  0  0  0  0  0  0  0  0
  152.3600  146.6991  160.2186 H   0  0  0  0  0  0  0  0  0  0  0  0
  152.0736  145.1211  160.9435 H   0  0  0  0  0  0  0  0  0  0  0  0
  150.8355  145.8683  159.9337 H   0  0  0  0  0  0  0  0  0  0  0  0
  152.9999  143.8918  161.0968 H   0  0  0  0  0  0  0  0  0  0  0  0
  153.8105  141.9705  162.4125 H   0  0  0  0  0  0  0  0  0  0  0  0
  154.4869  139.6753  162.3841 H   0  0  0  0  0  0  0  0  0  0  0  0
  154.6510  137.9132  163.2193 H   0  0  0  0  0  0  0  0  0  0  0  0
  153.1065  135.6155  162.1364 H   0  0  0  0  0  0  0  0  0  0  0  0
  154.3294  136.1835  164.8665 H   0  0  0  0  0  0  0  0  0  0  0  0
  152.6303  136.0826  164.4711 H   0  0  0  0  0  0  0  0  0  0  0  0
  153.4147  133.9841  165.5537 H   0  0  0  0  0  0  0  0  0  0  0  0
  152.8756  133.6565  163.9326 H   0  0  0  0  0  0  0  0  0  0  0  0
  154.6755  132.6287  166.7059 H   0  0  0  0  0  0  0  0  0  0  0  0
  155.3174  134.2782  166.8513 H   0  0  0  0  0  0  0  0  0  0  0  0
  156.3704  132.8890  167.1078 H   0  0  0  0  0  0  0  0  0  0  0  0
  156.0891  133.2586  162.3257 H   0  0  0  0  0  0  0  0  0  0  0  0
  154.3648  133.2620  162.1468 H   0  0  0  0  0  0  0  0  0  0  0  0
  155.3550  135.3470  161.2069 H   0  0  0  0  0  0  0  0  0  0  0  0
  156.0992  135.7104  162.7456 H   0  0  0  0  0  0  0  0  0  0  0  0
  152.7275  139.4263  159.0810 H   0  0  0  0  0  0  0  0  0  0  0  0
  1  2  1  0  0  0  0
  1 25  1  0  0  0  0
  1 26  1  0  0  0  0
  1 27  1  0  0  0  0
  2  3  1  0  0  0  0
  2 28  1  0  0  0  0
  2 29  1  0  0  0  0
  3  4  1  0  0  0  0
  3  6  1  0  0  0  0
  4  5  1  0  0  0  0
  4 30  1  0  0  0  0
  4 31  1  0  0  0  0
  5 32  1  0  0  0  0
  5 33  1  0  0  0  0
  5 34  1  0  0  0  0
  6 24  1  0  0  0  0
  6  7  2  0  0  0  0
  7  8  1  0  0  0  0
  7 35  1  0  0  0  0
  8  9  2  0  0  0  0
  8 36  1  0  0  0  0
  9 10  1  0  0  0  0
  9 23  1  0  0  0  0
 10 11  1  0  0  0  0
 10 37  1  0  0  0  0
 11 12  2  0  0  0  0
 11 13  1  0  0  0  0
 13 14  1  0  0  0  0
 13 38  1  0  0  0  0
 14 22  1  0  0  0  0
 14 15  1  0  0  0  0
 14 39  1  0  0  0  0
 15 16  1  0  0  0  0
 15 40  1  0  0  0  0
 15 41  1  0  0  0  0
 16 17  1  0  0  0  0
 16 42  1  0  0  0  0
 16 43  1  0  0  0  0
 17 18  1  0  0  0  0
 17 21  1  0  0  0  0
 18 19  1  0  0  0  0
 18 20  2  0  0  0  0
 19 44  1  0  0  0  0
 19 45  1  0  0  0  0
 19 46  1  0  0  0  0
 21 22  1  0  0  0  0
 21 47  1  0  0  0  0
 21 48  1  0  0  0  0
 22 49  1  0  0  0  0
 22 50  1  0  0  0  0
 23 24  2  0  0  0  0
 23 51  1  0  0  0  0
M  END
> <s_m_source_file>
AV-unprocessed.smi

> <i_m_source_file_index>
1890

> <i_lp_mmshare_version>
43012

> <i_f3d_flags>
0

> <s_epik_input>
W0NIM11bQ0gyXU4oW0NIMl1bQ0gzXSljMVtjSF1bY0hdYyhbY0hdbjEpW05IXUMoPU8pW05IXVtDSF0yW0NIMl1bQ0gyXU4oQyg9TylbQ0gzXSlbQ0gyXVtDSDJdMg==

> <s_epik_cmdline>
J2VwaWtfcHl0aG9uJywgJy1waCcsICc3LjAnLCAnLXRuJywgJzgnLCAnLW1hJywgJzIwMCcsICctbWV0YWxfYmluZGluZycsICctaW1hZScsICc8aW5maWxlLm1hZT4nLCAnLW9tYWUnLCAnPG91dGZpbGUubWFlPic=

> <r_lp_tautomer_probability>
1

> <r_epik_Ionization_Penalty>
0.700493

> <r_epik_Ionization_Penalty_Charging>
0

> <r_epik_Ionization_Penalty_Neutral>
0.700493

> <r_epik_State_Penalty>
2.19132

> <r_epik_Charging_Adjusted_Penalty>
2.19132

> <i_epik_Tot_Q>
0

> <i_epik_Tot_abs_Q>
0

> <r_epik_Metal_State_Penalty>
1.54624

> <b_epik_Metal_Only>
0

> <s_lp_Force_Field>
OPLS_2005

> <r_lp_Energy>
30.5228

> <b_lp_Chiralities_Consistent>
1

> <s_lp_Variant>
AV-unprocessed.smi:1890-2

> <Gold.Version>
5.8.1

> <Gold.Id.Protein>
6NUR|6NUR_protein|mol2

> <Gold.PLP.Fitness>
47.1634

> <Gold.PLP.PLP>
-47.7975

> <Gold.PLP.part.hbond>
0.0000

> <Gold.PLP.part.metal>
0.0000

> <Gold.PLP.part.buried>
-6.2977

> <Gold.PLP.part.nonpolar>
-40.9213

> <Gold.PLP.part.repulsive>
0.0117

> <Gold.PLP.ligand.clash>
0.0000

> <Gold.PLP.ligand.torsion>
0.7996

> <Gold.PLP.Chemscore.Hbond>
0.0000

> <Gold.PLP.Chemscore.CHOScore>
0.0000

> <Gold.PLP.Chemscore.Metal>
0.0000

> <Gold.PLP.Chemscore.Internal.Correction>
0.9651

> <Gold.Rescore>
     Score         DG    S(hbond)    S(metal)    S(lipo)     H(rot)  DE(clash)    DE(int)     intcor
     13.92     -15.94       0.00        0.00     118.49       1.33       0.02       2.00       ----

> <Gold.Chemscore.Fitness>
13.9228

> <Gold.Chemscore.DG>
-15.9401

> <Gold.Chemscore.ZeroCoef>
-5.4800

> <Gold.Chemscore.Hbond>
0.0000

> <Gold.Chemscore.Metal>
0.0000

> <Gold.Chemscore.Lipo>
118.4912

> <Gold.Chemscore.Internal_Hbond>
0.0000

> <Gold.Chemscore.DEClash>
0.0196

> <Gold.Chemscore.DEInternal>
1.9978

> <Gold.Chemscore.Rot>
1.3294

> <Gold.Chemscore.Internal.Correction>
   9.000000E+99

> <Gold.Chemscore.Hbond.Weighted>
-0.0000

> <Gold.Chemscore.Metal.Weighted>
-0.0000

> <Gold.Chemscore.Lipo.Weighted>
-13.8635

> <Gold.Chemscore.Internal_Hbond.Weighted>
0.0000

> <Gold.Chemscore.DEClash.Weighted>
0.0196

> <Gold.Chemscore.DEInternal.Weighted>
1.9978

> <Gold.Chemscore.Rot.Weighted>
3.4034

> <Gold.Chemscore.Internal.Correction.Weighted>
   9.000000E+99

> <Gold.Protein.RotatedTorsions>
[ 6907 6896 6895 6894 ] final   23.63 input  -60.11 | X-H torsion
[ 7974 7965 7964 7962 ] final   25.16 input  175.53 | X-H torsion
[ 8008 7997 7996 7995 ] final -103.33 input   59.86 | X-H torsion
[ 10167 10162 10161 10158 ] final -155.51 input  -65.29 | X-H torsion
[ 10718 10713 10712 10709 ] final  -40.85 input   66.30 | X-H torsion
[ 10763 10752 10751 10750 ] final -114.59 input  -60.55 | X-H torsion
[ 11005 11000 10999 10996 ] final  -14.21 input  -57.11 | X-H torsion

> <Gold.Protein.ActiveResidues>
 VAL166  LYS551  ARG553  GLY616  TRP617  ASP618  TYR619  PRO620  LYS621  CYS622 
 ASP623  PHE694  ASN695  SER759  ASP760  ASP761  ALA762  ILE779  LEU786  VAL792 
 PHE793  MET794  SER795  GLU796  ALA797  LYS798  CYS799  TRP800  GLU811  SER814 

> <Gold.Protein.RotatedAtoms>
  151.9453  135.0194  160.0538 H   0  0  0  0  0  0  0  0  0  0  0  0  # atno 6907 bound_to 6896
  152.2001  133.4830  159.5062 H   0  0  0  0  0  0  0  0  0  0  0  0  # atno 6908 bound_to 6896
  150.6953  134.1519  159.4186 H   0  0  0  0  0  0  0  0  0  0  0  0  # atno 6909 bound_to 6896
  146.1902  139.7505  142.8837 H   0  0  0  0  0  0  0  0  0  0  0  0  # atno 7974 bound_to 7965
  154.8693  140.0423  157.1714 H   0  0  0  0  0  0  0  0  0  0  0  0  # atno 8008 bound_to 7997
  154.8756  140.2965  155.5435 H   0  0  0  0  0  0  0  0  0  0  0  0  # atno 8009 bound_to 7997
  156.2999  140.2421  156.3751 H   0  0  0  0  0  0  0  0  0  0  0  0  # atno 8010 bound_to 7997
  139.6925  143.9396  152.2392 H   0  0  0  0  0  0  0  0  0  0  0  0  # atno 10167 bound_to 10162
  156.2768  130.4212  149.8379 H   0  0  0  0  0  0  0  0  0  0  0  0  # atno 10718 bound_to 10713
  154.8446  135.4412  154.1530 H   0  0  0  0  0  0  0  0  0  0  0  0  # atno 10763 bound_to 10752
  153.2686  135.6943  153.7510 H   0  0  0  0  0  0  0  0  0  0  0  0  # atno 10764 bound_to 10752
  153.6759  135.3411  155.3141 H   0  0  0  0  0  0  0  0  0  0  0  0  # atno 10765 bound_to 10752
  140.7841  133.8340  155.9318 H   0  0  0  0  0  0  0  0  0  0  0  0  # atno 11005 bound_to 11000
  145.3815  141.0359  143.3175 LP  0  0  0  0  0  0  0  0  0  0  0  0  # atno 17320 bound_to 7965
  144.8473  139.5377  143.6873 LP  0  0  0  0  0  0  0  0  0  0  0  0  # atno 17321 bound_to 7965
  139.9216  144.6796  150.8455 LP  0  0  0  0  0  0  0  0  0  0  0  0  # atno 17342 bound_to 10162
  140.7687  143.3371  151.2286 LP  0  0  0  0  0  0  0  0  0  0  0  0  # atno 17343 bound_to 10162
  156.5840  130.8478  151.3390 LP  0  0  0  0  0  0  0  0  0  0  0  0  # atno 17370 bound_to 10713
  157.7302  130.9682  150.1821 LP  0  0  0  0  0  0  0  0  0  0  0  0  # atno 17371 bound_to 10713
  140.9454  134.1847  157.4767 LP  0  0  0  0  0  0  0  0  0  0  0  0  # atno 17394 bound_to 11000
  139.8739  134.9888  156.5430 LP  0  0  0  0  0  0  0  0  0  0  0  0  # atno 17395 bound_to 11000

$$$$
