AV-unprocessed.smi:2658|AV-procd|sdf|10309|dock1
  -GOLD-   2272014323D 1   1.00000     0.00000
 Structure written by MMmdl.
 46 48  0  0  0  0  0  0  0  0  1 V2000
  153.0792  142.9527  161.7873 C   0  0  0  0  0  0  0  0  0  0  0  0
  152.6063  142.4281  160.4429 C   0  0  0  0  0  0  0  0  0  0  0  0
  153.1515  141.2231  159.9459 C   0  0  0  0  0  0  0  0  0  0  0  0
  152.7351  140.6979  158.7033 C   0  0  0  0  0  0  0  0  0  0  0  0
  153.1275  139.5497  158.0368 N   0  0  0  0  0  0  0  0  0  0  0  0
  152.3793  139.6092  156.9391 C   0  0  0  0  0  0  0  0  0  0  0  0
  151.5479  140.6617  156.8152 N   0  0  0  0  0  0  0  0  0  0  0  0
  150.6372  140.9345  155.7179 C   0  0  0  0  0  0  0  0  0  0  0  0
  149.2631  141.4411  156.1981 C   0  0  1  0  0  0  0  0  0  0  0  0
  148.5138  141.9168  155.0972 O   0  0  0  0  0  0  0  0  0  0  0  0
  148.4513  140.3425  156.8997 C   0  0  0  0  0  0  0  0  0  0  0  0
  147.1234  140.8115  157.1167 O   0  0  0  0  0  0  0  0  0  0  0  0
  146.9134  141.7605  158.0958 C   0  0  0  0  0  0  0  0  0  0  0  0
  145.6236  142.3021  158.2533 C   0  0  0  0  0  0  0  0  0  0  0  0
  145.4370  143.2734  159.2547 C   0  0  0  0  0  0  0  0  0  0  0  0
  144.0745  143.9004  159.4836 C   0  0  0  0  0  0  0  0  0  0  0  0
  146.5668  143.6304  160.0244 C   0  0  0  0  0  0  0  0  0  0  0  0
  146.4856  144.6697  161.1270 C   0  0  0  0  0  0  0  0  0  0  0  0
  147.7834  143.0713  159.8270 N   0  0  0  0  0  0  0  0  0  0  0  0
  147.9556  142.1472  158.8763 N   0  0  0  0  0  0  0  0  0  0  0  0
  151.7499  141.4168  157.9651 C   0  0  0  0  0  0  0  0  0  0  0  0
  151.2026  142.6192  158.4466 C   0  0  0  0  0  0  0  0  0  0  0  0
  151.6303  143.1301  159.6903 C   0  0  0  0  0  0  0  0  0  0  0  0
  151.0342  144.4290  160.2031 C   0  0  0  0  0  0  0  0  0  0  0  0
  153.8261  142.2940  162.2315 H   0  0  0  0  0  0  0  0  0  0  0  0
  152.2437  143.0265  162.4836 H   0  0  0  0  0  0  0  0  0  0  0  0
  153.5274  143.9403  161.6768 H   0  0  0  0  0  0  0  0  0  0  0  0
  153.8952  140.6883  160.5181 H   0  0  0  0  0  0  0  0  0  0  0  0
  152.4386  138.8427  156.1802 H   0  0  0  0  0  0  0  0  0  0  0  0
  151.1020  141.6646  155.0536 H   0  0  0  0  0  0  0  0  0  0  0  0
  150.5206  140.0179  155.1386 H   0  0  0  0  0  0  0  0  0  0  0  0
  149.4004  142.2772  156.8850 H   0  0  0  0  0  0  0  0  0  0  0  0
  148.6604  142.8465  155.0134 H   0  0  0  0  0  0  0  0  0  0  0  0
  148.4160  139.4491  156.2733 H   0  0  0  0  0  0  0  0  0  0  0  0
  148.9323  140.0715  157.8417 H   0  0  0  0  0  0  0  0  0  0  0  0
  144.8074  141.9791  157.6239 H   0  0  0  0  0  0  0  0  0  0  0  0
  143.7472  143.7378  160.5110 H   0  0  0  0  0  0  0  0  0  0  0  0
  143.3255  143.4687  158.8190 H   0  0  0  0  0  0  0  0  0  0  0  0
  144.1134  144.9741  159.2984 H   0  0  0  0  0  0  0  0  0  0  0  0
  146.1314  145.6205  160.7288 H   0  0  0  0  0  0  0  0  0  0  0  0
  147.4595  144.8410  161.5876 H   0  0  0  0  0  0  0  0  0  0  0  0
  145.7971  144.3429  161.9066 H   0  0  0  0  0  0  0  0  0  0  0  0
  150.4593  143.1421  157.8628 H   0  0  0  0  0  0  0  0  0  0  0  0
  150.2931  144.8284  159.5101 H   0  0  0  0  0  0  0  0  0  0  0  0
  151.8127  145.1814  160.3314 H   0  0  0  0  0  0  0  0  0  0  0  0
  150.5428  144.2712  161.1634 H   0  0  0  0  0  0  0  0  0  0  0  0
  1  2  1  0  0  0  0
  1 25  1  0  0  0  0
  1 26  1  0  0  0  0
  1 27  1  0  0  0  0
  2 23  1  0  0  0  0
  2  3  2  0  0  0  0
  3  4  1  0  0  0  0
  3 28  1  0  0  0  0
  4 21  2  0  0  0  0
  4  5  1  0  0  0  0
  5  6  2  0  0  0  0
  6  7  1  0  0  0  0
  6 29  1  0  0  0  0
  7  8  1  0  0  0  0
  7 21  1  0  0  0  0
  8  9  1  0  0  0  0
  8 30  1  0  0  0  0
  8 31  1  0  0  0  0
  9 10  1  0  0  0  0
  9 11  1  0  0  0  0
  9 32  1  0  0  0  0
 10 33  1  0  0  0  0
 11 12  1  0  0  0  0
 11 34  1  0  0  0  0
 11 35  1  0  0  0  0
 12 13  1  0  0  0  0
 13 20  1  0  0  0  0
 13 14  2  0  0  0  0
 14 15  1  0  0  0  0
 14 36  1  0  0  0  0
 15 16  1  0  0  0  0
 15 17  2  0  0  0  0
 16 37  1  0  0  0  0
 16 38  1  0  0  0  0
 16 39  1  0  0  0  0
 17 18  1  0  0  0  0
 17 19  1  0  0  0  0
 18 40  1  0  0  0  0
 18 41  1  0  0  0  0
 18 42  1  0  0  0  0
 19 20  2  0  0  0  0
 21 22  1  0  0  0  0
 22 23  2  0  0  0  0
 22 43  1  0  0  0  0
 23 24  1  0  0  0  0
 24 44  1  0  0  0  0
 24 45  1  0  0  0  0
 24 46  1  0  0  0  0
M  END
> <s_m_source_file>
AV-unprocessed.smi

> <i_m_source_file_index>
2658

> <i_lp_mmshare_version>
43012

> <i_f3d_flags>
0

> <s_epik_input>
W0NIM11jKFtjSF0xKWMoW0NIM10pW2NIXWMoYzEyKW4oW2NIXW4yKVtDSDJdW0NASF0oW09IXSlbQ0gyXU9jM1tjSF1jKFtDSDNdKWMoW0NIM10pbm4z

> <s_epik_cmdline>
J2VwaWtfcHl0aG9uJywgJy1waCcsICc3LjAnLCAnLXRuJywgJzgnLCAnLW1hJywgJzIwMCcsICctbWV0YWxfYmluZGluZycsICctaW1hZScsICc8aW5maWxlLm1hZT4nLCAnLW9tYWUnLCAnPG91dGZpbGUubWFlPic=

> <r_lp_tautomer_probability>
1

> <r_epik_Ionization_Penalty>
0.110663

> <r_epik_Ionization_Penalty_Charging>
0

> <r_epik_Ionization_Penalty_Neutral>
0.110663

> <r_epik_State_Penalty>
0.100267

> <r_epik_Charging_Adjusted_Penalty>
0.100267

> <i_epik_Tot_Q>
0

> <i_epik_Tot_abs_Q>
0

> <r_epik_Metal_State_Penalty>
0.0843924

> <b_epik_Metal_Only>
0

> <s_lp_Force_Field>
OPLS_2005

> <r_lp_Energy>
13.1317

> <b_lp_Chiralities_Consistent>
1

> <s_lp_Variant>
AV-unprocessed.smi:2658-2

> <Gold.Version>
5.8.1

> <Gold.Id.Protein>
6NUR|6NUR_protein|mol2

> <Gold.PLP.Fitness>
50.7834

> <Gold.PLP.PLP>
-42.6791

> <Gold.PLP.part.hbond>
-4.1630

> <Gold.PLP.part.metal>
0.0000

> <Gold.PLP.part.buried>
-5.6139

> <Gold.PLP.part.nonpolar>
-32.1472

> <Gold.PLP.part.repulsive>
0.2296

> <Gold.PLP.ligand.clash>
0.0000

> <Gold.PLP.ligand.torsion>
0.4154

> <Gold.PLP.Chemscore.Hbond>
2.9120

> <Gold.PLP.Chemscore.CHOScore>
0.0000

> <Gold.PLP.Chemscore.Metal>
0.0000

> <Gold.Chemscore.Hbonds>
donor molecule, donor type, donor heavy atom, donor atom, acceptor molecule, acceptor atom, score
      L1  H    10    33       P1  8028  1.00
      P1  H  6933  6944       L1    19  0.82
      P1  H  7997  8009       L1     5  0.45

> <Gold.PLP.Chemscore.Internal.Correction>
0.1992

> <Gold.Rescore>
     Score         DG    S(hbond)    S(metal)    S(lipo)     H(rot)  DE(clash)    DE(int)     intcor
     16.78     -17.23       1.64        0.00     106.01       2.40       0.01       0.44       ----

> <Gold.Chemscore.Fitness>
16.7816

> <Gold.Chemscore.DG>
-17.2343

> <Gold.Chemscore.ZeroCoef>
-5.4800

> <Gold.Chemscore.Hbond>
1.6439

> <Gold.Chemscore.Metal>
0.0000

> <Gold.Chemscore.Lipo>
106.0111

> <Gold.Chemscore.Internal_Hbond>
0.0000

> <Gold.Chemscore.DEClash>
0.0149

> <Gold.Chemscore.DEInternal>
0.4378

> <Gold.Chemscore.Rot>
2.3983

> <Gold.Chemscore.Internal.Correction>
   9.000000E+99

> <Gold.Chemscore.Hbonds>
donor molecule, donor type, donor heavy atom, donor atom, acceptor molecule, acceptor atom, score
      L1  H    10    33       P1  8028  0.97
      P1  H  6933  6944       L1    19  0.37
      P1  H  7997  8009       L1     5  0.01

> <Gold.Chemscore.Hbond.Weighted>
-5.4906

> <Gold.Chemscore.Metal.Weighted>
-0.0000

> <Gold.Chemscore.Lipo.Weighted>
-12.4033

> <Gold.Chemscore.Internal_Hbond.Weighted>
0.0000

> <Gold.Chemscore.DEClash.Weighted>
0.0149

> <Gold.Chemscore.DEInternal.Weighted>
0.4378

> <Gold.Chemscore.Rot.Weighted>
6.1397

> <Gold.Chemscore.Internal.Correction.Weighted>
   9.000000E+99

> <Gold.Protein.RotatedTorsions>
[ 6907 6896 6895 6894 ] final  171.56 input  -60.11 | X-H torsion
[ 7974 7965 7964 7962 ] final  112.66 input  175.53 | X-H torsion
[ 8008 7997 7996 7995 ] final  154.01 input   59.86 | X-H torsion
[ 10167 10162 10161 10158 ] final -130.14 input  -65.29 | X-H torsion
[ 10718 10713 10712 10709 ] final  153.98 input   66.30 | X-H torsion
[ 10763 10752 10751 10750 ] final   30.40 input  -60.55 | X-H torsion
[ 11005 11000 10999 10996 ] final   -2.94 input  -57.11 | X-H torsion

> <Gold.Protein.ActiveResidues>
 VAL166  LYS551  ARG553  GLY616  TRP617  ASP618  TYR619  PRO620  LYS621  CYS622 
 ASP623  PHE694  ASN695  SER759  ASP760  ASP761  ALA762  ILE779  LEU786  VAL792 
 PHE793  MET794  SER795  GLU796  ALA797  LYS798  CYS799  TRP800  GLU811  SER814 

> <Gold.Protein.RotatedAtoms>
  151.7983  133.3367  159.3518 H   0  0  0  0  0  0  0  0  0  0  0  0  # atno 6907 bound_to 6896
  150.7367  134.5778  159.5932 H   0  0  0  0  0  0  0  0  0  0  0  0  # atno 6908 bound_to 6896
  152.3161  134.7439  160.0376 H   0  0  0  0  0  0  0  0  0  0  0  0  # atno 6909 bound_to 6896
  145.2268  139.2837  143.4189 H   0  0  0  0  0  0  0  0  0  0  0  0  # atno 7974 bound_to 7965
  156.2553  140.1978  156.6579 H   0  0  0  0  0  0  0  0  0  0  0  0  # atno 8008 bound_to 7997
  154.6487  140.0574  156.9955 H   0  0  0  0  0  0  0  0  0  0  0  0  # atno 8009 bound_to 7997
  155.1452  140.3246  155.4446 H   0  0  0  0  0  0  0  0  0  0  0  0  # atno 8010 bound_to 7997
  139.9325  143.6256  152.2526 H   0  0  0  0  0  0  0  0  0  0  0  0  # atno 10167 bound_to 10162
  157.2376  131.0752  151.1813 H   0  0  0  0  0  0  0  0  0  0  0  0  # atno 10718 bound_to 10713
  153.0374  135.6465  154.1038 H   0  0  0  0  0  0  0  0  0  0  0  0  # atno 10763 bound_to 10752
  154.0751  135.2877  155.3302 H   0  0  0  0  0  0  0  0  0  0  0  0  # atno 10764 bound_to 10752
  154.6568  135.5406  153.8033 H   0  0  0  0  0  0  0  0  0  0  0  0  # atno 10765 bound_to 10752
  140.6639  133.9296  155.8453 H   0  0  0  0  0  0  0  0  0  0  0  0  # atno 11005 bound_to 11000
  146.3363  140.2590  142.8601 LP  0  0  0  0  0  0  0  0  0  0  0  0  # atno 17320 bound_to 7965
  144.9714  140.8372  143.5453 LP  0  0  0  0  0  0  0  0  0  0  0  0  # atno 17321 bound_to 7965
  139.6771  144.7658  151.1677 LP  0  0  0  0  0  0  0  0  0  0  0  0  # atno 17342 bound_to 10162
  140.7633  143.5780  150.8925 LP  0  0  0  0  0  0  0  0  0  0  0  0  # atno 17343 bound_to 10162
  157.3412  130.7034  149.6383 LP  0  0  0  0  0  0  0  0  0  0  0  0  # atno 17370 bound_to 10713
  155.9672  130.4279  150.4765 LP  0  0  0  0  0  0  0  0  0  0  0  0  # atno 17371 bound_to 10713
  141.0444  134.0575  157.3862 LP  0  0  0  0  0  0  0  0  0  0  0  0  # atno 17394 bound_to 11000
  139.9004  135.0162  156.7239 LP  0  0  0  0  0  0  0  0  0  0  0  0  # atno 17395 bound_to 11000

$$$$
