AV-unprocessed.smi:54|AV-procd|sdf|549|dock10
  -GOLD-   2262016443D 1   1.00000     0.00000
 Structure written by MMmdl.
 43 45  0  0  0  0  0  0  0  0  2 V2000
  146.2197  135.2953  161.9029 C   0  0  0  0  0  0  0  0  0  0  0  0
  146.9726  135.1558  160.5691 C   0  0  0  0  0  0  0  0  0  0  0  0
  147.6614  133.7858  160.4572 C   0  0  0  0  0  0  0  0  0  0  0  0
  147.9911  136.2919  160.3971 C   0  0  0  0  0  0  0  0  0  0  0  0
  148.0371  137.1895  161.2412 O   0  0  0  0  0  0  0  0  0  0  0  0
  148.7835  136.1967  159.3067 N   0  0  0  0  0  0  0  0  0  0  0  0
  149.7995  137.0592  158.8804 C   0  0  0  0  0  0  0  0  0  0  0  0
  149.3911  137.9464  158.0061 N   0  0  0  0  0  0  0  0  0  0  0  0
  150.3947  138.8132  157.6163 C   0  0  0  0  0  0  0  0  0  0  0  0
  151.6978  138.8219  158.0334 C   0  0  0  0  0  0  0  0  0  0  0  0
  152.4284  139.8167  157.3970 N   0  0  0  0  0  0  0  0  0  0  0  0
  151.5107  140.3730  156.6092 C   0  0  0  0  0  0  0  0  0  0  0  0
  150.2664  139.8584  156.7047 N   0  0  0  0  0  0  0  0  0  0  0  0
  149.0486  140.2465  155.9152 C   0  0  2  0  0  0  0  0  0  0  0  0
  148.0197  139.3424  156.2048 O   0  0  0  0  0  0  0  0  0  0  0  0
  147.8800  138.3840  155.1604 C   0  0  2  0  0  0  0  0  0  0  0  0
  148.7798  137.1589  155.4403 C   0  0  0  0  0  0  0  0  0  0  0  0
  148.5128  136.1186  154.5224 O   0  0  0  0  0  0  0  0  0  0  0  0
  148.2228  139.2101  153.9136 C   0  0  2  0  0  0  0  0  0  0  0  0
  148.6703  138.4182  152.8310 O   0  0  0  0  0  0  0  0  0  0  0  0
  149.3108  140.1630  154.3971 C   0  0  1  0  0  0  0  0  0  0  0  0
  149.1550  141.4214  153.7722 O   0  0  0  0  0  0  0  0  0  0  0  0
  152.0914  137.7972  159.0287 C   0  0  0  0  0  0  0  0  0  0  0  0
  153.2525  137.7698  159.4324 O   0  0  0  0  0  0  0  0  0  0  0  0
  151.0959  136.9476  159.4211 N   0  5  0  0  0  0  0  0  0  0  0  0
  148.8046  141.2452  156.2797 H   0  0  0  0  0  0  0  0  0  0  0  0
  146.8385  138.0607  155.1347 H   0  0  0  0  0  0  0  0  0  0  0  0
  147.3338  139.7661  153.6111 H   0  0  0  0  0  0  0  0  0  0  0  0
  150.3034  139.7538  154.2027 H   0  0  0  0  0  0  0  0  0  0  0  0
  145.7449  136.2734  161.9897 H   0  0  0  0  0  0  0  0  0  0  0  0
  146.8877  135.1723  162.7562 H   0  0  0  0  0  0  0  0  0  0  0  0
  145.4351  134.5430  161.9877 H   0  0  0  0  0  0  0  0  0  0  0  0
  146.2388  135.2269  159.7645 H   0  0  0  0  0  0  0  0  0  0  0  0
  148.2050  133.6909  159.5161 H   0  0  0  0  0  0  0  0  0  0  0  0
  146.9296  132.9785  160.4947 H   0  0  0  0  0  0  0  0  0  0  0  0
  148.3711  133.6255  161.2697 H   0  0  0  0  0  0  0  0  0  0  0  0
  148.6649  135.3512  158.7686 H   0  0  0  0  0  0  0  0  0  0  0  0
  151.7581  141.1822  155.9384 H   0  0  0  0  0  0  0  0  0  0  0  0
  149.8386  137.4183  155.4117 H   0  0  0  0  0  0  0  0  0  0  0  0
  148.5709  136.7659  156.4350 H   0  0  0  0  0  0  0  0  0  0  0  0
  148.8995  136.3469  153.6907 H   0  0  0  0  0  0  0  0  0  0  0  0
  149.2205  138.9516  152.2779 H   0  0  0  0  0  0  0  0  0  0  0  0
  148.3758  141.8311  154.1149 H   0  0  0  0  0  0  0  0  0  0  0  0
  1  2  1  0  0  0  0
  1 30  1  0  0  0  0
  1 31  1  0  0  0  0
  1 32  1  0  0  0  0
  2  3  1  0  0  0  0
  2  4  1  0  0  0  0
  2 33  1  0  0  0  0
  3 34  1  0  0  0  0
  3 35  1  0  0  0  0
  3 36  1  0  0  0  0
  4  5  2  0  0  0  0
  4  6  1  0  0  0  0
  6 37  1  0  0  0  0
  6  7  1  0  0  0  0
  7 25  1  0  0  0  0
  7  8  2  0  0  0  0
  8  9  1  0  0  0  0
  9 13  1  0  0  0  0
  9 10  2  0  0  0  0
 10 11  1  0  0  0  0
 10 23  1  0  0  0  0
 11 12  2  0  0  0  0
 12 13  1  0  0  0  0
 12 38  1  0  0  0  0
 13 14  1  0  0  0  0
 14 26  1  0  0  0  0
 14 21  1  0  0  0  0
 14 15  1  0  0  0  0
 15 16  1  0  0  0  0
 16 27  1  0  0  0  0
 16 17  1  0  0  0  0
 16 19  1  0  0  0  0
 17 18  1  0  0  0  0
 17 39  1  0  0  0  0
 17 40  1  0  0  0  0
 18 41  1  0  0  0  0
 19 28  1  0  0  0  0
 19 20  1  0  0  0  0
 19 21  1  0  0  0  0
 20 42  1  0  0  0  0
 21 29  1  0  0  0  0
 21 22  1  0  0  0  0
 22 43  1  0  0  0  0
 23 24  2  0  0  0  0
 23 25  1  0  0  0  0
M  CHG  1  25  -1
M  END
> <s_m_source_file>
AV-unprocessed.smi

> <i_m_source_file_index>
54

> <i_lp_mmshare_version>
43012

> <i_f3d_flags>
0

> <s_epik_input>
W0NIM11bQ0hdKFtDSDNdKUMoPU8pW05IXWMobjEpW25IXWMoPU8pYyhjMTIpbltjSF1uMltDQEBIXTNPW0NASF0oW0NIMl1bT0hdKVtDQEBIXShbT0hdKVtDQEhdM1tPSF0=

> <s_epik_cmdline>
J2VwaWtfcHl0aG9uJywgJy1waCcsICc3LjAnLCAnLXRuJywgJzgnLCAnLW1hJywgJzIwMCcsICctbWV0YWxfYmluZGluZycsICctaW1hZScsICc8aW5maWxlLm1hZT4nLCAnLW9tYWUnLCAnPG91dGZpbGUubWFlPic=

> <r_lp_tautomer_probability>
0.85571

> <r_epik_Ionization_Penalty>
1.75936

> <r_epik_Ionization_Penalty_Charging>
4.55893e-11

> <r_epik_Ionization_Penalty_Neutral>
1.75936

> <r_epik_State_Penalty>
1.72072

> <r_epik_Charging_Adjusted_Penalty>
1.72072

> <i_epik_Tot_Q>
-1

> <i_epik_Tot_abs_Q>
1

> <r_epik_Metal_State_Penalty>
0.400338

> <b_epik_Metal_Only>
1

> <s_epik_Chemistry_Notes>
This compound contains an acetal/aminal-like group ( X-CH(R)-Y where X, Y are N, S, or O) that may be acid/base labile, releasing an aldehyde.

> <s_lp_Force_Field>
OPLS_2005

> <r_lp_Energy>
58.7514

> <b_lp_Chiralities_Consistent>
1

> <s_lp_Variant>
AV-unprocessed.smi:54-21

> <Gold.Version>
5.8.1

> <Gold.Id.Protein>
6NUR|6NUR_protein|mol2

> <Gold.PLP.Fitness>
52.0669

> <Gold.PLP.PLP>
-31.8102

> <Gold.PLP.part.hbond>
-9.1373

> <Gold.PLP.part.metal>
0.0000

> <Gold.PLP.part.buried>
-3.7984

> <Gold.PLP.part.nonpolar>
-18.4260

> <Gold.PLP.part.repulsive>
0.1678

> <Gold.PLP.ligand.clash>
0.0000

> <Gold.PLP.ligand.torsion>
0.9492

> <Gold.PLP.Chemscore.Hbond>
7.3574

> <Gold.PLP.Chemscore.CHOScore>
0.0000

> <Gold.PLP.Chemscore.Metal>
0.0000

> <Gold.Chemscore.Hbonds>
donor molecule, donor type, donor heavy atom, donor atom, acceptor molecule, acceptor atom, score
      L1  H    18    41       P1  7948  1.00
      L1  H    20    42       P1  7957  1.00
      P1  H  6896  6908       L1    25  2.00
      P1  H  6931  6943       L1     5  1.00
      P1  H  6934  6947       L1     5  0.66
      P1  H  7997  8010       L1    11  0.83
      P1  H  8011  8017       L1    22  0.80

> <Gold.PLP.Chemscore.Internal.Correction>
0.0830

> <Gold.Rescore>
     Score         DG    S(hbond)    S(metal)    S(lipo)     H(rot)  DE(clash)    DE(int)     intcor
     14.94     -19.11       5.82        0.00      38.24       4.02       0.05       4.12       ----

> <Gold.Chemscore.Fitness>
14.9393

> <Gold.Chemscore.DG>
-19.1135

> <Gold.Chemscore.ZeroCoef>
-5.4800

> <Gold.Chemscore.Hbond>
5.8228

> <Gold.Chemscore.Metal>
0.0000

> <Gold.Chemscore.Lipo>
38.2441

> <Gold.Chemscore.Internal_Hbond>
0.0000

> <Gold.Chemscore.DEClash>
0.0530

> <Gold.Chemscore.DEInternal>
4.1213

> <Gold.Chemscore.Rot>
4.0192

> <Gold.Chemscore.Internal.Correction>
   9.000000E+99

> <Gold.Chemscore.Hbonds>
donor molecule, donor type, donor heavy atom, donor atom, acceptor molecule, acceptor atom, score
      L1  H    18    41       P1  7948  0.96
      L1  H    20    42       P1  7957  0.88
      P1  H  6896  6908       L1    25  0.73
      P1  H  6931  6943       L1     5  0.95
      P1  H  6934  6947       L1     5  0.62
      P1  H  7997  8010       L1    11  0.71
      P1  H  8011  8017       L1    22  0.56

> <Gold.Chemscore.Hbond.Weighted>
-19.4482

> <Gold.Chemscore.Metal.Weighted>
-0.0000

> <Gold.Chemscore.Lipo.Weighted>
-4.4746

> <Gold.Chemscore.Internal_Hbond.Weighted>
0.0000

> <Gold.Chemscore.DEClash.Weighted>
0.0530

> <Gold.Chemscore.DEInternal.Weighted>
4.1213

> <Gold.Chemscore.Rot.Weighted>
10.2893

> <Gold.Chemscore.Internal.Correction.Weighted>
   9.000000E+99

> <Gold.Protein.RotatedTorsions>
[ 6907 6896 6895 6894 ] final -127.74 input  -60.11 | X-H torsion
[ 7974 7965 7964 7962 ] final   29.10 input  175.53 | X-H torsion
[ 8008 7997 7996 7995 ] final   54.61 input   59.86 | X-H torsion
[ 10167 10162 10161 10158 ] final   30.85 input  -65.29 | X-H torsion
[ 10718 10713 10712 10709 ] final  131.67 input   66.30 | X-H torsion
[ 10763 10752 10751 10750 ] final  105.11 input  -60.55 | X-H torsion
[ 11005 11000 10999 10996 ] final -104.09 input  -57.11 | X-H torsion

> <Gold.Protein.ActiveResidues>
 VAL166  LYS551  ARG553  GLY616  TRP617  ASP618  TYR619  PRO620  LYS621  CYS622 
 ASP623  PHE694  ASN695  SER759  ASP760  ASP761  ALA762  ILE779  LEU786  VAL792 
 PHE793  MET794  SER795  GLU796  ALA797  LYS798  CYS799  TRP800  GLU811  SER814 

> <Gold.Protein.RotatedAtoms>
  150.9105  133.7004  159.2855 H   0  0  0  0  0  0  0  0  0  0  0  0  # atno 6907 bound_to 6896
  151.4492  135.1027  159.9702 H   0  0  0  0  0  0  0  0  0  0  0  0  # atno 6908 bound_to 6896
  152.4927  133.8495  159.7249 H   0  0  0  0  0  0  0  0  0  0  0  0  # atno 6909 bound_to 6896
  146.1691  139.6967  142.8980 H   0  0  0  0  0  0  0  0  0  0  0  0  # atno 7974 bound_to 7965
  155.4875  140.3470  155.4349 H   0  0  0  0  0  0  0  0  0  0  0  0  # atno 8008 bound_to 7997
  156.0999  140.1432  156.9510 H   0  0  0  0  0  0  0  0  0  0  0  0  # atno 8009 bound_to 7997
  154.4687  140.0908  156.7066 H   0  0  0  0  0  0  0  0  0  0  0  0  # atno 8010 bound_to 7997
  140.4641  144.0862  150.6220 H   0  0  0  0  0  0  0  0  0  0  0  0  # atno 10167 bound_to 10162
  157.4945  131.1092  150.9511 H   0  0  0  0  0  0  0  0  0  0  0  0  # atno 10718 bound_to 10713
  153.3750  135.3921  155.1816 H   0  0  0  0  0  0  0  0  0  0  0  0  # atno 10763 bound_to 10752
  154.8700  135.3711  154.4929 H   0  0  0  0  0  0  0  0  0  0  0  0  # atno 10764 bound_to 10752
  153.5401  135.7084  153.5702 H   0  0  0  0  0  0  0  0  0  0  0  0  # atno 10765 bound_to 10752
  141.1116  133.8694  157.1568 H   0  0  0  0  0  0  0  0  0  0  0  0  # atno 11005 bound_to 11000
  145.4389  141.0421  143.2869 LP  0  0  0  0  0  0  0  0  0  0  0  0  # atno 17320 bound_to 7965
  144.8136  139.5917  143.7018 LP  0  0  0  0  0  0  0  0  0  0  0  0  # atno 17321 bound_to 7965
  140.4057  143.2681  151.9893 LP  0  0  0  0  0  0  0  0  0  0  0  0  # atno 17342 bound_to 10162
  139.4810  144.5959  151.7691 LP  0  0  0  0  0  0  0  0  0  0  0  0  # atno 17343 bound_to 10162
  157.0202  130.5671  149.5330 LP  0  0  0  0  0  0  0  0  0  0  0  0  # atno 17370 bound_to 10713
  156.0193  130.5287  150.8227 LP  0  0  0  0  0  0  0  0  0  0  0  0  # atno 17371 bound_to 10713
  140.0013  135.0026  157.0197 LP  0  0  0  0  0  0  0  0  0  0  0  0  # atno 17394 bound_to 11000
  140.4759  134.1339  155.7209 LP  0  0  0  0  0  0  0  0  0  0  0  0  # atno 17395 bound_to 11000

$$$$
