#       Name:                AV-unprocessed.smi:246
#       Creating user name   scv26
#       Creation time:       Thu Mar 26 20:52:44 2020


#       File generated by GOLD software.
#

@<TRIPOS>MOLECULE
AV-unprocessed.smi:246
    68    71     1
SMALL
NO_CHARGES


@<TRIPOS>ATOM
      1 ****        -7.0669   4.8015  -1.2557 C.3            1 S1                 0.0000
      2 ****        -6.1298   5.2326  -0.1193 C.3            1 S1                 0.0000
      3 ****        -4.8592   4.6052  -0.2198 O.3            1 S1                 0.0000
      4 ****        -3.9912   5.1924  -1.1784 C.3            1 S1                 0.0000
      5 ****        -2.6603   4.4352  -1.1676 C.3            1 S1                 0.0000
      6 ****        -2.8314   3.1920  -1.8312 O.3            1 S1                 0.0000
      7 ****        -1.6600   2.3901  -1.8463 C.3            1 S1                 0.0000
      8 ****        -1.8444   1.1775  -2.7593 C.3            1 S1                 0.0000
      9 ****        -0.8636   0.1396  -2.2026 C.3            1 S1                 0.0000
     10 ****        -0.6276   0.5268  -0.8190 N.pl3          1 S1                 0.0000
     11 ****        -0.2403  -0.3627   0.1312 C.ar           1 S1                 0.0000
     12 ****        -0.4846  -0.0662   1.4354 N.ar           1 S1                 0.0000
     13 ****        -0.1170  -0.9085   2.4047 C.ar           1 S1                 0.0000
     14 ****         0.5082  -2.0812   2.2965 N.ar           1 S1                 0.0000
     15 ****         0.7696  -2.3832   0.9928 C.ar           1 S1                 0.0000
     16 ****         0.4317  -1.5911  -0.1428 C.ar           1 S1                 0.0000
     17 ****         0.8675  -2.2284  -1.3000 N.2            1 S1                 0.0000
     18 ****         1.4218  -3.3302  -0.8752 C.2            1 S1                 0.0000
     19 ****         1.4265  -3.4935   0.4910 N.pl3          1 S1                 0.0000
     20 ****         1.9772  -4.6176   1.2290 C.3            1 S1                 0.0000
     21 ****         3.4991  -4.8054   1.0320 C.3            1 S1                 0.0000
     22 ****         3.8034  -6.0721   1.5788 O.3            1 S1                 0.0000
     23 ****         4.3964  -3.7757   1.7564 C.3            1 S1                 0.0000
     24 ****         4.1780  -2.3063   1.3838 C.3            1 S1                 0.0000
     25 ****         5.5204  -1.6497   1.6619 C.3            1 S1                 0.0000
     26 ****         6.4880  -2.8275   1.7781 C.3            1 S1                 0.0000
     27 ****         5.7427  -3.9536   1.3389 O.3            1 S1                 0.0000
     28 ****        -1.3589   1.7419  -0.4921 C.3            1 S1                 0.0000
     29 ****        -0.7966   2.9624  -2.1913 H              1 S1                 0.0000
     30 ****        -8.0649   5.2145  -1.1089 H              1 S1                 0.0000
     31 ****        -7.1592   3.7159  -1.2940 H              1 S1                 0.0000
     32 ****        -6.7122   5.1434  -2.2275 H              1 S1                 0.0000
     33 ****        -6.0298   6.3184  -0.0815 H              1 S1                 0.0000
     34 ****        -6.5693   4.9296   0.8311 H              1 S1                 0.0000
     35 ****        -4.4229   5.1801  -2.1793 H              1 S1                 0.0000
     36 ****        -3.8164   6.2351  -0.9093 H              1 S1                 0.0000
     37 ****        -1.9048   5.0185  -1.6959 H              1 S1                 0.0000
     38 ****        -2.3118   4.2992  -0.1429 H              1 S1                 0.0000
     39 ****        -2.8627   0.7979  -2.6633 H              1 S1                 0.0000
     40 ****        -1.6709   1.4056  -3.8113 H              1 S1                 0.0000
     41 ****        -1.2745  -0.8674  -2.2843 H              1 S1                 0.0000
     42 ****         0.0820   0.1723  -2.7447 H              1 S1                 0.0000
     43 ****        -0.3554  -0.5962   3.4107 H              1 S1                 0.0000
     44 ****         1.8544  -4.0534  -1.5513 H              1 S1                 0.0000
     45 ****         1.7438  -4.5046   2.2885 H              1 S1                 0.0000
     46 ****         1.4453  -5.5083   0.8912 H              1 S1                 0.0000
     47 ****         3.7382  -4.8285  -0.0318 H              1 S1                 0.0000
     48 ****         4.7305  -6.2246   1.4750 H              1 S1                 0.0000
     49 ****         4.3289  -3.8936   2.8401 H              1 S1                 0.0000
     50 ****         3.9465  -2.2152   0.3218 H              1 S1                 0.0000
     51 ****         3.3698  -1.8437   1.9496 H              1 S1                 0.0000
     52 ****         5.7987  -0.9744   0.8519 H              1 S1                 0.0000
     53 ****         5.5013  -1.0755   2.5888 H              1 S1                 0.0000
     54 ****         7.3879  -2.6928   1.1774 H              1 S1                 0.0000
     55 ****         6.7890  -2.9773   2.8160 H              1 S1                 0.0000
     56 ****        -0.7788   2.4026   0.1532 H              1 S1                 0.0000
     57 ****        -2.2841   1.4784   0.0226 H              1 S1                 0.0000
     58 ****        -5.0017   3.6479  -0.4714 LP             1 S1                 0.0000
     59 ****        -4.4151   4.6522   0.6749 LP             1 S1                 0.0000
     60 ****        -3.1029   3.3729  -2.7765 LP             1 S1                 0.0000
     61 ****        -3.5568   2.6833  -1.3676 LP             1 S1                 0.0000
     62 ****        -0.9437   0.7903   1.6711 LP             1 S1                 0.0000
     63 ****         0.7537  -2.6639   3.0712 LP             1 S1                 0.0000
     64 ****         0.7764  -1.9130  -2.2446 LP             1 S1                 0.0000
     65 ****         3.2880  -6.7810   1.0974 LP             1 S1                 0.0000
     66 ****         3.5647  -6.0876   2.5497 LP             1 S1                 0.0000
     67 ****         5.7834  -4.0202   0.3419 LP             1 S1                 0.0000
     68 ****         6.1168  -4.7878   1.7442 LP             1 S1                 0.0000
@<TRIPOS>BOND
    1    1    2 1     
    2    1   30 1     
    3    1   31 1     
    4    1   32 1     
    5    2    3 1     
    6    2   33 1     
    7    2   34 1     
    8    3    4 1     
    9    4    5 1     
   10    4   35 1     
   11    4   36 1     
   12    5    6 1     
   13    5   37 1     
   14    5   38 1     
   15    6    7 1     
   16    7   29 1     
   17    7   28 1     
   18    7    8 1     
   19    8    9 1     
   20    8   39 1     
   21    8   40 1     
   22    9   10 1     
   23    9   41 1     
   24    9   42 1     
   25   10   11 1     
   26   10   28 1     
   27   11   16 ar    
   28   11   12 ar    
   29   12   13 ar    
   30   13   14 ar    
   31   13   43 1     
   32   14   15 ar    
   33   15   19 1     
   34   15   16 ar    
   35   16   17 1     
   36   17   18 2     
   37   18   19 1     
   38   18   44 1     
   39   19   20 1     
   40   20   21 1     
   41   20   45 1     
   42   20   46 1     
   43   21   22 1     
   44   21   23 1     
   45   21   47 1     
   46   22   48 1     
   47   23   27 1     
   48   23   24 1     
   49   23   49 1     
   50   24   25 1     
   51   24   50 1     
   52   24   51 1     
   53   25   26 1     
   54   25   52 1     
   55   25   53 1     
   56   26   27 1     
   57   26   54 1     
   58   26   55 1     
   59   28   56 1     
   60   28   57 1     
   61    3   58 1     
   62    3   59 1     
   63    6   60 1     
   64    6   61 1     
   65   12   62 1     
   66   14   63 1     
   67   17   64 1     
   68   22   65 1     
   69   22   66 1     
   70   27   67 1     
   71   27   68 1     
@<TRIPOS>SUBSTRUCTURE
      1 S1             1
@<TRIPOS>SET
LONE_PAIRS      STATIC     ATOMS    <user>   **** ""
11 58 59 60 61 62 63 64 65 66 67 68
DONOR_HYDROGENS      STATIC     ATOMS    <user>   **** ""
1 48
ATOM$BLUE        STATIC     ATOMS    COLORGROUP SYSTEM
11 58 59 60 61 62 63 64 65 66 67 68
ATOM$RED        STATIC     ATOMS    COLORGROUP SYSTEM
1 48
