AV-unprocessed.smi:3056|AV-procd|sdf|11648|dock6
  -GOLD-   2272017 43D 1   1.00000     0.00000
 Structure written by MMmdl.
 48 49  0  0  0  0  0  0  0  0  2 V2000
  151.7246  142.1055  158.2826 C   0  0  0  0  0  0  0  0  0  0  0  0
  151.0930  141.5942  157.0199 C   0  0  0  0  0  0  0  0  0  0  0  0
  151.6375  140.6746  156.0805 C   0  0  0  0  0  0  0  0  0  0  0  0
  150.8170  140.4274  155.0735 N   0  0  0  0  0  0  0  0  0  0  0  0
  149.7234  141.1832  155.3227 N   0  0  0  0  0  0  0  0  0  0  0  0
  148.5669  141.1600  154.4300 C   0  0  1  0  0  0  0  0  0  0  0  0
  148.0785  139.7269  154.1191 C   0  0  0  0  0  0  0  0  0  0  0  0
  147.4426  142.1199  154.9103 C   0  0  1  0  0  0  0  0  0  0  0  0
  146.4208  142.4142  153.8003 C   0  0  0  0  0  0  0  0  0  0  0  0
  146.7307  141.6210  156.1113 N   0  3  0  0  0  0  0  0  0  0  0  0
  146.1838  142.6592  157.0110 C   0  0  0  0  0  0  0  0  0  0  0  0
  145.3368  142.0443  158.1301 C   0  0  0  0  0  0  0  0  0  0  0  0
  144.4184  141.2932  157.8031 O   0  0  0  0  0  0  0  0  0  0  0  0
  145.6067  142.3413  159.4243 N   0  0  0  0  0  0  0  0  0  0  0  0
  144.7645  141.9026  160.5394 C   0  0  0  0  0  0  0  0  0  0  0  0
  144.1339  143.1527  161.1799 C   0  0  0  0  0  0  0  0  0  0  0  0
  145.1599  144.0515  161.5982 O   0  0  0  0  0  0  0  0  0  0  0  0
  146.0238  144.4668  160.5408 C   0  0  1  0  0  0  0  0  0  0  0  0
  147.0642  145.4301  161.1224 C   0  0  0  0  0  0  0  0  0  0  0  0
  146.6733  143.2194  159.9113 C   0  0  0  0  0  0  0  0  0  0  0  0
  149.8666  141.8925  156.4978 C   0  0  0  0  0  0  0  0  0  0  0  0
  152.7790  141.8355  158.3473 H   0  0  0  0  0  0  0  0  0  0  0  0
  151.2346  141.7020  159.1686 H   0  0  0  0  0  0  0  0  0  0  0  0
  151.6683  143.1922  158.3493 H   0  0  0  0  0  0  0  0  0  0  0  0
  152.5968  140.1789  156.1027 H   0  0  0  0  0  0  0  0  0  0  0  0
  148.9363  141.5610  153.4849 H   0  0  0  0  0  0  0  0  0  0  0  0
  147.3169  139.7227  153.3402 H   0  0  0  0  0  0  0  0  0  0  0  0
  147.6552  139.2380  154.9971 H   0  0  0  0  0  0  0  0  0  0  0  0
  148.9000  139.1059  153.7598 H   0  0  0  0  0  0  0  0  0  0  0  0
  147.8954  143.0819  155.1562 H   0  0  0  0  0  0  0  0  0  0  0  0
  146.9102  142.8026  152.9066 H   0  0  0  0  0  0  0  0  0  0  0  0
  145.6981  143.1633  154.1258 H   0  0  0  0  0  0  0  0  0  0  0  0
  145.8596  141.5246  153.5142 H   0  0  0  0  0  0  0  0  0  0  0  0
  145.9422  141.0790  155.7875 H   0  0  0  0  0  0  0  0  0  0  0  0
  146.9689  143.2797  157.4383 H   0  0  0  0  0  0  0  0  0  0  0  0
  145.5495  143.3303  156.4300 H   0  0  0  0  0  0  0  0  0  0  0  0
  143.9794  141.2095  160.2347 H   0  0  0  0  0  0  0  0  0  0  0  0
  145.3736  141.3693  161.2707 H   0  0  0  0  0  0  0  0  0  0  0  0
  143.4659  143.6536  160.4773 H   0  0  0  0  0  0  0  0  0  0  0  0
  143.5347  142.8729  162.0464 H   0  0  0  0  0  0  0  0  0  0  0  0
  145.4382  144.9970  159.7875 H   0  0  0  0  0  0  0  0  0  0  0  0
  147.7500  145.7820  160.3520 H   0  0  0  0  0  0  0  0  0  0  0  0
  147.6557  144.9485  161.9014 H   0  0  0  0  0  0  0  0  0  0  0  0
  146.5827  146.3039  161.5622 H   0  0  0  0  0  0  0  0  0  0  0  0
  147.2624  142.6852  160.6585 H   0  0  0  0  0  0  0  0  0  0  0  0
  147.3806  143.5123  159.1402 H   0  0  0  0  0  0  0  0  0  0  0  0
  149.0886  142.5460  156.8646 H   0  0  0  0  0  0  0  0  0  0  0  0
  147.3442  141.0096  156.6309 H   0  0  0  0  0  0  0  0  0  0  0  0
  1  2  1  0  0  0  0
  1 22  1  0  0  0  0
  1 23  1  0  0  0  0
  1 24  1  0  0  0  0
  2 21  2  0  0  0  0
  2  3  1  0  0  0  0
  3  4  2  0  0  0  0
  3 25  1  0  0  0  0
  4  5  1  0  0  0  0
  5  6  1  0  0  0  0
  5 21  1  0  0  0  0
  6  7  1  0  0  0  0
  6  8  1  0  0  0  0
  6 26  1  0  0  0  0
  7 27  1  0  0  0  0
  7 28  1  0  0  0  0
  7 29  1  0  0  0  0
  8  9  1  0  0  0  0
  8 10  1  0  0  0  0
  8 30  1  0  0  0  0
  9 31  1  0  0  0  0
  9 32  1  0  0  0  0
  9 33  1  0  0  0  0
 10 11  1  0  0  0  0
 10 34  1  0  0  0  0
 10 48  1  0  0  0  0
 11 12  1  0  0  0  0
 11 35  1  0  0  0  0
 11 36  1  0  0  0  0
 12 13  2  0  0  0  0
 12 14  1  0  0  0  0
 14 20  1  0  0  0  0
 14 15  1  0  0  0  0
 15 16  1  0  0  0  0
 15 37  1  0  0  0  0
 15 38  1  0  0  0  0
 16 17  1  0  0  0  0
 16 39  1  0  0  0  0
 16 40  1  0  0  0  0
 17 18  1  0  0  0  0
 18 19  1  0  0  0  0
 18 20  1  0  0  0  0
 18 41  1  0  0  0  0
 19 42  1  0  0  0  0
 19 43  1  0  0  0  0
 19 44  1  0  0  0  0
 20 45  1  0  0  0  0
 20 46  1  0  0  0  0
 21 47  1  0  0  0  0
M  CHG  1  10   1
M  END
> <s_m_source_file>
AV-unprocessed.smi

> <i_m_source_file_index>
3056

> <i_lp_mmshare_version>
43012

> <i_f3d_flags>
0

> <s_epik_input>
W0NIM11jMVtjSF1ubihbY0hdMSlbQ0BIXShbQ0gzXSlbQ0BIXShbQ0gzXSlbTkhdW0NIMl1DKD1PKU4yW0NIMl1bQ0gyXU9bQ0BASF0oW0NIM10pW0NIMl0y

> <s_epik_cmdline>
J2VwaWtfcHl0aG9uJywgJy1waCcsICc3LjAnLCAnLXRuJywgJzgnLCAnLW1hJywgJzIwMCcsICctbWV0YWxfYmluZGluZycsICctaW1hZScsICc8aW5maWxlLm1hZT4nLCAnLW9tYWUnLCAnPG91dGZpbGUubWFlPic=

> <r_lp_tautomer_probability>
1

> <r_epik_Ionization_Penalty>
0.233715

> <r_epik_Ionization_Penalty_Charging>
0.233698

> <r_epik_Ionization_Penalty_Neutral>
1.68157e-05

> <r_epik_State_Penalty>
0.225221

> <r_epik_Charging_Adjusted_Penalty>
0.458919

> <i_epik_Tot_Q>
1

> <i_epik_Tot_abs_Q>
1

> <r_epik_Metal_State_Penalty>
0.225535

> <b_epik_Metal_Only>
0

> <s_lp_Force_Field>
OPLS_2005

> <r_lp_Energy>
30.0079

> <b_lp_Chiralities_Consistent>
1

> <s_lp_Variant>
AV-unprocessed.smi:3056-4

> <Gold.Version>
5.8.1

> <Gold.Id.Protein>
6NUR|6NUR_protein|mol2

> <Gold.PLP.Fitness>
40.9303

> <Gold.PLP.PLP>
-36.1951

> <Gold.PLP.part.hbond>
-1.0000

> <Gold.PLP.part.metal>
0.0000

> <Gold.PLP.part.buried>
-5.9817

> <Gold.PLP.part.nonpolar>
-29.4154

> <Gold.PLP.part.repulsive>
0.1495

> <Gold.PLP.ligand.clash>
0.0000

> <Gold.PLP.ligand.torsion>
0.5659

> <Gold.PLP.Chemscore.Hbond>
1.0000

> <Gold.PLP.Chemscore.CHOScore>
0.8690

> <Gold.PLP.Chemscore.Metal>
0.0000

> <Gold.Chemscore.Hbonds>
donor molecule, donor type, donor heavy atom, donor atom, acceptor molecule, acceptor atom, score
      P1  H  7989  7998       L1     4  1.00
      L1  C    21    47       P1  8028  0.71

> <Gold.PLP.Chemscore.Internal.Correction>
0.2600

> <Gold.Rescore>
     Score         DG    S(hbond)    S(metal)    S(lipo)     H(rot)  DE(clash)    DE(int)     intcor
     11.51     -12.23       0.64        0.00      77.28       1.74       0.07       0.65       ----

> <Gold.Chemscore.Fitness>
11.5117

> <Gold.Chemscore.DG>
-12.2296

> <Gold.Chemscore.ZeroCoef>
-5.4800

> <Gold.Chemscore.Hbond>
0.6439

> <Gold.Chemscore.Metal>
0.0000

> <Gold.Chemscore.Lipo>
77.2787

> <Gold.Chemscore.Internal_Hbond>
0.0000

> <Gold.Chemscore.DEClash>
0.0670

> <Gold.Chemscore.DEInternal>
0.6509

> <Gold.Chemscore.Rot>
1.7354

> <Gold.Chemscore.Internal.Correction>
   9.000000E+99

> <Gold.Chemscore.Hbonds>
donor molecule, donor type, donor heavy atom, donor atom, acceptor molecule, acceptor atom, score
      P1  H  7989  7998       L1     4  0.56

> <Gold.Chemscore.Hbond.Weighted>
-2.1506

> <Gold.Chemscore.Metal.Weighted>
-0.0000

> <Gold.Chemscore.Lipo.Weighted>
-9.0416

> <Gold.Chemscore.Internal_Hbond.Weighted>
0.0000

> <Gold.Chemscore.DEClash.Weighted>
0.0670

> <Gold.Chemscore.DEInternal.Weighted>
0.6509

> <Gold.Chemscore.Rot.Weighted>
4.4426

> <Gold.Chemscore.Internal.Correction.Weighted>
   9.000000E+99

> <Gold.Protein.RotatedTorsions>
[ 6907 6896 6895 6894 ] final  -93.22 input  -60.11 | X-H torsion
[ 7974 7965 7964 7962 ] final  -48.59 input  175.53 | X-H torsion
[ 8008 7997 7996 7995 ] final  -41.77 input   59.86 | X-H torsion
[ 10167 10162 10161 10158 ] final   72.66 input  -65.29 | X-H torsion
[ 10718 10713 10712 10709 ] final  -69.72 input   66.30 | X-H torsion
[ 10763 10752 10751 10750 ] final -176.03 input  -60.55 | X-H torsion
[ 11005 11000 10999 10996 ] final  107.76 input  -57.11 | X-H torsion

> <Gold.Protein.ActiveResidues>
 VAL166  LYS551  ARG553  GLY616  TRP617  ASP618  TYR619  PRO620  LYS621  CYS622 
 ASP623  PHE694  ASN695  SER759  ASP760  ASP761  ALA762  ILE779  LEU786  VAL792 
 PHE793  MET794  SER795  GLU796  ALA797  LYS798  CYS799  TRP800  GLU811  SER814 

> <Gold.Protein.RotatedAtoms>
  150.6919  134.2001  159.4318 H   0  0  0  0  0  0  0  0  0  0  0  0  # atno 6907 bound_to 6896
  151.9967  134.9948  160.0573 H   0  0  0  0  0  0  0  0  0  0  0  0  # atno 6908 bound_to 6896
  152.1617  133.4551  159.4901 H   0  0  0  0  0  0  0  0  0  0  0  0  # atno 6909 bound_to 6896
  145.9496  140.7585  142.9511 H   0  0  0  0  0  0  0  0  0  0  0  0  # atno 7974 bound_to 7965
  154.4002  140.1491  156.3245 H   0  0  0  0  0  0  0  0  0  0  0  0  # atno 8008 bound_to 7997
  155.8500  140.3458  155.5665 H   0  0  0  0  0  0  0  0  0  0  0  0  # atno 8009 bound_to 7997
  155.7995  140.0868  157.1955 H   0  0  0  0  0  0  0  0  0  0  0  0  # atno 8010 bound_to 7997
  140.0329  144.5451  150.7493 H   0  0  0  0  0  0  0  0  0  0  0  0  # atno 10167 bound_to 10162
  156.0442  130.4318  150.2189 H   0  0  0  0  0  0  0  0  0  0  0  0  # atno 10718 bound_to 10713
  154.5773  135.2833  155.0768 H   0  0  0  0  0  0  0  0  0  0  0  0  # atno 10763 bound_to 10752
  154.2118  135.6406  153.5121 H   0  0  0  0  0  0  0  0  0  0  0  0  # atno 10764 bound_to 10752
  153.0076  135.5493  154.6415 H   0  0  0  0  0  0  0  0  0  0  0  0  # atno 10765 bound_to 10752
  139.8833  134.9410  156.5869 H   0  0  0  0  0  0  0  0  0  0  0  0  # atno 11005 bound_to 11000
  144.6793  140.2413  143.7343 LP  0  0  0  0  0  0  0  0  0  0  0  0  # atno 17320 bound_to 7965
  145.8189  139.2035  143.1949 LP  0  0  0  0  0  0  0  0  0  0  0  0  # atno 17321 bound_to 7965
  140.7294  143.2672  151.4005 LP  0  0  0  0  0  0  0  0  0  0  0  0  # atno 17342 bound_to 10162
  139.6064  144.1188  152.2254 LP  0  0  0  0  0  0  0  0  0  0  0  0  # atno 17343 bound_to 10162
  157.0281  130.9999  151.3320 LP  0  0  0  0  0  0  0  0  0  0  0  0  # atno 17370 bound_to 10713
  157.5297  130.8050  149.7902 LP  0  0  0  0  0  0  0  0  0  0  0  0  # atno 17371 bound_to 10713
  140.7985  133.8525  155.8706 LP  0  0  0  0  0  0  0  0  0  0  0  0  # atno 17394 bound_to 11000
  140.9614  134.1651  157.4651 LP  0  0  0  0  0  0  0  0  0  0  0  0  # atno 17395 bound_to 11000

$$$$
