AV-unprocessed.smi:2250|AV-procd|sdf|9100|dock5
  -GOLD-   2272012303D 1   1.00000     0.00000
 Structure written by MMmdl.
 43 44  0  0  0  0  0  0  0  0  1 V2000
  151.2428  145.3140  159.8302 C   0  0  0  0  0  0  0  0  0  0  0  0
  152.1295  144.1526  160.2274 C   0  0  0  0  0  0  0  0  0  0  0  0
  152.3018  143.7955  161.5781 C   0  0  0  0  0  0  0  0  0  0  0  0
  153.1366  142.7055  161.8905 C   0  0  0  0  0  0  0  0  0  0  0  0
  153.7795  142.0001  160.8484 C   0  0  0  0  0  0  0  0  0  0  0  0
  154.5974  140.9189  161.2712 N   0  0  0  0  0  0  0  0  0  0  0  0
  155.3561  140.1040  160.5172 C   0  0  0  0  0  0  0  0  0  0  0  0
  155.4868  140.1804  159.2951 O   0  0  0  0  0  0  0  0  0  0  0  0
  155.9690  139.1823  161.2725 N   0  0  0  0  0  0  0  0  0  0  0  0
  156.8624  138.1438  160.7736 C   0  0  0  0  0  0  0  0  0  0  0  0
  156.0457  136.9890  160.1658 C   0  0  0  0  0  0  0  0  0  0  0  0
  155.9092  135.7653  161.0891 C   0  0  0  0  0  0  0  0  0  0  0  0
  156.6723  134.8108  160.9316 O   0  0  0  0  0  0  0  0  0  0  0  0
  154.9484  135.7701  162.0456 N   0  0  0  0  0  0  0  0  0  0  0  0
  154.7183  134.7039  163.0304 C   0  0  0  0  0  0  0  0  0  0  0  0
  155.1761  135.2029  164.4129 C   0  0  0  0  0  0  0  0  0  0  0  0
  154.4474  136.5063  164.7932 C   0  0  0  0  0  0  0  0  0  0  0  0
  154.5218  137.5530  163.6646 C   0  0  0  0  0  0  0  0  0  0  0  0
  154.1037  136.9413  162.3144 C   0  0  0  0  0  0  0  0  0  0  0  0
  153.6057  142.3505  159.5497 N   0  0  0  0  0  0  0  0  0  0  0  0
  152.8048  143.3948  159.2511 C   0  0  0  0  0  0  0  0  0  0  0  0
  150.9701  145.9170  160.6968 H   0  0  0  0  0  0  0  0  0  0  0  0
  150.3274  144.9470  159.3658 H   0  0  0  0  0  0  0  0  0  0  0  0
  151.7564  145.9585  159.1163 H   0  0  0  0  0  0  0  0  0  0  0  0
  151.8051  144.3447  162.3646 H   0  0  0  0  0  0  0  0  0  0  0  0
  153.2800  142.4184  162.9220 H   0  0  0  0  0  0  0  0  0  0  0  0
  154.6034  140.7435  162.2651 H   0  0  0  0  0  0  0  0  0  0  0  0
  155.8068  139.2004  162.2687 H   0  0  0  0  0  0  0  0  0  0  0  0
  157.5431  138.5499  160.0227 H   0  0  0  0  0  0  0  0  0  0  0  0
  157.4732  137.7894  161.6052 H   0  0  0  0  0  0  0  0  0  0  0  0
  155.0459  137.3447  159.9135 H   0  0  0  0  0  0  0  0  0  0  0  0
  156.5252  136.6770  159.2367 H   0  0  0  0  0  0  0  0  0  0  0  0
  153.6539  134.4655  163.0560 H   0  0  0  0  0  0  0  0  0  0  0  0
  155.2146  133.7658  162.7875 H   0  0  0  0  0  0  0  0  0  0  0  0
  154.9932  134.4388  165.1689 H   0  0  0  0  0  0  0  0  0  0  0  0
  156.2533  135.3752  164.3998 H   0  0  0  0  0  0  0  0  0  0  0  0
  153.4004  136.2805  164.9992 H   0  0  0  0  0  0  0  0  0  0  0  0
  154.8611  136.9147  165.7157 H   0  0  0  0  0  0  0  0  0  0  0  0
  153.8864  138.4062  163.9038 H   0  0  0  0  0  0  0  0  0  0  0  0
  155.5401  137.9370  163.5890 H   0  0  0  0  0  0  0  0  0  0  0  0
  154.1633  137.6972  161.5303 H   0  0  0  0  0  0  0  0  0  0  0  0
  153.0577  136.6334  162.3484 H   0  0  0  0  0  0  0  0  0  0  0  0
  152.7006  143.6310  158.2022 H   0  0  0  0  0  0  0  0  0  0  0  0
  1  2  1  0  0  0  0
  1 22  1  0  0  0  0
  1 23  1  0  0  0  0
  1 24  1  0  0  0  0
  2 21  1  0  0  0  0
  2  3  2  0  0  0  0
  3  4  1  0  0  0  0
  3 25  1  0  0  0  0
  4  5  2  0  0  0  0
  4 26  1  0  0  0  0
  5  6  1  0  0  0  0
  5 20  1  0  0  0  0
  6  7  1  0  0  0  0
  6 27  1  0  0  0  0
  7  8  2  0  0  0  0
  7  9  1  0  0  0  0
  9 10  1  0  0  0  0
  9 28  1  0  0  0  0
 10 11  1  0  0  0  0
 10 29  1  0  0  0  0
 10 30  1  0  0  0  0
 11 12  1  0  0  0  0
 11 31  1  0  0  0  0
 11 32  1  0  0  0  0
 12 13  2  0  0  0  0
 12 14  1  0  0  0  0
 14 19  1  0  0  0  0
 14 15  1  0  0  0  0
 15 16  1  0  0  0  0
 15 33  1  0  0  0  0
 15 34  1  0  0  0  0
 16 17  1  0  0  0  0
 16 35  1  0  0  0  0
 16 36  1  0  0  0  0
 17 18  1  0  0  0  0
 17 37  1  0  0  0  0
 17 38  1  0  0  0  0
 18 19  1  0  0  0  0
 18 39  1  0  0  0  0
 18 40  1  0  0  0  0
 19 41  1  0  0  0  0
 19 42  1  0  0  0  0
 20 21  2  0  0  0  0
 21 43  1  0  0  0  0
M  END
> <s_m_source_file>
AV-unprocessed.smi

> <i_m_source_file_index>
2250

> <i_lp_mmshare_version>
43012

> <i_f3d_flags>
0

> <s_epik_input>
W0NIM11jMVtjSF1bY0hdYyhuW2NIXTEpW05IXUMoPU8pW05IXVtDSDJdW0NIMl1DKD1PKU4yW0NIMl1bQ0gyXVtDSDJdW0NIMl1bQ0gyXTI=

> <s_epik_cmdline>
J2VwaWtfcHl0aG9uJywgJy1waCcsICc3LjAnLCAnLXRuJywgJzgnLCAnLW1hJywgJzIwMCcsICctbWV0YWxfYmluZGluZycsICctaW1hZScsICc8aW5maWxlLm1hZT4nLCAnLW9tYWUnLCAnPG91dGZpbGUubWFlPic=

> <r_lp_tautomer_probability>
1

> <r_epik_Ionization_Penalty>
5.00358e-05

> <r_epik_Ionization_Penalty_Charging>
0

> <r_epik_Ionization_Penalty_Neutral>
5.00358e-05

> <r_epik_State_Penalty>
-0

> <r_epik_Charging_Adjusted_Penalty>
0

> <i_epik_Tot_Q>
0

> <i_epik_Tot_abs_Q>
0

> <r_epik_Metal_State_Penalty>
-0

> <b_epik_Metal_Only>
0

> <s_lp_Force_Field>
OPLS_2005

> <r_lp_Energy>
26.56

> <b_lp_Chiralities_Consistent>
1

> <s_lp_Variant>
AV-unprocessed.smi:2250-1

> <Gold.Version>
5.8.1

> <Gold.Id.Protein>
6NUR|6NUR_protein|mol2

> <Gold.PLP.Fitness>
44.9530

> <Gold.PLP.PLP>
-43.6517

> <Gold.PLP.part.hbond>
-1.2594

> <Gold.PLP.part.metal>
0.0000

> <Gold.PLP.part.buried>
-4.2746

> <Gold.PLP.part.nonpolar>
-37.8521

> <Gold.PLP.part.repulsive>
0.0040

> <Gold.PLP.ligand.clash>
0.0000

> <Gold.PLP.ligand.torsion>
0.7499

> <Gold.PLP.Chemscore.Hbond>
0.9280

> <Gold.PLP.Chemscore.CHOScore>
0.0000

> <Gold.PLP.Chemscore.Metal>
0.0000

> <Gold.Chemscore.Hbonds>
donor molecule, donor type, donor heavy atom, donor atom, acceptor molecule, acceptor atom, score
      P1  H  7997  8010       L1     8  0.96

> <Gold.PLP.Chemscore.Internal.Correction>
0.0172

> <Gold.Rescore>
     Score         DG    S(hbond)    S(metal)    S(lipo)     H(rot)  DE(clash)    DE(int)     intcor
     15.21     -17.30       0.99        0.00     105.89       1.51       0.06       2.04       ----

> <Gold.Chemscore.Fitness>
15.2057

> <Gold.Chemscore.DG>
-17.2961

> <Gold.Chemscore.ZeroCoef>
-5.4800

> <Gold.Chemscore.Hbond>
0.9881

> <Gold.Chemscore.Metal>
0.0000

> <Gold.Chemscore.Lipo>
105.8928

> <Gold.Chemscore.Internal_Hbond>
0.0000

> <Gold.Chemscore.DEClash>
0.0550

> <Gold.Chemscore.DEInternal>
2.0354

> <Gold.Chemscore.Rot>
1.5131

> <Gold.Chemscore.Internal.Correction>
   9.000000E+99

> <Gold.Chemscore.Hbonds>
donor molecule, donor type, donor heavy atom, donor atom, acceptor molecule, acceptor atom, score
      P1  H  7997  8010       L1     8  0.92

> <Gold.Chemscore.Hbond.Weighted>
-3.3001

> <Gold.Chemscore.Metal.Weighted>
-0.0000

> <Gold.Chemscore.Lipo.Weighted>
-12.3895

> <Gold.Chemscore.Internal_Hbond.Weighted>
0.0000

> <Gold.Chemscore.DEClash.Weighted>
0.0550

> <Gold.Chemscore.DEInternal.Weighted>
2.0354

> <Gold.Chemscore.Rot.Weighted>
3.8735

> <Gold.Chemscore.Internal.Correction.Weighted>
   9.000000E+99

> <Gold.Protein.RotatedTorsions>
[ 6907 6896 6895 6894 ] final -114.18 input  -60.11 | X-H torsion
[ 7974 7965 7964 7962 ] final -138.50 input  175.53 | X-H torsion
[ 8008 7997 7996 7995 ] final  -18.77 input   59.86 | X-H torsion
[ 10167 10162 10161 10158 ] final  169.78 input  -65.29 | X-H torsion
[ 10718 10713 10712 10709 ] final  -86.29 input   66.30 | X-H torsion
[ 10763 10752 10751 10750 ] final -138.32 input  -60.55 | X-H torsion
[ 11005 11000 10999 10996 ] final   75.98 input  -57.11 | X-H torsion

> <Gold.Protein.ActiveResidues>
 VAL166  LYS551  ARG553  GLY616  TRP617  ASP618  TYR619  PRO620  LYS621  CYS622 
 ASP623  PHE694  ASN695  SER759  ASP760  ASP761  ALA762  ILE779  LEU786  VAL792 
 PHE793  MET794  SER795  GLU796  ALA797  LYS798  CYS799  TRP800  GLU811  SER814 

> <Gold.Protein.RotatedAtoms>
  150.7883  133.8838  159.3293 H   0  0  0  0  0  0  0  0  0  0  0  0  # atno 6907 bound_to 6896
  151.6683  135.0978  160.0202 H   0  0  0  0  0  0  0  0  0  0  0  0  # atno 6908 bound_to 6896
  152.3952  133.6697  159.6305 H   0  0  0  0  0  0  0  0  0  0  0  0  # atno 6909 bound_to 6896
  144.8754  140.6429  143.5240 H   0  0  0  0  0  0  0  0  0  0  0  0  # atno 7974 bound_to 7965
  154.4883  140.2107  155.9606 H   0  0  0  0  0  0  0  0  0  0  0  0  # atno 8008 bound_to 7997
  156.1268  140.3204  155.8258 H   0  0  0  0  0  0  0  0  0  0  0  0  # atno 8009 bound_to 7997
  155.4368  140.0507  157.3004 H   0  0  0  0  0  0  0  0  0  0  0  0  # atno 8010 bound_to 7997
  139.5001  144.3669  151.9766 H   0  0  0  0  0  0  0  0  0  0  0  0  # atno 10167 bound_to 10162
  155.9991  130.4760  150.4692 H   0  0  0  0  0  0  0  0  0  0  0  0  # atno 10718 bound_to 10713
  154.8640  135.3615  154.5366 H   0  0  0  0  0  0  0  0  0  0  0  0  # atno 10763 bound_to 10752
  153.5989  135.7013  153.5397 H   0  0  0  0  0  0  0  0  0  0  0  0  # atno 10764 bound_to 10752
  153.3308  135.4125  155.1455 H   0  0  0  0  0  0  0  0  0  0  0  0  # atno 10765 bound_to 10752
  139.9319  134.7563  156.1338 H   0  0  0  0  0  0  0  0  0  0  0  0  # atno 11005 bound_to 11000
  145.4053  139.1590  143.4155 LP  0  0  0  0  0  0  0  0  0  0  0  0  # atno 17320 bound_to 7965
  146.2959  140.4153  142.8722 LP  0  0  0  0  0  0  0  0  0  0  0  0  # atno 17321 bound_to 7965
  140.3105  144.3543  150.6035 LP  0  0  0  0  0  0  0  0  0  0  0  0  # atno 17342 bound_to 10162
  140.5802  143.2173  151.7441 LP  0  0  0  0  0  0  0  0  0  0  0  0  # atno 17343 bound_to 10162
  157.2709  131.0587  151.2260 LP  0  0  0  0  0  0  0  0  0  0  0  0  # atno 17370 bound_to 10713
  157.3341  130.7000  149.6342 LP  0  0  0  0  0  0  0  0  0  0  0  0  # atno 17371 bound_to 10713
  141.0912  133.6713  156.2545 LP  0  0  0  0  0  0  0  0  0  0  0  0  # atno 17394 bound_to 11000
  140.6179  134.5391  157.5543 LP  0  0  0  0  0  0  0  0  0  0  0  0  # atno 17395 bound_to 11000

$$$$
