#       Name:                AV-unprocessed.smi:2542
#       Creating user name   scv26
#       Creation time:       Fri Mar 27 14:04:18 2020


#       File generated by GOLD software.
#

@<TRIPOS>MOLECULE
AV-unprocessed.smi:2542
    45    46     1
SMALL
NO_CHARGES


@<TRIPOS>ATOM
      1 ****        -1.7901  -1.9149  -2.9919 C.3            1 S1                 0.0000
      2 ****        -1.5463  -1.1876  -1.6531 C.3            1 S1                 0.0000
      3 ****        -2.3308  -1.9586  -0.5639 C.3            1 S1                 0.0000
      4 ****        -0.0362  -1.2595  -1.3087 C.3            1 S1                 0.0000
      5 ****         0.2923  -0.4603  -0.1329 N.am           1 S1                 0.0000
      6 ****         1.4467  -0.5199   0.5478 C.2            1 S1                 0.0000
      7 ****         2.3544  -1.2931   0.2381 O.2            1 S1                 0.0000
      8 ****         1.6106   0.4291   1.7596 C.3            1 S1                 0.0000
      9 ****         0.4729   1.3647   1.8760 C.1            1 S1                 0.0000
     10 ****        -0.4190   2.0971   1.9670 N.1            1 S1                 0.0000
     11 ****         1.7780  -0.3890   3.0682 C.3            1 S1                 0.0000
     12 ****         3.1670  -0.0713   3.6359 C.3            1 S1                 0.0000
     13 ****         3.9683   0.4616   2.4543 C.3            1 S1                 0.0000
     14 ****         2.9296   1.2277   1.6370 C.3            1 S1                 0.0000
     15 ****        -1.9957   0.2819  -1.7758 C.ar           1 S1                 0.0000
     16 ****        -2.9837   0.8556  -0.9378 C.ar           1 S1                 0.0000
     17 ****        -3.3195   2.2136  -1.1063 C.ar           1 S1                 0.0000
     18 ****        -2.7496   3.0117  -2.0322 N.ar           1 S1                 0.0000
     19 ****        -1.8087   2.4695  -2.8316 C.ar           1 S1                 0.0000
     20 ****        -1.3999   1.1243  -2.7438 C.ar           1 S1                 0.0000
     21 ****        -1.5012  -2.9648  -2.9311 H              1 S1                 0.0000
     22 ****        -1.2182  -1.4743  -3.8086 H              1 S1                 0.0000
     23 ****        -2.8431  -1.8806  -3.2735 H              1 S1                 0.0000
     24 ****        -1.9993  -2.9956  -0.4995 H              1 S1                 0.0000
     25 ****        -3.4001  -1.9796  -0.7778 H              1 S1                 0.0000
     26 ****        -2.1959  -1.5218   0.4263 H              1 S1                 0.0000
     27 ****         0.2652  -2.2968  -1.1516 H              1 S1                 0.0000
     28 ****         0.5639  -0.8896  -2.1414 H              1 S1                 0.0000
     29 ****        -0.4081   0.1991   0.1760 H              1 S1                 0.0000
     30 ****         1.0055  -0.1466   3.7990 H              1 S1                 0.0000
     31 ****         1.6971  -1.4629   2.8906 H              1 S1                 0.0000
     32 ****         3.0807   0.7071   4.3953 H              1 S1                 0.0000
     33 ****         3.6366  -0.9372   4.1033 H              1 S1                 0.0000
     34 ****         4.8060   1.0877   2.7625 H              1 S1                 0.0000
     35 ****         4.3686  -0.3682   1.8707 H              1 S1                 0.0000
     36 ****         3.2550   1.3733   0.6057 H              1 S1                 0.0000
     37 ****         2.8032   2.2228   2.0666 H              1 S1                 0.0000
     38 ****        -3.4880   0.2915  -0.1687 H              1 S1                 0.0000
     39 ****        -4.0681   2.6717  -0.4766 H              1 S1                 0.0000
     40 ****        -1.3645   3.1280  -3.5632 H              1 S1                 0.0000
     41 ****        -0.6355   0.7549  -3.4110 H              1 S1                 0.0000
     42 ****         2.2445  -1.9050  -0.5451 LP             1 S1                 0.0000
     43 ****         3.2011  -1.3088   0.7700 LP             1 S1                 0.0000
     44 ****        -1.1894   2.7297   2.0456 LP             1 S1                 0.0000
     45 ****        -3.0154   3.9715  -2.1226 LP             1 S1                 0.0000
@<TRIPOS>BOND
    1    1    2 1     
    2    1   21 1     
    3    1   22 1     
    4    1   23 1     
    5    2    3 1     
    6    2    4 1     
    7    2   15 1     
    8    3   24 1     
    9    3   25 1     
   10    3   26 1     
   11    4    5 1     
   12    4   27 1     
   13    4   28 1     
   14    5    6 am    
   15    5   29 1     
   16    6    7 2     
   17    6    8 1     
   18    8   14 1     
   19    8    9 1     
   20    8   11 1     
   21    9   10 3     
   22   11   12 1     
   23   11   30 1     
   24   11   31 1     
   25   12   13 1     
   26   12   32 1     
   27   12   33 1     
   28   13   14 1     
   29   13   34 1     
   30   13   35 1     
   31   14   36 1     
   32   14   37 1     
   33   15   20 ar    
   34   15   16 ar    
   35   16   17 ar    
   36   16   38 1     
   37   17   18 ar    
   38   17   39 1     
   39   18   19 ar    
   40   19   20 ar    
   41   19   40 1     
   42   20   41 1     
   43    7   42 1     
   44    7   43 1     
   45   10   44 1     
   46   18   45 1     
@<TRIPOS>SUBSTRUCTURE
      1 S1             1
@<TRIPOS>SET
LONE_PAIRS      STATIC     ATOMS    <user>   **** ""
4 42 43 44 45
DONOR_HYDROGENS      STATIC     ATOMS    <user>   **** ""
1 29
ATOM$BLUE        STATIC     ATOMS    COLORGROUP SYSTEM
4 42 43 44 45
ATOM$RED        STATIC     ATOMS    COLORGROUP SYSTEM
1 29
