AV-unprocessed.smi:290|AV-procd|sdf|2241|dock10
  -GOLD-   2262022123D 1   1.00000     0.00000
 Structure written by MMmdl.
 59 62  0  0  0  0  0  0  0  0  2 V2000
  153.6001  142.0099  159.5393 C   0  0  0  0  0  0  0  0  0  0  0  0
  152.6313  143.0716  158.9934 C   0  0  2  0  0  0  0  0  0  0  0  0
  152.2346  143.9648  160.0235 O   0  0  0  0  0  0  0  0  0  0  0  0
  151.0865  144.6498  159.5566 C   0  0  0  0  0  0  0  0  0  0  0  0
  150.2590  143.5346  158.9289 C   0  0  0  0  0  0  0  0  0  0  0  0
  151.3047  142.5649  158.3686 C   0  0  2  0  0  0  0  0  0  0  0  0
  150.9804  141.2598  158.8186 O   0  0  0  0  0  0  0  0  0  0  0  0
  151.3180  142.5566  156.8200 C   0  0  0  0  0  0  0  0  0  0  0  0
  150.3003  141.6993  156.2299 N   0  0  0  0  0  0  0  0  0  0  0  0
  148.9385  141.8858  156.2791 C   0  0  0  0  0  0  0  0  0  0  0  0
  148.2314  140.9723  155.6737 N   0  0  0  0  0  0  0  0  0  0  0  0
  149.1730  140.0953  155.1450 C   0  0  0  0  0  0  0  0  0  0  0  0
  149.1086  138.8959  154.3729 C   0  0  0  0  0  0  0  0  0  0  0  0
  147.9665  138.3082  153.9271 N   0  0  0  0  0  0  0  0  0  0  0  0
  146.8761  139.0856  153.3665 C   0  0  0  0  0  0  0  0  0  0  0  0
  146.2249  138.1481  152.3588 C   0  0  0  0  0  0  0  0  0  0  0  0
  146.4261  136.7473  152.9612 C   0  0  1  0  0  0  0  0  0  0  0  0
  146.3591  135.6694  151.9236 N   0  3  2  0  0  0  0  0  0  0  0  0
  145.1251  135.7787  151.1019 C   0  0  0  0  0  0  0  0  0  0  0  0
  146.5656  134.2894  152.4513 C   0  0  0  0  0  0  0  0  0  0  0  0
  146.6584  133.2043  151.3613 C   0  0  0  0  0  0  0  0  0  0  0  0
  147.8903  132.5204  151.4561 O   0  0  0  0  0  0  0  0  0  0  0  0
  147.7799  136.8763  153.7122 C   0  0  2  0  0  0  0  0  0  0  0  0
  147.7797  136.1289  155.0643 C   0  0  0  0  0  0  0  0  0  0  0  0
  150.2870  138.2970  154.0582 N   0  0  0  0  0  0  0  0  0  0  0  0
  151.4475  138.8295  154.4490 C   0  0  0  0  0  0  0  0  0  0  0  0
  151.6574  139.9394  155.1564 N   0  0  0  0  0  0  0  0  0  0  0  0
  150.4817  140.5427  155.4910 C   0  0  0  0  0  0  0  0  0  0  0  0
  145.6346  136.5774  153.6937 H   0  0  0  0  0  0  0  0  0  0  0  0
  148.5848  136.5255  153.0674 H   0  0  0  0  0  0  0  0  0  0  0  0
  153.8994  141.3102  158.7589 H   0  0  0  0  0  0  0  0  0  0  0  0
  153.1537  141.4394  160.3542 H   0  0  0  0  0  0  0  0  0  0  0  0
  154.5051  142.4785  159.9263 H   0  0  0  0  0  0  0  0  0  0  0  0
  153.1636  143.6803  158.2618 H   0  0  0  0  0  0  0  0  0  0  0  0
  150.5631  145.1604  160.3652 H   0  0  0  0  0  0  0  0  0  0  0  0
  151.3765  145.3906  158.8096 H   0  0  0  0  0  0  0  0  0  0  0  0
  149.6609  143.0596  159.7088 H   0  0  0  0  0  0  0  0  0  0  0  0
  149.5661  143.9112  158.1755 H   0  0  0  0  0  0  0  0  0  0  0  0
  150.0489  141.2204  158.9713 H   0  0  0  0  0  0  0  0  0  0  0  0
  151.1732  143.5675  156.4362 H   0  0  0  0  0  0  0  0  0  0  0  0
  152.2935  142.2324  156.4552 H   0  0  0  0  0  0  0  0  0  0  0  0
  148.4831  142.7234  156.7877 H   0  0  0  0  0  0  0  0  0  0  0  0
  146.1801  139.3492  154.1635 H   0  0  0  0  0  0  0  0  0  0  0  0
  147.2164  140.0039  152.8860 H   0  0  0  0  0  0  0  0  0  0  0  0
  145.1784  138.4027  152.1901 H   0  0  0  0  0  0  0  0  0  0  0  0
  146.7492  138.2253  151.4049 H   0  0  0  0  0  0  0  0  0  0  0  0
  144.2418  135.5302  151.6914 H   0  0  0  0  0  0  0  0  0  0  0  0
  145.1561  135.1198  150.2360 H   0  0  0  0  0  0  0  0  0  0  0  0
  144.9895  136.7819  150.7003 H   0  0  0  0  0  0  0  0  0  0  0  0
  147.4973  134.2359  153.0110 H   0  0  0  0  0  0  0  0  0  0  0  0
  145.7629  134.0470  153.1491 H   0  0  0  0  0  0  0  0  0  0  0  0
  145.8583  132.4777  151.5055 H   0  0  0  0  0  0  0  0  0  0  0  0
  146.5256  133.6036  150.3567 H   0  0  0  0  0  0  0  0  0  0  0  0
  148.1533  132.2507  150.5887 H   0  0  0  0  0  0  0  0  0  0  0  0
  147.6005  135.0614  154.9516 H   0  0  0  0  0  0  0  0  0  0  0  0
  147.0031  136.5174  155.7241 H   0  0  0  0  0  0  0  0  0  0  0  0
  148.7285  136.2384  155.5882 H   0  0  0  0  0  0  0  0  0  0  0  0
  152.3343  138.2896  154.1512 H   0  0  0  0  0  0  0  0  0  0  0  0
  147.1355  135.8382  151.2997 H   0  0  0  0  0  0  0  0  0  0  0  0
  1  2  1  0  0  0  0
  1 31  1  0  0  0  0
  1 32  1  0  0  0  0
  1 33  1  0  0  0  0
  2  6  1  0  0  0  0
  2  3  1  0  0  0  0
  2 34  1  0  0  0  0
  3  4  1  0  0  0  0
  4  5  1  0  0  0  0
  4 35  1  0  0  0  0
  4 36  1  0  0  0  0
  5  6  1  0  0  0  0
  5 37  1  0  0  0  0
  5 38  1  0  0  0  0
  6  7  1  0  0  0  0
  6  8  1  0  0  0  0
  7 39  1  0  0  0  0
  8  9  1  0  0  0  0
  8 40  1  0  0  0  0
  8 41  1  0  0  0  0
  9 28  1  0  0  0  0
  9 10  1  0  0  0  0
 10 11  2  0  0  0  0
 10 42  1  0  0  0  0
 11 12  1  0  0  0  0
 12 28  2  0  0  0  0
 12 13  1  0  0  0  0
 13 14  1  0  0  0  0
 13 25  2  0  0  0  0
 14 23  1  0  0  0  0
 14 15  1  0  0  0  0
 15 16  1  0  0  0  0
 15 43  1  0  0  0  0
 15 44  1  0  0  0  0
 16 17  1  0  0  0  0
 16 45  1  0  0  0  0
 16 46  1  0  0  0  0
 17 29  1  0  0  0  0
 17 18  1  0  0  0  0
 17 23  1  0  0  0  0
 18 19  1  0  0  0  0
 18 20  1  0  0  0  0
 18 59  1  0  0  0  0
 19 47  1  0  0  0  0
 19 48  1  0  0  0  0
 19 49  1  0  0  0  0
 20 21  1  0  0  0  0
 20 50  1  0  0  0  0
 20 51  1  0  0  0  0
 21 22  1  0  0  0  0
 21 52  1  0  0  0  0
 21 53  1  0  0  0  0
 22 54  1  0  0  0  0
 23 30  1  0  0  0  0
 23 24  1  0  0  0  0
 24 55  1  0  0  0  0
 24 56  1  0  0  0  0
 24 57  1  0  0  0  0
 25 26  1  0  0  0  0
 26 27  2  0  0  0  0
 26 58  1  0  0  0  0
 27 28  1  0  0  0  0
M  CHG  1  18   1
M  END
> <s_m_source_file>
AV-unprocessed.smi

> <i_m_source_file_index>
290

> <i_lp_mmshare_version>
43012

> <i_f3d_flags>
0

> <s_epik_input>
W0NIMl0xW0NIMl1PW0NAQEhdKFtDSDNdKVtDQEBdMShbT0hdKVtDSDJdbihbY0hdbjIpYyhjMjMpbltjSF1uYzNONFtDSDJdW0NIMl1bQ0BIXShbQ0BIXTRbQ0gzXSlOKFtDSDNdKVtDSDJdW0NIMl1bT0hd

> <s_epik_cmdline>
J2VwaWtfcHl0aG9uJywgJy1waCcsICc3LjAnLCAnLXRuJywgJzgnLCAnLW1hJywgJzIwMCcsICctbWV0YWxfYmluZGluZycsICctaW1hZScsICc8aW5maWxlLm1hZT4nLCAnLW9tYWUnLCAnPG91dGZpbGUubWFlPic=

> <r_lp_tautomer_probability>
1

> <r_epik_Ionization_Penalty>
0.0036983

> <r_epik_Ionization_Penalty_Charging>
0.0032725

> <r_epik_Ionization_Penalty_Neutral>
0.000425798

> <r_epik_State_Penalty>
-0

> <r_epik_Charging_Adjusted_Penalty>
0.0032725

> <i_epik_Tot_Q>
1

> <i_epik_Tot_abs_Q>
1

> <r_epik_Metal_State_Penalty>
-0

> <b_epik_Metal_Only>
0

> <s_lp_Force_Field>
OPLS_2005

> <r_lp_Energy>
64.4963

> <b_lp_Chiralities_Consistent>
1

> <s_lp_Variant>
AV-unprocessed.smi:290-27

> <Gold.Version>
5.8.1

> <Gold.Id.Protein>
6NUR|6NUR_protein|mol2

> <Gold.PLP.Fitness>
47.8759

> <Gold.PLP.PLP>
-40.1111

> <Gold.PLP.part.hbond>
-2.6796

> <Gold.PLP.part.metal>
0.0000

> <Gold.PLP.part.buried>
-1.3260

> <Gold.PLP.part.nonpolar>
-38.0199

> <Gold.PLP.part.repulsive>
0.3515

> <Gold.PLP.ligand.clash>
0.0000

> <Gold.PLP.ligand.torsion>
1.3348

> <Gold.PLP.Chemscore.Hbond>
2.6232

> <Gold.PLP.Chemscore.CHOScore>
0.8008

> <Gold.PLP.Chemscore.Metal>
0.0000

> <Gold.Chemscore.Hbonds>
donor molecule, donor type, donor heavy atom, donor atom, acceptor molecule, acceptor atom, score
      L1  H    18    59       P1  7948  1.09
      L1  H    22    54       P1 10747  0.50
      P1  H  7989  7998       L1    27  0.18
      L1  C    10    42       P1  8028  0.64

> <Gold.PLP.Chemscore.Internal.Correction>
0.1624

> <Gold.Rescore>
     Score         DG    S(hbond)    S(metal)    S(lipo)     H(rot)  DE(clash)    DE(int)     intcor
     10.26     -14.74       1.90        0.00      98.24       3.35       3.24       1.24       ----

> <Gold.Chemscore.Fitness>
10.2607

> <Gold.Chemscore.DG>
-14.7448

> <Gold.Chemscore.ZeroCoef>
-5.4800

> <Gold.Chemscore.Hbond>
1.9015

> <Gold.Chemscore.Metal>
0.0000

> <Gold.Chemscore.Lipo>
98.2406

> <Gold.Chemscore.Internal_Hbond>
0.0000

> <Gold.Chemscore.DEClash>
3.2405

> <Gold.Chemscore.DEInternal>
1.2436

> <Gold.Chemscore.Rot>
3.3518

> <Gold.Chemscore.Internal.Correction>
   9.000000E+99

> <Gold.Chemscore.Hbonds>
donor molecule, donor type, donor heavy atom, donor atom, acceptor molecule, acceptor atom, score
      L1  H    18    59       P1  7948  0.53
      L1  H    22    54       P1 10747  0.50

> <Gold.Chemscore.Hbond.Weighted>
-6.3512

> <Gold.Chemscore.Metal.Weighted>
-0.0000

> <Gold.Chemscore.Lipo.Weighted>
-11.4941

> <Gold.Chemscore.Internal_Hbond.Weighted>
0.0000

> <Gold.Chemscore.DEClash.Weighted>
3.2405

> <Gold.Chemscore.DEInternal.Weighted>
1.2436

> <Gold.Chemscore.Rot.Weighted>
8.5806

> <Gold.Chemscore.Internal.Correction.Weighted>
   9.000000E+99

> <Gold.Protein.RotatedTorsions>
[ 6907 6896 6895 6894 ] final  128.53 input  -60.11 | X-H torsion
[ 7974 7965 7964 7962 ] final  -59.41 input  175.53 | X-H torsion
[ 8008 7997 7996 7995 ] final   36.64 input   59.86 | X-H torsion
[ 10167 10162 10161 10158 ] final  149.29 input  -65.29 | X-H torsion
[ 10718 10713 10712 10709 ] final   68.18 input   66.30 | X-H torsion
[ 10763 10752 10751 10750 ] final   -3.14 input  -60.55 | X-H torsion
[ 11005 11000 10999 10996 ] final   49.96 input  -57.11 | X-H torsion

> <Gold.Protein.ActiveResidues>
 VAL166  LYS551  ARG553  GLY616  TRP617  ASP618  TYR619  PRO620  LYS621  CYS622 
 ASP623  PHE694  ASN695  SER759  ASP760  ASP761  ALA762  ILE779  LEU786  VAL792 
 PHE793  MET794  SER795  GLU796  ALA797  LYS798  CYS799  TRP800  GLU811  SER814 

> <Gold.Protein.RotatedAtoms>
  152.3710  133.6419  159.6086 H   0  0  0  0  0  0  0  0  0  0  0  0  # atno 6907 bound_to 6896
  150.7669  133.9270  159.3424 H   0  0  0  0  0  0  0  0  0  0  0  0  # atno 6908 bound_to 6896
  151.7093  135.0917  160.0316 H   0  0  0  0  0  0  0  0  0  0  0  0  # atno 6909 bound_to 6896
  145.8277  140.8499  143.0099 H   0  0  0  0  0  0  0  0  0  0  0  0  # atno 7974 bound_to 7965
  155.1907  140.3307  155.4359 H   0  0  0  0  0  0  0  0  0  0  0  0  # atno 8008 bound_to 7997
  156.2443  140.1911  156.6950 H   0  0  0  0  0  0  0  0  0  0  0  0  # atno 8009 bound_to 7997
  154.6208  140.0596  156.9598 H   0  0  0  0  0  0  0  0  0  0  0  0  # atno 8010 bound_to 7997
  139.4863  144.5613  151.7226 H   0  0  0  0  0  0  0  0  0  0  0  0  # atno 10167 bound_to 10162
  157.6274  130.9360  150.0343 H   0  0  0  0  0  0  0  0  0  0  0  0  # atno 10718 bound_to 10713
  153.3673  135.6993  153.6665 H   0  0  0  0  0  0  0  0  0  0  0  0  # atno 10763 bound_to 10752
  153.5329  135.3588  155.2684 H   0  0  0  0  0  0  0  0  0  0  0  0  # atno 10764 bound_to 10752
  154.8676  135.4185  154.2944 H   0  0  0  0  0  0  0  0  0  0  0  0  # atno 10765 bound_to 10752
  140.1058  134.5020  155.8721 H   0  0  0  0  0  0  0  0  0  0  0  0  # atno 11005 bound_to 11000
  144.6742  140.0627  143.7475 LP  0  0  0  0  0  0  0  0  0  0  0  0  # atno 17320 bound_to 7965
  145.9605  139.2797  143.1158 LP  0  0  0  0  0  0  0  0  0  0  0  0  # atno 17321 bound_to 7965
  140.5183  144.0918  150.6015 LP  0  0  0  0  0  0  0  0  0  0  0  0  # atno 17342 bound_to 10162
  140.3867  143.2773  152.0107 LP  0  0  0  0  0  0  0  0  0  0  0  0  # atno 17343 bound_to 10162
  156.1455  130.3642  149.9516 LP  0  0  0  0  0  0  0  0  0  0  0  0  # atno 17370 bound_to 10713
  156.7548  130.9129  151.3639 LP  0  0  0  0  0  0  0  0  0  0  0  0  # atno 17371 bound_to 10713
  141.2118  133.6711  156.6608 LP  0  0  0  0  0  0  0  0  0  0  0  0  # atno 17394 bound_to 11000
  140.3158  134.8049  157.4213 LP  0  0  0  0  0  0  0  0  0  0  0  0  # atno 17395 bound_to 11000

$$$$
