AV-unprocessed.smi:13|AV-procd|sdf|74|dock2
  -GOLD-   2262015193D 1   1.00000     0.00000
 Structure written by MMmdl.
 54 58  0  0  0  0  0  0  0  0  1 V2000
  144.6974  137.2444  159.5467 C   0  0  0  0  0  0  0  0  0  0  0  0
  143.4530  137.1972  158.6493 C   0  0  0  0  0  0  0  0  0  0  0  0
  142.3194  137.8524  159.4382 C   0  0  0  0  0  0  0  0  0  0  0  0
  143.6666  137.7279  157.2233 C   0  0  0  0  0  0  0  0  0  0  0  0
  143.8488  136.3474  156.8113 N   0  0  0  0  0  0  0  0  0  0  0  0
  143.3469  136.0665  155.5070 C   0  0  0  0  0  0  0  0  0  0  0  0
  142.0088  136.0237  155.2672 N   0  0  0  0  0  0  0  0  0  0  0  0
  141.5332  135.7498  154.0494 C   0  0  0  0  0  0  0  0  0  0  0  0
  142.2097  135.4870  152.9312 N   0  0  0  0  0  0  0  0  0  0  0  0
  143.5536  135.5209  153.1544 C   0  0  0  0  0  0  0  0  0  0  0  0
  144.1950  135.7932  154.3962 C   0  0  0  0  0  0  0  0  0  0  0  0
  145.5742  135.7239  154.2389 N   0  0  0  0  0  0  0  0  0  0  0  0
  145.7383  135.4327  152.9777 C   0  0  0  0  0  0  0  0  0  0  0  0
  144.5778  135.3052  152.2482 N   0  0  0  0  0  0  0  0  0  0  0  0
  144.4644  134.9932  150.8313 C   0  0  0  0  0  0  0  0  0  0  0  0
  144.0797  133.5203  150.5473 C   0  0  2  0  0  0  0  0  0  0  0  0
  142.9257  133.1922  151.2993 O   0  0  0  0  0  0  0  0  0  0  0  0
  145.2026  132.5442  150.9062 C   0  0  0  0  0  0  0  0  0  0  0  0
  145.7052  132.0582  149.5522 C   0  0  0  0  0  0  0  0  0  0  0  0
  144.5223  132.0313  148.7738 O   0  0  0  0  0  0  0  0  0  0  0  0
  143.8109  133.2273  149.0575 C   0  0  0  0  0  0  0  0  0  0  0  0
  143.1035  135.8540  157.9645 C   0  0  1  0  0  0  0  0  0  0  0  0
  143.6415  134.5176  158.4894 C   0  0  1  0  0  0  0  0  0  0  0  0
  143.3143  134.2614  159.9615 C   0  0  0  0  0  0  0  0  0  0  0  0
  143.3409  132.7521  160.0295 C   0  0  0  0  0  0  0  0  0  0  0  0
  142.7071  132.3746  158.6960 C   0  0  0  0  0  0  0  0  0  0  0  0
  143.0474  133.4230  157.7941 O   0  0  0  0  0  0  0  0  0  0  0  0
  144.9963  138.2722  159.7550 H   0  0  0  0  0  0  0  0  0  0  0  0
  145.5521  136.7546  159.0793 H   0  0  0  0  0  0  0  0  0  0  0  0
  144.5272  136.7564  160.5059 H   0  0  0  0  0  0  0  0  0  0  0  0
  141.3980  137.8893  158.8566 H   0  0  0  0  0  0  0  0  0  0  0  0
  142.5650  138.8776  159.7170 H   0  0  0  0  0  0  0  0  0  0  0  0
  142.1003  137.3027  160.3541 H   0  0  0  0  0  0  0  0  0  0  0  0
  142.7756  138.1878  156.7913 H   0  0  0  0  0  0  0  0  0  0  0  0
  144.5553  138.3464  157.0944 H   0  0  0  0  0  0  0  0  0  0  0  0
  140.4570  135.7391  153.9593 H   0  0  0  0  0  0  0  0  0  0  0  0
  146.7190  135.3053  152.5434 H   0  0  0  0  0  0  0  0  0  0  0  0
  143.7249  135.6648  150.3936 H   0  0  0  0  0  0  0  0  0  0  0  0
  145.4143  135.2339  150.3519 H   0  0  0  0  0  0  0  0  0  0  0  0
  142.1632  133.3591  150.7666 H   0  0  0  0  0  0  0  0  0  0  0  0
  145.9957  132.9938  151.5049 H   0  0  0  0  0  0  0  0  0  0  0  0
  144.8164  131.6914  151.4671 H   0  0  0  0  0  0  0  0  0  0  0  0
  146.4160  132.7644  149.1197 H   0  0  0  0  0  0  0  0  0  0  0  0
  146.1779  131.0775  149.6045 H   0  0  0  0  0  0  0  0  0  0  0  0
  142.7520  133.1317  148.8137 H   0  0  0  0  0  0  0  0  0  0  0  0
  144.2249  134.0102  148.4216 H   0  0  0  0  0  0  0  0  0  0  0  0
  142.0321  135.8207  157.7565 H   0  0  0  0  0  0  0  0  0  0  0  0
  144.7213  134.4449  158.3510 H   0  0  0  0  0  0  0  0  0  0  0  0
  144.0217  134.7261  160.6476 H   0  0  0  0  0  0  0  0  0  0  0  0
  142.3149  134.6277  160.2012 H   0  0  0  0  0  0  0  0  0  0  0  0
  144.3713  132.3967  160.0720 H   0  0  0  0  0  0  0  0  0  0  0  0
  142.8021  132.3496  160.8877 H   0  0  0  0  0  0  0  0  0  0  0  0
  143.0512  131.4070  158.3301 H   0  0  0  0  0  0  0  0  0  0  0  0
  141.6208  132.3370  158.7865 H   0  0  0  0  0  0  0  0  0  0  0  0
  1  2  1  0  0  0  0
  1 28  1  0  0  0  0
  1 29  1  0  0  0  0
  1 30  1  0  0  0  0
  2 22  1  0  0  0  0
  2  3  1  0  0  0  0
  2  4  1  0  0  0  0
  3 31  1  0  0  0  0
  3 32  1  0  0  0  0
  3 33  1  0  0  0  0
  4  5  1  0  0  0  0
  4 34  1  0  0  0  0
  4 35  1  0  0  0  0
  5  6  1  0  0  0  0
  5 22  1  0  0  0  0
  6 11  1  0  0  0  0
  6  7  2  0  0  0  0
  7  8  1  0  0  0  0
  8  9  2  0  0  0  0
  8 36  1  0  0  0  0
  9 10  1  0  0  0  0
 10 14  1  0  0  0  0
 10 11  2  0  0  0  0
 11 12  1  0  0  0  0
 12 13  2  0  0  0  0
 13 14  1  0  0  0  0
 13 37  1  0  0  0  0
 14 15  1  0  0  0  0
 15 16  1  0  0  0  0
 15 38  1  0  0  0  0
 15 39  1  0  0  0  0
 16 21  1  0  0  0  0
 16 17  1  0  0  0  0
 16 18  1  0  0  0  0
 17 40  1  0  0  0  0
 18 19  1  0  0  0  0
 18 41  1  0  0  0  0
 18 42  1  0  0  0  0
 19 20  1  0  0  0  0
 19 43  1  0  0  0  0
 19 44  1  0  0  0  0
 20 21  1  0  0  0  0
 21 45  1  0  0  0  0
 21 46  1  0  0  0  0
 22 23  1  0  0  0  0
 22 47  1  0  0  0  0
 23 27  1  0  0  0  0
 23 24  1  0  0  0  0
 23 48  1  0  0  0  0
 24 25  1  0  0  0  0
 24 49  1  0  0  0  0
 24 50  1  0  0  0  0
 25 26  1  0  0  0  0
 25 51  1  0  0  0  0
 25 52  1  0  0  0  0
 26 27  1  0  0  0  0
 26 53  1  0  0  0  0
 26 54  1  0  0  0  0
M  END
> <s_m_source_file>
AV-unprocessed.smi

> <i_m_source_file_index>
13

> <i_lp_mmshare_version>
43012

> <i_f3d_flags>
0

> <s_epik_input>
TzFbQ0gyXVtDSDJdW0NIMl1bQ0BIXTFbQ0BASF0yTihbQ0gyXUMyKFtDSDNdKVtDSDNdKWMobltjSF1uMyljKGMzNCluW2NIXW40W0NIMl1bQ0BAXTUoW09IXSlbQ0gyXVtDSDJdT1tDSDJdNQ==

> <s_epik_cmdline>
J2VwaWtfcHl0aG9uJywgJy1waCcsICc3LjAnLCAnLXRuJywgJzgnLCAnLW1hJywgJzIwMCcsICctbWV0YWxfYmluZGluZycsICctaW1hZScsICc8aW5maWxlLm1hZT4nLCAnLW9tYWUnLCAnPG91dGZpbGUubWFlPic=

> <r_lp_tautomer_probability>
1

> <r_epik_Ionization_Penalty>
0.00202764

> <r_epik_Ionization_Penalty_Charging>
0

> <r_epik_Ionization_Penalty_Neutral>
0.00202764

> <r_epik_State_Penalty>
0.00134017

> <r_epik_Charging_Adjusted_Penalty>
0.00134017

> <i_epik_Tot_Q>
0

> <i_epik_Tot_abs_Q>
0

> <r_epik_Metal_State_Penalty>
-0

> <b_epik_Metal_Only>
0

> <s_lp_Force_Field>
OPLS_2005

> <r_lp_Energy>
62.8076

> <b_lp_Chiralities_Consistent>
1

> <s_lp_Variant>
AV-unprocessed.smi:13-6

> <Gold.Version>
5.8.1

> <Gold.Id.Protein>
6NUR|6NUR_protein|mol2

> <Gold.PLP.Fitness>
36.5414

> <Gold.PLP.PLP>
-28.8910

> <Gold.PLP.part.hbond>
-4.0000

> <Gold.PLP.part.metal>
0.0000

> <Gold.PLP.part.buried>
-5.4247

> <Gold.PLP.part.nonpolar>
-21.4676

> <Gold.PLP.part.repulsive>
0.5799

> <Gold.PLP.ligand.clash>
0.0000

> <Gold.PLP.ligand.torsion>
1.0392

> <Gold.PLP.Chemscore.Hbond>
2.1017

> <Gold.PLP.Chemscore.CHOScore>
1.0000

> <Gold.PLP.Chemscore.Metal>
0.0000

> <Gold.Chemscore.Hbonds>
donor molecule, donor type, donor heavy atom, donor atom, acceptor molecule, acceptor atom, score
      L1  H    17    40       P1 10186  1.00
      P1  H 10785 10796       L1    20  0.14
      P1  H 11000 11005       L1    27  0.94
      L1  C    13    37       P1  7948  1.00

> <Gold.PLP.Chemscore.Internal.Correction>
0.4239

> <Gold.Rescore>
     Score         DG    S(hbond)    S(metal)    S(lipo)     H(rot)  DE(clash)    DE(int)     intcor
     10.88     -12.04       1.64        0.00      59.60       2.30       0.12       1.04       ----

> <Gold.Chemscore.Fitness>
10.8844

> <Gold.Chemscore.DG>
-12.0419

> <Gold.Chemscore.ZeroCoef>
-5.4800

> <Gold.Chemscore.Hbond>
1.6394

> <Gold.Chemscore.Metal>
0.0000

> <Gold.Chemscore.Lipo>
59.5995

> <Gold.Chemscore.Internal_Hbond>
0.0000

> <Gold.Chemscore.DEClash>
0.1153

> <Gold.Chemscore.DEInternal>
1.0422

> <Gold.Chemscore.Rot>
2.2996

> <Gold.Chemscore.Internal.Correction>
   9.000000E+99

> <Gold.Chemscore.Hbonds>
donor molecule, donor type, donor heavy atom, donor atom, acceptor molecule, acceptor atom, score
      L1  H    17    40       P1 10186  0.89
      P1  H 10785 10796       L1    20  0.12
      P1  H 11000 11005       L1    27  0.19

> <Gold.Chemscore.Hbond.Weighted>
-5.4757

> <Gold.Chemscore.Metal.Weighted>
-0.0000

> <Gold.Chemscore.Lipo.Weighted>
-6.9731

> <Gold.Chemscore.Internal_Hbond.Weighted>
0.0000

> <Gold.Chemscore.DEClash.Weighted>
0.1153

> <Gold.Chemscore.DEInternal.Weighted>
1.0422

> <Gold.Chemscore.Rot.Weighted>
5.8869

> <Gold.Chemscore.Internal.Correction.Weighted>
   9.000000E+99

> <Gold.Protein.RotatedTorsions>
[ 6907 6896 6895 6894 ] final -130.81 input  -60.11 | X-H torsion
[ 7974 7965 7964 7962 ] final -120.51 input  175.53 | X-H torsion
[ 8008 7997 7996 7995 ] final   28.16 input   59.86 | X-H torsion
[ 10167 10162 10161 10158 ] final  110.71 input  -65.29 | X-H torsion
[ 10718 10713 10712 10709 ] final   -8.91 input   66.30 | X-H torsion
[ 10763 10752 10751 10750 ] final  117.30 input  -60.55 | X-H torsion
[ 11005 11000 10999 10996 ] final  -87.10 input  -57.11 | X-H torsion

> <Gold.Protein.ActiveResidues>
 VAL166  LYS551  ARG553  GLY616  TRP617  ASP618  TYR619  PRO620  LYS621  CYS622 
 ASP623  PHE694  ASN695  SER759  ASP760  ASP761  ALA762  ILE779  LEU786  VAL792 
 PHE793  MET794  SER795  GLU796  ALA797  LYS798  CYS799  TRP800  GLU811  SER814 

> <Gold.Protein.RotatedAtoms>
  150.9439  133.6625  159.2785 H   0  0  0  0  0  0  0  0  0  0  0  0  # atno 6907 bound_to 6896
  151.4005  135.0969  159.9564 H   0  0  0  0  0  0  0  0  0  0  0  0  # atno 6908 bound_to 6896
  152.5081  133.8934  159.7460 H   0  0  0  0  0  0  0  0  0  0  0  0  # atno 6909 bound_to 6896
  145.0506  140.8215  143.4211 H   0  0  0  0  0  0  0  0  0  0  0  0  # atno 7974 bound_to 7965
  155.0542  140.3183  155.4682 H   0  0  0  0  0  0  0  0  0  0  0  0  # atno 8008 bound_to 7997
  156.2827  140.2140  156.5613 H   0  0  0  0  0  0  0  0  0  0  0  0  # atno 8009 bound_to 7997
  154.7185  140.0491  157.0605 H   0  0  0  0  0  0  0  0  0  0  0  0  # atno 8010 bound_to 7997
  139.6667  144.7127  151.1763 H   0  0  0  0  0  0  0  0  0  0  0  0  # atno 10167 bound_to 10162
  156.6957  130.5078  149.5931 H   0  0  0  0  0  0  0  0  0  0  0  0  # atno 10718 bound_to 10713
  153.5502  135.3541  155.2756 H   0  0  0  0  0  0  0  0  0  0  0  0  # atno 10763 bound_to 10752
  154.8707  135.4112  154.2945 H   0  0  0  0  0  0  0  0  0  0  0  0  # atno 10764 bound_to 10752
  153.3670  135.7062  153.6736 H   0  0  0  0  0  0  0  0  0  0  0  0  # atno 10765 bound_to 10752
  141.1621  133.7492  156.9257 H   0  0  0  0  0  0  0  0  0  0  0  0  # atno 11005 bound_to 11000
  145.1532  139.2502  143.5430 LP  0  0  0  0  0  0  0  0  0  0  0  0  # atno 17320 bound_to 7965
  146.3517  140.1240  142.8599 LP  0  0  0  0  0  0  0  0  0  0  0  0  # atno 17321 bound_to 7965
  140.7602  143.5907  150.8799 LP  0  0  0  0  0  0  0  0  0  0  0  0  # atno 17342 bound_to 10162
  139.9570  143.6207  152.3013 LP  0  0  0  0  0  0  0  0  0  0  0  0  # atno 17343 bound_to 10162
  156.1765  130.6471  151.0900 LP  0  0  0  0  0  0  0  0  0  0  0  0  # atno 17370 bound_to 10713
  157.6992  131.0782  150.6874 LP  0  0  0  0  0  0  0  0  0  0  0  0  # atno 17371 bound_to 10713
  140.1421  134.9287  157.2480 LP  0  0  0  0  0  0  0  0  0  0  0  0  # atno 17394 bound_to 11000
  140.2824  134.3334  155.7339 LP  0  0  0  0  0  0  0  0  0  0  0  0  # atno 17395 bound_to 11000

$$$$
