AV-unprocessed.smi:1697|AV-procd|sdf|6807|dock3
  -GOLD-   22720 7583D 1   1.00000     0.00000
 Structure written by MMmdl.
 55 57  0  0  0  0  0  0  0  0  3 V2000
  144.4820  134.7467  150.2584 C   0  0  0  0  0  0  0  0  0  0  0  0
  145.3851  135.7681  150.9536 C   0  0  0  0  0  0  0  0  0  0  0  0
  144.5861  136.5775  151.8039 O   0  0  0  0  0  0  0  0  0  0  0  0
  145.3159  137.3136  152.7762 C   0  0  2  0  0  0  0  0  0  0  0  0
  146.4160  138.1696  152.1219 C   0  0  0  0  0  0  0  0  0  0  0  0
  147.3086  138.8340  153.1843 C   0  0  0  0  0  0  0  0  0  0  0  0
  147.9089  137.8208  154.0937 N   0  3  1  0  0  0  0  0  0  0  0  0
  148.8725  138.3947  155.0693 C   0  0  0  0  0  0  0  0  0  0  0  0
  150.3215  138.4475  154.5412 C   0  0  2  0  0  0  0  0  0  0  0  0
  150.7507  137.1374  154.2208 O   0  0  0  0  0  0  0  0  0  0  0  0
  151.2799  139.0404  155.5934 C   0  0  0  0  0  0  0  0  0  0  0  0
  150.8740  140.3761  156.0507 N   0  0  0  0  0  0  0  0  0  0  0  0
  150.0443  141.2855  155.4700 C   0  0  0  0  0  0  0  0  0  0  0  0
  149.9924  142.3742  156.2865 N   0  3  0  0  0  0  0  0  0  0  0  0
  150.8019  142.1576  157.4037 C   0  0  0  0  0  0  0  0  0  0  0  0
  151.0736  142.9643  158.5024 C   0  0  0  0  0  0  0  0  0  0  0  0
  151.9532  142.4473  159.4805 C   0  0  0  0  0  0  0  0  0  0  0  0
  152.2739  143.3049  160.6928 C   0  0  0  0  0  0  0  0  0  0  0  0
  152.5264  141.1568  159.3382 C   0  0  0  0  0  0  0  0  0  0  0  0
  153.4705  140.6112  160.3962 C   0  0  0  0  0  0  0  0  0  0  0  0
  152.2364  140.3509  158.2139 C   0  0  0  0  0  0  0  0  0  0  0  0
  151.3702  140.8772  157.2587 C   0  0  0  0  0  0  0  0  0  0  0  0
  146.8620  137.0042  154.7609 C   0  0  0  0  0  0  0  0  0  0  0  0
  145.9653  136.3008  153.7297 C   0  0  0  0  0  0  0  0  0  0  0  0
  145.0607  134.1018  149.5967 H   0  0  0  0  0  0  0  0  0  0  0  0
  143.7193  135.2430  149.6577 H   0  0  0  0  0  0  0  0  0  0  0  0
  143.9751  134.1121  150.9860 H   0  0  0  0  0  0  0  0  0  0  0  0
  146.1554  135.2483  151.5233 H   0  0  0  0  0  0  0  0  0  0  0  0
  145.8857  136.3856  150.2065 H   0  0  0  0  0  0  0  0  0  0  0  0
  144.6397  137.9481  153.3522 H   0  0  0  0  0  0  0  0  0  0  0  0
  147.0289  137.5449  151.4702 H   0  0  0  0  0  0  0  0  0  0  0  0
  145.9781  138.9407  151.4885 H   0  0  0  0  0  0  0  0  0  0  0  0
  148.0868  139.4033  152.6779 H   0  0  0  0  0  0  0  0  0  0  0  0
  146.7258  139.5487  153.7679 H   0  0  0  0  0  0  0  0  0  0  0  0
  148.5359  139.3924  155.3562 H   0  0  0  0  0  0  0  0  0  0  0  0
  148.8645  137.7993  155.9838 H   0  0  0  0  0  0  0  0  0  0  0  0
  150.3804  139.0554  153.6395 H   0  0  0  0  0  0  0  0  0  0  0  0
  150.9405  137.0926  153.2962 H   0  0  0  0  0  0  0  0  0  0  0  0
  151.3595  138.3873  156.4636 H   0  0  0  0  0  0  0  0  0  0  0  0
  152.2867  139.1294  155.1824 H   0  0  0  0  0  0  0  0  0  0  0  0
  149.5204  141.1649  154.5325 H   0  0  0  0  0  0  0  0  0  0  0  0
  150.6328  143.9453  158.6046 H   0  0  0  0  0  0  0  0  0  0  0  0
  153.3461  143.4913  160.7581 H   0  0  0  0  0  0  0  0  0  0  0  0
  151.9519  142.8087  161.6088 H   0  0  0  0  0  0  0  0  0  0  0  0
  151.7710  144.2711  160.6425 H   0  0  0  0  0  0  0  0  0  0  0  0
  153.8061  139.6034  160.1506 H   0  0  0  0  0  0  0  0  0  0  0  0
  152.9766  140.5699  161.3670 H   0  0  0  0  0  0  0  0  0  0  0  0
  154.3540  141.2441  160.4829 H   0  0  0  0  0  0  0  0  0  0  0  0
  152.6736  139.3696  158.1052 H   0  0  0  0  0  0  0  0  0  0  0  0
  147.3292  136.2507  155.3961 H   0  0  0  0  0  0  0  0  0  0  0  0
  146.2608  137.6406  155.4124 H   0  0  0  0  0  0  0  0  0  0  0  0
  145.1931  135.7250  154.2412 H   0  0  0  0  0  0  0  0  0  0  0  0
  146.5584  135.5838  153.1598 H   0  0  0  0  0  0  0  0  0  0  0  0
  148.4348  137.1795  153.5175 H   0  0  0  0  0  0  0  0  0  0  0  0
  149.4455  143.2032  156.0917 H   0  0  0  0  0  0  0  0  0  0  0  0
  1  2  1  0  0  0  0
  1 25  1  0  0  0  0
  1 26  1  0  0  0  0
  1 27  1  0  0  0  0
  2  3  1  0  0  0  0
  2 28  1  0  0  0  0
  2 29  1  0  0  0  0
  3  4  1  0  0  0  0
  4 24  1  0  0  0  0
  4  5  1  0  0  0  0
  4 30  1  0  0  0  0
  5  6  1  0  0  0  0
  5 31  1  0  0  0  0
  5 32  1  0  0  0  0
  6  7  1  0  0  0  0
  6 33  1  0  0  0  0
  6 34  1  0  0  0  0
  7  8  1  0  0  0  0
  7 23  1  0  0  0  0
  7 54  1  0  0  0  0
  8  9  1  0  0  0  0
  8 35  1  0  0  0  0
  8 36  1  0  0  0  0
  9 10  1  0  0  0  0
  9 11  1  0  0  0  0
  9 37  1  0  0  0  0
 10 38  1  0  0  0  0
 11 12  1  0  0  0  0
 11 39  1  0  0  0  0
 11 40  1  0  0  0  0
 12 22  1  0  0  0  0
 12 13  1  0  0  0  0
 13 14  2  0  0  0  0
 13 41  1  0  0  0  0
 14 15  1  0  0  0  0
 14 55  1  0  0  0  0
 15 22  2  0  0  0  0
 15 16  1  0  0  0  0
 16 17  2  0  0  0  0
 16 42  1  0  0  0  0
 17 18  1  0  0  0  0
 17 19  1  0  0  0  0
 18 43  1  0  0  0  0
 18 44  1  0  0  0  0
 18 45  1  0  0  0  0
 19 20  1  0  0  0  0
 19 21  2  0  0  0  0
 20 46  1  0  0  0  0
 20 47  1  0  0  0  0
 20 48  1  0  0  0  0
 21 22  1  0  0  0  0
 21 49  1  0  0  0  0
 23 24  1  0  0  0  0
 23 50  1  0  0  0  0
 23 51  1  0  0  0  0
 24 52  1  0  0  0  0
 24 53  1  0  0  0  0
M  CHG  1   7   1
M  CHG  1  14   1
M  END
> <s_m_source_file>
AV-unprocessed.smi

> <i_m_source_file_index>
1697

> <i_lp_mmshare_version>
43012

> <i_f3d_flags>
0

> <s_epik_input>
W0NIM11bQ0gyXU9bQ0hdMVtDSDJdW0NIMl1OKFtDSDJdW0NIMl0xKVtDSDJdW0NASF0oW09IXSlbQ0gyXW4oW2NIXW4yKWMoYzIzKVtjSF1jKFtDSDNdKWMoW2NIXTMpW0NIM10=

> <s_epik_cmdline>
J2VwaWtfcHl0aG9uJywgJy1waCcsICc3LjAnLCAnLXRuJywgJzgnLCAnLW1hJywgJzIwMCcsICctbWV0YWxfYmluZGluZycsICctaW1hZScsICc8aW5maWxlLm1hZT4nLCAnLW9tYWUnLCAnPG91dGZpbGUubWFlPic=

> <r_epik_Ionization_Penalty>
1.20016

> <r_epik_Ionization_Penalty_Charging>
1.20016

> <r_epik_Ionization_Penalty_Neutral>
1.70998e-06

> <r_epik_State_Penalty>
1.27959

> <r_epik_Charging_Adjusted_Penalty>
2.47975

> <i_epik_Tot_Q>
2

> <i_epik_Tot_abs_Q>
2

> <r_epik_Metal_State_Penalty>
5.29682

> <b_epik_Metal_Only>
0

> <s_lp_Force_Field>
OPLS_2005

> <r_lp_Energy>
32.2014

> <b_lp_Chiralities_Consistent>
1

> <s_lp_Variant>
AV-unprocessed.smi:1697-5

> <Gold.Version>
5.8.1

> <Gold.Id.Protein>
6NUR|6NUR_protein|mol2

> <Gold.PLP.Fitness>
61.9462

> <Gold.PLP.PLP>
-48.8009

> <Gold.PLP.part.hbond>
-3.9895

> <Gold.PLP.part.metal>
0.0000

> <Gold.PLP.part.buried>
-5.8296

> <Gold.PLP.part.nonpolar>
-40.7951

> <Gold.PLP.part.repulsive>
1.0229

> <Gold.PLP.ligand.clash>
0.0000

> <Gold.PLP.ligand.torsion>
0.7860

> <Gold.PLP.Chemscore.Hbond>
4.8284

> <Gold.PLP.Chemscore.CHOScore>
0.0000

> <Gold.PLP.Chemscore.Metal>
0.0000

> <Gold.Chemscore.Hbonds>
donor molecule, donor type, donor heavy atom, donor atom, acceptor molecule, acceptor atom, score
      L1  H     7    54       P1  7948  2.00
      L1  H    10    38       P1  7949  0.73
      L1  H    14    55       P1  8028  2.00

> <Gold.PLP.Chemscore.Internal.Correction>
0.2324

> <Gold.Rescore>
     Score         DG    S(hbond)    S(metal)    S(lipo)     H(rot)  DE(clash)    DE(int)     intcor
     20.36     -21.21       2.32        0.00     119.54       2.35       0.02       0.83       ----

> <Gold.Chemscore.Fitness>
20.3575

> <Gold.Chemscore.DG>
-21.2110

> <Gold.Chemscore.ZeroCoef>
-5.4800

> <Gold.Chemscore.Hbond>
2.3213

> <Gold.Chemscore.Metal>
0.0000

> <Gold.Chemscore.Lipo>
119.5359

> <Gold.Chemscore.Internal_Hbond>
0.0000

> <Gold.Chemscore.DEClash>
0.0192

> <Gold.Chemscore.DEInternal>
0.8343

> <Gold.Chemscore.Rot>
2.3468

> <Gold.Chemscore.Internal.Correction>
   9.000000E+99

> <Gold.Chemscore.Hbonds>
donor molecule, donor type, donor heavy atom, donor atom, acceptor molecule, acceptor atom, score
      L1  H     7    54       P1  7948  0.97
      L1  H    10    38       P1  7949  0.15
      L1  H    14    55       P1  8028  1.00

> <Gold.Chemscore.Hbond.Weighted>
-7.7530

> <Gold.Chemscore.Metal.Weighted>
-0.0000

> <Gold.Chemscore.Lipo.Weighted>
-13.9857

> <Gold.Chemscore.Internal_Hbond.Weighted>
0.0000

> <Gold.Chemscore.DEClash.Weighted>
0.0192

> <Gold.Chemscore.DEInternal.Weighted>
0.8343

> <Gold.Chemscore.Rot.Weighted>
6.0077

> <Gold.Chemscore.Internal.Correction.Weighted>
   9.000000E+99

> <Gold.Protein.RotatedTorsions>
[ 6907 6896 6895 6894 ] final  -21.26 input  -60.11 | X-H torsion
[ 7974 7965 7964 7962 ] final   -3.02 input  175.53 | X-H torsion
[ 8008 7997 7996 7995 ] final  145.55 input   59.86 | X-H torsion
[ 10167 10162 10161 10158 ] final  -53.38 input  -65.29 | X-H torsion
[ 10718 10713 10712 10709 ] final  -41.75 input   66.30 | X-H torsion
[ 10763 10752 10751 10750 ] final  -18.89 input  -60.55 | X-H torsion
[ 11005 11000 10999 10996 ] final -164.43 input  -57.11 | X-H torsion

> <Gold.Protein.ActiveResidues>
 VAL166  LYS551  ARG553  GLY616  TRP617  ASP618  TYR619  PRO620  LYS621  CYS622 
 ASP623  PHE694  ASN695  SER759  ASP760  ASP761  ALA762  ILE779  LEU786  VAL792 
 PHE793  MET794  SER795  GLU796  ALA797  LYS798  CYS799  TRP800  GLU811  SER814 

> <Gold.Protein.RotatedAtoms>
  151.2359  135.0571  159.9005 H   0  0  0  0  0  0  0  0  0  0  0  0  # atno 6907 bound_to 6896
  152.5399  134.0486  159.8110 H   0  0  0  0  0  0  0  0  0  0  0  0  # atno 6908 bound_to 6896
  151.0673  133.5446  159.2661 H   0  0  0  0  0  0  0  0  0  0  0  0  # atno 6909 bound_to 6896
  146.2396  140.1659  142.8332 H   0  0  0  0  0  0  0  0  0  0  0  0  # atno 7974 bound_to 7965
  156.2880  140.2206  156.5233 H   0  0  0  0  0  0  0  0  0  0  0  0  # atno 8008 bound_to 7997
  154.7510  140.0480  157.0915 H   0  0  0  0  0  0  0  0  0  0  0  0  # atno 8009 bound_to 7997
  155.0110  140.3113  155.4833 H   0  0  0  0  0  0  0  0  0  0  0  0  # atno 8010 bound_to 7997
  140.6488  143.2552  151.4784 H   0  0  0  0  0  0  0  0  0  0  0  0  # atno 10167 bound_to 10162
  156.2670  130.4202  149.8480 H   0  0  0  0  0  0  0  0  0  0  0  0  # atno 10718 bound_to 10713
  153.5964  135.7001  153.5402 H   0  0  0  0  0  0  0  0  0  0  0  0  # atno 10763 bound_to 10752
  153.3135  135.4094  155.1355 H   0  0  0  0  0  0  0  0  0  0  0  0  # atno 10764 bound_to 10752
  154.8591  135.3678  154.5497 H   0  0  0  0  0  0  0  0  0  0  0  0  # atno 10765 bound_to 10752
  140.5869  134.5084  157.5187 H   0  0  0  0  0  0  0  0  0  0  0  0  # atno 11005 bound_to 11000
  145.0051  140.8666  143.5258 LP  0  0  0  0  0  0  0  0  0  0  0  0  # atno 17320 bound_to 7965
  145.1684  139.2418  143.5355 LP  0  0  0  0  0  0  0  0  0  0  0  0  # atno 17321 bound_to 7965
  139.5701  144.1950  152.1823 LP  0  0  0  0  0  0  0  0  0  0  0  0  # atno 17342 bound_to 10162
  140.1243  144.5345  150.6843 LP  0  0  0  0  0  0  0  0  0  0  0  0  # atno 17343 bound_to 10162
  156.5975  130.8532  151.3423 LP  0  0  0  0  0  0  0  0  0  0  0  0  # atno 17370 bound_to 10713
  157.7271  130.9638  150.1682 LP  0  0  0  0  0  0  0  0  0  0  0  0  # atno 17371 bound_to 10713
  139.9291  134.7997  156.0981 LP  0  0  0  0  0  0  0  0  0  0  0  0  # atno 17394 bound_to 11000
  141.0960  133.6695  156.2646 LP  0  0  0  0  0  0  0  0  0  0  0  0  # atno 17395 bound_to 11000

$$$$
