AV-unprocessed.smi:3073|AV-procd|sdf|11720|dock1
  -GOLD-   2272017123D 1   1.00000     0.00000
 Structure written by MMmdl.
 24 25  0  0  0  0  0  0  0  0  2 V2000
  152.6177  143.7045  162.2950 C   0  0  0  0  0  0  0  0  0  0  0  0
  153.4729  142.6630  162.5496 C   0  0  0  0  0  0  0  0  0  0  0  0
  153.7131  141.6655  161.1415 S   0  0  0  0  0  0  0  0  0  0  0  0
  152.6247  142.7201  160.2447 C   0  0  0  0  0  0  0  0  0  0  0  0
  152.2810  142.5079  158.8040 C   0  0  1  0  0  0  0  0  0  0  0  0
  151.8130  141.0692  158.5152 C   0  0  0  0  0  0  0  0  0  0  0  0
  151.4737  140.9034  157.0259 C   0  0  0  0  0  0  0  0  0  0  0  0
  150.4628  141.9689  156.5699 C   0  0  0  0  0  0  0  0  0  0  0  0
  150.9743  143.3285  156.8488 N   0  3  0  0  0  0  0  0  0  0  0  0
  151.2750  143.5527  158.2802 C   0  0  0  0  0  0  0  0  0  0  0  0
  152.1427  143.7261  160.9814 N   0  0  0  0  0  0  0  0  0  0  0  0
  152.2951  144.4713  162.9841 H   0  0  0  0  0  0  0  0  0  0  0  0
  153.9735  142.4231  163.4761 H   0  0  0  0  0  0  0  0  0  0  0  0
  153.2073  142.6550  158.2461 H   0  0  0  0  0  0  0  0  0  0  0  0
  152.5844  140.3543  158.8041 H   0  0  0  0  0  0  0  0  0  0  0  0
  150.9318  140.8372  159.1151 H   0  0  0  0  0  0  0  0  0  0  0  0
  152.3846  140.9835  156.4309 H   0  0  0  0  0  0  0  0  0  0  0  0
  151.0725  139.9058  156.8439 H   0  0  0  0  0  0  0  0  0  0  0  0
  150.2695  141.8745  155.5013 H   0  0  0  0  0  0  0  0  0  0  0  0
  149.5085  141.8311  157.0803 H   0  0  0  0  0  0  0  0  0  0  0  0
  151.8217  143.4673  156.3168 H   0  0  0  0  0  0  0  0  0  0  0  0
  150.3445  143.5068  158.8476 H   0  0  0  0  0  0  0  0  0  0  0  0
  151.6736  144.5602  158.4024 H   0  0  0  0  0  0  0  0  0  0  0  0
  150.2874  144.0056  156.5488 H   0  0  0  0  0  0  0  0  0  0  0  0
  1 11  1  0  0  0  0
  1  2  2  0  0  0  0
  1 12  1  0  0  0  0
  2  3  1  0  0  0  0
  2 13  1  0  0  0  0
  3  4  1  0  0  0  0
  4  5  1  0  0  0  0
  4 11  2  0  0  0  0
  5 10  1  0  0  0  0
  5  6  1  0  0  0  0
  5 14  1  0  0  0  0
  6  7  1  0  0  0  0
  6 15  1  0  0  0  0
  6 16  1  0  0  0  0
  7  8  1  0  0  0  0
  7 17  1  0  0  0  0
  7 18  1  0  0  0  0
  8  9  1  0  0  0  0
  8 19  1  0  0  0  0
  8 20  1  0  0  0  0
  9 10  1  0  0  0  0
  9 21  1  0  0  0  0
  9 24  1  0  0  0  0
 10 22  1  0  0  0  0
 10 23  1  0  0  0  0
M  CHG  1   9   1
M  END
> <s_m_source_file>
AV-unprocessed.smi

> <i_m_source_file_index>
3073

> <i_lp_mmshare_version>
43012

> <i_f3d_flags>
0

> <s_epik_input>
bjFbY0hdW2NIXXNjMVtDQEBIXTJbQ0gyXVtDSDJdW0NIMl1bTkhdW0NIMl0y

> <s_epik_cmdline>
J2VwaWtfcHl0aG9uJywgJy1waCcsICc3LjAnLCAnLXRuJywgJzgnLCAnLW1hJywgJzIwMCcsICctbWV0YWxfYmluZGluZycsICctaW1hZScsICc8aW5maWxlLm1hZT4nLCAnLW9tYWUnLCAnPG91dGZpbGUubWFlPic=

> <r_lp_tautomer_probability>
1

> <r_epik_Ionization_Penalty>
0.00043192

> <r_epik_Ionization_Penalty_Charging>
0.000426856

> <r_epik_Ionization_Penalty_Neutral>
5.06388e-06

> <r_epik_State_Penalty>
-0

> <r_epik_Charging_Adjusted_Penalty>
0.000426856

> <i_epik_Tot_Q>
1

> <i_epik_Tot_abs_Q>
1

> <r_epik_Metal_State_Penalty>
-0

> <b_epik_Metal_Only>
0

> <s_lp_Force_Field>
OPLS_2005

> <r_lp_Energy>
4.76757

> <b_lp_Chiralities_Consistent>
1

> <s_lp_Variant>
AV-unprocessed.smi:3073-2

> <Gold.Version>
5.8.1

> <Gold.Id.Protein>
6NUR|6NUR_protein|mol2

> <Gold.PLP.Fitness>
35.8713

> <Gold.PLP.PLP>
-29.9754

> <Gold.PLP.part.hbond>
-1.0000

> <Gold.PLP.part.metal>
0.0000

> <Gold.PLP.part.buried>
-3.4969

> <Gold.PLP.part.nonpolar>
-25.8524

> <Gold.PLP.part.repulsive>
0.1448

> <Gold.PLP.ligand.clash>
0.0000

> <Gold.PLP.ligand.torsion>
0.0787

> <Gold.PLP.Chemscore.Hbond>
2.0000

> <Gold.PLP.Chemscore.CHOScore>
0.0000

> <Gold.PLP.Chemscore.Metal>
0.0000

> <Gold.Chemscore.Hbonds>
donor molecule, donor type, donor heavy atom, donor atom, acceptor molecule, acceptor atom, score
      L1  H     9    24       P1  8028  2.00

> <Gold.PLP.Chemscore.Internal.Correction>
0.0532

> <Gold.Rescore>
     Score         DG    S(hbond)    S(metal)    S(lipo)     H(rot)  DE(clash)    DE(int)     intcor
     16.32     -16.62       1.00        0.00      88.57       1.00       0.00       0.30       ----

> <Gold.Chemscore.Fitness>
16.3181

> <Gold.Chemscore.DG>
-16.6221

> <Gold.Chemscore.ZeroCoef>
-5.4800

> <Gold.Chemscore.Hbond>
1.0000

> <Gold.Chemscore.Metal>
0.0000

> <Gold.Chemscore.Lipo>
88.5657

> <Gold.Chemscore.Internal_Hbond>
0.0000

> <Gold.Chemscore.DEClash>
0.0019

> <Gold.Chemscore.DEInternal>
0.3022

> <Gold.Chemscore.Rot>
1.0000

> <Gold.Chemscore.Internal.Correction>
   9.000000E+99

> <Gold.Chemscore.Hbonds>
donor molecule, donor type, donor heavy atom, donor atom, acceptor molecule, acceptor atom, score
      L1  H     9    24       P1  8028  1.00

> <Gold.Chemscore.Hbond.Weighted>
-3.3399

> <Gold.Chemscore.Metal.Weighted>
-0.0000

> <Gold.Chemscore.Lipo.Weighted>
-10.3622

> <Gold.Chemscore.Internal_Hbond.Weighted>
0.0000

> <Gold.Chemscore.DEClash.Weighted>
0.0019

> <Gold.Chemscore.DEInternal.Weighted>
0.3022

> <Gold.Chemscore.Rot.Weighted>
2.5600

> <Gold.Chemscore.Internal.Correction.Weighted>
   9.000000E+99

> <Gold.Protein.RotatedTorsions>
[ 6907 6896 6895 6894 ] final -120.67 input  -60.11 | X-H torsion
[ 7974 7965 7964 7962 ] final   82.74 input  175.53 | X-H torsion
[ 8008 7997 7996 7995 ] final  -83.02 input   59.86 | X-H torsion
[ 10167 10162 10161 10158 ] final  -32.86 input  -65.29 | X-H torsion
[ 10718 10713 10712 10709 ] final  -28.94 input   66.30 | X-H torsion
[ 10763 10752 10751 10750 ] final  -73.04 input  -60.55 | X-H torsion
[ 11005 11000 10999 10996 ] final  150.77 input  -57.11 | X-H torsion

> <Gold.Protein.ActiveResidues>
 VAL166  LYS551  ARG553  GLY616  TRP617  ASP618  TYR619  PRO620  LYS621  CYS622 
 ASP623  PHE694  ASN695  SER759  ASP760  ASP761  ALA762  ILE779  LEU786  VAL792 
 PHE793  MET794  SER795  GLU796  ALA797  LYS798  CYS799  TRP800  GLU811  SER814 

> <Gold.Protein.RotatedAtoms>
  150.8414  133.7930  159.3059 H   0  0  0  0  0  0  0  0  0  0  0  0  # atno 6907 bound_to 6896
  151.5630  135.1063  159.9987 H   0  0  0  0  0  0  0  0  0  0  0  0  # atno 6908 bound_to 6896
  152.4477  133.7525  159.6758 H   0  0  0  0  0  0  0  0  0  0  0  0  # atno 6909 bound_to 6896
  145.6211  139.2386  143.2138 H   0  0  0  0  0  0  0  0  0  0  0  0  # atno 7974 bound_to 7965
  154.6147  140.0625  156.9539 H   0  0  0  0  0  0  0  0  0  0  0  0  # atno 8008 bound_to 7997
  155.1915  140.3307  155.4339 H   0  0  0  0  0  0  0  0  0  0  0  0  # atno 8009 bound_to 7997
  156.2397  140.1880  156.7005 H   0  0  0  0  0  0  0  0  0  0  0  0  # atno 8010 bound_to 7997
  140.7214  143.3663  151.1865 H   0  0  0  0  0  0  0  0  0  0  0  0  # atno 10167 bound_to 10162
  156.4188  130.4422  149.7199 H   0  0  0  0  0  0  0  0  0  0  0  0  # atno 10718 bound_to 10713
  154.4540  135.5910  153.6210 H   0  0  0  0  0  0  0  0  0  0  0  0  # atno 10763 bound_to 10752
  152.9816  135.6027  154.3570 H   0  0  0  0  0  0  0  0  0  0  0  0  # atno 10764 bound_to 10752
  154.3434  135.2841  155.2389 H   0  0  0  0  0  0  0  0  0  0  0  0  # atno 10765 bound_to 10752
  140.1160  134.8894  157.2005 H   0  0  0  0  0  0  0  0  0  0  0  0  # atno 11005 bound_to 11000
  146.1430  140.7031  142.9358 LP  0  0  0  0  0  0  0  0  0  0  0  0  # atno 17320 bound_to 7965
  144.7231  140.4437  143.6993 LP  0  0  0  0  0  0  0  0  0  0  0  0  # atno 17321 bound_to 7965
  139.7225  143.9200  152.2990 LP  0  0  0  0  0  0  0  0  0  0  0  0  # atno 17342 bound_to 10162
  139.8962  144.6937  150.8715 LP  0  0  0  0  0  0  0  0  0  0  0  0  # atno 17343 bound_to 10162
  156.4148  130.7739  151.2754 LP  0  0  0  0  0  0  0  0  0  0  0  0  # atno 17370 bound_to 10713
  157.7508  131.0200  150.3693 LP  0  0  0  0  0  0  0  0  0  0  0  0  # atno 17371 bound_to 10713
  140.3028  134.3112  155.7285 LP  0  0  0  0  0  0  0  0  0  0  0  0  # atno 17394 bound_to 11000
  141.2141  133.7602  156.9665 LP  0  0  0  0  0  0  0  0  0  0  0  0  # atno 17395 bound_to 11000

$$$$
