AV-unprocessed.smi:109|AV-procd|sdf|1042|dock7
  -GOLD-   2262018 73D 1   1.00000     0.00000
 Structure written by MMmdl.
 58 61  0  0  0  0  0  0  0  0  1 V2000
  147.3355  142.2130  155.3662 O   0  0  0  0  0  0  0  0  0  0  0  0
  148.0831  141.6800  156.4381 C   0  0  0  0  0  0  0  0  0  0  0  0
  149.5144  141.3713  155.9712 C   0  0  0  0  0  0  0  0  0  0  0  0
  150.4805  141.0727  157.1394 C   0  0  1  0  0  0  0  0  0  0  0  0
  151.7067  140.4642  156.6236 N   0  0  0  0  0  0  0  0  0  0  0  0
  151.6807  139.3188  155.9067 C   0  0  0  0  0  0  0  0  0  0  0  0
  151.9840  139.3062  154.5827 N   0  0  0  0  0  0  0  0  0  0  0  0
  151.9483  138.1582  153.9006 C   0  0  0  0  0  0  0  0  0  0  0  0
  151.6423  136.9364  154.3411 N   0  0  0  0  0  0  0  0  0  0  0  0
  151.3373  136.9404  155.6710 C   0  0  0  0  0  0  0  0  0  0  0  0
  151.3374  138.0849  156.5170 C   0  0  0  0  0  0  0  0  0  0  0  0
  150.9832  137.7175  157.8081 N   0  0  0  0  0  0  0  0  0  0  0  0
  150.7837  136.4300  157.7252 C   0  0  0  0  0  0  0  0  0  0  0  0
  150.9748  135.8780  156.4778 N   0  0  0  0  0  0  0  0  0  0  0  0
  150.8172  134.4350  156.0976 C   0  0  1  0  0  0  0  0  0  0  0  0
  150.2517  133.7267  157.1606 O   0  0  0  0  0  0  0  0  0  0  0  0
  149.0014  133.1565  156.7762 C   0  0  2  0  0  0  0  0  0  0  0  0
  148.7196  131.8614  157.5579 C   0  0  0  0  0  0  0  0  0  0  0  0
  149.8404  131.0053  157.5007 O   0  0  0  0  0  0  0  0  0  0  0  0
  149.1178  133.0003  155.2533 C   0  0  2  0  0  0  0  0  0  0  0  0
  149.8125  131.8151  154.9071 O   0  0  0  0  0  0  0  0  0  0  0  0
  149.9268  134.2247  154.8562 C   0  0  1  0  0  0  0  0  0  0  0  0
  149.0705  135.3169  154.5701 O   0  0  0  0  0  0  0  0  0  0  0  0
  150.8072  142.3103  158.0214 C   0  0  0  0  0  0  0  0  0  0  0  0
  151.2302  143.5430  157.1930 C   0  0  0  0  0  0  0  0  0  0  0  0
  151.4384  144.7754  158.0885 C   0  0  0  0  0  0  0  0  0  0  0  0
  152.4632  144.4904  159.1977 C   0  0  0  0  0  0  0  0  0  0  0  0
  152.0570  143.2617  160.0264 C   0  0  0  0  0  0  0  0  0  0  0  0
  151.8458  142.0296  159.1313 C   0  0  0  0  0  0  0  0  0  0  0  0
  151.8371  134.0788  155.9471 H   0  0  0  0  0  0  0  0  0  0  0  0
  148.2104  133.8820  156.9709 H   0  0  0  0  0  0  0  0  0  0  0  0
  148.1397  132.9702  154.7709 H   0  0  0  0  0  0  0  0  0  0  0  0
  150.5530  134.0480  153.9805 H   0  0  0  0  0  0  0  0  0  0  0  0
  147.4307  143.1532  155.3710 H   0  0  0  0  0  0  0  0  0  0  0  0
  148.0926  142.4002  157.2569 H   0  0  0  0  0  0  0  0  0  0  0  0
  147.5852  140.7801  156.7999 H   0  0  0  0  0  0  0  0  0  0  0  0
  149.4954  140.5309  155.2761 H   0  0  0  0  0  0  0  0  0  0  0  0
  149.8723  142.2283  155.4021 H   0  0  0  0  0  0  0  0  0  0  0  0
  149.9789  140.3414  157.7744 H   0  0  0  0  0  0  0  0  0  0  0  0
  152.5674  140.8808  156.9487 H   0  0  0  0  0  0  0  0  0  0  0  0
  152.2000  138.2281  152.8527 H   0  0  0  0  0  0  0  0  0  0  0  0
  150.4894  135.8407  158.5818 H   0  0  0  0  0  0  0  0  0  0  0  0
  148.5391  132.0890  158.6090 H   0  0  0  0  0  0  0  0  0  0  0  0
  147.8346  131.3510  157.1770 H   0  0  0  0  0  0  0  0  0  0  0  0
  150.2807  131.0289  158.3363 H   0  0  0  0  0  0  0  0  0  0  0  0
  149.3153  131.3580  154.2462 H   0  0  0  0  0  0  0  0  0  0  0  0
  149.2747  135.6377  153.7050 H   0  0  0  0  0  0  0  0  0  0  0  0
  149.8817  142.5963  158.5232 H   0  0  0  0  0  0  0  0  0  0  0  0
  152.1543  143.3430  156.6513 H   0  0  0  0  0  0  0  0  0  0  0  0
  150.4723  143.7645  156.4410 H   0  0  0  0  0  0  0  0  0  0  0  0
  151.7694  145.6211  157.4853 H   0  0  0  0  0  0  0  0  0  0  0  0
  150.4872  145.0677  158.5353 H   0  0  0  0  0  0  0  0  0  0  0  0
  153.4451  144.3228  158.7535 H   0  0  0  0  0  0  0  0  0  0  0  0
  152.5612  145.3608  159.8466 H   0  0  0  0  0  0  0  0  0  0  0  0
  152.8203  143.0501  160.7756 H   0  0  0  0  0  0  0  0  0  0  0  0
  151.1384  143.4772  160.5736 H   0  0  0  0  0  0  0  0  0  0  0  0
  151.5245  141.1887  159.7468 H   0  0  0  0  0  0  0  0  0  0  0  0
  152.8015  141.7443  158.6908 H   0  0  0  0  0  0  0  0  0  0  0  0
  1  2  1  0  0  0  0
  1 34  1  0  0  0  0
  2  3  1  0  0  0  0
  2 35  1  0  0  0  0
  2 36  1  0  0  0  0
  3  4  1  0  0  0  0
  3 37  1  0  0  0  0
  3 38  1  0  0  0  0
  4  5  1  0  0  0  0
  4 24  1  0  0  0  0
  4 39  1  0  0  0  0
  5  6  1  0  0  0  0
  5 40  1  0  0  0  0
  6 11  1  0  0  0  0
  6  7  2  0  0  0  0
  7  8  1  0  0  0  0
  8  9  2  0  0  0  0
  8 41  1  0  0  0  0
  9 10  1  0  0  0  0
 10 14  1  0  0  0  0
 10 11  2  0  0  0  0
 11 12  1  0  0  0  0
 12 13  2  0  0  0  0
 13 14  1  0  0  0  0
 13 42  1  0  0  0  0
 14 15  1  0  0  0  0
 15 30  1  0  0  0  0
 15 22  1  0  0  0  0
 15 16  1  0  0  0  0
 16 17  1  0  0  0  0
 17 31  1  0  0  0  0
 17 18  1  0  0  0  0
 17 20  1  0  0  0  0
 18 19  1  0  0  0  0
 18 43  1  0  0  0  0
 18 44  1  0  0  0  0
 19 45  1  0  0  0  0
 20 32  1  0  0  0  0
 20 21  1  0  0  0  0
 20 22  1  0  0  0  0
 21 46  1  0  0  0  0
 22 33  1  0  0  0  0
 22 23  1  0  0  0  0
 23 47  1  0  0  0  0
 24 29  1  0  0  0  0
 24 25  1  0  0  0  0
 24 48  1  0  0  0  0
 25 26  1  0  0  0  0
 25 49  1  0  0  0  0
 25 50  1  0  0  0  0
 26 27  1  0  0  0  0
 26 51  1  0  0  0  0
 26 52  1  0  0  0  0
 27 28  1  0  0  0  0
 27 53  1  0  0  0  0
 27 54  1  0  0  0  0
 28 29  1  0  0  0  0
 28 55  1  0  0  0  0
 28 56  1  0  0  0  0
 29 57  1  0  0  0  0
 29 58  1  0  0  0  0
M  END
> <s_m_source_file>
AV-unprocessed.smi

> <i_m_source_file_index>
109

> <i_lp_mmshare_version>
43012

> <i_f3d_flags>
0

> <s_epik_input>
W0NIMl0xW0NIMl1bQ0gyXVtDSDJdW0NIMl1bQ0hdMVtDQEhdKFtDSDJdW0NIMl1bT0hdKVtOSF1jKG5bY0hdbjIpYyhjMjMpbltjSF1uM1tDQEBIXTRPW0NASF0oW0NIMl1bT0hdKVtDQEBIXShbT0hdKVtDQEhdNFtPSF0=

> <s_epik_cmdline>
J2VwaWtfcHl0aG9uJywgJy1waCcsICc3LjAnLCAnLXRuJywgJzgnLCAnLW1hJywgJzIwMCcsICctbWV0YWxfYmluZGluZycsICctaW1hZScsICc8aW5maWxlLm1hZT4nLCAnLW9tYWUnLCAnPG91dGZpbGUubWFlPic=

> <r_lp_tautomer_probability>
1

> <r_epik_Ionization_Penalty>
0.000793976

> <r_epik_Ionization_Penalty_Charging>
0

> <r_epik_Ionization_Penalty_Neutral>
0.000793976

> <r_epik_State_Penalty>
-0

> <r_epik_Charging_Adjusted_Penalty>
0

> <i_epik_Tot_Q>
0

> <i_epik_Tot_abs_Q>
0

> <r_epik_Metal_State_Penalty>
-0

> <b_epik_Metal_Only>
0

> <s_epik_Chemistry_Notes>
This compound contains an acetal/aminal-like group ( X-CH(R)-Y where X, Y are N, S, or O) that may be acid/base labile, releasing an aldehyde.

> <s_lp_Force_Field>
OPLS_2005

> <r_lp_Energy>
56.1563

> <b_lp_Chiralities_Consistent>
1

> <s_lp_Variant>
AV-unprocessed.smi:109-12

> <Gold.Version>
5.8.1

> <Gold.Id.Protein>
6NUR|6NUR_protein|mol2

> <Gold.PLP.Fitness>
53.5733

> <Gold.PLP.PLP>
-40.9208

> <Gold.PLP.part.hbond>
-5.0000

> <Gold.PLP.part.metal>
0.0000

> <Gold.PLP.part.buried>
-6.0457

> <Gold.PLP.part.nonpolar>
-31.0085

> <Gold.PLP.part.repulsive>
0.3530

> <Gold.PLP.ligand.clash>
0.0791

> <Gold.PLP.ligand.torsion>
1.0745

> <Gold.PLP.Chemscore.Hbond>
4.6495

> <Gold.PLP.Chemscore.CHOScore>
0.2421

> <Gold.PLP.Chemscore.Metal>
0.0000

> <Gold.Chemscore.Hbonds>
donor molecule, donor type, donor heavy atom, donor atom, acceptor molecule, acceptor atom, score
      L1  H     1    34       P1  8028  0.62
      L1  H    23    47       P1  7948  1.00
      P1  H  6896  6909       L1    16  0.62
      P1  H  7989  7998       L1     7  0.91
      P1  H 10752 10763       L1     9  1.00
      L1  C     8    41       P1  7949  0.19

> <Gold.PLP.Chemscore.Internal.Correction>
0.2058

> <Gold.Rescore>
     Score         DG    S(hbond)    S(metal)    S(lipo)     H(rot)  DE(clash)    DE(int)     intcor
      9.86     -12.15       2.81        0.00      96.25       5.47       0.62       1.67       ----

> <Gold.Chemscore.Fitness>
9.8581

> <Gold.Chemscore.DG>
-12.1461

> <Gold.Chemscore.ZeroCoef>
-5.4800

> <Gold.Chemscore.Hbond>
2.8140

> <Gold.Chemscore.Metal>
0.0000

> <Gold.Chemscore.Lipo>
96.2465

> <Gold.Chemscore.Internal_Hbond>
0.0000

> <Gold.Chemscore.DEClash>
0.6195

> <Gold.Chemscore.DEInternal>
1.6686

> <Gold.Chemscore.Rot>
5.4662

> <Gold.Chemscore.Internal.Correction>
   9.000000E+99

> <Gold.Chemscore.Hbonds>
donor molecule, donor type, donor heavy atom, donor atom, acceptor molecule, acceptor atom, score
      L1  H     1    34       P1  8028  0.12
      L1  H    23    47       P1  7948  0.55
      P1  H  6896  6909       L1    16  0.59
      P1  H  7989  7998       L1     7  0.75
      P1  H 10752 10763       L1     9  0.37

> <Gold.Chemscore.Hbond.Weighted>
-9.3988

> <Gold.Chemscore.Metal.Weighted>
-0.0000

> <Gold.Chemscore.Lipo.Weighted>
-11.2608

> <Gold.Chemscore.Internal_Hbond.Weighted>
0.0000

> <Gold.Chemscore.DEClash.Weighted>
0.6195

> <Gold.Chemscore.DEInternal.Weighted>
1.6686

> <Gold.Chemscore.Rot.Weighted>
13.9935

> <Gold.Chemscore.Internal.Correction.Weighted>
   9.000000E+99

> <Gold.Protein.RotatedTorsions>
[ 6907 6896 6895 6894 ] final   -3.29 input  -60.11 | X-H torsion
[ 7974 7965 7964 7962 ] final  -83.26 input  175.53 | X-H torsion
[ 8008 7997 7996 7995 ] final   -7.10 input   59.86 | X-H torsion
[ 10167 10162 10161 10158 ] final   35.71 input  -65.29 | X-H torsion
[ 10718 10713 10712 10709 ] final  -75.42 input   66.30 | X-H torsion
[ 10763 10752 10751 10750 ] final   37.18 input  -60.55 | X-H torsion
[ 11005 11000 10999 10996 ] final   75.21 input  -57.11 | X-H torsion

> <Gold.Protein.ActiveResidues>
 VAL166  LYS551  ARG553  GLY616  TRP617  ASP618  TYR619  PRO620  LYS621  CYS622 
 ASP623  PHE694  ASN695  SER759  ASP760  ASP761  ALA762  ILE779  LEU786  VAL792 
 PHE793  MET794  SER795  GLU796  ALA797  LYS798  CYS799  TRP800  GLU811  SER814 

> <Gold.Protein.RotatedAtoms>
  151.5162  135.1066  159.9866 H   0  0  0  0  0  0  0  0  0  0  0  0  # atno 6907 bound_to 6896
  152.4640  133.7879  159.6896 H   0  0  0  0  0  0  0  0  0  0  0  0  # atno 6908 bound_to 6896
  150.8615  133.7572  159.3016 H   0  0  0  0  0  0  0  0  0  0  0  0  # atno 6909 bound_to 6896
  145.5224  140.9530  143.1648 H   0  0  0  0  0  0  0  0  0  0  0  0  # atno 7974 bound_to 7965
  154.5871  140.2416  155.7971 H   0  0  0  0  0  0  0  0  0  0  0  0  # atno 8008 bound_to 7997
  156.2221  140.2994  155.9933 H   0  0  0  0  0  0  0  0  0  0  0  0  # atno 8009 bound_to 7997
  155.2438  140.0408  157.2969 H   0  0  0  0  0  0  0  0  0  0  0  0  # atno 8010 bound_to 7997
  140.4196  144.1478  150.6146 H   0  0  0  0  0  0  0  0  0  0  0  0  # atno 10167 bound_to 10162
  156.0208  130.4440  150.3040 H   0  0  0  0  0  0  0  0  0  0  0  0  # atno 10718 bound_to 10713
  153.0047  135.6285  154.2104 H   0  0  0  0  0  0  0  0  0  0  0  0  # atno 10763 bound_to 10752
  154.1847  135.2811  155.3043 H   0  0  0  0  0  0  0  0  0  0  0  0  # atno 10764 bound_to 10752
  154.5807  135.5648  153.7242 H   0  0  0  0  0  0  0  0  0  0  0  0  # atno 10765 bound_to 10752
  139.9354  134.7498  156.1243 H   0  0  0  0  0  0  0  0  0  0  0  0  # atno 11005 bound_to 11000
  144.7669  139.6824  143.7211 LP  0  0  0  0  0  0  0  0  0  0  0  0  # atno 17320 bound_to 7965
  146.2097  139.5445  142.9689 LP  0  0  0  0  0  0  0  0  0  0  0  0  # atno 17321 bound_to 7965
  140.4548  143.2472  151.9299 LP  0  0  0  0  0  0  0  0  0  0  0  0  # atno 17342 bound_to 10162
  139.4782  144.5526  151.8362 LP  0  0  0  0  0  0  0  0  0  0  0  0  # atno 17343 bound_to 10162
  157.1143  131.0230  151.3035 LP  0  0  0  0  0  0  0  0  0  0  0  0  # atno 17370 bound_to 10713
  157.4679  130.7691  149.7296 LP  0  0  0  0  0  0  0  0  0  0  0  0  # atno 17371 bound_to 10713
  141.0965  133.6693  156.2657 LP  0  0  0  0  0  0  0  0  0  0  0  0  # atno 17394 bound_to 11000
  140.6089  134.5478  157.5530 LP  0  0  0  0  0  0  0  0  0  0  0  0  # atno 17395 bound_to 11000

$$$$
