AV-unprocessed.smi:130|AV-procd|sdf|1160|dock3
  -GOLD-   2262018303D 1   1.00000     0.00000
 Structure written by MMmdl.
 44 47  0  0  0  0  0  0  0  0  1 V2000
  151.9854  140.5291  158.0231 O   0  0  0  0  0  0  0  0  0  0  0  0
  151.4741  141.6226  157.7789 C   0  0  0  0  0  0  0  0  0  0  0  0
  150.9654  141.9039  156.3476 C   0  0  0  0  0  0  0  0  0  0  0  0
  150.5038  140.6933  155.6315 N   0  0  0  0  0  0  0  0  0  0  0  0
  151.4379  139.6611  155.3649 C   0  0  0  0  0  0  0  0  0  0  0  0
  152.6106  139.7507  155.7313 O   0  0  0  0  0  0  0  0  0  0  0  0
  150.9170  138.5147  154.6287 C   0  0  0  0  0  0  0  0  0  0  0  0
  151.7337  137.4914  154.3257 F   0  0  0  0  0  0  0  0  0  0  0  0
  149.6259  138.4660  154.2411 C   0  0  0  0  0  0  0  0  0  0  0  0
  148.7241  139.4790  154.5123 N   0  0  0  0  0  0  0  0  0  0  0  0
  147.2850  139.3981  154.0527 C   0  0  1  0  0  0  0  0  0  0  0  0
  146.9823  140.5210  153.0539 C   0  0  0  0  0  0  0  0  0  0  0  0
  147.2224  139.8314  151.7286 C   0  0  0  0  0  0  0  0  0  0  0  0
  146.7416  138.4162  152.0284 C   0  0  0  0  0  0  0  0  0  0  0  0
  147.0827  138.1816  153.3922 O   0  0  0  0  0  0  0  0  0  0  0  0
  149.1549  140.6299  155.2069 C   0  0  0  0  0  0  0  0  0  0  0  0
  148.3762  141.5603  155.4266 O   0  0  0  0  0  0  0  0  0  0  0  0
  151.3305  142.6010  158.7073 N   0  0  0  0  0  0  0  0  0  0  0  0
  150.7170  143.9097  158.4210 C   0  0  0  0  0  0  0  0  0  0  0  0
  150.7502  144.7046  159.7450 C   0  0  0  0  0  0  0  0  0  0  0  0
  151.4007  143.7472  160.6990 C   0  0  0  0  0  0  0  0  0  0  0  0
  151.6759  143.9730  162.0588 C   0  0  0  0  0  0  0  0  0  0  0  0
  152.2988  142.9425  162.7939 C   0  0  0  0  0  0  0  0  0  0  0  0
  152.6328  141.7201  162.1672 C   0  0  0  0  0  0  0  0  0  0  0  0
  152.3489  141.5101  160.7998 C   0  0  0  0  0  0  0  0  0  0  0  0
  151.7236  142.5476  160.0713 C   0  0  0  0  0  0  0  0  0  0  0  0
  150.1678  142.6460  156.3981 H   0  0  0  0  0  0  0  0  0  0  0  0
  151.7545  142.3962  155.7778 H   0  0  0  0  0  0  0  0  0  0  0  0
  149.2988  137.5961  153.6918 H   0  0  0  0  0  0  0  0  0  0  0  0
  146.6745  139.4305  154.9564 H   0  0  0  0  0  0  0  0  0  0  0  0
  145.9331  140.8017  153.1542 H   0  0  0  0  0  0  0  0  0  0  0  0
  147.6018  141.4038  153.2163 H   0  0  0  0  0  0  0  0  0  0  0  0
  146.6887  140.2966  150.8995 H   0  0  0  0  0  0  0  0  0  0  0  0
  148.2872  139.8281  151.4923 H   0  0  0  0  0  0  0  0  0  0  0  0
  145.6576  138.3544  151.9244 H   0  0  0  0  0  0  0  0  0  0  0  0
  147.1893  137.6711  151.3702 H   0  0  0  0  0  0  0  0  0  0  0  0
  151.2766  144.4391  157.6488 H   0  0  0  0  0  0  0  0  0  0  0  0
  149.6889  143.7883  158.0775 H   0  0  0  0  0  0  0  0  0  0  0  0
  151.3427  145.6158  159.6567 H   0  0  0  0  0  0  0  0  0  0  0  0
  149.7490  144.9659  160.0886 H   0  0  0  0  0  0  0  0  0  0  0  0
  151.4178  144.9104  162.5293 H   0  0  0  0  0  0  0  0  0  0  0  0
  152.5217  143.0883  163.8406 H   0  0  0  0  0  0  0  0  0  0  0  0
  153.1098  140.9383  162.7397 H   0  0  0  0  0  0  0  0  0  0  0  0
  152.6166  140.5671  160.3507 H   0  0  0  0  0  0  0  0  0  0  0  0
  1  2  2  0  0  0  0
  2  3  1  0  0  0  0
  2 18  1  0  0  0  0
  3  4  1  0  0  0  0
  3 27  1  0  0  0  0
  3 28  1  0  0  0  0
  4 16  1  0  0  0  0
  4  5  1  0  0  0  0
  5  6  2  0  0  0  0
  5  7  1  0  0  0  0
  7  8  1  0  0  0  0
  7  9  2  0  0  0  0
  9 10  1  0  0  0  0
  9 29  1  0  0  0  0
 10 11  1  0  0  0  0
 10 16  1  0  0  0  0
 11 15  1  0  0  0  0
 11 12  1  0  0  0  0
 11 30  1  0  0  0  0
 12 13  1  0  0  0  0
 12 31  1  0  0  0  0
 12 32  1  0  0  0  0
 13 14  1  0  0  0  0
 13 33  1  0  0  0  0
 13 34  1  0  0  0  0
 14 15  1  0  0  0  0
 14 35  1  0  0  0  0
 14 36  1  0  0  0  0
 16 17  2  0  0  0  0
 18 26  1  0  0  0  0
 18 19  1  0  0  0  0
 19 20  1  0  0  0  0
 19 37  1  0  0  0  0
 19 38  1  0  0  0  0
 20 21  1  0  0  0  0
 20 39  1  0  0  0  0
 20 40  1  0  0  0  0
 21 26  2  0  0  0  0
 21 22  1  0  0  0  0
 22 23  2  0  0  0  0
 22 41  1  0  0  0  0
 23 24  1  0  0  0  0
 23 42  1  0  0  0  0
 24 25  2  0  0  0  0
 24 43  1  0  0  0  0
 25 26  1  0  0  0  0
 25 44  1  0  0  0  0
M  END
> <s_m_source_file>
AV-unprocessed.smi

> <i_m_source_file_index>
130

> <i_lp_mmshare_version>
43012

> <i_f3d_flags>
0

> <s_epik_input>
W2NIXTFbY0hdW2NIXVtjSF1jKGMxMilOKFtDSDJdW0NIMl0yKUMoPU8pW0NIMl1uM2MoPU8pYyhGKVtjSF1uKGMzPU8pW0NAQEhdNFtDSDJdW0NIMl1bQ0gyXU80

> <s_epik_cmdline>
J2VwaWtfcHl0aG9uJywgJy1waCcsICc3LjAnLCAnLXRuJywgJzgnLCAnLW1hJywgJzIwMCcsICctbWV0YWxfYmluZGluZycsICctaW1hZScsICc8aW5maWxlLm1hZT4nLCAnLW9tYWUnLCAnPG91dGZpbGUubWFlPic=

> <r_lp_tautomer_probability>
1

> <r_epik_Ionization_Penalty>
1.67926e-06

> <r_epik_Ionization_Penalty_Charging>
3.62822e-09

> <r_epik_Ionization_Penalty_Neutral>
1.67563e-06

> <r_epik_State_Penalty>
-0

> <r_epik_Charging_Adjusted_Penalty>
3.62822e-09

> <i_epik_Tot_Q>
0

> <i_epik_Tot_abs_Q>
0

> <r_epik_Metal_State_Penalty>
-0

> <b_epik_Metal_Only>
0

> <s_epik_Chemistry_Notes>
This compound contains an acetal/aminal-like group ( X-CH(R)-Y where X, Y are N, S, or O) that may be acid/base labile, releasing an aldehyde.

> <s_lp_Force_Field>
OPLS_2005

> <r_lp_Energy>
53.4438

> <b_lp_Chiralities_Consistent>
1

> <s_lp_Variant>
AV-unprocessed.smi:130-2

> <Gold.Version>
5.8.1

> <Gold.Id.Protein>
6NUR|6NUR_protein|mol2

> <Gold.PLP.Fitness>
62.8831

> <Gold.PLP.PLP>
-57.6560

> <Gold.PLP.part.hbond>
-1.0845

> <Gold.PLP.part.metal>
0.0000

> <Gold.PLP.part.buried>
-2.2324

> <Gold.PLP.part.nonpolar>
-54.1522

> <Gold.PLP.part.repulsive>
1.1102

> <Gold.PLP.ligand.clash>
0.0070

> <Gold.PLP.ligand.torsion>
0.3881

> <Gold.PLP.Chemscore.Hbond>
1.0000

> <Gold.PLP.Chemscore.CHOScore>
1.0000

> <Gold.PLP.Chemscore.Metal>
0.0000

> <Gold.Chemscore.Hbonds>
donor molecule, donor type, donor heavy atom, donor atom, acceptor molecule, acceptor atom, score
      P1  H  7997  8009       L1     6  1.00
      L1  C     9    29       P1  7948  1.00

> <Gold.PLP.Chemscore.Internal.Correction>
0.0103

> <Gold.Rescore>
     Score         DG    S(hbond)    S(metal)    S(lipo)     H(rot)  DE(clash)    DE(int)     intcor
     14.44     -19.14       0.91        0.00     125.12       1.57       0.51       4.19       ----

> <Gold.Chemscore.Fitness>
14.4448

> <Gold.Chemscore.DG>
-19.1449

> <Gold.Chemscore.ZeroCoef>
-5.4800

> <Gold.Chemscore.Hbond>
0.9121

> <Gold.Chemscore.Metal>
0.0000

> <Gold.Chemscore.Lipo>
125.1166

> <Gold.Chemscore.Internal_Hbond>
0.0000

> <Gold.Chemscore.DEClash>
0.5093

> <Gold.Chemscore.DEInternal>
4.1908

> <Gold.Chemscore.Rot>
1.5704

> <Gold.Chemscore.Internal.Correction>
   9.000000E+99

> <Gold.Chemscore.Hbonds>
donor molecule, donor type, donor heavy atom, donor atom, acceptor molecule, acceptor atom, score
      P1  H  7997  8009       L1     6  1.00

> <Gold.Chemscore.Hbond.Weighted>
-3.0466

> <Gold.Chemscore.Metal.Weighted>
-0.0000

> <Gold.Chemscore.Lipo.Weighted>
-14.6386

> <Gold.Chemscore.Internal_Hbond.Weighted>
0.0000

> <Gold.Chemscore.DEClash.Weighted>
0.5093

> <Gold.Chemscore.DEInternal.Weighted>
4.1908

> <Gold.Chemscore.Rot.Weighted>
4.0203

> <Gold.Chemscore.Internal.Correction.Weighted>
   9.000000E+99

> <Gold.Protein.RotatedTorsions>
[ 6907 6896 6895 6894 ] final  -38.07 input  -60.11 | X-H torsion
[ 7974 7965 7964 7962 ] final   71.44 input  175.53 | X-H torsion
[ 8008 7997 7996 7995 ] final -156.65 input   59.86 | X-H torsion
[ 10167 10162 10161 10158 ] final  156.03 input  -65.29 | X-H torsion
[ 10718 10713 10712 10709 ] final  165.35 input   66.30 | X-H torsion
[ 10763 10752 10751 10750 ] final  -57.91 input  -60.55 | X-H torsion
[ 11005 11000 10999 10996 ] final   96.67 input  -57.11 | X-H torsion

> <Gold.Protein.ActiveResidues>
 VAL166  LYS551  ARG553  GLY616  TRP617  ASP618  TYR619  PRO620  LYS621  CYS622 
 ASP623  PHE694  ASN695  SER759  ASP760  ASP761  ALA762  ILE779  LEU786  VAL792 
 PHE793  MET794  SER795  GLU796  ALA797  LYS798  CYS799  TRP800  GLU811  SER814 

> <Gold.Protein.RotatedAtoms>
  151.0069  134.9366  159.7985 H   0  0  0  0  0  0  0  0  0  0  0  0  # atno 6907 bound_to 6896
  152.5292  134.3080  159.9113 H   0  0  0  0  0  0  0  0  0  0  0  0  # atno 6908 bound_to 6896
  151.3086  133.4049  159.2679 H   0  0  0  0  0  0  0  0  0  0  0  0  # atno 6909 bound_to 6896
  145.7657  139.2820  143.1350 H   0  0  0  0  0  0  0  0  0  0  0  0  # atno 7974 bound_to 7965
  155.7205  140.0789  157.2333 H   0  0  0  0  0  0  0  0  0  0  0  0  # atno 8008 bound_to 7997
  154.4046  140.1613  156.2450 H   0  0  0  0  0  0  0  0  0  0  0  0  # atno 8009 bound_to 7997
  155.9201  140.3398  155.6169 H   0  0  0  0  0  0  0  0  0  0  0  0  # atno 8010 bound_to 7997
  139.4821  144.5046  151.8117 H   0  0  0  0  0  0  0  0  0  0  0  0  # atno 10167 bound_to 10162
  157.0814  131.0393  151.2573 H   0  0  0  0  0  0  0  0  0  0  0  0  # atno 10718 bound_to 10713
  154.2298  135.6363  153.5171 H   0  0  0  0  0  0  0  0  0  0  0  0  # atno 10763 bound_to 10752
  152.9951  135.5516  154.6025 H   0  0  0  0  0  0  0  0  0  0  0  0  # atno 10764 bound_to 10752
  154.5505  135.2901  155.0987 H   0  0  0  0  0  0  0  0  0  0  0  0  # atno 10765 bound_to 10752
  139.8780  134.8963  156.4194 H   0  0  0  0  0  0  0  0  0  0  0  0  # atno 11005 bound_to 11000
  146.0219  140.8339  142.9919 LP  0  0  0  0  0  0  0  0  0  0  0  0  # atno 17320 bound_to 7965
  144.6822  140.2642  143.7315 LP  0  0  0  0  0  0  0  0  0  0  0  0  # atno 17321 bound_to 7965
  140.4542  144.1812  150.5900 LP  0  0  0  0  0  0  0  0  0  0  0  0  # atno 17342 bound_to 10162
  140.4552  143.2470  151.9294 LP  0  0  0  0  0  0  0  0  0  0  0  0  # atno 17343 bound_to 10162
  157.4797  130.7757  149.7402 LP  0  0  0  0  0  0  0  0  0  0  0  0  # atno 17370 bound_to 10713
  155.9922  130.3932  150.2950 LP  0  0  0  0  0  0  0  0  0  0  0  0  # atno 17371 bound_to 10713
  140.9144  133.7688  155.9831 LP  0  0  0  0  0  0  0  0  0  0  0  0  # atno 17394 bound_to 11000
  140.8510  134.2954  157.5275 LP  0  0  0  0  0  0  0  0  0  0  0  0  # atno 17395 bound_to 11000

$$$$
