AV-unprocessed.smi:1232|AV-procd|sdf|5169|dock6
  -GOLD-   22720 4243D 1   1.00000     0.00000
 Structure written by MMmdl.
 53 54  0  0  0  0  0  0  0  0  1 V2000
  146.2014  134.0875  152.3999 C   0  0  0  0  0  0  0  0  0  0  0  0
  146.7546  134.3862  153.7888 C   0  0  0  0  0  0  0  0  0  0  0  0
  146.2690  133.8387  154.7781 O   0  0  0  0  0  0  0  0  0  0  0  0
  147.7756  135.2559  153.8475 N   0  0  0  0  0  0  0  0  0  0  0  0
  148.4521  135.6926  155.0706 C   0  0  2  0  0  0  0  0  0  0  0  0
  148.3731  137.2287  155.1588 C   0  0  0  0  0  0  0  0  0  0  0  0
  147.8609  137.7736  156.1380 O   0  0  0  0  0  0  0  0  0  0  0  0
  148.8677  137.9099  154.1137 N   0  0  0  0  0  0  0  0  0  0  0  0
  148.8529  139.3627  153.9820 C   0  0  0  0  0  0  0  0  0  0  0  0
  149.6788  140.0784  155.0401 C   0  0  0  0  0  0  0  0  0  0  0  0
  151.0077  139.6886  155.2962 C   0  0  0  0  0  0  0  0  0  0  0  0
  151.7409  140.3698  156.2866 C   0  0  0  0  0  0  0  0  0  0  0  0
  151.1262  141.4295  156.9955 C   0  0  0  0  0  0  0  0  0  0  0  0
  151.8401  142.1211  157.9978 N   0  0  0  0  0  0  0  0  0  0  0  0
  152.3506  141.3520  159.1306 C   0  0  0  0  0  0  0  0  0  0  0  0
  153.3360  142.1999  159.9507 C   0  0  0  0  0  0  0  0  0  0  0  0
  152.7080  143.4152  160.3457 O   0  0  0  0  0  0  0  0  0  0  0  0
  152.3163  144.2058  159.2266 C   0  0  2  0  0  0  0  0  0  0  0  0
  151.7372  145.5247  159.7494 C   0  0  0  0  0  0  0  0  0  0  0  0
  151.2950  143.4209  158.3806 C   0  0  0  0  0  0  0  0  0  0  0  0
  149.8476  141.8040  156.7429 N   0  0  0  0  0  0  0  0  0  0  0  0
  149.1510  141.1502  155.7904 C   0  0  0  0  0  0  0  0  0  0  0  0
  149.9386  135.2305  155.0117 C   0  0  0  0  0  0  0  0  0  0  0  0
  150.0568  133.6938  154.9884 C   0  0  0  0  0  0  0  0  0  0  0  0
  150.7969  135.7854  156.1677 C   0  0  0  0  0  0  0  0  0  0  0  0
  146.1282  135.0000  151.8072 H   0  0  0  0  0  0  0  0  0  0  0  0
  145.2063  133.6466  152.4677 H   0  0  0  0  0  0  0  0  0  0  0  0
  146.8529  133.3868  151.8774 H   0  0  0  0  0  0  0  0  0  0  0  0
  148.1032  135.6590  152.9818 H   0  0  0  0  0  0  0  0  0  0  0  0
  147.9674  135.2439  155.9404 H   0  0  0  0  0  0  0  0  0  0  0  0
  149.2752  137.3847  153.3533 H   0  0  0  0  0  0  0  0  0  0  0  0
  149.1915  139.6476  152.9842 H   0  0  0  0  0  0  0  0  0  0  0  0
  147.8204  139.7023  154.0660 H   0  0  0  0  0  0  0  0  0  0  0  0
  151.4595  138.8736  154.7500 H   0  0  0  0  0  0  0  0  0  0  0  0
  152.7530  140.0613  156.5024 H   0  0  0  0  0  0  0  0  0  0  0  0
  151.5165  141.0368  159.7592 H   0  0  0  0  0  0  0  0  0  0  0  0
  152.8549  140.4507  158.7794 H   0  0  0  0  0  0  0  0  0  0  0  0
  153.6482  141.6549  160.8416 H   0  0  0  0  0  0  0  0  0  0  0  0
  154.2386  142.4127  159.3755 H   0  0  0  0  0  0  0  0  0  0  0  0
  153.1973  144.4297  158.6221 H   0  0  0  0  0  0  0  0  0  0  0  0
  151.4317  146.1724  158.9274 H   0  0  0  0  0  0  0  0  0  0  0  0
  152.4743  146.0661  160.3428 H   0  0  0  0  0  0  0  0  0  0  0  0
  150.8650  145.3500  160.3802 H   0  0  0  0  0  0  0  0  0  0  0  0
  151.0247  144.0150  157.5087 H   0  0  0  0  0  0  0  0  0  0  0  0
  150.3787  143.2609  158.9506 H   0  0  0  0  0  0  0  0  0  0  0  0
  148.1405  141.4948  155.6272 H   0  0  0  0  0  0  0  0  0  0  0  0
  150.3781  135.5977  154.0825 H   0  0  0  0  0  0  0  0  0  0  0  0
  149.6115  133.2507  155.8800 H   0  0  0  0  0  0  0  0  0  0  0  0
  151.1005  133.3806  154.9498 H   0  0  0  0  0  0  0  0  0  0  0  0
  149.5637  133.2588  154.1190 H   0  0  0  0  0  0  0  0  0  0  0  0
  150.3702  135.5271  157.1373 H   0  0  0  0  0  0  0  0  0  0  0  0
  150.8937  136.8699  156.1216 H   0  0  0  0  0  0  0  0  0  0  0  0
  151.8093  135.3819  156.1340 H   0  0  0  0  0  0  0  0  0  0  0  0
  1  2  1  0  0  0  0
  1 26  1  0  0  0  0
  1 27  1  0  0  0  0
  1 28  1  0  0  0  0
  2  3  2  0  0  0  0
  2  4  1  0  0  0  0
  4  5  1  0  0  0  0
  4 29  1  0  0  0  0
  5  6  1  0  0  0  0
  5 23  1  0  0  0  0
  5 30  1  0  0  0  0
  6  7  2  0  0  0  0
  6  8  1  0  0  0  0
  8  9  1  0  0  0  0
  8 31  1  0  0  0  0
  9 10  1  0  0  0  0
  9 32  1  0  0  0  0
  9 33  1  0  0  0  0
 10 22  1  0  0  0  0
 10 11  2  0  0  0  0
 11 12  1  0  0  0  0
 11 34  1  0  0  0  0
 12 13  2  0  0  0  0
 12 35  1  0  0  0  0
 13 14  1  0  0  0  0
 13 21  1  0  0  0  0
 14 20  1  0  0  0  0
 14 15  1  0  0  0  0
 15 16  1  0  0  0  0
 15 36  1  0  0  0  0
 15 37  1  0  0  0  0
 16 17  1  0  0  0  0
 16 38  1  0  0  0  0
 16 39  1  0  0  0  0
 17 18  1  0  0  0  0
 18 19  1  0  0  0  0
 18 20  1  0  0  0  0
 18 40  1  0  0  0  0
 19 41  1  0  0  0  0
 19 42  1  0  0  0  0
 19 43  1  0  0  0  0
 20 44  1  0  0  0  0
 20 45  1  0  0  0  0
 21 22  2  0  0  0  0
 22 46  1  0  0  0  0
 23 24  1  0  0  0  0
 23 25  1  0  0  0  0
 23 47  1  0  0  0  0
 24 48  1  0  0  0  0
 24 49  1  0  0  0  0
 24 50  1  0  0  0  0
 25 51  1  0  0  0  0
 25 52  1  0  0  0  0
 25 53  1  0  0  0  0
M  END
> <s_m_source_file>
AV-unprocessed.smi

> <i_m_source_file_index>
1232

> <i_lp_mmshare_version>
43012

> <i_f3d_flags>
0

> <s_epik_input>
W0NIM11DKD1PKVtOSF1bQ0BASF0oW0NIXShbQ0gzXSlbQ0gzXSlDKD1PKVtOSF1bQ0gyXWMxW2NIXVtjSF1jKG5bY0hdMSlOMltDSDJdW0NIMl1PW0NAQEhdKFtDSDNdKVtDSDJdMg==

> <s_epik_cmdline>
J2VwaWtfcHl0aG9uJywgJy1waCcsICc3LjAnLCAnLXRuJywgJzgnLCAnLW1hJywgJzIwMCcsICctbWV0YWxfYmluZGluZycsICctaW1hZScsICc8aW5maWxlLm1hZT4nLCAnLW9tYWUnLCAnPG91dGZpbGUubWFlPic=

> <r_lp_tautomer_probability>
1

> <r_epik_Ionization_Penalty>
0.00557618

> <r_epik_Ionization_Penalty_Charging>
0

> <r_epik_Ionization_Penalty_Neutral>
0.00557618

> <r_epik_State_Penalty>
0.00408363

> <r_epik_Charging_Adjusted_Penalty>
0.00408363

> <i_epik_Tot_Q>
0

> <i_epik_Tot_abs_Q>
0

> <r_epik_Metal_State_Penalty>
-0

> <b_epik_Metal_Only>
0

> <s_lp_Force_Field>
OPLS_2005

> <r_lp_Energy>
16.2808

> <b_lp_Chiralities_Consistent>
1

> <s_lp_Variant>
AV-unprocessed.smi:1232-3

> <Gold.Version>
5.8.1

> <Gold.Id.Protein>
6NUR|6NUR_protein|mol2

> <Gold.PLP.Fitness>
47.8974

> <Gold.PLP.PLP>
-42.2662

> <Gold.PLP.part.hbond>
-1.9436

> <Gold.PLP.part.metal>
0.0000

> <Gold.PLP.part.buried>
-4.7054

> <Gold.PLP.part.nonpolar>
-36.0867

> <Gold.PLP.part.repulsive>
0.2220

> <Gold.PLP.ligand.clash>
0.0000

> <Gold.PLP.ligand.torsion>
0.4020

> <Gold.PLP.Chemscore.Hbond>
1.9920

> <Gold.PLP.Chemscore.CHOScore>
0.0000

> <Gold.PLP.Chemscore.Metal>
0.0000

> <Gold.Chemscore.Hbonds>
donor molecule, donor type, donor heavy atom, donor atom, acceptor molecule, acceptor atom, score
      L1  H     4    29       P1  7948  0.94
      L1  H     8    31       P1  7948  0.96

> <Gold.PLP.Chemscore.Internal.Correction>
0.4593

> <Gold.Rescore>
     Score         DG    S(hbond)    S(metal)    S(lipo)     H(rot)  DE(clash)    DE(int)     intcor
     18.84     -19.28       1.99        0.00     107.83       2.13       0.13       0.31       ----

> <Gold.Chemscore.Fitness>
18.8425

> <Gold.Chemscore.DG>
-19.2775

> <Gold.Chemscore.ZeroCoef>
-5.4800

> <Gold.Chemscore.Hbond>
1.9875

> <Gold.Chemscore.Metal>
0.0000

> <Gold.Chemscore.Lipo>
107.8324

> <Gold.Chemscore.Internal_Hbond>
0.0000

> <Gold.Chemscore.DEClash>
0.1267

> <Gold.Chemscore.DEInternal>
0.3082

> <Gold.Chemscore.Rot>
2.1317

> <Gold.Chemscore.Internal.Correction>
   9.000000E+99

> <Gold.Chemscore.Hbonds>
donor molecule, donor type, donor heavy atom, donor atom, acceptor molecule, acceptor atom, score
      L1  H     4    29       P1  7948  0.90
      L1  H     8    31       P1  7948  0.91

> <Gold.Chemscore.Hbond.Weighted>
-6.6382

> <Gold.Chemscore.Metal.Weighted>
-0.0000

> <Gold.Chemscore.Lipo.Weighted>
-12.6164

> <Gold.Chemscore.Internal_Hbond.Weighted>
0.0000

> <Gold.Chemscore.DEClash.Weighted>
0.1267

> <Gold.Chemscore.DEInternal.Weighted>
0.3082

> <Gold.Chemscore.Rot.Weighted>
5.4572

> <Gold.Chemscore.Internal.Correction.Weighted>
   9.000000E+99

> <Gold.Protein.RotatedTorsions>
[ 6907 6896 6895 6894 ] final  -50.83 input  -60.11 | X-H torsion
[ 7974 7965 7964 7962 ] final  -85.68 input  175.53 | X-H torsion
[ 8008 7997 7996 7995 ] final  130.26 input   59.86 | X-H torsion
[ 10167 10162 10161 10158 ] final   15.35 input  -65.29 | X-H torsion
[ 10718 10713 10712 10709 ] final  177.53 input   66.30 | X-H torsion
[ 10763 10752 10751 10750 ] final    7.35 input  -60.55 | X-H torsion
[ 11005 11000 10999 10996 ] final   11.93 input  -57.11 | X-H torsion

> <Gold.Protein.ActiveResidues>
 VAL166  LYS551  ARG553  GLY616  TRP617  ASP618  TYR619  PRO620  LYS621  CYS622 
 ASP623  PHE694  ASN695  SER759  ASP760  ASP761  ALA762  ILE779  LEU786  VAL792 
 PHE793  MET794  SER795  GLU796  ALA797  LYS798  CYS799  TRP800  GLU811  SER814 

> <Gold.Protein.RotatedAtoms>
  150.8670  134.8035  159.7125 H   0  0  0  0  0  0  0  0  0  0  0  0  # atno 6907 bound_to 6896
  152.4688  134.5008  159.9734 H   0  0  0  0  0  0  0  0  0  0  0  0  # atno 6908 bound_to 6896
  151.5103  133.3448  159.2919 H   0  0  0  0  0  0  0  0  0  0  0  0  # atno 6909 bound_to 6896
  145.4901  140.9553  143.1817 H   0  0  0  0  0  0  0  0  0  0  0  0  # atno 7974 bound_to 7965
  156.2951  140.2600  156.2732 H   0  0  0  0  0  0  0  0  0  0  0  0  # atno 8008 bound_to 7997
  154.9674  140.0391  157.2237 H   0  0  0  0  0  0  0  0  0  0  0  0  # atno 8009 bound_to 7997
  154.7890  140.2808  155.6010 H   0  0  0  0  0  0  0  0  0  0  0  0  # atno 8010 bound_to 7997
  140.5873  143.8865  150.6841 H   0  0  0  0  0  0  0  0  0  0  0  0  # atno 10167 bound_to 10162
  156.9039  130.9888  151.3031 H   0  0  0  0  0  0  0  0  0  0  0  0  # atno 10718 bound_to 10713
  153.2372  135.6899  153.7823 H   0  0  0  0  0  0  0  0  0  0  0  0  # atno 10763 bound_to 10752
  153.6966  135.3304  155.3215 H   0  0  0  0  0  0  0  0  0  0  0  0  # atno 10764 bound_to 10752
  154.8340  135.4558  154.1280 H   0  0  0  0  0  0  0  0  0  0  0  0  # atno 10765 bound_to 10752
  140.4977  134.0777  155.7786 H   0  0  0  0  0  0  0  0  0  0  0  0  # atno 11005 bound_to 11000
  144.7839  139.6468  143.7142 LP  0  0  0  0  0  0  0  0  0  0  0  0  # atno 17320 bound_to 7965
  146.2289  139.5776  142.9568 LP  0  0  0  0  0  0  0  0  0  0  0  0  # atno 17321 bound_to 7965
  140.2379  143.3686  152.1511 LP  0  0  0  0  0  0  0  0  0  0  0  0  # atno 17342 bound_to 10162
  139.5205  144.7034  151.5426 LP  0  0  0  0  0  0  0  0  0  0  0  0  # atno 17343 bound_to 10162
  157.6009  130.8512  149.8800 LP  0  0  0  0  0  0  0  0  0  0  0  0  # atno 17370 bound_to 10713
  156.0568  130.3707  150.1072 LP  0  0  0  0  0  0  0  0  0  0  0  0  # atno 17371 bound_to 10713
  141.1451  133.9069  157.2233 LP  0  0  0  0  0  0  0  0  0  0  0  0  # atno 17394 bound_to 11000
  139.9731  135.0122  156.9564 LP  0  0  0  0  0  0  0  0  0  0  0  0  # atno 17395 bound_to 11000

$$$$
