AV-unprocessed.smi:1224|AV-procd|sdf|5133|dock2
  -GOLD-   22720 4193D 1   1.00000     0.00000
 Structure written by MMmdl.
 43 45  0  0  0  0  0  0  0  0  1 V2000
  151.9190  144.7802  159.6426 C   0  0  0  0  0  0  0  0  0  0  0  0
  151.8747  143.4675  158.8803 C   0  0  0  0  0  0  0  0  0  0  0  0
  151.1126  143.3874  157.6928 C   0  0  0  0  0  0  0  0  0  0  0  0
  151.0459  142.1854  156.9547 C   0  0  0  0  0  0  0  0  0  0  0  0
  150.3699  141.8859  155.7843 N   0  0  0  0  0  0  0  0  0  0  0  0
  150.7000  140.6105  155.6031 C   0  0  0  0  0  0  0  0  0  0  0  0
  151.5190  140.0500  156.5142 N   0  0  0  0  0  0  0  0  0  0  0  0
  152.0182  138.6866  156.5240 C   0  0  0  0  0  0  0  0  0  0  0  0
  151.5250  137.8645  155.3168 C   0  0  1  0  0  0  0  0  0  0  0  0
  152.1640  136.6063  155.3736 O   0  0  0  0  0  0  0  0  0  0  0  0
  150.0012  137.6353  155.3070 C   0  0  0  0  0  0  0  0  0  0  0  0
  149.6584  136.3989  154.6113 N   0  0  0  0  0  0  0  0  0  0  0  0
  149.0781  135.3900  155.4900 C   0  0  0  0  0  0  0  0  0  0  0  0
  149.1791  134.0194  154.9094 C   0  0  0  0  0  0  0  0  0  0  0  0
  149.9294  132.9661  155.3677 C   0  0  0  0  0  0  0  0  0  0  0  0
  149.7942  131.7921  154.5698 C   0  0  0  0  0  0  0  0  0  0  0  0
  148.9419  131.9651  153.5117 C   0  0  0  0  0  0  0  0  0  0  0  0
  148.2861  133.5790  153.4756 S   0  0  0  0  0  0  0  0  0  0  0  0
  151.7702  141.0573  157.4394 C   0  0  0  0  0  0  0  0  0  0  0  0
  152.5301  141.1239  158.6204 C   0  0  0  0  0  0  0  0  0  0  0  0
  152.5851  142.3322  159.3462 C   0  0  0  0  0  0  0  0  0  0  0  0
  153.4092  142.3939  160.6201 C   0  0  0  0  0  0  0  0  0  0  0  0
  151.3197  145.5472  159.1510 H   0  0  0  0  0  0  0  0  0  0  0  0
  152.9430  145.1484  159.7094 H   0  0  0  0  0  0  0  0  0  0  0  0
  151.5311  144.6492  160.6530 H   0  0  0  0  0  0  0  0  0  0  0  0
  150.5708  144.2515  157.3376 H   0  0  0  0  0  0  0  0  0  0  0  0
  150.3317  140.0530  154.7543 H   0  0  0  0  0  0  0  0  0  0  0  0
  153.1083  138.7273  156.5338 H   0  0  0  0  0  0  0  0  0  0  0  0
  151.7147  138.2104  157.4578 H   0  0  0  0  0  0  0  0  0  0  0  0
  151.8331  138.3670  154.3987 H   0  0  0  0  0  0  0  0  0  0  0  0
  151.5821  135.9975  155.8030 H   0  0  0  0  0  0  0  0  0  0  0  0
  149.6073  137.6323  156.3244 H   0  0  0  0  0  0  0  0  0  0  0  0
  149.5108  138.4622  154.7936 H   0  0  0  0  0  0  0  0  0  0  0  0
  149.0028  136.6090  153.8653 H   0  0  0  0  0  0  0  0  0  0  0  0
  149.5821  135.4055  156.4569 H   0  0  0  0  0  0  0  0  0  0  0  0
  148.0319  135.6275  155.6862 H   0  0  0  0  0  0  0  0  0  0  0  0
  150.5649  132.9984  156.2407 H   0  0  0  0  0  0  0  0  0  0  0  0
  150.3193  130.8759  154.7966 H   0  0  0  0  0  0  0  0  0  0  0  0
  148.6599  131.2474  152.7554 H   0  0  0  0  0  0  0  0  0  0  0  0
  153.0663  140.2517  158.9639 H   0  0  0  0  0  0  0  0  0  0  0  0
  153.8855  141.4362  160.8323 H   0  0  0  0  0  0  0  0  0  0  0  0
  152.7783  142.6492  161.4718 H   0  0  0  0  0  0  0  0  0  0  0  0
  154.1940  143.1455  160.5319 H   0  0  0  0  0  0  0  0  0  0  0  0
  1  2  1  0  0  0  0
  1 23  1  0  0  0  0
  1 24  1  0  0  0  0
  1 25  1  0  0  0  0
  2 21  1  0  0  0  0
  2  3  2  0  0  0  0
  3  4  1  0  0  0  0
  3 26  1  0  0  0  0
  4 19  2  0  0  0  0
  4  5  1  0  0  0  0
  5  6  2  0  0  0  0
  6  7  1  0  0  0  0
  6 27  1  0  0  0  0
  7  8  1  0  0  0  0
  7 19  1  0  0  0  0
  8  9  1  0  0  0  0
  8 28  1  0  0  0  0
  8 29  1  0  0  0  0
  9 10  1  0  0  0  0
  9 11  1  0  0  0  0
  9 30  1  0  0  0  0
 10 31  1  0  0  0  0
 11 12  1  0  0  0  0
 11 32  1  0  0  0  0
 11 33  1  0  0  0  0
 12 13  1  0  0  0  0
 12 34  1  0  0  0  0
 13 14  1  0  0  0  0
 13 35  1  0  0  0  0
 13 36  1  0  0  0  0
 14 18  1  0  0  0  0
 14 15  2  0  0  0  0
 15 16  1  0  0  0  0
 15 37  1  0  0  0  0
 16 17  2  0  0  0  0
 16 38  1  0  0  0  0
 17 18  1  0  0  0  0
 17 39  1  0  0  0  0
 19 20  1  0  0  0  0
 20 21  2  0  0  0  0
 20 40  1  0  0  0  0
 21 22  1  0  0  0  0
 22 41  1  0  0  0  0
 22 42  1  0  0  0  0
 22 43  1  0  0  0  0
M  END
> <s_m_source_file>
AV-unprocessed.smi

> <i_m_source_file_index>
1224

> <i_lp_mmshare_version>
43012

> <i_f3d_flags>
0

> <s_epik_input>
W0NIM11jKFtjSF0xKWMoW0NIM10pW2NIXWMoYzEyKW4oW2NIXW4yKVtDSDJdW0NASF0oW09IXSlbQ0gyXVtOSF1bQ0gyXWMzW2NIXVtjSF1bY0hdczM=

> <s_epik_cmdline>
J2VwaWtfcHl0aG9uJywgJy1waCcsICc3LjAnLCAnLXRuJywgJzgnLCAnLW1hJywgJzIwMCcsICctbWV0YWxfYmluZGluZycsICctaW1hZScsICc8aW5maWxlLm1hZT4nLCAnLW9tYWUnLCAnPG91dGZpbGUubWFlPic=

> <r_epik_Ionization_Penalty>
1.55566

> <r_epik_Ionization_Penalty_Charging>
0

> <r_epik_Ionization_Penalty_Neutral>
1.55566

> <r_epik_State_Penalty>
1.63945

> <r_epik_Charging_Adjusted_Penalty>
1.63945

> <i_epik_Tot_Q>
0

> <i_epik_Tot_abs_Q>
0

> <r_epik_Metal_State_Penalty>
1.52326

> <b_epik_Metal_Only>
0

> <s_lp_Force_Field>
OPLS_2005

> <r_lp_Energy>
15.3814

> <b_lp_Chiralities_Consistent>
1

> <s_lp_Variant>
AV-unprocessed.smi:1224-6

> <Gold.Version>
5.8.1

> <Gold.Id.Protein>
6NUR|6NUR_protein|mol2

> <Gold.PLP.Fitness>
52.7626

> <Gold.PLP.PLP>
-46.8962

> <Gold.PLP.part.hbond>
-1.5776

> <Gold.PLP.part.metal>
0.0000

> <Gold.PLP.part.buried>
-3.7490

> <Gold.PLP.part.nonpolar>
-41.3027

> <Gold.PLP.part.repulsive>
0.1018

> <Gold.PLP.ligand.clash>
0.0000

> <Gold.PLP.ligand.torsion>
0.8470

> <Gold.PLP.Chemscore.Hbond>
1.4880

> <Gold.PLP.Chemscore.CHOScore>
1.0000

> <Gold.PLP.Chemscore.Metal>
0.0000

> <Gold.Chemscore.Hbonds>
donor molecule, donor type, donor heavy atom, donor atom, acceptor molecule, acceptor atom, score
      L1  H    12    34       P1  7948  0.67
      P1  H 10752 10765       L1    10  0.82
      L1  C    17    39       P1 10747  1.00

> <Gold.PLP.Chemscore.Internal.Correction>
0.0964

> <Gold.Rescore>
     Score         DG    S(hbond)    S(metal)    S(lipo)     H(rot)  DE(clash)    DE(int)     intcor
     17.14     -18.55       1.48        0.00     120.29       2.32       0.01       1.41       ----

> <Gold.Chemscore.Fitness>
17.1419

> <Gold.Chemscore.DG>
-18.5523

> <Gold.Chemscore.ZeroCoef>
-5.4800

> <Gold.Chemscore.Hbond>
1.4764

> <Gold.Chemscore.Metal>
0.0000

> <Gold.Chemscore.Lipo>
120.2863

> <Gold.Chemscore.Internal_Hbond>
0.0000

> <Gold.Chemscore.DEClash>
0.0050

> <Gold.Chemscore.DEInternal>
1.4054

> <Gold.Chemscore.Rot>
2.3173

> <Gold.Chemscore.Internal.Correction>
   9.000000E+99

> <Gold.Chemscore.Hbonds>
donor molecule, donor type, donor heavy atom, donor atom, acceptor molecule, acceptor atom, score
      L1  H    12    34       P1  7948  0.62
      P1  H 10752 10765       L1    10  0.20

> <Gold.Chemscore.Hbond.Weighted>
-4.9312

> <Gold.Chemscore.Metal.Weighted>
-0.0000

> <Gold.Chemscore.Lipo.Weighted>
-14.0735

> <Gold.Chemscore.Internal_Hbond.Weighted>
0.0000

> <Gold.Chemscore.DEClash.Weighted>
0.0050

> <Gold.Chemscore.DEInternal.Weighted>
1.4054

> <Gold.Chemscore.Rot.Weighted>
5.9324

> <Gold.Chemscore.Internal.Correction.Weighted>
   9.000000E+99

> <Gold.Protein.RotatedTorsions>
[ 6907 6896 6895 6894 ] final -162.97 input  -60.11 | X-H torsion
[ 7974 7965 7964 7962 ] final -162.12 input  175.53 | X-H torsion
[ 8008 7997 7996 7995 ] final  -50.27 input   59.86 | X-H torsion
[ 10167 10162 10161 10158 ] final   75.86 input  -65.29 | X-H torsion
[ 10718 10713 10712 10709 ] final    5.42 input   66.30 | X-H torsion
[ 10763 10752 10751 10750 ] final  170.41 input  -60.55 | X-H torsion
[ 11005 11000 10999 10996 ] final -131.45 input  -57.11 | X-H torsion

> <Gold.Protein.ActiveResidues>
 VAL166  LYS551  ARG553  GLY616  TRP617  ASP618  TYR619  PRO620  LYS621  CYS622 
 ASP623  PHE694  ASN695  SER759  ASP760  ASP761  ALA762  ILE779  LEU786  VAL792 
 PHE793  MET794  SER795  GLU796  ALA797  LYS798  CYS799  TRP800  GLU811  SER814 

> <Gold.Protein.RotatedAtoms>
  151.3887  133.3796  159.2718 H   0  0  0  0  0  0  0  0  0  0  0  0  # atno 6907 bound_to 6896
  150.9521  134.8921  159.7689 H   0  0  0  0  0  0  0  0  0  0  0  0  # atno 6908 bound_to 6896
  152.5116  134.3843  159.9414 H   0  0  0  0  0  0  0  0  0  0  0  0  # atno 6909 bound_to 6896
  144.7368  140.3299  143.6155 H   0  0  0  0  0  0  0  0  0  0  0  0  # atno 7974 bound_to 7965
  154.4059  140.1276  156.4639 H   0  0  0  0  0  0  0  0  0  0  0  0  # atno 8008 bound_to 7997
  155.7246  140.3492  155.5011 H   0  0  0  0  0  0  0  0  0  0  0  0  # atno 8009 bound_to 7997
  155.9183  140.1048  157.1216 H   0  0  0  0  0  0  0  0  0  0  0  0  # atno 8010 bound_to 7997
  139.9985  144.5704  150.7757 H   0  0  0  0  0  0  0  0  0  0  0  0  # atno 10167 bound_to 10162
  156.9072  130.5743  149.5647 H   0  0  0  0  0  0  0  0  0  0  0  0  # atno 10718 bound_to 10713
  154.3973  135.2754  155.2118 H   0  0  0  0  0  0  0  0  0  0  0  0  # atno 10763 bound_to 10752
  154.4159  135.6011  153.5984 H   0  0  0  0  0  0  0  0  0  0  0  0  # atno 10764 bound_to 10752
  152.9831  135.5961  154.4236 H   0  0  0  0  0  0  0  0  0  0  0  0  # atno 10765 bound_to 10752
  140.9257  134.1385  157.4277 H   0  0  0  0  0  0  0  0  0  0  0  0  # atno 11005 bound_to 11000
  145.7482  139.1785  143.2336 LP  0  0  0  0  0  0  0  0  0  0  0  0  # atno 17320 bound_to 7965
  146.1081  140.7462  142.9516 LP  0  0  0  0  0  0  0  0  0  0  0  0  # atno 17321 bound_to 7965
  140.7428  143.2837  151.3525 LP  0  0  0  0  0  0  0  0  0  0  0  0  # atno 17342 bound_to 10162
  139.6289  144.0760  152.2459 LP  0  0  0  0  0  0  0  0  0  0  0  0  # atno 17343 bound_to 10162
  156.0553  130.5616  150.9079 LP  0  0  0  0  0  0  0  0  0  0  0  0  # atno 17370 bound_to 10713
  157.5990  131.0942  150.8992 LP  0  0  0  0  0  0  0  0  0  0  0  0  # atno 17371 bound_to 10713
  139.8785  134.9987  156.5916 LP  0  0  0  0  0  0  0  0  0  0  0  0  # atno 17394 bound_to 11000
  140.7929  133.8568  155.8661 LP  0  0  0  0  0  0  0  0  0  0  0  0  # atno 17395 bound_to 11000

$$$$
