AV-unprocessed.smi:1119|AV-procd|sdf|4817|dock3
  -GOLD-   22720 3373D 1   1.00000     0.00000
 Structure written by MMmdl.
 31 32  0  0  0  0  0  0  0  0  1 V2000
  147.9901  141.2587  153.6714 C   0  0  0  0  0  0  0  0  0  0  0  0
  149.1551  141.7820  154.3001 O   0  0  0  0  0  0  0  0  0  0  0  0
  150.1263  140.8977  154.7294 C   0  0  0  0  0  0  0  0  0  0  0  0
  150.2811  139.7313  154.0535 N   0  0  0  0  0  0  0  0  0  0  0  0
  151.2263  138.8654  154.4730 C   0  0  0  0  0  0  0  0  0  0  0  0
  152.0564  139.1092  155.5825 C   0  0  0  0  0  0  0  0  0  0  0  0
  151.8986  140.3183  156.2847 C   0  0  0  0  0  0  0  0  0  0  0  0
  150.9206  141.2439  155.8473 C   0  0  0  0  0  0  0  0  0  0  0  0
  150.6664  142.4805  156.5015 N   0  0  0  0  0  0  0  0  0  0  0  0
  151.2641  142.9806  157.5961 C   0  0  0  0  0  0  0  0  0  0  0  0
  152.1820  142.4404  158.2136 O   0  0  0  0  0  0  0  0  0  0  0  0
  150.7470  144.1710  157.9295 N   0  0  0  0  0  0  0  0  0  0  0  0
  151.1970  144.9930  159.0455 C   0  0  0  0  0  0  0  0  0  0  0  0
  151.1274  144.3161  160.4007 C   0  0  0  0  0  0  0  0  0  0  0  0
  152.0994  144.6677  161.5031 C   0  0  0  0  0  0  0  0  0  0  0  0
  152.1910  143.3267  160.8166 C   0  0  0  0  0  0  0  0  0  0  0  0
  147.3346  142.0810  153.3856 H   0  0  0  0  0  0  0  0  0  0  0  0
  147.4309  140.6090  154.3460 H   0  0  0  0  0  0  0  0  0  0  0  0
  148.2397  140.7052  152.7648 H   0  0  0  0  0  0  0  0  0  0  0  0
  151.3193  137.9480  153.9108 H   0  0  0  0  0  0  0  0  0  0  0  0
  152.7941  138.3833  155.8910 H   0  0  0  0  0  0  0  0  0  0  0  0
  152.5158  140.5055  157.1499 H   0  0  0  0  0  0  0  0  0  0  0  0
  149.9991  143.0830  156.0422 H   0  0  0  0  0  0  0  0  0  0  0  0
  149.9961  144.5402  157.3649 H   0  0  0  0  0  0  0  0  0  0  0  0
  152.2356  145.2645  158.8561 H   0  0  0  0  0  0  0  0  0  0  0  0
  150.6384  145.9303  159.0728 H   0  0  0  0  0  0  0  0  0  0  0  0
  150.1144  144.0685  160.7131 H   0  0  0  0  0  0  0  0  0  0  0  0
  152.8745  145.3993  161.2823 H   0  0  0  0  0  0  0  0  0  0  0  0
  151.7155  144.6888  162.5210 H   0  0  0  0  0  0  0  0  0  0  0  0
  151.8713  142.4514  161.3784 H   0  0  0  0  0  0  0  0  0  0  0  0
  153.0292  143.1667  160.1410 H   0  0  0  0  0  0  0  0  0  0  0  0
  1  2  1  0  0  0  0
  1 17  1  0  0  0  0
  1 18  1  0  0  0  0
  1 19  1  0  0  0  0
  2  3  1  0  0  0  0
  3  8  1  0  0  0  0
  3  4  2  0  0  0  0
  4  5  1  0  0  0  0
  5  6  2  0  0  0  0
  5 20  1  0  0  0  0
  6  7  1  0  0  0  0
  6 21  1  0  0  0  0
  7  8  2  0  0  0  0
  7 22  1  0  0  0  0
  8  9  1  0  0  0  0
  9 10  1  0  0  0  0
  9 23  1  0  0  0  0
 10 11  2  0  0  0  0
 10 12  1  0  0  0  0
 12 13  1  0  0  0  0
 12 24  1  0  0  0  0
 13 14  1  0  0  0  0
 13 25  1  0  0  0  0
 13 26  1  0  0  0  0
 14 16  1  0  0  0  0
 14 15  1  0  0  0  0
 14 27  1  0  0  0  0
 15 16  1  0  0  0  0
 15 28  1  0  0  0  0
 15 29  1  0  0  0  0
 16 30  1  0  0  0  0
 16 31  1  0  0  0  0
M  END
> <s_m_source_file>
AV-unprocessed.smi

> <i_m_source_file_index>
1119

> <i_lp_mmshare_version>
43012

> <i_f3d_flags>
0

> <s_epik_input>
W0NIM11PYzFuW2NIXVtjSF1bY0hdYzFbTkhdQyg9TylbTkhdW0NIMl1bQ0hdMltDSDJdW0NIMl0y

> <s_epik_cmdline>
J2VwaWtfcHl0aG9uJywgJy1waCcsICc3LjAnLCAnLXRuJywgJzgnLCAnLW1hJywgJzIwMCcsICctbWV0YWxfYmluZGluZycsICctaW1hZScsICc8aW5maWxlLm1hZT4nLCAnLW9tYWUnLCAnPG91dGZpbGUubWFlPic=

> <r_lp_tautomer_probability>
1

> <r_epik_Ionization_Penalty>
9.92152e-05

> <r_epik_Ionization_Penalty_Charging>
0

> <r_epik_Ionization_Penalty_Neutral>
9.92152e-05

> <r_epik_State_Penalty>
-0

> <r_epik_Charging_Adjusted_Penalty>
0

> <i_epik_Tot_Q>
0

> <i_epik_Tot_abs_Q>
0

> <r_epik_Metal_State_Penalty>
-0

> <b_epik_Metal_Only>
0

> <s_lp_Force_Field>
OPLS_2005

> <r_lp_Energy>
14.7926

> <b_lp_Chiralities_Consistent>
1

> <s_lp_Variant>
AV-unprocessed.smi:1119-1

> <Gold.Version>
5.8.1

> <Gold.Id.Protein>
6NUR|6NUR_protein|mol2

> <Gold.PLP.Fitness>
41.2372

> <Gold.PLP.PLP>
-35.6975

> <Gold.PLP.part.hbond>
-4.0000

> <Gold.PLP.part.metal>
0.0000

> <Gold.PLP.part.buried>
-2.0880

> <Gold.PLP.part.nonpolar>
-29.4095

> <Gold.PLP.part.repulsive>
0.9464

> <Gold.PLP.ligand.clash>
0.0086

> <Gold.PLP.ligand.torsion>
0.6501

> <Gold.PLP.Chemscore.Hbond>
2.1020

> <Gold.PLP.Chemscore.CHOScore>
0.0000

> <Gold.PLP.Chemscore.Metal>
0.0000

> <Gold.Chemscore.Hbonds>
donor molecule, donor type, donor heavy atom, donor atom, acceptor molecule, acceptor atom, score
      L1  H     9    23       P1  8028  1.00
      L1  H    12    24       P1  8028  1.00
      P1  H  8011  8017       L1     2  0.11

> <Gold.PLP.Chemscore.Internal.Correction>
0.5426

> <Gold.Rescore>
     Score         DG    S(hbond)    S(metal)    S(lipo)     H(rot)  DE(clash)    DE(int)     intcor
     10.64     -15.73       1.25        0.00      83.82       1.45       1.95       3.15       ----

> <Gold.Chemscore.Fitness>
10.6372

> <Gold.Chemscore.DG>
-15.7342

> <Gold.Chemscore.ZeroCoef>
-5.4800

> <Gold.Chemscore.Hbond>
1.2450

> <Gold.Chemscore.Metal>
0.0000

> <Gold.Chemscore.Lipo>
83.8199

> <Gold.Chemscore.Internal_Hbond>
0.0000

> <Gold.Chemscore.DEClash>
1.9472

> <Gold.Chemscore.DEInternal>
3.1498

> <Gold.Chemscore.Rot>
1.4497

> <Gold.Chemscore.Internal.Correction>
   9.000000E+99

> <Gold.Chemscore.Hbonds>
donor molecule, donor type, donor heavy atom, donor atom, acceptor molecule, acceptor atom, score
      L1  H     9    23       P1  8028  0.94
      L1  H    12    24       P1  8028  0.24

> <Gold.Chemscore.Hbond.Weighted>
-4.1584

> <Gold.Chemscore.Metal.Weighted>
-0.0000

> <Gold.Chemscore.Lipo.Weighted>
-9.8069

> <Gold.Chemscore.Internal_Hbond.Weighted>
0.0000

> <Gold.Chemscore.DEClash.Weighted>
1.9472

> <Gold.Chemscore.DEInternal.Weighted>
3.1498

> <Gold.Chemscore.Rot.Weighted>
3.7111

> <Gold.Chemscore.Internal.Correction.Weighted>
   9.000000E+99

> <Gold.Protein.RotatedTorsions>
[ 6907 6896 6895 6894 ] final -134.91 input  -60.11 | X-H torsion
[ 7974 7965 7964 7962 ] final  -31.44 input  175.53 | X-H torsion
[ 8008 7997 7996 7995 ] final  135.96 input   59.86 | X-H torsion
[ 10167 10162 10161 10158 ] final   28.53 input  -65.29 | X-H torsion
[ 10718 10713 10712 10709 ] final  -92.25 input   66.30 | X-H torsion
[ 10763 10752 10751 10750 ] final  129.78 input  -60.55 | X-H torsion
[ 11005 11000 10999 10996 ] final  -94.03 input  -57.11 | X-H torsion

> <Gold.Protein.ActiveResidues>
 VAL166  LYS551  ARG553  GLY616  TRP617  ASP618  TYR619  PRO620  LYS621  CYS622 
 ASP623  PHE694  ASN695  SER759  ASP760  ASP761  ALA762  ILE779  LEU786  VAL792 
 PHE793  MET794  SER795  GLU796  ALA797  LYS798  CYS799  TRP800  GLU811  SER814 

> <Gold.Protein.RotatedAtoms>
  150.9916  133.6144  159.2707 H   0  0  0  0  0  0  0  0  0  0  0  0  # atno 6907 bound_to 6896
  151.3363  135.0852  159.9365 H   0  0  0  0  0  0  0  0  0  0  0  0  # atno 6908 bound_to 6896
  152.5247  133.9535  159.7738 H   0  0  0  0  0  0  0  0  0  0  0  0  # atno 6909 bound_to 6896
  146.1067  140.5667  142.8796 H   0  0  0  0  0  0  0  0  0  0  0  0  # atno 7974 bound_to 7965
  156.3004  140.2457  156.3666 H   0  0  0  0  0  0  0  0  0  0  0  0  # atno 8008 bound_to 7997
  154.8827  140.0412  157.1811 H   0  0  0  0  0  0  0  0  0  0  0  0  # atno 8009 bound_to 7997
  154.8679  140.2930  155.5503 H   0  0  0  0  0  0  0  0  0  0  0  0  # atno 8010 bound_to 7997
  140.4844  144.0565  150.6276 H   0  0  0  0  0  0  0  0  0  0  0  0  # atno 10167 bound_to 10162
  156.0000  130.4980  150.5597 H   0  0  0  0  0  0  0  0  0  0  0  0  # atno 10718 bound_to 10713
  153.7473  135.3215  155.3315 H   0  0  0  0  0  0  0  0  0  0  0  0  # atno 10763 bound_to 10752
  154.8275  135.4559  154.0967 H   0  0  0  0  0  0  0  0  0  0  0  0  # atno 10764 bound_to 10752
  153.2159  135.6942  153.8140 H   0  0  0  0  0  0  0  0  0  0  0  0  # atno 10765 bound_to 10752
  141.1481  133.7928  157.0242 H   0  0  0  0  0  0  0  0  0  0  0  0  # atno 11005 bound_to 11000
  144.7477  140.5111  143.6824 LP  0  0  0  0  0  0  0  0  0  0  0  0  # atno 17320 bound_to 7965
  145.5746  139.1485  143.3269 LP  0  0  0  0  0  0  0  0  0  0  0  0  # atno 17321 bound_to 7965
  140.3816  143.2799  152.0163 LP  0  0  0  0  0  0  0  0  0  0  0  0  # atno 17342 bound_to 10162
  139.4839  144.6150  151.7363 LP  0  0  0  0  0  0  0  0  0  0  0  0  # atno 17343 bound_to 10162
  157.3508  131.0733  151.1714 LP  0  0  0  0  0  0  0  0  0  0  0  0  # atno 17370 bound_to 10713
  157.2531  130.6623  149.5940 LP  0  0  0  0  0  0  0  0  0  0  0  0  # atno 17371 bound_to 10713
  140.0796  134.9656  157.1602 LP  0  0  0  0  0  0  0  0  0  0  0  0  # atno 17394 bound_to 11000
  140.3596  134.2509  155.7188 LP  0  0  0  0  0  0  0  0  0  0  0  0  # atno 17395 bound_to 11000

$$$$
