AV-unprocessed.smi:845|AV-procd|sdf|3933|dock2
  -GOLD-   22720 1393D 1   1.00000     0.00000
 Structure written by MMmdl.
 41 42  0  0  0  0  0  0  0  0  2 V2000
  151.0740  140.0486  155.1140 C   0  0  0  0  0  0  0  0  0  0  0  0
  151.6116  138.8909  155.9722 C   0  0  0  0  0  0  0  0  0  0  0  0
  151.6684  137.5820  155.1604 C   0  0  0  0  0  0  0  0  0  0  0  0
  150.9205  138.8225  157.3714 C   0  0  2  0  0  0  0  0  0  0  0  0
  149.4058  138.4863  157.3069 C   0  0  0  0  0  0  0  0  0  0  0  0
  148.8422  138.2652  158.6367 N   0  0  0  0  0  0  0  0  0  0  0  0
  148.8864  137.1290  159.3472 C   0  0  0  0  0  0  0  0  0  0  0  0
  149.4294  136.1251  158.8803 O   0  0  0  0  0  0  0  0  0  0  0  0
  148.2964  137.2270  160.5603 N   0  5  0  0  0  0  0  0  0  0  0  0
  147.9498  136.1156  161.2298 C   0  0  0  0  0  0  0  0  0  0  0  0
  147.9382  134.9000  160.6706 N   0  0  0  0  0  0  0  0  0  0  0  0
  147.5515  133.8877  161.5509 C   0  0  0  0  0  0  0  0  0  0  0  0
  147.2721  134.3417  162.8124 C   0  0  0  0  0  0  0  0  0  0  0  0
  147.4861  136.0649  162.9331 S   0  0  0  0  0  0  0  0  0  0  0  0
  151.2710  139.9235  158.2916 N   0  0  0  0  0  0  0  0  0  0  0  0
  152.6955  140.0612  158.5939 C   0  0  0  0  0  0  0  0  0  0  0  0
  152.9503  141.1664  159.6331 C   0  0  0  0  0  0  0  0  0  0  0  0
  152.4066  142.3980  159.1688 O   0  0  0  0  0  0  0  0  0  0  0  0
  151.0100  142.3159  158.9030 C   0  0  0  0  0  0  0  0  0  0  0  0
  150.7467  141.2173  157.8593 C   0  0  0  0  0  0  0  0  0  0  0  0
  150.0436  139.8723  154.8043 H   0  0  0  0  0  0  0  0  0  0  0  0
  151.6719  140.1762  154.2111 H   0  0  0  0  0  0  0  0  0  0  0  0
  151.1015  140.9910  155.6618 H   0  0  0  0  0  0  0  0  0  0  0  0
  152.6538  139.1446  156.1696 H   0  0  0  0  0  0  0  0  0  0  0  0
  150.7170  137.3413  154.6910 H   0  0  0  0  0  0  0  0  0  0  0  0
  151.9788  136.7309  155.7644 H   0  0  0  0  0  0  0  0  0  0  0  0
  152.3937  137.6747  154.3518 H   0  0  0  0  0  0  0  0  0  0  0  0
  151.3715  137.9315  157.8113 H   0  0  0  0  0  0  0  0  0  0  0  0
  148.8482  139.3132  156.8696 H   0  0  0  0  0  0  0  0  0  0  0  0
  149.2314  137.6316  156.6535 H   0  0  0  0  0  0  0  0  0  0  0  0
  148.3845  139.0547  159.0679 H   0  0  0  0  0  0  0  0  0  0  0  0
  147.5041  132.8698  161.1938 H   0  0  0  0  0  0  0  0  0  0  0  0
  146.9567  133.7722  163.6735 H   0  0  0  0  0  0  0  0  0  0  0  0
  153.1048  139.1316  158.9749 H   0  0  0  0  0  0  0  0  0  0  0  0
  153.2504  140.2997  157.6863 H   0  0  0  0  0  0  0  0  0  0  0  0
  152.5041  140.9026  160.5932 H   0  0  0  0  0  0  0  0  0  0  0  0
  154.0203  141.2900  159.8004 H   0  0  0  0  0  0  0  0  0  0  0  0
  150.4683  142.1088  159.8271 H   0  0  0  0  0  0  0  0  0  0  0  0
  150.6595  143.2803  158.5351 H   0  0  0  0  0  0  0  0  0  0  0  0
  151.2022  141.5146  156.9147 H   0  0  0  0  0  0  0  0  0  0  0  0
  149.6733  141.1443  157.6811 H   0  0  0  0  0  0  0  0  0  0  0  0
  1  2  1  0  0  0  0
  1 21  1  0  0  0  0
  1 22  1  0  0  0  0
  1 23  1  0  0  0  0
  2  3  1  0  0  0  0
  2  4  1  0  0  0  0
  2 24  1  0  0  0  0
  3 25  1  0  0  0  0
  3 26  1  0  0  0  0
  3 27  1  0  0  0  0
  4  5  1  0  0  0  0
  4 15  1  0  0  0  0
  4 28  1  0  0  0  0
  5  6  1  0  0  0  0
  5 29  1  0  0  0  0
  5 30  1  0  0  0  0
  6  7  1  0  0  0  0
  6 31  1  0  0  0  0
  7  8  2  0  0  0  0
  7  9  1  0  0  0  0
  9 10  1  0  0  0  0
 10 14  1  0  0  0  0
 10 11  2  0  0  0  0
 11 12  1  0  0  0  0
 12 13  2  0  0  0  0
 12 32  1  0  0  0  0
 13 14  1  0  0  0  0
 13 33  1  0  0  0  0
 15 20  1  0  0  0  0
 15 16  1  0  0  0  0
 16 17  1  0  0  0  0
 16 34  1  0  0  0  0
 16 35  1  0  0  0  0
 17 18  1  0  0  0  0
 17 36  1  0  0  0  0
 17 37  1  0  0  0  0
 18 19  1  0  0  0  0
 19 20  1  0  0  0  0
 19 38  1  0  0  0  0
 19 39  1  0  0  0  0
 20 40  1  0  0  0  0
 20 41  1  0  0  0  0
M  CHG  1   9  -1
M  END
> <s_m_source_file>
AV-unprocessed.smi

> <i_m_source_file_index>
845

> <i_lp_mmshare_version>
43012

> <i_f3d_flags>
0

> <s_epik_input>
W0NIMl0xW0NIMl1PW0NIMl1bQ0gyXU4xW0NASF0oW0NIXShbQ0gzXSlbQ0gzXSlbQ0gyXVtOSF1DKD1PKVtOSF1jMm5bY0hdW2NIXXMy

> <s_epik_cmdline>
J2VwaWtfcHl0aG9uJywgJy1waCcsICc3LjAnLCAnLXRuJywgJzgnLCAnLW1hJywgJzIwMCcsICctbWV0YWxfYmluZGluZycsICctaW1hZScsICc8aW5maWxlLm1hZT4nLCAnLW9tYWUnLCAnPG91dGZpbGUubWFlPic=

> <r_lp_tautomer_probability>
0.999

> <r_epik_Ionization_Penalty>
9.02543

> <r_epik_Ionization_Penalty_Charging>
6.76546

> <r_epik_Ionization_Penalty_Neutral>
2.25997

> <r_epik_State_Penalty>
7.18984

> <r_epik_Charging_Adjusted_Penalty>
13.9553

> <i_epik_Tot_Q>
-1

> <i_epik_Tot_abs_Q>
1

> <r_epik_Metal_State_Penalty>
3.11401

> <b_epik_Metal_Only>
1

> <s_lp_Force_Field>
OPLS_2005

> <r_lp_Energy>
34.1255

> <b_lp_Chiralities_Consistent>
1

> <s_lp_Variant>
AV-unprocessed.smi:845-7

> <Gold.Version>
5.8.1

> <Gold.Id.Protein>
6NUR|6NUR_protein|mol2

> <Gold.PLP.Fitness>
43.8194

> <Gold.PLP.PLP>
-34.4246

> <Gold.PLP.part.hbond>
-3.0000

> <Gold.PLP.part.metal>
0.0000

> <Gold.PLP.part.buried>
-2.5229

> <Gold.PLP.part.nonpolar>
-30.1376

> <Gold.PLP.part.repulsive>
0.1919

> <Gold.PLP.ligand.clash>
0.0000

> <Gold.PLP.ligand.torsion>
0.4946

> <Gold.PLP.Chemscore.Hbond>
3.2979

> <Gold.PLP.Chemscore.CHOScore>
0.0000

> <Gold.PLP.Chemscore.Metal>
0.0000

> <Gold.Chemscore.Hbonds>
donor molecule, donor type, donor heavy atom, donor atom, acceptor molecule, acceptor atom, score
      P1  H  6896  6907       L1     8  0.84
      P1  H  6931  6943       L1     9  1.50
      P1  H  6934  6947       L1     9  0.91

> <Gold.PLP.Chemscore.Internal.Correction>
0.4903

> <Gold.Rescore>
     Score         DG    S(hbond)    S(metal)    S(lipo)     H(rot)  DE(clash)    DE(int)     intcor
     13.58     -16.03       1.67        0.00      79.70       1.71       0.17       2.27       ----

> <Gold.Chemscore.Fitness>
13.5845

> <Gold.Chemscore.DG>
-16.0260

> <Gold.Chemscore.ZeroCoef>
-5.4800

> <Gold.Chemscore.Hbond>
1.6749

> <Gold.Chemscore.Metal>
0.0000

> <Gold.Chemscore.Lipo>
79.6976

> <Gold.Chemscore.Internal_Hbond>
0.0000

> <Gold.Chemscore.DEClash>
0.1725

> <Gold.Chemscore.DEInternal>
2.2691

> <Gold.Chemscore.Rot>
1.7081

> <Gold.Chemscore.Internal.Correction>
   9.000000E+99

> <Gold.Chemscore.Hbonds>
donor molecule, donor type, donor heavy atom, donor atom, acceptor molecule, acceptor atom, score
      P1  H  6896  6907       L1     8  0.82
      P1  H  6931  6943       L1     9  0.26
      P1  H  6934  6947       L1     9  0.41

> <Gold.Chemscore.Hbond.Weighted>
-5.5942

> <Gold.Chemscore.Metal.Weighted>
-0.0000

> <Gold.Chemscore.Lipo.Weighted>
-9.3246

> <Gold.Chemscore.Internal_Hbond.Weighted>
0.0000

> <Gold.Chemscore.DEClash.Weighted>
0.1725

> <Gold.Chemscore.DEInternal.Weighted>
2.2691

> <Gold.Chemscore.Rot.Weighted>
4.3728

> <Gold.Chemscore.Internal.Correction.Weighted>
   9.000000E+99

> <Gold.Protein.RotatedTorsions>
[ 6907 6896 6895 6894 ] final  -71.52 input  -60.11 | X-H torsion
[ 7974 7965 7964 7962 ] final   30.89 input  175.53 | X-H torsion
[ 8008 7997 7996 7995 ] final  113.08 input   59.86 | X-H torsion
[ 10167 10162 10161 10158 ] final  141.99 input  -65.29 | X-H torsion
[ 10718 10713 10712 10709 ] final -173.83 input   66.30 | X-H torsion
[ 10763 10752 10751 10750 ] final  148.21 input  -60.55 | X-H torsion
[ 11005 11000 10999 10996 ] final  119.03 input  -57.11 | X-H torsion

> <Gold.Protein.ActiveResidues>
 VAL166  LYS551  ARG553  GLY616  TRP617  ASP618  TYR619  PRO620  LYS621  CYS622 
 ASP623  PHE694  ASN695  SER759  ASP760  ASP761  ALA762  ILE779  LEU786  VAL792 
 PHE793  MET794  SER795  GLU796  ALA797  LYS798  CYS799  TRP800  GLU811  SER814 

> <Gold.Protein.RotatedAtoms>
  150.7209  134.5297  159.5693 H   0  0  0  0  0  0  0  0  0  0  0  0  # atno 6907 bound_to 6896
  152.2833  134.7801  160.0401 H   0  0  0  0  0  0  0  0  0  0  0  0  # atno 6908 bound_to 6896
  151.8440  133.3393  159.3689 H   0  0  0  0  0  0  0  0  0  0  0  0  # atno 6909 bound_to 6896
  146.1584  139.6729  142.9050 H   0  0  0  0  0  0  0  0  0  0  0  0  # atno 7974 bound_to 7965
  156.2235  140.2986  156.0009 H   0  0  0  0  0  0  0  0  0  0  0  0  # atno 8008 bound_to 7997
  155.2419  140.0422  157.2993 H   0  0  0  0  0  0  0  0  0  0  0  0  # atno 8009 bound_to 7997
  154.5878  140.2393  155.7971 H   0  0  0  0  0  0  0  0  0  0  0  0  # atno 8010 bound_to 7997
  139.5006  144.6136  151.6216 H   0  0  0  0  0  0  0  0  0  0  0  0  # atno 10167 bound_to 10162
  156.7761  130.9466  151.3120 H   0  0  0  0  0  0  0  0  0  0  0  0  # atno 10718 bound_to 10713
  154.0510  135.2882  155.3340 H   0  0  0  0  0  0  0  0  0  0  0  0  # atno 10763 bound_to 10752
  154.6869  135.5242  153.8342 H   0  0  0  0  0  0  0  0  0  0  0  0  # atno 10764 bound_to 10752
  153.0561  135.6595  154.0706 H   0  0  0  0  0  0  0  0  0  0  0  0  # atno 10765 bound_to 10752
  139.9131  134.9625  156.7593 H   0  0  0  0  0  0  0  0  0  0  0  0  # atno 11005 bound_to 11000
  145.4650  141.0434  143.2730 LP  0  0  0  0  0  0  0  0  0  0  0  0  # atno 17320 bound_to 7965
  144.7994  139.6170  143.7078 LP  0  0  0  0  0  0  0  0  0  0  0  0  # atno 17321 bound_to 7965
  140.5817  143.9934  150.6272 LP  0  0  0  0  0  0  0  0  0  0  0  0  # atno 17342 bound_to 10162
  140.3085  143.3213  152.0902 LP  0  0  0  0  0  0  0  0  0  0  0  0  # atno 17343 bound_to 10162
  157.6668  130.9015  149.9951 LP  0  0  0  0  0  0  0  0  0  0  0  0  # atno 17370 bound_to 10713
  156.1247  130.3645  149.9828 LP  0  0  0  0  0  0  0  0  0  0  0  0  # atno 17371 bound_to 10713
  140.6711  133.9559  155.7857 LP  0  0  0  0  0  0  0  0  0  0  0  0  # atno 17394 bound_to 11000
  141.0577  134.0392  157.3700 LP  0  0  0  0  0  0  0  0  0  0  0  0  # atno 17395 bound_to 11000

$$$$
