AV-unprocessed.smi:3286|AV-procd|sdf|12589|dock9
  -GOLD-   2272018513D 1   1.00000     0.00000
 Structure written by MMmdl.
 43 44  0  0  0  0  0  0  0  0  2 V2000
  145.5651  131.7324  150.5771 C   0  0  0  0  0  0  0  0  0  0  0  0
  145.3995  133.1543  151.0709 C   0  0  0  0  0  0  0  0  0  0  0  0
  144.2698  133.9199  150.7124 C   0  0  0  0  0  0  0  0  0  0  0  0
  144.1699  135.2370  151.2000 C   0  0  0  0  0  0  0  0  0  0  0  0
  145.1995  135.7371  152.0239 C   0  0  0  0  0  0  0  0  0  0  0  0
  145.1383  137.1459  152.5796 C   0  0  0  0  0  0  0  0  0  0  0  0
  146.3233  138.0008  152.1125 C   0  0  0  0  0  0  0  0  0  0  0  0
  147.2648  138.2533  153.2219 N   0  3  0  0  0  0  0  0  0  0  0  0
  147.9911  139.5414  153.1400 C   0  0  1  0  0  0  0  0  0  0  0  0
  146.9565  140.6724  153.0105 C   0  0  0  0  0  0  0  0  0  0  0  0
  148.9294  139.7089  154.3644 C   0  0  0  0  0  0  0  0  0  0  0  0
  149.3502  141.1744  154.6021 C   0  0  0  0  0  0  0  0  0  0  0  0
  150.3521  141.2897  155.7629 C   0  0  0  0  0  0  0  0  0  0  0  0
  151.4894  140.4750  155.5092 O   0  0  0  0  0  0  0  0  0  0  0  0
  151.1642  139.0944  155.4157 C   0  0  0  0  0  0  0  0  0  0  0  0
  150.2138  138.8626  154.2306 C   0  0  0  0  0  0  0  0  0  0  0  0
  146.2870  134.8890  152.3220 C   0  0  0  0  0  0  0  0  0  0  0  0
  146.3900  133.6246  151.8605 N   0  0  0  0  0  0  0  0  0  0  0  0
  144.7293  131.4324  149.9443 H   0  0  0  0  0  0  0  0  0  0  0  0
  145.6188  131.0425  151.4196 H   0  0  0  0  0  0  0  0  0  0  0  0
  146.4827  131.6374  149.9960 H   0  0  0  0  0  0  0  0  0  0  0  0
  143.4971  133.5100  150.0785 H   0  0  0  0  0  0  0  0  0  0  0  0
  143.3171  135.8493  150.9458 H   0  0  0  0  0  0  0  0  0  0  0  0
  144.1985  137.6069  152.2723 H   0  0  0  0  0  0  0  0  0  0  0  0
  145.1162  137.0965  153.6692 H   0  0  0  0  0  0  0  0  0  0  0  0
  146.8491  137.4953  151.3013 H   0  0  0  0  0  0  0  0  0  0  0  0
  145.9661  138.9551  151.7226 H   0  0  0  0  0  0  0  0  0  0  0  0
  146.7465  138.2351  154.0885 H   0  0  0  0  0  0  0  0  0  0  0  0
  148.6013  139.5523  152.2349 H   0  0  0  0  0  0  0  0  0  0  0  0
  147.4284  141.6329  152.8053 H   0  0  0  0  0  0  0  0  0  0  0  0
  146.3634  140.7758  153.9201 H   0  0  0  0  0  0  0  0  0  0  0  0
  146.2684  140.4793  152.1866 H   0  0  0  0  0  0  0  0  0  0  0  0
  148.3938  139.3696  155.2528 H   0  0  0  0  0  0  0  0  0  0  0  0
  149.7977  141.5842  153.6957 H   0  0  0  0  0  0  0  0  0  0  0  0
  148.4835  141.7939  154.8316 H   0  0  0  0  0  0  0  0  0  0  0  0
  150.6796  142.3238  155.8730 H   0  0  0  0  0  0  0  0  0  0  0  0
  149.8879  141.0017  156.7075 H   0  0  0  0  0  0  0  0  0  0  0  0
  152.0838  138.5258  155.2745 H   0  0  0  0  0  0  0  0  0  0  0  0
  150.7170  138.7486  156.3492 H   0  0  0  0  0  0  0  0  0  0  0  0
  149.9741  137.8008  154.1729 H   0  0  0  0  0  0  0  0  0  0  0  0
  150.7294  139.1158  153.3032 H   0  0  0  0  0  0  0  0  0  0  0  0
  147.0952  135.2323  152.9512 H   0  0  0  0  0  0  0  0  0  0  0  0
  147.9455  137.5073  153.2417 H   0  0  0  0  0  0  0  0  0  0  0  0
  1  2  1  0  0  0  0
  1 19  1  0  0  0  0
  1 20  1  0  0  0  0
  1 21  1  0  0  0  0
  2 18  1  0  0  0  0
  2  3  2  0  0  0  0
  3  4  1  0  0  0  0
  3 22  1  0  0  0  0
  4  5  2  0  0  0  0
  4 23  1  0  0  0  0
  5  6  1  0  0  0  0
  5 17  1  0  0  0  0
  6  7  1  0  0  0  0
  6 24  1  0  0  0  0
  6 25  1  0  0  0  0
  7  8  1  0  0  0  0
  7 26  1  0  0  0  0
  7 27  1  0  0  0  0
  8  9  1  0  0  0  0
  8 28  1  0  0  0  0
  8 43  1  0  0  0  0
  9 10  1  0  0  0  0
  9 11  1  0  0  0  0
  9 29  1  0  0  0  0
 10 30  1  0  0  0  0
 10 31  1  0  0  0  0
 10 32  1  0  0  0  0
 11 16  1  0  0  0  0
 11 12  1  0  0  0  0
 11 33  1  0  0  0  0
 12 13  1  0  0  0  0
 12 34  1  0  0  0  0
 12 35  1  0  0  0  0
 13 14  1  0  0  0  0
 13 36  1  0  0  0  0
 13 37  1  0  0  0  0
 14 15  1  0  0  0  0
 15 16  1  0  0  0  0
 15 38  1  0  0  0  0
 15 39  1  0  0  0  0
 16 40  1  0  0  0  0
 16 41  1  0  0  0  0
 17 18  2  0  0  0  0
 17 42  1  0  0  0  0
M  CHG  1   8   1
M  END
> <s_m_source_file>
AV-unprocessed.smi

> <i_m_source_file_index>
3286

> <i_lp_mmshare_version>
43012

> <i_f3d_flags>
0

> <s_epik_input>
W0NIM11jMVtjSF1bY0hdYyhbY0hdbjEpW0NIMl1bQ0gyXVtOSF1bQ0BIXShbQ0gzXSlbQ0hdMltDSDJdW0NIMl1PW0NIMl1bQ0gyXTI=

> <s_epik_cmdline>
J2VwaWtfcHl0aG9uJywgJy1waCcsICc3LjAnLCAnLXRuJywgJzgnLCAnLW1hJywgJzIwMCcsICctbWV0YWxfYmluZGluZycsICctaW1hZScsICc8aW5maWxlLm1hZT4nLCAnLW9tYWUnLCAnPG91dGZpbGUubWFlPic=

> <r_lp_tautomer_probability>
1

> <r_epik_Ionization_Penalty>
0.00336271

> <r_epik_Ionization_Penalty_Charging>
0.000752246

> <r_epik_Ionization_Penalty_Neutral>
0.00261046

> <r_epik_State_Penalty>
-0

> <r_epik_Charging_Adjusted_Penalty>
0.000752246

> <i_epik_Tot_Q>
1

> <i_epik_Tot_abs_Q>
1

> <r_epik_Metal_State_Penalty>
-0

> <b_epik_Metal_Only>
0

> <s_lp_Force_Field>
OPLS_2005

> <r_lp_Energy>
16.504

> <b_lp_Chiralities_Consistent>
1

> <s_lp_Variant>
AV-unprocessed.smi:3286-2

> <Gold.Version>
5.8.1

> <Gold.Id.Protein>
6NUR|6NUR_protein|mol2

> <Gold.PLP.Fitness>
44.2550

> <Gold.PLP.PLP>
-34.0941

> <Gold.PLP.part.hbond>
-2.0000

> <Gold.PLP.part.metal>
0.0000

> <Gold.PLP.part.buried>
4.5182

> <Gold.PLP.part.nonpolar>
-37.5900

> <Gold.PLP.part.repulsive>
0.2724

> <Gold.PLP.ligand.clash>
0.0000

> <Gold.PLP.ligand.torsion>
0.8802

> <Gold.PLP.Chemscore.Hbond>
2.9760

> <Gold.PLP.Chemscore.CHOScore>
0.9854

> <Gold.PLP.Chemscore.Metal>
0.0000

> <Gold.Chemscore.Hbonds>
donor molecule, donor type, donor heavy atom, donor atom, acceptor molecule, acceptor atom, score
      L1  H     8    43       P1  7948  1.17
      P1  H  7989  7998       L1    14  0.64
      L1  C    17    42       P1  7948  0.72

> <Gold.PLP.Chemscore.Internal.Correction>
0.0372

> <Gold.Rescore>
     Score         DG    S(hbond)    S(metal)    S(lipo)     H(rot)  DE(clash)    DE(int)     intcor
     15.97     -18.37       1.05        0.00     111.41       1.43       1.57       0.82       ----

> <Gold.Chemscore.Fitness>
15.9721

> <Gold.Chemscore.DG>
-18.3693

> <Gold.Chemscore.ZeroCoef>
-5.4800

> <Gold.Chemscore.Hbond>
1.0537

> <Gold.Chemscore.Metal>
0.0000

> <Gold.Chemscore.Lipo>
111.4111

> <Gold.Chemscore.Internal_Hbond>
0.0000

> <Gold.Chemscore.DEClash>
1.5738

> <Gold.Chemscore.DEInternal>
0.8234

> <Gold.Chemscore.Rot>
1.4317

> <Gold.Chemscore.Internal.Correction>
   9.000000E+99

> <Gold.Chemscore.Hbonds>
donor molecule, donor type, donor heavy atom, donor atom, acceptor molecule, acceptor atom, score
      L1  H     8    43       P1  7948  0.57
      P1  H  7989  7998       L1    14  0.02

> <Gold.Chemscore.Hbond.Weighted>
-3.5192

> <Gold.Chemscore.Metal.Weighted>
-0.0000

> <Gold.Chemscore.Lipo.Weighted>
-13.0351

> <Gold.Chemscore.Internal_Hbond.Weighted>
0.0000

> <Gold.Chemscore.DEClash.Weighted>
1.5738

> <Gold.Chemscore.DEInternal.Weighted>
0.8234

> <Gold.Chemscore.Rot.Weighted>
3.6651

> <Gold.Chemscore.Internal.Correction.Weighted>
   9.000000E+99

> <Gold.Protein.RotatedTorsions>
[ 6907 6896 6895 6894 ] final  100.12 input  -60.11 | X-H torsion
[ 7974 7965 7964 7962 ] final  166.43 input  175.53 | X-H torsion
[ 8008 7997 7996 7995 ] final   74.96 input   59.86 | X-H torsion
[ 10167 10162 10161 10158 ] final   15.61 input  -65.29 | X-H torsion
[ 10718 10713 10712 10709 ] final   54.21 input   66.30 | X-H torsion
[ 10763 10752 10751 10750 ] final   12.36 input  -60.55 | X-H torsion
[ 11005 11000 10999 10996 ] final  -37.51 input  -57.11 | X-H torsion

> <Gold.Protein.ActiveResidues>
 VAL166  LYS551  ARG553  GLY616  TRP617  ASP618  TYR619  PRO620  LYS621  CYS622 
 ASP623  PHE694  ASN695  SER759  ASP760  ASP761  ALA762  ILE779  LEU786  VAL792 
 PHE793  MET794  SER795  GLU796  ALA797  LYS798  CYS799  TRP800  GLU811  SER814 

> <Gold.Protein.RotatedAtoms>
  152.5378  134.0325  159.8030 H   0  0  0  0  0  0  0  0  0  0  0  0  # atno 6907 bound_to 6896
  151.0494  133.5630  159.2651 H   0  0  0  0  0  0  0  0  0  0  0  0  # atno 6908 bound_to 6896
  151.2570  135.0649  159.9137 H   0  0  0  0  0  0  0  0  0  0  0  0  # atno 6909 bound_to 6896
  144.7463  139.8614  143.6381 H   0  0  0  0  0  0  0  0  0  0  0  0  # atno 7974 bound_to 7965
  155.8060  140.3475  155.5430 H   0  0  0  0  0  0  0  0  0  0  0  0  # atno 8008 bound_to 7997
  155.8490  140.0953  157.1707 H   0  0  0  0  0  0  0  0  0  0  0  0  # atno 8009 bound_to 7997
  154.4007  140.1380  156.3808 H   0  0  0  0  0  0  0  0  0  0  0  0  # atno 8010 bound_to 7997
  140.5855  143.8898  150.6827 H   0  0  0  0  0  0  0  0  0  0  0  0  # atno 10167 bound_to 10162
  157.5236  130.8582  149.8592 H   0  0  0  0  0  0  0  0  0  0  0  0  # atno 10718 bound_to 10713
  153.1831  135.6831  153.8452 H   0  0  0  0  0  0  0  0  0  0  0  0  # atno 10763 bound_to 10752
  153.7777  135.3187  155.3362 H   0  0  0  0  0  0  0  0  0  0  0  0  # atno 10764 bound_to 10752
  154.8072  135.4741  154.0518 H   0  0  0  0  0  0  0  0  0  0  0  0  # atno 10765 bound_to 10752
  140.9957  133.6981  156.1931 H   0  0  0  0  0  0  0  0  0  0  0  0  # atno 11005 bound_to 11000
  146.1346  139.4388  143.0147 LP  0  0  0  0  0  0  0  0  0  0  0  0  # atno 17320 bound_to 7965
  145.7112  141.0105  143.1452 LP  0  0  0  0  0  0  0  0  0  0  0  0  # atno 17321 bound_to 7965
  140.2408  143.3665  152.1488 LP  0  0  0  0  0  0  0  0  0  0  0  0  # atno 17342 bound_to 10162
  139.5195  144.7020  151.5464 LP  0  0  0  0  0  0  0  0  0  0  0  0  # atno 17343 bound_to 10162
  156.0371  130.3748  150.1532 LP  0  0  0  0  0  0  0  0  0  0  0  0  # atno 17370 bound_to 10713
  156.9719  130.9837  151.3457 LP  0  0  0  0  0  0  0  0  0  0  0  0  # atno 17371 bound_to 10713
  140.6969  134.4606  157.5587 LP  0  0  0  0  0  0  0  0  0  0  0  0  # atno 17394 bound_to 11000
  139.9014  134.8548  156.1882 LP  0  0  0  0  0  0  0  0  0  0  0  0  # atno 17395 bound_to 11000

$$$$
