AV-unprocessed.smi:2096|AV-procd|sdf|8562|dock7
  -GOLD-   2272011293D 1   1.00000     0.00000
 Structure written by MMmdl.
 35 36  0  0  0  0  0  0  0  0  1 V2000
  150.4195  135.1154  155.5535 C   0  0  0  0  0  0  0  0  0  0  0  0
  150.0889  136.5066  155.3251 N   0  0  0  0  0  0  0  0  0  0  0  0
  148.7727  136.8501  154.9311 C   0  0  0  0  0  0  0  0  0  0  0  0
  147.8838  136.0119  154.7777 O   0  0  0  0  0  0  0  0  0  0  0  0
  148.5593  138.2777  154.7245 C   0  0  0  0  0  0  0  0  0  0  0  0
  149.5620  139.1642  154.9086 C   0  0  0  0  0  0  0  0  0  0  0  0
  150.8387  138.8013  155.2973 N   0  0  0  0  0  0  0  0  0  0  0  0
  151.8713  139.8321  155.4623 C   0  0  0  0  0  0  0  0  0  0  0  0
  152.1455  140.1716  156.9333 C   0  0  0  0  0  0  0  0  0  0  0  0
  152.8567  139.4416  157.6254 O   0  0  0  0  0  0  0  0  0  0  0  0
  151.5897  141.3013  157.3922 N   0  0  0  0  0  0  0  0  0  0  0  0
  151.7334  141.7945  158.7546 C   0  0  0  0  0  0  0  0  0  0  0  0
  152.3165  143.2023  158.7532 C   0  0  0  0  0  0  0  0  0  0  0  0
  152.0982  144.1137  159.9699 C   0  0  0  0  0  0  0  0  0  0  0  0
  152.0192  145.3029  159.0088 C   0  0  0  0  0  0  0  0  0  0  0  0
  151.6570  144.3030  157.9077 C   0  0  0  0  0  0  0  0  0  0  0  0
  151.1327  137.4383  155.5154 C   0  0  0  0  0  0  0  0  0  0  0  0
  152.2636  137.0845  155.8593 O   0  0  0  0  0  0  0  0  0  0  0  0
  149.5627  134.4673  155.3730 H   0  0  0  0  0  0  0  0  0  0  0  0
  150.7390  135.0261  156.5934 H   0  0  0  0  0  0  0  0  0  0  0  0
  151.2272  134.8583  154.8656 H   0  0  0  0  0  0  0  0  0  0  0  0
  147.5850  138.6299  154.4191 H   0  0  0  0  0  0  0  0  0  0  0  0
  149.3537  140.2106  154.7389 H   0  0  0  0  0  0  0  0  0  0  0  0
  152.8061  139.4969  155.0113 H   0  0  0  0  0  0  0  0  0  0  0  0
  151.5899  140.7357  154.9178 H   0  0  0  0  0  0  0  0  0  0  0  0
  151.0222  141.8485  156.7614 H   0  0  0  0  0  0  0  0  0  0  0  0
  150.7601  141.7862  159.2482 H   0  0  0  0  0  0  0  0  0  0  0  0
  152.3788  141.1164  159.3143 H   0  0  0  0  0  0  0  0  0  0  0  0
  153.3847  143.1788  158.5266 H   0  0  0  0  0  0  0  0  0  0  0  0
  151.1523  143.9219  160.4796 H   0  0  0  0  0  0  0  0  0  0  0  0
  152.9329  144.1462  160.6708 H   0  0  0  0  0  0  0  0  0  0  0  0
  151.2399  146.0290  159.2419 H   0  0  0  0  0  0  0  0  0  0  0  0
  152.9862  145.7812  158.8460 H   0  0  0  0  0  0  0  0  0  0  0  0
  152.1363  144.4884  156.9461 H   0  0  0  0  0  0  0  0  0  0  0  0
  150.5794  144.1672  157.8002 H   0  0  0  0  0  0  0  0  0  0  0  0
  1  2  1  0  0  0  0
  1 19  1  0  0  0  0
  1 20  1  0  0  0  0
  1 21  1  0  0  0  0
  2 17  1  0  0  0  0
  2  3  1  0  0  0  0
  3  4  2  0  0  0  0
  3  5  1  0  0  0  0
  5  6  2  0  0  0  0
  5 22  1  0  0  0  0
  6  7  1  0  0  0  0
  6 23  1  0  0  0  0
  7  8  1  0  0  0  0
  7 17  1  0  0  0  0
  8  9  1  0  0  0  0
  8 24  1  0  0  0  0
  8 25  1  0  0  0  0
  9 10  2  0  0  0  0
  9 11  1  0  0  0  0
 11 12  1  0  0  0  0
 11 26  1  0  0  0  0
 12 13  1  0  0  0  0
 12 27  1  0  0  0  0
 12 28  1  0  0  0  0
 13 16  1  0  0  0  0
 13 14  1  0  0  0  0
 13 29  1  0  0  0  0
 14 15  1  0  0  0  0
 14 30  1  0  0  0  0
 14 31  1  0  0  0  0
 15 16  1  0  0  0  0
 15 32  1  0  0  0  0
 15 33  1  0  0  0  0
 16 34  1  0  0  0  0
 16 35  1  0  0  0  0
 17 18  2  0  0  0  0
M  END
> <s_m_source_file>
AV-unprocessed.smi

> <i_m_source_file_index>
2096

> <i_lp_mmshare_version>
43012

> <i_f3d_flags>
0

> <s_epik_input>
W0NIM11uMWMoPU8pW2NIXVtjSF1uKGMxPU8pW0NIMl1DKD1PKVtOSF1bQ0gyXVtDSF0yW0NIMl1bQ0gyXVtDSDJdMg==

> <s_epik_cmdline>
J2VwaWtfcHl0aG9uJywgJy1waCcsICc3LjAnLCAnLXRuJywgJzgnLCAnLW1hJywgJzIwMCcsICctbWV0YWxfYmluZGluZycsICctaW1hZScsICc8aW5maWxlLm1hZT4nLCAnLW9tYWUnLCAnPG91dGZpbGUubWFlPic=

> <r_lp_tautomer_probability>
1

> <r_epik_Ionization_Penalty>
3.11585e-08

> <r_epik_Ionization_Penalty_Charging>
1.18568e-08

> <r_epik_Ionization_Penalty_Neutral>
1.93017e-08

> <r_epik_State_Penalty>
-0

> <r_epik_Charging_Adjusted_Penalty>
1.18568e-08

> <i_epik_Tot_Q>
0

> <i_epik_Tot_abs_Q>
0

> <r_epik_Metal_State_Penalty>
-0

> <b_epik_Metal_Only>
0

> <s_lp_Force_Field>
OPLS_2005

> <r_lp_Energy>
20.363

> <b_lp_Chiralities_Consistent>
1

> <s_lp_Variant>
AV-unprocessed.smi:2096-1

> <Gold.Version>
5.8.1

> <Gold.Id.Protein>
6NUR|6NUR_protein|mol2

> <Gold.PLP.Fitness>
38.5531

> <Gold.PLP.PLP>
-34.1032

> <Gold.PLP.part.hbond>
-2.0000

> <Gold.PLP.part.metal>
0.0000

> <Gold.PLP.part.buried>
-2.0305

> <Gold.PLP.part.nonpolar>
-29.7059

> <Gold.PLP.part.repulsive>
0.2067

> <Gold.PLP.ligand.clash>
0.0000

> <Gold.PLP.ligand.torsion>
0.6166

> <Gold.PLP.Chemscore.Hbond>
1.8720

> <Gold.PLP.Chemscore.CHOScore>
0.0000

> <Gold.PLP.Chemscore.Metal>
0.0000

> <Gold.Chemscore.Hbonds>
donor molecule, donor type, donor heavy atom, donor atom, acceptor molecule, acceptor atom, score
      P1  H  7997  8008       L1    10  0.91
      P1  H 10752 10763       L1    18  0.90

> <Gold.PLP.Chemscore.Internal.Correction>
0.0670

> <Gold.Rescore>
     Score         DG    S(hbond)    S(metal)    S(lipo)     H(rot)  DE(clash)    DE(int)     intcor
     14.33     -15.14       1.53        0.00      77.99       1.78       0.09       0.71       ----

> <Gold.Chemscore.Fitness>
14.3349

> <Gold.Chemscore.DG>
-15.1410

> <Gold.Chemscore.ZeroCoef>
-5.4800

> <Gold.Chemscore.Hbond>
1.5269

> <Gold.Chemscore.Metal>
0.0000

> <Gold.Chemscore.Lipo>
77.9880

> <Gold.Chemscore.Internal_Hbond>
0.0000

> <Gold.Chemscore.DEClash>
0.0933

> <Gold.Chemscore.DEInternal>
0.7128

> <Gold.Chemscore.Rot>
1.7827

> <Gold.Chemscore.Internal.Correction>
   9.000000E+99

> <Gold.Chemscore.Hbonds>
donor molecule, donor type, donor heavy atom, donor atom, acceptor molecule, acceptor atom, score
      P1  H  7997  8008       L1    10  0.34
      P1  H 10752 10763       L1    18  0.81

> <Gold.Chemscore.Hbond.Weighted>
-5.0999

> <Gold.Chemscore.Metal.Weighted>
-0.0000

> <Gold.Chemscore.Lipo.Weighted>
-9.1246

> <Gold.Chemscore.Internal_Hbond.Weighted>
0.0000

> <Gold.Chemscore.DEClash.Weighted>
0.0933

> <Gold.Chemscore.DEInternal.Weighted>
0.7128

> <Gold.Chemscore.Rot.Weighted>
4.5636

> <Gold.Chemscore.Internal.Correction.Weighted>
   9.000000E+99

> <Gold.Protein.RotatedTorsions>
[ 6907 6896 6895 6894 ] final  -31.41 input  -60.11 | X-H torsion
[ 7974 7965 7964 7962 ] final   51.19 input  175.53 | X-H torsion
[ 8008 7997 7996 7995 ] final  -96.09 input   59.86 | X-H torsion
[ 10167 10162 10161 10158 ] final   23.35 input  -65.29 | X-H torsion
[ 10718 10713 10712 10709 ] final  -60.75 input   66.30 | X-H torsion
[ 10763 10752 10751 10750 ] final   77.13 input  -60.55 | X-H torsion
[ 11005 11000 10999 10996 ] final  120.01 input  -57.11 | X-H torsion

> <Gold.Protein.ActiveResidues>
 VAL166  LYS551  ARG553  GLY616  TRP617  ASP618  TYR619  PRO620  LYS621  CYS622 
 ASP623  PHE694  ASN695  SER759  ASP760  ASP761  ALA762  ILE779  LEU786  VAL792 
 PHE793  MET794  SER795  GLU796  ALA797  LYS798  CYS799  TRP800  GLU811  SER814 

> <Gold.Protein.RotatedAtoms>
  151.0924  134.9924  159.8409 H   0  0  0  0  0  0  0  0  0  0  0  0  # atno 6907 bound_to 6896
  152.5430  134.2049  159.8737 H   0  0  0  0  0  0  0  0  0  0  0  0  # atno 6908 bound_to 6896
  151.2086  133.4525  159.2631 H   0  0  0  0  0  0  0  0  0  0  0  0  # atno 6909 bound_to 6896
  145.9938  139.4366  143.0057 H   0  0  0  0  0  0  0  0  0  0  0  0  # atno 7974 bound_to 7965
  154.7699  140.0474  157.1043 H   0  0  0  0  0  0  0  0  0  0  0  0  # atno 8008 bound_to 7997
  154.9833  140.3104  155.4917 H   0  0  0  0  0  0  0  0  0  0  0  0  # atno 8009 bound_to 7997
  156.2919  140.2232  156.4933 H   0  0  0  0  0  0  0  0  0  0  0  0  # atno 8010 bound_to 7997
  140.5276  143.9897  150.6448 H   0  0  0  0  0  0  0  0  0  0  0  0  # atno 10167 bound_to 10162
  156.0969  130.4191  150.0898 H   0  0  0  0  0  0  0  0  0  0  0  0  # atno 10718 bound_to 10713
  153.0775  135.4926  154.8435 H   0  0  0  0  0  0  0  0  0  0  0  0  # atno 10763 bound_to 10752
  154.7107  135.3019  154.9203 H   0  0  0  0  0  0  0  0  0  0  0  0  # atno 10764 bound_to 10752
  153.9897  135.6779  153.4806 H   0  0  0  0  0  0  0  0  0  0  0  0  # atno 10765 bound_to 10752
  139.9168  134.9632  156.7741 H   0  0  0  0  0  0  0  0  0  0  0  0  # atno 11005 bound_to 11000
  145.7591  140.9942  143.1210 LP  0  0  0  0  0  0  0  0  0  0  0  0  # atno 17320 bound_to 7965
  144.6897  139.9308  143.7471 LP  0  0  0  0  0  0  0  0  0  0  0  0  # atno 17321 bound_to 7965
  140.3263  143.3105  152.0733 LP  0  0  0  0  0  0  0  0  0  0  0  0  # atno 17342 bound_to 10162
  139.4943  144.6539  151.6614 LP  0  0  0  0  0  0  0  0  0  0  0  0  # atno 17343 bound_to 10162
  156.8895  130.9583  151.3590 LP  0  0  0  0  0  0  0  0  0  0  0  0  # atno 17370 bound_to 10713
  157.6131  130.8598  149.8984 LP  0  0  0  0  0  0  0  0  0  0  0  0  # atno 17371 bound_to 10713
  140.6597  133.9657  155.7798 LP  0  0  0  0  0  0  0  0  0  0  0  0  # atno 17394 bound_to 11000
  141.0652  134.0287  157.3604 LP  0  0  0  0  0  0  0  0  0  0  0  0  # atno 17395 bound_to 11000

$$$$
