#       Name:                AV-unprocessed.smi:486
#       Creating user name   scv26
#       Creation time:       Thu Mar 26 23:13:16 2020


#       File generated by GOLD software.
#

@<TRIPOS>MOLECULE
AV-unprocessed.smi:486
    50    52     1
SMALL
NO_CHARGES


@<TRIPOS>ATOM
      1 ****        -7.8260   1.1785  -0.0875 C.3            1 S1                 0.0000
      2 ****        -6.9018   2.1892  -0.4633 O.3            1 S1                 0.0000
      3 ****        -5.5575   1.8870  -0.4220 C.ar           1 S1                 0.0000
      4 ****        -4.6587   2.9061  -0.7932 C.ar           1 S1                 0.0000
      5 ****        -3.2690   2.6822  -0.7776 C.ar           1 S1                 0.0000
      6 ****        -2.7437   1.4344  -0.3890 C.ar           1 S1                 0.0000
      7 ****        -1.3717   1.3008  -0.4001 O.3            1 S1                 0.0000
      8 ****        -0.8123   0.0593   0.0080 C.3            1 S1                 0.0000
      9 ****         0.7186   0.1500  -0.0893 C.3            1 S1                 0.0000
     10 ****         1.2007   0.8230   1.0569 O.3            1 S1                 0.0000
     11 ****         1.3710  -1.2445  -0.1715 C.3            1 S1                 0.0000
     12 ****         2.8349  -1.1852  -0.3147 N.pl3          1 S1                 0.0000
     13 ****         3.5974  -1.0410  -1.4360 C.2            1 S1                 0.0000
     14 ****         3.1036  -0.9019  -2.8367 C.3            1 S1                 0.0000
     15 ****         4.9020  -1.0498  -1.0427 N.pl3          1 S1                 1.0000
     16 ****         4.9761  -1.1982   0.3427 C.ar           1 S1                 0.0000
     17 ****         6.0754  -1.2610   1.1934 C.ar           1 S1                 0.0000
     18 ****         5.8033  -1.4127   2.5688 C.ar           1 S1                 0.0000
     19 ****         4.4808  -1.4951   3.0507 C.ar           1 S1                 0.0000
     20 ****         3.3743  -1.4323   2.1781 C.ar           1 S1                 0.0000
     21 ****         3.6514  -1.2839   0.8189 C.ar           1 S1                 0.0000
     22 ****        -3.6436   0.4057  -0.0160 C.ar           1 S1                 0.0000
     23 ****        -5.0343   0.6293  -0.0331 C.ar           1 S1                 0.0000
     24 ****        -8.8395   1.5715  -0.1647 H              1 S1                 0.0000
     25 ****        -7.6736   0.8620   0.9451 H              1 S1                 0.0000
     26 ****        -7.7576   0.3114  -0.7457 H              1 S1                 0.0000
     27 ****        -5.0382   3.8720  -1.0929 H              1 S1                 0.0000
     28 ****        -2.5991   3.4788  -1.0662 H              1 S1                 0.0000
     29 ****        -1.1207  -0.2103   1.0200 H              1 S1                 0.0000
     30 ****        -1.1708  -0.7183  -0.6686 H              1 S1                 0.0000
     31 ****         0.9942   0.7224  -0.9759 H              1 S1                 0.0000
     32 ****         0.8001   1.6788   1.0903 H              1 S1                 0.0000
     33 ****         1.1152  -1.8542   0.6953 H              1 S1                 0.0000
     34 ****         0.9877  -1.7816  -1.0399 H              1 S1                 0.0000
     35 ****         3.9344  -0.7309  -3.5217 H              1 S1                 0.0000
     36 ****         2.4144  -0.0608  -2.9119 H              1 S1                 0.0000
     37 ****         2.5821  -1.8091  -3.1422 H              1 S1                 0.0000
     38 ****         7.0892  -1.1959   0.8263 H              1 S1                 0.0000
     39 ****         6.6252  -1.4645   3.2683 H              1 S1                 0.0000
     40 ****         4.3106  -1.6070   4.1116 H              1 S1                 0.0000
     41 ****         2.3659  -1.4898   2.5600 H              1 S1                 0.0000
     42 ****        -3.2928  -0.5685   0.2882 H              1 S1                 0.0000
     43 ****        -5.6808  -0.1840   0.2590 H              1 S1                 0.0000
     44 ****         5.6841  -0.9599  -1.6784 H              1 S1                 0.0000
     45 ****        -7.0499   2.9684   0.1457 LP             1 S1                 0.0000
     46 ****        -7.1178   2.4547  -1.4029 LP             1 S1                 0.0000
     47 ****        -1.0007   2.0057   0.2044 LP             1 S1                 0.0000
     48 ****        -1.0653   1.4699  -1.3369 LP             1 S1                 0.0000
     49 ****         2.1946   0.9171   1.0003 LP             1 S1                 0.0000
     50 ****         0.9611   0.3054   1.8783 LP             1 S1                 0.0000
@<TRIPOS>BOND
    1    1    2 1     
    2    1   24 1     
    3    1   25 1     
    4    1   26 1     
    5    2    3 1     
    6    3   23 ar    
    7    3    4 ar    
    8    4    5 ar    
    9    4   27 1     
   10    5    6 ar    
   11    5   28 1     
   12    6    7 1     
   13    6   22 ar    
   14    7    8 1     
   15    8    9 1     
   16    8   29 1     
   17    8   30 1     
   18    9   10 1     
   19    9   11 1     
   20    9   31 1     
   21   10   32 1     
   22   11   12 1     
   23   11   33 1     
   24   11   34 1     
   25   12   21 1     
   26   12   13 1     
   27   13   14 1     
   28   13   15 2     
   29   14   35 1     
   30   14   36 1     
   31   14   37 1     
   32   15   16 1     
   33   15   44 1     
   34   16   21 ar    
   35   16   17 ar    
   36   17   18 ar    
   37   17   38 1     
   38   18   19 ar    
   39   18   39 1     
   40   19   20 ar    
   41   19   40 1     
   42   20   21 ar    
   43   20   41 1     
   44   22   23 ar    
   45   22   42 1     
   46   23   43 1     
   47    2   45 1     
   48    2   46 1     
   49    7   47 1     
   50    7   48 1     
   51   10   49 1     
   52   10   50 1     
@<TRIPOS>SUBSTRUCTURE
      1 S1             1
@<TRIPOS>SET
LONE_PAIRS      STATIC     ATOMS    <user>   **** ""
6 45 46 47 48 49 50
DONOR_HYDROGENS      STATIC     ATOMS    <user>   **** ""
2 32 44
ATOM$BLUE        STATIC     ATOMS    COLORGROUP SYSTEM
6 45 46 47 48 49 50
ATOM$RED        STATIC     ATOMS    COLORGROUP SYSTEM
2 32 44
