AV-unprocessed.smi:255|AV-procd|sdf|1954|dock5
  -GOLD-   2262021 93D 1   1.00000     0.00000
 Structure written by MMmdl.
 44 47  0  0  0  0  0  0  0  0  1 V2000
  141.7908  134.1626  154.1188 O   0  0  0  0  0  0  0  0  0  0  0  0
  142.6241  134.9372  153.2832 C   0  0  0  0  0  0  0  0  0  0  0  0
  143.6537  134.0333  152.5760 C   0  0  1  0  0  0  0  0  0  0  0  0
  143.1293  133.4252  151.2714 C   0  0  0  0  0  0  0  0  0  0  0  0
  144.4118  133.0764  150.5220 C   0  0  2  0  0  0  0  0  0  0  0  0
  144.8724  131.9004  150.9508 F   0  0  0  0  0  0  0  0  0  0  0  0
  145.3877  134.1820  150.9374 C   0  0  0  0  0  0  0  0  0  0  0  0
  144.8647  134.7505  152.1766 N   0  0  0  0  0  0  0  0  0  0  0  0
  145.7825  135.1616  153.0915 C   0  0  0  0  0  0  0  0  0  0  0  0
  146.5103  134.2442  153.7828 N   0  0  0  0  0  0  0  0  0  0  0  0
  147.4179  134.6358  154.6814 C   0  0  0  0  0  0  0  0  0  0  0  0
  147.7543  135.8754  155.0408 N   0  0  0  0  0  0  0  0  0  0  0  0
  147.0307  136.8032  154.3519 C   0  0  0  0  0  0  0  0  0  0  0  0
  146.0325  136.5360  153.3721 C   0  0  0  0  0  0  0  0  0  0  0  0
  145.5012  137.7325  152.9039 N   0  0  0  0  0  0  0  0  0  0  0  0
  146.1520  138.6518  153.5627 C   0  0  0  0  0  0  0  0  0  0  0  0
  147.0973  138.1827  154.4466 N   0  0  0  0  0  0  0  0  0  0  0  0
  147.9617  138.9783  155.3056 C   0  0  0  0  0  0  0  0  0  0  0  0
  149.1538  139.6281  154.5614 C   0  0  2  0  0  0  0  0  0  0  0  0
  148.6685  140.3020  153.4147 O   0  0  0  0  0  0  0  0  0  0  0  0
  150.2017  138.5998  154.1289 C   0  0  0  0  0  0  0  0  0  0  0  0
  151.3872  138.8862  155.0425 C   0  0  0  0  0  0  0  0  0  0  0  0
  151.3216  140.2912  155.2054 O   0  0  0  0  0  0  0  0  0  0  0  0
  149.9579  140.6201  155.4257 C   0  0  0  0  0  0  0  0  0  0  0  0
  143.9431  133.2192  153.2429 H   0  0  0  0  0  0  0  0  0  0  0  0
  144.2780  133.0033  149.4426 H   0  0  0  0  0  0  0  0  0  0  0  0
  142.1484  133.2895  154.1723 H   0  0  0  0  0  0  0  0  0  0  0  0
  142.0106  135.4705  152.5565 H   0  0  0  0  0  0  0  0  0  0  0  0
  143.1126  135.6904  153.9007 H   0  0  0  0  0  0  0  0  0  0  0  0
  142.4791  132.5647  151.4320 H   0  0  0  0  0  0  0  0  0  0  0  0
  142.5680  134.1699  150.7051 H   0  0  0  0  0  0  0  0  0  0  0  0
  146.4027  133.7963  151.0463 H   0  0  0  0  0  0  0  0  0  0  0  0
  145.4072  134.9682  150.1820 H   0  0  0  0  0  0  0  0  0  0  0  0
  147.9513  133.8423  155.1839 H   0  0  0  0  0  0  0  0  0  0  0  0
  145.9573  139.7047  153.4193 H   0  0  0  0  0  0  0  0  0  0  0  0
  147.3521  139.7484  155.7801 H   0  0  0  0  0  0  0  0  0  0  0  0
  148.3240  138.3387  156.1117 H   0  0  0  0  0  0  0  0  0  0  0  0
  149.1620  140.0091  152.6639 H   0  0  0  0  0  0  0  0  0  0  0  0
  149.8583  137.5679  154.2102 H   0  0  0  0  0  0  0  0  0  0  0  0
  150.5058  138.7607  153.0931 H   0  0  0  0  0  0  0  0  0  0  0  0
  151.2658  138.3961  156.0099 H   0  0  0  0  0  0  0  0  0  0  0  0
  152.3382  138.5724  154.6114 H   0  0  0  0  0  0  0  0  0  0  0  0
  149.7560  141.6668  155.1947 H   0  0  0  0  0  0  0  0  0  0  0  0
  149.7545  140.4719  156.4866 H   0  0  0  0  0  0  0  0  0  0  0  0
  1  2  1  0  0  0  0
  1 27  1  0  0  0  0
  2  3  1  0  0  0  0
  2 28  1  0  0  0  0
  2 29  1  0  0  0  0
  3 25  1  0  0  0  0
  3  8  1  0  0  0  0
  3  4  1  0  0  0  0
  4  5  1  0  0  0  0
  4 30  1  0  0  0  0
  4 31  1  0  0  0  0
  5 26  1  0  0  0  0
  5  6  1  0  0  0  0
  5  7  1  0  0  0  0
  7  8  1  0  0  0  0
  7 32  1  0  0  0  0
  7 33  1  0  0  0  0
  8  9  1  0  0  0  0
  9 14  1  0  0  0  0
  9 10  2  0  0  0  0
 10 11  1  0  0  0  0
 11 12  2  0  0  0  0
 11 34  1  0  0  0  0
 12 13  1  0  0  0  0
 13 17  1  0  0  0  0
 13 14  2  0  0  0  0
 14 15  1  0  0  0  0
 15 16  2  0  0  0  0
 16 17  1  0  0  0  0
 16 35  1  0  0  0  0
 17 18  1  0  0  0  0
 18 19  1  0  0  0  0
 18 36  1  0  0  0  0
 18 37  1  0  0  0  0
 19 24  1  0  0  0  0
 19 20  1  0  0  0  0
 19 21  1  0  0  0  0
 20 38  1  0  0  0  0
 21 22  1  0  0  0  0
 21 39  1  0  0  0  0
 21 40  1  0  0  0  0
 22 23  1  0  0  0  0
 22 41  1  0  0  0  0
 22 42  1  0  0  0  0
 23 24  1  0  0  0  0
 24 43  1  0  0  0  0
 24 44  1  0  0  0  0
M  END
> <s_m_source_file>
AV-unprocessed.smi

> <i_m_source_file_index>
255

> <i_lp_mmshare_version>
43012

> <i_f3d_flags>
0

> <s_epik_input>
W09IXVtDSDJdW0NAQEhdMVtDSDJdW0NASF0oRilbQ0gyXU4xYyhuW2NIXW4yKWMoYzIzKW5bY0hdbjNbQ0gyXVtDQEBdNChbT0hdKVtDSDJdW0NIMl1PW0NIMl00

> <s_epik_cmdline>
J2VwaWtfcHl0aG9uJywgJy1waCcsICc3LjAnLCAnLXRuJywgJzgnLCAnLW1hJywgJzIwMCcsICctbWV0YWxfYmluZGluZycsICctaW1hZScsICc8aW5maWxlLm1hZT4nLCAnLW9tYWUnLCAnPG91dGZpbGUubWFlPic=

> <r_lp_tautomer_probability>
1

> <r_epik_Ionization_Penalty>
0.0058098

> <r_epik_Ionization_Penalty_Charging>
0

> <r_epik_Ionization_Penalty_Neutral>
0.0058098

> <r_epik_State_Penalty>
0.00411166

> <r_epik_Charging_Adjusted_Penalty>
0.00411166

> <i_epik_Tot_Q>
0

> <i_epik_Tot_abs_Q>
0

> <r_epik_Metal_State_Penalty>
-0

> <b_epik_Metal_Only>
0

> <s_lp_Force_Field>
OPLS_2005

> <r_lp_Energy>
48.4918

> <b_lp_Chiralities_Consistent>
1

> <s_lp_Variant>
AV-unprocessed.smi:255-6

> <Gold.Version>
5.8.1

> <Gold.Id.Protein>
6NUR|6NUR_protein|mol2

> <Gold.PLP.Fitness>
44.1739

> <Gold.PLP.PLP>
-31.0143

> <Gold.PLP.part.hbond>
-3.6970

> <Gold.PLP.part.metal>
0.0000

> <Gold.PLP.part.buried>
-4.1984

> <Gold.PLP.part.nonpolar>
-25.5019

> <Gold.PLP.part.repulsive>
0.5339

> <Gold.PLP.ligand.clash>
0.0000

> <Gold.PLP.ligand.torsion>
0.7446

> <Gold.PLP.Chemscore.Hbond>
3.9750

> <Gold.PLP.Chemscore.CHOScore>
0.7917

> <Gold.PLP.Chemscore.Metal>
0.0000

> <Gold.Chemscore.Hbonds>
donor molecule, donor type, donor heavy atom, donor atom, acceptor molecule, acceptor atom, score
      L1  H     1    27       P1 10957  1.00
      L1  H    20    38       P1  7957  1.00
      P1  H  7989  7998       L1    23  1.00
      P1  H 11000 11005       L1     1  0.93
      L1  C    16    35       P1 10175  0.70

> <Gold.PLP.Chemscore.Internal.Correction>
0.3486

> <Gold.Rescore>
     Score         DG    S(hbond)    S(metal)    S(lipo)     H(rot)  DE(clash)    DE(int)     intcor
     12.22     -14.19       2.92        0.00      63.88       3.33       1.16       0.80       ----

> <Gold.Chemscore.Fitness>
12.2197

> <Gold.Chemscore.DG>
-14.1869

> <Gold.Chemscore.ZeroCoef>
-5.4800

> <Gold.Chemscore.Hbond>
2.9193

> <Gold.Chemscore.Metal>
0.0000

> <Gold.Chemscore.Lipo>
63.8837

> <Gold.Chemscore.Internal_Hbond>
0.0000

> <Gold.Chemscore.DEClash>
1.1632

> <Gold.Chemscore.DEInternal>
0.8041

> <Gold.Chemscore.Rot>
3.3273

> <Gold.Chemscore.Internal.Correction>
   9.000000E+99

> <Gold.Chemscore.Hbonds>
donor molecule, donor type, donor heavy atom, donor atom, acceptor molecule, acceptor atom, score
      L1  H     1    27       P1 10957  1.00
      L1  H    20    38       P1  7957  0.95
      P1  H  7989  7998       L1    23  0.15
      P1  H 11000 11005       L1     1  0.19

> <Gold.Chemscore.Hbond.Weighted>
-9.7505

> <Gold.Chemscore.Metal.Weighted>
-0.0000

> <Gold.Chemscore.Lipo.Weighted>
-7.4744

> <Gold.Chemscore.Internal_Hbond.Weighted>
0.0000

> <Gold.Chemscore.DEClash.Weighted>
1.1632

> <Gold.Chemscore.DEInternal.Weighted>
0.8041

> <Gold.Chemscore.Rot.Weighted>
8.5179

> <Gold.Chemscore.Internal.Correction.Weighted>
   9.000000E+99

> <Gold.Protein.RotatedTorsions>
[ 6907 6896 6895 6894 ] final  157.05 input  -60.11 | X-H torsion
[ 7974 7965 7964 7962 ] final  -64.38 input  175.53 | X-H torsion
[ 8008 7997 7996 7995 ] final -160.19 input   59.86 | X-H torsion
[ 10167 10162 10161 10158 ] final   30.59 input  -65.29 | X-H torsion
[ 10718 10713 10712 10709 ] final   37.75 input   66.30 | X-H torsion
[ 10763 10752 10751 10750 ] final  158.02 input  -60.55 | X-H torsion
[ 11005 11000 10999 10996 ] final   13.50 input  -57.11 | X-H torsion

> <Gold.Protein.ActiveResidues>
 VAL166  LYS551  ARG553  GLY616  TRP617  ASP618  TYR619  PRO620  LYS621  CYS622 
 ASP623  PHE694  ASN695  SER759  ASP760  ASP761  ALA762  ILE779  LEU786  VAL792 
 PHE793  MET794  SER795  GLU796  ALA797  LYS798  CYS799  TRP800  GLU811  SER814 

> <Gold.Protein.RotatedAtoms>
  152.0208  133.3898  159.4257 H   0  0  0  0  0  0  0  0  0  0  0  0  # atno 6907 bound_to 6896
  150.6890  134.3628  159.4967 H   0  0  0  0  0  0  0  0  0  0  0  0  # atno 6908 bound_to 6896
  152.1401  134.9068  160.0605 H   0  0  0  0  0  0  0  0  0  0  0  0  # atno 6909 bound_to 6896
  145.7675  140.8830  143.0398 H   0  0  0  0  0  0  0  0  0  0  0  0  # atno 7974 bound_to 7965
  155.7738  140.0855  157.2094 H   0  0  0  0  0  0  0  0  0  0  0  0  # atno 8008 bound_to 7997
  154.3994  140.1520  156.3030 H   0  0  0  0  0  0  0  0  0  0  0  0  # atno 8009 bound_to 7997
  155.8721  140.3425  155.5831 H   0  0  0  0  0  0  0  0  0  0  0  0  # atno 8010 bound_to 7997
  140.4664  144.0829  150.6225 H   0  0  0  0  0  0  0  0  0  0  0  0  # atno 10167 bound_to 10162
  157.3506  130.7596  149.6976 H   0  0  0  0  0  0  0  0  0  0  0  0  # atno 10718 bound_to 10713
  154.2094  135.2786  155.2963 H   0  0  0  0  0  0  0  0  0  0  0  0  # atno 10763 bound_to 10752
  154.5790  135.5595  153.7171 H   0  0  0  0  0  0  0  0  0  0  0  0  # atno 10764 bound_to 10752
  153.0068  135.6340  154.2233 H   0  0  0  0  0  0  0  0  0  0  0  0  # atno 10765 bound_to 10752
  140.4800  134.0945  155.7749 H   0  0  0  0  0  0  0  0  0  0  0  0  # atno 11005 bound_to 11000
  144.6819  139.9808  143.7483 LP  0  0  0  0  0  0  0  0  0  0  0  0  # atno 17320 bound_to 7965
  146.0203  139.3245  143.0817 LP  0  0  0  0  0  0  0  0  0  0  0  0  # atno 17321 bound_to 7965
  140.4031  143.2694  151.9924 LP  0  0  0  0  0  0  0  0  0  0  0  0  # atno 17342 bound_to 10162
  139.4812  144.5980  151.7655 LP  0  0  0  0  0  0  0  0  0  0  0  0  # atno 17343 bound_to 10162
  155.9721  130.4141  150.4118 LP  0  0  0  0  0  0  0  0  0  0  0  0  # atno 17370 bound_to 10713
  157.2180  131.0476  151.2562 LP  0  0  0  0  0  0  0  0  0  0  0  0  # atno 17371 bound_to 10713
  141.1536  133.8924  157.2036 LP  0  0  0  0  0  0  0  0  0  0  0  0  # atno 17394 bound_to 11000
  139.9832  135.0091  156.9800 LP  0  0  0  0  0  0  0  0  0  0  0  0  # atno 17395 bound_to 11000

$$$$
