AV-unprocessed.smi:753|AV-procd|sdf|3605|dock5
  -GOLD-   22720 1 03D 1   1.00000     0.00000
 Structure written by MMmdl.
 44 46  0  0  0  0  0  0  0  0  2 V2000
  151.6991  143.1842  158.5630 C   0  0  0  0  0  0  0  0  0  0  0  0
  151.2356  142.0683  157.6509 C   0  0  0  0  0  0  0  0  0  0  0  0
  151.6408  140.7290  157.8346 C   0  0  0  0  0  0  0  0  0  0  0  0
  151.1758  139.7404  156.9430 C   0  0  0  0  0  0  0  0  0  0  0  0
  150.3140  140.1101  155.8867 C   0  0  0  0  0  0  0  0  0  0  0  0
  149.8226  139.0784  154.8863 C   0  0  0  0  0  0  0  0  0  0  0  0
  148.2888  139.0415  154.7392 C   0  0  0  0  0  0  0  0  0  0  0  0
  147.8452  138.0839  153.7289 N   0  0  0  0  0  0  0  0  0  0  0  0
  146.5666  137.8154  153.4104 C   0  0  0  0  0  0  0  0  0  0  0  0
  145.6041  138.3691  153.9387 O   0  0  0  0  0  0  0  0  0  0  0  0
  146.4108  136.8936  152.4445 N   0  0  0  0  0  0  0  0  0  0  0  0
  145.1576  136.3874  151.8788 C   0  0  2  0  0  0  0  0  0  0  0  0
  144.1942  135.9167  152.9912 C   0  0  0  0  0  0  0  0  0  0  0  0
  143.9380  134.4417  152.6311 C   0  0  2  0  0  0  0  0  0  0  0  0
  145.2048  133.6127  152.9164 C   0  0  0  0  0  0  0  0  0  0  0  0
  146.1520  134.0343  151.7774 C   0  0  0  0  0  0  0  0  0  0  0  0
  145.3241  135.1010  151.0281 C   0  0  1  0  0  0  0  0  0  0  0  0
  143.9280  134.4930  151.1091 C   0  0  0  0  0  0  0  0  0  0  0  0
  149.9349  141.4633  155.7584 C   0  0  0  0  0  0  0  0  0  0  0  0
  150.4045  142.3808  156.6313 N   0  3  0  0  0  0  0  0  0  0  0  0
  152.5990  142.8950  159.1066 H   0  0  0  0  0  0  0  0  0  0  0  0
  150.9224  143.4254  159.2889 H   0  0  0  0  0  0  0  0  0  0  0  0
  151.9257  144.0833  157.9890 H   0  0  0  0  0  0  0  0  0  0  0  0
  152.3038  140.4609  158.6442 H   0  0  0  0  0  0  0  0  0  0  0  0
  151.4881  138.7133  157.0646 H   0  0  0  0  0  0  0  0  0  0  0  0
  150.2790  139.2722  153.9146 H   0  0  0  0  0  0  0  0  0  0  0  0
  150.1819  138.0971  155.1981 H   0  0  0  0  0  0  0  0  0  0  0  0
  147.8413  138.7549  155.6911 H   0  0  0  0  0  0  0  0  0  0  0  0
  147.9062  140.0386  154.5145 H   0  0  0  0  0  0  0  0  0  0  0  0
  148.5671  137.5761  153.2385 H   0  0  0  0  0  0  0  0  0  0  0  0
  147.2563  136.5189  152.0388 H   0  0  0  0  0  0  0  0  0  0  0  0
  144.6685  137.1686  151.2939 H   0  0  0  0  0  0  0  0  0  0  0  0
  144.6052  136.0246  153.9961 H   0  0  0  0  0  0  0  0  0  0  0  0
  143.2653  136.4874  152.9550 H   0  0  0  0  0  0  0  0  0  0  0  0
  143.0353  134.0323  153.0854 H   0  0  0  0  0  0  0  0  0  0  0  0
  145.6211  133.8236  153.9020 H   0  0  0  0  0  0  0  0  0  0  0  0
  144.9943  132.5437  152.8637 H   0  0  0  0  0  0  0  0  0  0  0  0
  147.1125  134.3993  152.1412 H   0  0  0  0  0  0  0  0  0  0  0  0
  146.3571  133.1853  151.1241 H   0  0  0  0  0  0  0  0  0  0  0  0
  145.6779  135.2898  150.0140 H   0  0  0  0  0  0  0  0  0  0  0  0
  143.8541  133.5089  150.6428 H   0  0  0  0  0  0  0  0  0  0  0  0
  143.1491  135.1407  150.7027 H   0  0  0  0  0  0  0  0  0  0  0  0
  149.2884  141.8396  154.9793 H   0  0  0  0  0  0  0  0  0  0  0  0
  150.1233  143.3542  156.5121 H   0  0  0  0  0  0  0  0  0  0  0  0
  1  2  1  0  0  0  0
  1 21  1  0  0  0  0
  1 22  1  0  0  0  0
  1 23  1  0  0  0  0
  2 20  1  0  0  0  0
  2  3  2  0  0  0  0
  3  4  1  0  0  0  0
  3 24  1  0  0  0  0
  4  5  2  0  0  0  0
  4 25  1  0  0  0  0
  5  6  1  0  0  0  0
  5 19  1  0  0  0  0
  6  7  1  0  0  0  0
  6 26  1  0  0  0  0
  6 27  1  0  0  0  0
  7  8  1  0  0  0  0
  7 28  1  0  0  0  0
  7 29  1  0  0  0  0
  8  9  1  0  0  0  0
  8 30  1  0  0  0  0
  9 10  2  0  0  0  0
  9 11  1  0  0  0  0
 11 12  1  0  0  0  0
 11 31  1  0  0  0  0
 12 17  1  0  0  0  0
 12 13  1  0  0  0  0
 12 32  1  0  0  0  0
 13 14  1  0  0  0  0
 13 33  1  0  0  0  0
 13 34  1  0  0  0  0
 14 18  1  0  0  0  0
 14 15  1  0  0  0  0
 14 35  1  0  0  0  0
 15 16  1  0  0  0  0
 15 36  1  0  0  0  0
 15 37  1  0  0  0  0
 16 17  1  0  0  0  0
 16 38  1  0  0  0  0
 16 39  1  0  0  0  0
 17 18  1  0  0  0  0
 17 40  1  0  0  0  0
 18 41  1  0  0  0  0
 18 42  1  0  0  0  0
 19 20  2  0  0  0  0
 19 43  1  0  0  0  0
 20 44  1  0  0  0  0
M  CHG  1  20   1
M  END
> <s_m_source_file>
AV-unprocessed.smi

> <i_m_source_file_index>
753

> <i_lp_mmshare_version>
43012

> <i_f3d_flags>
0

> <s_epik_input>
W0NIM11jMVtjSF1bY0hdYyhbY0hdbjEpW0NIMl1bQ0gyXVtOSF1DKD1PKVtOSF1bQ0BIXShbQ0gyXVtDQEBIXTIzKVtDQEBIXShbQ0gyXTMpW0NIMl1bQ0gyXTI=

> <s_epik_cmdline>
J2VwaWtfcHl0aG9uJywgJy1waCcsICc3LjAnLCAnLXRuJywgJzgnLCAnLW1hJywgJzIwMCcsICctbWV0YWxfYmluZGluZycsICctaW1hZScsICc8aW5maWxlLm1hZT4nLCAnLW9tYWUnLCAnPG91dGZpbGUubWFlPic=

> <r_epik_Ionization_Penalty>
1.41708

> <r_epik_Ionization_Penalty_Charging>
1.41702

> <r_epik_Ionization_Penalty_Neutral>
5.73163e-05

> <r_epik_State_Penalty>
1.50048

> <r_epik_Charging_Adjusted_Penalty>
2.9175

> <i_epik_Tot_Q>
1

> <i_epik_Tot_abs_Q>
1

> <r_epik_Metal_State_Penalty>
1.55295

> <b_epik_Metal_Only>
0

> <s_lp_Force_Field>
OPLS_2005

> <r_lp_Energy>
59.6045

> <b_lp_Chiralities_Consistent>
1

> <s_lp_Variant>
AV-unprocessed.smi:753-7

> <Gold.Version>
5.8.1

> <Gold.Id.Protein>
6NUR|6NUR_protein|mol2

> <Gold.PLP.Fitness>
46.5110

> <Gold.PLP.PLP>
-35.1687

> <Gold.PLP.part.hbond>
-3.0000

> <Gold.PLP.part.metal>
0.0000

> <Gold.PLP.part.buried>
-4.2710

> <Gold.PLP.part.nonpolar>
-29.1120

> <Gold.PLP.part.repulsive>
0.3625

> <Gold.PLP.ligand.clash>
0.0000

> <Gold.PLP.ligand.torsion>
0.1504

> <Gold.PLP.Chemscore.Hbond>
3.8720

> <Gold.PLP.Chemscore.CHOScore>
0.0000

> <Gold.PLP.Chemscore.Metal>
0.0000

> <Gold.Chemscore.Hbonds>
donor molecule, donor type, donor heavy atom, donor atom, acceptor molecule, acceptor atom, score
      L1  H     8    30       P1  7948  0.93
      L1  H    11    31       P1  7948  1.00
      L1  H    20    44       P1  8028  1.98

> <Gold.PLP.Chemscore.Internal.Correction>
0.0271

> <Gold.Rescore>
     Score         DG    S(hbond)    S(metal)    S(lipo)     H(rot)  DE(clash)    DE(int)     intcor
     21.87     -22.01       2.86        0.00      92.55       1.50       0.07       0.06       ----

> <Gold.Chemscore.Fitness>
21.8724

> <Gold.Chemscore.DG>
-22.0065

> <Gold.Chemscore.ZeroCoef>
-5.4800

> <Gold.Chemscore.Hbond>
2.8577

> <Gold.Chemscore.Metal>
0.0000

> <Gold.Chemscore.Lipo>
92.5512

> <Gold.Chemscore.Internal_Hbond>
0.0000

> <Gold.Chemscore.DEClash>
0.0692

> <Gold.Chemscore.DEInternal>
0.0649

> <Gold.Chemscore.Rot>
1.5027

> <Gold.Chemscore.Internal.Correction>
   9.000000E+99

> <Gold.Chemscore.Hbonds>
donor molecule, donor type, donor heavy atom, donor atom, acceptor molecule, acceptor atom, score
      L1  H     8    30       P1  7948  0.90
      L1  H    11    31       P1  7948  0.99
      L1  H    20    44       P1  8028  0.88

> <Gold.Chemscore.Hbond.Weighted>
-9.5448

> <Gold.Chemscore.Metal.Weighted>
-0.0000

> <Gold.Chemscore.Lipo.Weighted>
-10.8285

> <Gold.Chemscore.Internal_Hbond.Weighted>
0.0000

> <Gold.Chemscore.DEClash.Weighted>
0.0692

> <Gold.Chemscore.DEInternal.Weighted>
0.0649

> <Gold.Chemscore.Rot.Weighted>
3.8468

> <Gold.Chemscore.Internal.Correction.Weighted>
   9.000000E+99

> <Gold.Protein.RotatedTorsions>
[ 6907 6896 6895 6894 ] final  -40.03 input  -60.11 | X-H torsion
[ 7974 7965 7964 7962 ] final   39.57 input  175.53 | X-H torsion
[ 8008 7997 7996 7995 ] final -175.96 input   59.86 | X-H torsion
[ 10167 10162 10161 10158 ] final   88.27 input  -65.29 | X-H torsion
[ 10718 10713 10712 10709 ] final   87.91 input   66.30 | X-H torsion
[ 10763 10752 10751 10750 ] final  170.59 input  -60.55 | X-H torsion
[ 11005 11000 10999 10996 ] final  121.61 input  -57.11 | X-H torsion

> <Gold.Protein.ActiveResidues>
 VAL166  LYS551  ARG553  GLY616  TRP617  ASP618  TYR619  PRO620  LYS621  CYS622 
 ASP623  PHE694  ASN695  SER759  ASP760  ASP761  ALA762  ILE779  LEU786  VAL792 
 PHE793  MET794  SER795  GLU796  ALA797  LYS798  CYS799  TRP800  GLU811  SER814 

> <Gold.Protein.RotatedAtoms>
  150.9832  134.9183  159.7856 H   0  0  0  0  0  0  0  0  0  0  0  0  # atno 6907 bound_to 6896
  152.5228  134.3382  159.9217 H   0  0  0  0  0  0  0  0  0  0  0  0  # atno 6908 bound_to 6896
  151.3388  133.3929  159.2704 H   0  0  0  0  0  0  0  0  0  0  0  0  # atno 6909 bound_to 6896
  146.0974  139.5636  142.9436 H   0  0  0  0  0  0  0  0  0  0  0  0  # atno 7974 bound_to 7965
  155.9890  140.1197  157.0656 H   0  0  0  0  0  0  0  0  0  0  0  0  # atno 8008 bound_to 7997
  154.4205  140.1129  156.5608 H   0  0  0  0  0  0  0  0  0  0  0  0  # atno 8009 bound_to 7997
  155.6368  140.3473  155.4703 H   0  0  0  0  0  0  0  0  0  0  0  0  # atno 8010 bound_to 7997
  139.8689  144.6503  150.8972 H   0  0  0  0  0  0  0  0  0  0  0  0  # atno 10167 bound_to 10162
  157.6944  131.0274  150.3194 H   0  0  0  0  0  0  0  0  0  0  0  0  # atno 10718 bound_to 10713
  154.3998  135.2755  155.2103 H   0  0  0  0  0  0  0  0  0  0  0  0  # atno 10763 bound_to 10752
  154.4134  135.6017  153.5970 H   0  0  0  0  0  0  0  0  0  0  0  0  # atno 10764 bound_to 10752
  152.9831  135.5955  154.4264 H   0  0  0  0  0  0  0  0  0  0  0  0  # atno 10765 bound_to 10752
  139.9233  134.9639  156.7984 H   0  0  0  0  0  0  0  0  0  0  0  0  # atno 11005 bound_to 11000
  145.5922  141.0368  143.2064 LP  0  0  0  0  0  0  0  0  0  0  0  0  # atno 17320 bound_to 7965
  144.7406  139.7461  143.7312 LP  0  0  0  0  0  0  0  0  0  0  0  0  # atno 17321 bound_to 7965
  140.7764  143.3680  151.1702 LP  0  0  0  0  0  0  0  0  0  0  0  0  # atno 17342 bound_to 10162
  139.7302  143.9084  152.3017 LP  0  0  0  0  0  0  0  0  0  0  0  0  # atno 17343 bound_to 10162
  156.3684  130.3859  149.7195 LP  0  0  0  0  0  0  0  0  0  0  0  0  # atno 17370 bound_to 10713
  156.4618  130.7955  151.2975 LP  0  0  0  0  0  0  0  0  0  0  0  0  # atno 17371 bound_to 10713
  140.6409  133.9819  155.7707 LP  0  0  0  0  0  0  0  0  0  0  0  0  # atno 17394 bound_to 11000
  141.0771  134.0118  157.3441 LP  0  0  0  0  0  0  0  0  0  0  0  0  # atno 17395 bound_to 11000

$$$$
