AV-unprocessed.smi:2922|AV-procd|sdf|11199|dock2
  -GOLD-   2272016 93D 1   1.00000     0.00000
 Structure written by MMmdl.
 30 31  0  0  0  0  0  0  0  0  1 V2000
  148.6859  138.7658  152.3356 N   0  0  0  0  0  0  0  0  0  0  0  0
  148.6692  139.1263  153.6221 C   0  0  0  0  0  0  0  0  0  0  0  0
  148.5396  138.3012  154.5246 O   0  0  0  0  0  0  0  0  0  0  0  0
  148.7922  140.6236  153.9437 C   0  0  1  0  0  0  0  0  0  0  0  0
  147.6547  141.1850  154.8184 C   0  0  0  0  0  0  0  0  0  0  0  0
  148.3673  141.7131  156.0505 C   0  0  0  0  0  0  0  0  0  0  0  0
  149.7779  141.9800  155.5331 C   0  0  1  0  0  0  0  0  0  0  0  0
  150.8571  142.0259  156.6225 C   0  0  0  0  0  0  0  0  0  0  0  0
  150.5335  142.9924  157.6612 N   0  0  0  0  0  0  0  0  0  0  0  0
  151.1222  143.0150  158.9110 C   0  0  0  0  0  0  0  0  0  0  0  0
  151.8915  141.9787  159.2680 N   0  0  0  0  0  0  0  0  0  0  0  0
  152.4562  142.0264  160.4945 C   0  0  0  0  0  0  0  0  0  0  0  0
  152.2466  143.1183  161.3602 C   0  0  0  0  0  0  0  0  0  0  0  0
  152.9660  143.1863  162.9267 Cl  0  0  0  0  0  0  0  0  0  0  0  0
  151.4186  144.1520  160.8791 C   0  0  0  0  0  0  0  0  0  0  0  0
  150.8571  144.0952  159.6510 N   0  0  0  0  0  0  0  0  0  0  0  0
  149.9905  140.8673  154.6804 O   0  0  0  0  0  0  0  0  0  0  0  0
  148.6110  137.7907  152.0847 H   0  0  0  0  0  0  0  0  0  0  0  0
  148.7772  139.4728  151.6200 H   0  0  0  0  0  0  0  0  0  0  0  0
  148.8428  141.1797  153.0065 H   0  0  0  0  0  0  0  0  0  0  0  0
  147.1531  141.9986  154.2929 H   0  0  0  0  0  0  0  0  0  0  0  0
  146.8934  140.4523  155.0893 H   0  0  0  0  0  0  0  0  0  0  0  0
  147.8919  142.6004  156.4697 H   0  0  0  0  0  0  0  0  0  0  0  0
  148.3884  140.9421  156.8221 H   0  0  0  0  0  0  0  0  0  0  0  0
  149.7986  142.8902  154.9304 H   0  0  0  0  0  0  0  0  0  0  0  0
  150.9864  141.0387  157.0679 H   0  0  0  0  0  0  0  0  0  0  0  0
  151.8133  142.3036  156.1776 H   0  0  0  0  0  0  0  0  0  0  0  0
  149.8519  143.7086  157.4561 H   0  0  0  0  0  0  0  0  0  0  0  0
  153.0770  141.1911  160.7836 H   0  0  0  0  0  0  0  0  0  0  0  0
  151.2056  145.0252  161.4777 H   0  0  0  0  0  0  0  0  0  0  0  0
  1  2  1  0  0  0  0
  1 18  1  0  0  0  0
  1 19  1  0  0  0  0
  2  3  2  0  0  0  0
  2  4  1  0  0  0  0
  4 17  1  0  0  0  0
  4  5  1  0  0  0  0
  4 20  1  0  0  0  0
  5  6  1  0  0  0  0
  5 21  1  0  0  0  0
  5 22  1  0  0  0  0
  6  7  1  0  0  0  0
  6 23  1  0  0  0  0
  6 24  1  0  0  0  0
  7  8  1  0  0  0  0
  7 17  1  0  0  0  0
  7 25  1  0  0  0  0
  8  9  1  0  0  0  0
  8 26  1  0  0  0  0
  8 27  1  0  0  0  0
  9 10  1  0  0  0  0
  9 28  1  0  0  0  0
 10 16  1  0  0  0  0
 10 11  2  0  0  0  0
 11 12  1  0  0  0  0
 12 13  2  0  0  0  0
 12 29  1  0  0  0  0
 13 14  1  0  0  0  0
 13 15  1  0  0  0  0
 15 16  2  0  0  0  0
 15 30  1  0  0  0  0
M  END
> <s_m_source_file>
AV-unprocessed.smi

> <i_m_source_file_index>
2922

> <i_lp_mmshare_version>
43012

> <i_f3d_flags>
0

> <s_epik_input>
W05IMl1DKD1PKVtDQEBIXTFbQ0gyXVtDSDJdW0NASF0oTzEpW0NIMl1bTkhdYzJuW2NIXWMoQ2wpW2NIXW4y

> <s_epik_cmdline>
J2VwaWtfcHl0aG9uJywgJy1waCcsICc3LjAnLCAnLXRuJywgJzgnLCAnLW1hJywgJzIwMCcsICctbWV0YWxfYmluZGluZycsICctaW1hZScsICc8aW5maWxlLm1hZT4nLCAnLW9tYWUnLCAnPG91dGZpbGUubWFlPic=

> <r_lp_tautomer_probability>
1

> <r_epik_Ionization_Penalty>
6.13883e-06

> <r_epik_Ionization_Penalty_Charging>
0

> <r_epik_Ionization_Penalty_Neutral>
6.13883e-06

> <r_epik_State_Penalty>
-0

> <r_epik_Charging_Adjusted_Penalty>
0

> <i_epik_Tot_Q>
0

> <i_epik_Tot_abs_Q>
0

> <r_epik_Metal_State_Penalty>
-0

> <b_epik_Metal_Only>
0

> <s_lp_Force_Field>
OPLS_2005

> <r_lp_Energy>
9.86334

> <b_lp_Chiralities_Consistent>
1

> <s_lp_Variant>
AV-unprocessed.smi:2922-2

> <Gold.Version>
5.8.1

> <Gold.Id.Protein>
6NUR|6NUR_protein|mol2

> <Gold.PLP.Fitness>
39.8220

> <Gold.PLP.PLP>
-29.9230

> <Gold.PLP.part.hbond>
-3.2619

> <Gold.PLP.part.metal>
0.0000

> <Gold.PLP.part.buried>
0.0505

> <Gold.PLP.part.nonpolar>
-25.6834

> <Gold.PLP.part.repulsive>
0.4153

> <Gold.PLP.ligand.clash>
0.0000

> <Gold.PLP.ligand.torsion>
0.2202

> <Gold.PLP.Chemscore.Hbond>
3.4307

> <Gold.PLP.Chemscore.CHOScore>
0.0000

> <Gold.PLP.Chemscore.Metal>
0.0000

> <Gold.Chemscore.Hbonds>
donor molecule, donor type, donor heavy atom, donor atom, acceptor molecule, acceptor atom, score
      L1  H     1    18       P1  7948  1.00
      L1  H     9    28       P1  8028  0.34
      P1  H  7989  7998       L1    17  0.72

> <Gold.PLP.Chemscore.Internal.Correction>
0.0475

> <Gold.Rescore>
     Score         DG    S(hbond)    S(metal)    S(lipo)     H(rot)  DE(clash)    DE(int)     intcor
     16.06     -16.86       2.16        0.00      77.42       1.91       0.48       0.33       ----

> <Gold.Chemscore.Fitness>
16.0566

> <Gold.Chemscore.DG>
-16.8650

> <Gold.Chemscore.ZeroCoef>
-5.4800

> <Gold.Chemscore.Hbond>
2.1638

> <Gold.Chemscore.Metal>
0.0000

> <Gold.Chemscore.Lipo>
77.4184

> <Gold.Chemscore.Internal_Hbond>
0.0000

> <Gold.Chemscore.DEClash>
0.4813

> <Gold.Chemscore.DEInternal>
0.3271

> <Gold.Chemscore.Rot>
1.9142

> <Gold.Chemscore.Internal.Correction>
   9.000000E+99

> <Gold.Chemscore.Hbonds>
donor molecule, donor type, donor heavy atom, donor atom, acceptor molecule, acceptor atom, score
      L1  H     1    18       P1  7948  0.97
      L1  H     1    19       P1  7957  0.02
      L1  H     9    28       P1  8028  0.28
      P1  H  7989  7998       L1    17  0.54

> <Gold.Chemscore.Hbond.Weighted>
-7.2272

> <Gold.Chemscore.Metal.Weighted>
-0.0000

> <Gold.Chemscore.Lipo.Weighted>
-9.0580

> <Gold.Chemscore.Internal_Hbond.Weighted>
0.0000

> <Gold.Chemscore.DEClash.Weighted>
0.4813

> <Gold.Chemscore.DEInternal.Weighted>
0.3271

> <Gold.Chemscore.Rot.Weighted>
4.9002

> <Gold.Chemscore.Internal.Correction.Weighted>
   9.000000E+99

> <Gold.Protein.RotatedTorsions>
[ 6907 6896 6895 6894 ] final  151.61 input  -60.11 | X-H torsion
[ 7974 7965 7964 7962 ] final   47.99 input  175.53 | X-H torsion
[ 8008 7997 7996 7995 ] final  -48.62 input   59.86 | X-H torsion
[ 10167 10162 10161 10158 ] final   43.36 input  -65.29 | X-H torsion
[ 10718 10713 10712 10709 ] final -137.59 input   66.30 | X-H torsion
[ 10763 10752 10751 10750 ] final -167.99 input  -60.55 | X-H torsion
[ 11005 11000 10999 10996 ] final  143.54 input  -57.11 | X-H torsion

> <Gold.Protein.ActiveResidues>
 VAL166  LYS551  ARG553  GLY616  TRP617  ASP618  TYR619  PRO620  LYS621  CYS622 
 ASP623  PHE694  ASN695  SER759  ASP760  ASP761  ALA762  ILE779  LEU786  VAL792 
 PHE793  MET794  SER795  GLU796  ALA797  LYS798  CYS799  TRP800  GLU811  SER814 

> <Gold.Protein.RotatedAtoms>
  152.0983  133.4236  159.4574 H   0  0  0  0  0  0  0  0  0  0  0  0  # atno 6907 bound_to 6896
  150.6863  134.2791  159.4629 H   0  0  0  0  0  0  0  0  0  0  0  0  # atno 6908 bound_to 6896
  152.0648  134.9570  160.0625 H   0  0  0  0  0  0  0  0  0  0  0  0  # atno 6909 bound_to 6896
  146.0246  139.4692  142.9875 H   0  0  0  0  0  0  0  0  0  0  0  0  # atno 7974 bound_to 7965
  154.4031  140.1317  156.4369 H   0  0  0  0  0  0  0  0  0  0  0  0  # atno 8008 bound_to 7997
  155.7497  140.3488  155.5124 H   0  0  0  0  0  0  0  0  0  0  0  0  # atno 8009 bound_to 7997
  155.8961  140.1011  157.1374 H   0  0  0  0  0  0  0  0  0  0  0  0  # atno 8010 bound_to 7997
  140.3452  144.2420  150.6151 H   0  0  0  0  0  0  0  0  0  0  0  0  # atno 10167 bound_to 10162
  156.2898  130.7368  151.1391 H   0  0  0  0  0  0  0  0  0  0  0  0  # atno 10718 bound_to 10713
  154.6675  135.2934  154.9785 H   0  0  0  0  0  0  0  0  0  0  0  0  # atno 10763 bound_to 10752
  154.0824  135.6602  153.4844 H   0  0  0  0  0  0  0  0  0  0  0  0  # atno 10764 bound_to 10752
  153.0466  135.5200  154.7656 H   0  0  0  0  0  0  0  0  0  0  0  0  # atno 10765 bound_to 10752
  140.0562  134.9229  157.1104 H   0  0  0  0  0  0  0  0  0  0  0  0  # atno 11005 bound_to 11000
  145.7138  141.0097  143.1439 LP  0  0  0  0  0  0  0  0  0  0  0  0  # atno 17320 bound_to 7965
  144.7004  139.8789  143.7446 LP  0  0  0  0  0  0  0  0  0  0  0  0  # atno 17321 bound_to 7965
  140.5271  143.2252  151.8297 LP  0  0  0  0  0  0  0  0  0  0  0  0  # atno 17342 bound_to 10162
  139.4834  144.4766  151.9359 LP  0  0  0  0  0  0  0  0  0  0  0  0  # atno 17343 bound_to 10162
  157.7339  131.0587  150.5552 LP  0  0  0  0  0  0  0  0  0  0  0  0  # atno 17370 bound_to 10713
  156.5667  130.4269  149.6038 LP  0  0  0  0  0  0  0  0  0  0  0  0  # atno 17371 bound_to 10713
  140.3840  134.2256  155.7169 LP  0  0  0  0  0  0  0  0  0  0  0  0  # atno 17394 bound_to 11000
  141.1953  133.8109  157.0721 LP  0  0  0  0  0  0  0  0  0  0  0  0  # atno 17395 bound_to 11000

$$$$
