AV-unprocessed.smi:1761|AV-procd|sdf|7096|dock2
  -GOLD-   22720 8313D 1   1.00000     0.00000
 Structure written by MMmdl.
 34 35  0  0  0  0  0  0  0  0  1 V2000
  149.6818  140.6800  157.5388 O   0  0  0  0  0  0  0  0  0  0  0  0
  149.6391  141.7789  156.9849 C   0  0  0  0  0  0  0  0  0  0  0  0
  150.2672  142.8897  157.4090 N   0  0  0  0  0  0  0  0  0  0  0  0
  151.1166  143.0429  158.5375 C   0  0  0  0  0  0  0  0  0  0  0  0
  151.3457  144.3791  158.9369 C   0  0  0  0  0  0  0  0  0  0  0  0
  152.1785  144.6391  160.0426 C   0  0  0  0  0  0  0  0  0  0  0  0
  152.7622  143.5547  160.7213 C   0  0  0  0  0  0  0  0  0  0  0  0
  152.4821  142.2556  160.2596 C   0  0  0  0  0  0  0  0  0  0  0  0
  151.6840  142.0041  159.2003 N   0  0  0  0  0  0  0  0  0  0  0  0
  148.9467  142.0130  155.8603 N   0  0  0  0  0  0  0  0  0  0  0  0
  148.1580  141.0216  155.1310 C   0  0  1  0  0  0  0  0  0  0  0  0
  147.3821  141.6920  153.9805 C   0  0  0  0  0  0  0  0  0  0  0  0
  146.5391  140.6662  153.2052 C   0  0  0  0  0  0  0  0  0  0  0  0
  147.4055  139.5096  152.6822 C   0  0  0  0  0  0  0  0  0  0  0  0
  148.1963  138.8373  153.8193 C   0  0  0  0  0  0  0  0  0  0  0  0
  149.0346  139.8493  154.6245 C   0  0  1  0  0  0  0  0  0  0  0  0
  150.0913  140.3242  153.8100 O   0  0  0  0  0  0  0  0  0  0  0  0
  150.1299  143.7211  156.8538 H   0  0  0  0  0  0  0  0  0  0  0  0
  150.8908  145.2008  158.4031 H   0  0  0  0  0  0  0  0  0  0  0  0
  152.3664  145.6532  160.3626 H   0  0  0  0  0  0  0  0  0  0  0  0
  153.4072  143.7143  161.5727 H   0  0  0  0  0  0  0  0  0  0  0  0
  152.9100  141.3953  160.7527 H   0  0  0  0  0  0  0  0  0  0  0  0
  148.9676  142.9453  155.4743 H   0  0  0  0  0  0  0  0  0  0  0  0
  147.4166  140.6129  155.8206 H   0  0  0  0  0  0  0  0  0  0  0  0
  146.7312  142.4733  154.3747 H   0  0  0  0  0  0  0  0  0  0  0  0
  148.0754  142.1847  153.2975 H   0  0  0  0  0  0  0  0  0  0  0  0
  145.7567  140.2713  153.8544 H   0  0  0  0  0  0  0  0  0  0  0  0
  146.0323  141.1555  152.3730 H   0  0  0  0  0  0  0  0  0  0  0  0
  146.7766  138.7720  152.1831 H   0  0  0  0  0  0  0  0  0  0  0  0
  148.0962  139.8848  151.9260 H   0  0  0  0  0  0  0  0  0  0  0  0
  147.4959  138.3416  154.4927 H   0  0  0  0  0  0  0  0  0  0  0  0
  148.8370  138.0518  153.4164 H   0  0  0  0  0  0  0  0  0  0  0  0
  149.4861  139.3341  155.4730 H   0  0  0  0  0  0  0  0  0  0  0  0
  149.7642  140.4284  152.9297 H   0  0  0  0  0  0  0  0  0  0  0  0
  1  2  2  0  0  0  0
  2  3  1  0  0  0  0
  2 10  1  0  0  0  0
  3  4  1  0  0  0  0
  3 18  1  0  0  0  0
  4  9  1  0  0  0  0
  4  5  2  0  0  0  0
  5  6  1  0  0  0  0
  5 19  1  0  0  0  0
  6  7  2  0  0  0  0
  6 20  1  0  0  0  0
  7  8  1  0  0  0  0
  7 21  1  0  0  0  0
  8  9  2  0  0  0  0
  8 22  1  0  0  0  0
 10 11  1  0  0  0  0
 10 23  1  0  0  0  0
 11 16  1  0  0  0  0
 11 12  1  0  0  0  0
 11 24  1  0  0  0  0
 12 13  1  0  0  0  0
 12 25  1  0  0  0  0
 12 26  1  0  0  0  0
 13 14  1  0  0  0  0
 13 27  1  0  0  0  0
 13 28  1  0  0  0  0
 14 15  1  0  0  0  0
 14 29  1  0  0  0  0
 14 30  1  0  0  0  0
 15 16  1  0  0  0  0
 15 31  1  0  0  0  0
 15 32  1  0  0  0  0
 16 17  1  0  0  0  0
 16 33  1  0  0  0  0
 17 34  1  0  0  0  0
M  END
> <s_m_source_file>
AV-unprocessed.smi

> <i_m_source_file_index>
1761

> <i_lp_mmshare_version>
43012

> <i_f3d_flags>
0

> <s_epik_input>
bjFbY0hdW2NIXVtjSF1bY0hdYzFbTkhdQyg9TylbTkhdW0NAQEhdMltDSDJdW0NIMl1bQ0gyXVtDSDJdW0NASF0yW09IXQ==

> <s_epik_cmdline>
J2VwaWtfcHl0aG9uJywgJy1waCcsICc3LjAnLCAnLXRuJywgJzgnLCAnLW1hJywgJzIwMCcsICctbWV0YWxfYmluZGluZycsICctaW1hZScsICc8aW5maWxlLm1hZT4nLCAnLW9tYWUnLCAnPG91dGZpbGUubWFlPic=

> <r_lp_tautomer_probability>
1

> <r_epik_Ionization_Penalty>
4.92589e-05

> <r_epik_Ionization_Penalty_Charging>
0

> <r_epik_Ionization_Penalty_Neutral>
4.92589e-05

> <r_epik_State_Penalty>
-0

> <r_epik_Charging_Adjusted_Penalty>
0

> <i_epik_Tot_Q>
0

> <i_epik_Tot_abs_Q>
0

> <r_epik_Metal_State_Penalty>
-0

> <b_epik_Metal_Only>
0

> <s_lp_Force_Field>
OPLS_2005

> <r_lp_Energy>
15.389

> <b_lp_Chiralities_Consistent>
1

> <s_lp_Variant>
AV-unprocessed.smi:1761-2

> <Gold.Version>
5.8.1

> <Gold.Id.Protein>
6NUR|6NUR_protein|mol2

> <Gold.PLP.Fitness>
42.7230

> <Gold.PLP.PLP>
-32.2193

> <Gold.PLP.part.hbond>
-3.7891

> <Gold.PLP.part.metal>
0.0000

> <Gold.PLP.part.buried>
-0.2181

> <Gold.PLP.part.nonpolar>
-28.6673

> <Gold.PLP.part.repulsive>
0.1330

> <Gold.PLP.ligand.clash>
0.0000

> <Gold.PLP.ligand.torsion>
0.0779

> <Gold.PLP.Chemscore.Hbond>
3.5488

> <Gold.PLP.Chemscore.CHOScore>
0.0000

> <Gold.PLP.Chemscore.Metal>
0.0000

> <Gold.Chemscore.Hbonds>
donor molecule, donor type, donor heavy atom, donor atom, acceptor molecule, acceptor atom, score
      L1  H     3    18       P1  8028  0.93
      L1  H    10    23       P1  8028  1.00
      L1  H    17    34       P1  7957  1.00
      P1  H  7989  7998       L1    17  0.55

> <Gold.PLP.Chemscore.Internal.Correction>
0.0131

> <Gold.Rescore>
     Score         DG    S(hbond)    S(metal)    S(lipo)     H(rot)  DE(clash)    DE(int)     intcor
     19.40     -21.77       3.11        0.00      82.64       1.47       1.06       1.31       ----

> <Gold.Chemscore.Fitness>
19.4040

> <Gold.Chemscore.DG>
-21.7741

> <Gold.Chemscore.ZeroCoef>
-5.4800

> <Gold.Chemscore.Hbond>
3.1065

> <Gold.Chemscore.Metal>
0.0000

> <Gold.Chemscore.Lipo>
82.6444

> <Gold.Chemscore.Internal_Hbond>
0.0000

> <Gold.Chemscore.DEClash>
1.0590

> <Gold.Chemscore.DEInternal>
1.3111

> <Gold.Chemscore.Rot>
1.4653

> <Gold.Chemscore.Internal.Correction>
   9.000000E+99

> <Gold.Chemscore.Hbonds>
donor molecule, donor type, donor heavy atom, donor atom, acceptor molecule, acceptor atom, score
      L1  H     3    18       P1  8028  0.89
      L1  H    10    23       P1  8028  0.96
      L1  H    17    34       P1  7957  0.99
      P1  H  7989  7998       L1    17  0.07

> <Gold.Chemscore.Hbond.Weighted>
-10.3758

> <Gold.Chemscore.Metal.Weighted>
-0.0000

> <Gold.Chemscore.Lipo.Weighted>
-9.6694

> <Gold.Chemscore.Internal_Hbond.Weighted>
0.0000

> <Gold.Chemscore.DEClash.Weighted>
1.0590

> <Gold.Chemscore.DEInternal.Weighted>
1.3111

> <Gold.Chemscore.Rot.Weighted>
3.7511

> <Gold.Chemscore.Internal.Correction.Weighted>
   9.000000E+99

> <Gold.Protein.RotatedTorsions>
[ 6907 6896 6895 6894 ] final  -13.02 input  -60.11 | X-H torsion
[ 7974 7965 7964 7962 ] final   48.14 input  175.53 | X-H torsion
[ 8008 7997 7996 7995 ] final    1.87 input   59.86 | X-H torsion
[ 10167 10162 10161 10158 ] final  121.62 input  -65.29 | X-H torsion
[ 10718 10713 10712 10709 ] final   56.18 input   66.30 | X-H torsion
[ 10763 10752 10751 10750 ] final  -78.05 input  -60.55 | X-H torsion
[ 11005 11000 10999 10996 ] final -165.83 input  -57.11 | X-H torsion

> <Gold.Protein.ActiveResidues>
 VAL166  LYS551  ARG553  GLY616  TRP617  ASP618  TYR619  PRO620  LYS621  CYS622 
 ASP623  PHE694  ASN695  SER759  ASP760  ASP761  ALA762  ILE779  LEU786  VAL792 
 PHE793  MET794  SER795  GLU796  ALA797  LYS798  CYS799  TRP800  GLU811  SER814 

> <Gold.Protein.RotatedAtoms>
  151.3615  135.0905  159.9435 H   0  0  0  0  0  0  0  0  0  0  0  0  # atno 6907 bound_to 6896
  152.5160  133.9254  159.7565 H   0  0  0  0  0  0  0  0  0  0  0  0  # atno 6908 bound_to 6896
  150.9649  133.6351  159.2777 H   0  0  0  0  0  0  0  0  0  0  0  0  # atno 6909 bound_to 6896
  146.0232  139.4676  142.9884 H   0  0  0  0  0  0  0  0  0  0  0  0  # atno 7974 bound_to 7965
  154.6849  140.2640  155.6871 H   0  0  0  0  0  0  0  0  0  0  0  0  # atno 8008 bound_to 7997
  156.2710  140.2803  156.1329 H   0  0  0  0  0  0  0  0  0  0  0  0  # atno 8009 bound_to 7997
  155.0979  140.0374  157.2678 H   0  0  0  0  0  0  0  0  0  0  0  0  # atno 8010 bound_to 7997
  139.5908  144.7024  151.3294 H   0  0  0  0  0  0  0  0  0  0  0  0  # atno 10167 bound_to 10162
  157.5409  130.8696  149.8820 H   0  0  0  0  0  0  0  0  0  0  0  0  # atno 10718 bound_to 10713
  154.5209  135.5743  153.6680 H   0  0  0  0  0  0  0  0  0  0  0  0  # atno 10763 bound_to 10752
  152.9917  135.6181  154.2756 H   0  0  0  0  0  0  0  0  0  0  0  0  # atno 10764 bound_to 10752
  154.2676  135.2854  155.2731 H   0  0  0  0  0  0  0  0  0  0  0  0  # atno 10765 bound_to 10752
  140.5713  134.5235  157.5162 H   0  0  0  0  0  0  0  0  0  0  0  0  # atno 11005 bound_to 11000
  145.7159  141.0091  143.1428 LP  0  0  0  0  0  0  0  0  0  0  0  0  # atno 17320 bound_to 7965
  144.6998  139.8813  143.7447 LP  0  0  0  0  0  0  0  0  0  0  0  0  # atno 17321 bound_to 7965
  140.7172  143.7235  150.7677 LP  0  0  0  0  0  0  0  0  0  0  0  0  # atno 17342 bound_to 10162
  140.0791  143.4986  152.2540 LP  0  0  0  0  0  0  0  0  0  0  0  0  # atno 17343 bound_to 10162
  156.0496  130.3720  150.1234 LP  0  0  0  0  0  0  0  0  0  0  0  0  # atno 17370 bound_to 10713
  156.9414  130.9745  151.3515 LP  0  0  0  0  0  0  0  0  0  0  0  0  # atno 17371 bound_to 10713
  139.9361  134.7873  156.0800 LP  0  0  0  0  0  0  0  0  0  0  0  0  # atno 17394 bound_to 11000
  141.1054  133.6662  156.2853 LP  0  0  0  0  0  0  0  0  0  0  0  0  # atno 17395 bound_to 11000

$$$$
