AV-unprocessed.smi:81|AV-procd|sdf|788|dock10
  -GOLD-   2262017163D 1   1.00000     0.00000
 Structure written by MMmdl.
 64 67  0  0  0  0  0  0  0  0  2 V2000
  145.6090  135.7411  150.8580 C   0  0  0  0  0  0  0  0  0  0  0  0
  145.3317  134.5230  151.7547 C   0  0  0  0  0  0  0  0  0  0  0  0
  144.9858  133.2949  150.9014 C   0  0  0  0  0  0  0  0  0  0  0  0
  144.2052  134.8041  152.7750 C   0  0  0  0  0  0  0  0  0  0  0  0
  144.5286  135.8524  153.7472 N   0  0  0  0  0  0  0  0  0  0  0  0
  145.3633  135.4632  154.7431 C   0  0  0  0  0  0  0  0  0  0  0  0
  146.6947  135.3308  154.5032 N   0  0  0  0  0  0  0  0  0  0  0  0
  147.5186  134.9641  155.4895 C   0  0  0  0  0  0  0  0  0  0  0  0
  147.2261  134.6912  156.7629 N   0  0  0  0  0  0  0  0  0  0  0  0
  145.8922  134.8357  157.0080 C   0  0  0  0  0  0  0  0  0  0  0  0
  144.8996  135.2120  156.0616 C   0  0  0  0  0  0  0  0  0  0  0  0
  143.6514  135.2560  156.6694 N   0  0  0  0  0  0  0  0  0  0  0  0
  143.8928  134.9255  157.9086 C   0  0  0  0  0  0  0  0  0  0  0  0
  145.2128  134.6644  158.2012 N   0  0  0  0  0  0  0  0  0  0  0  0
  145.7598  134.2893  159.4952 C   0  0  0  0  0  0  0  0  0  0  0  0
  145.9245  135.4870  160.4608 C   0  0  1  0  0  0  0  0  0  0  0  0
  144.6670  136.1273  160.6061 O   0  0  0  0  0  0  0  0  0  0  0  0
  146.4349  135.1063  161.8428 C   0  0  0  0  0  0  0  0  0  0  0  0
  147.0538  136.4079  162.3369 C   0  0  0  0  0  0  0  0  0  0  0  0
  147.6177  137.0093  161.1782 O   0  0  0  0  0  0  0  0  0  0  0  0
  147.0006  136.4935  159.9991 C   0  0  2  0  0  0  0  0  0  0  0  0
  146.5299  137.6319  159.0798 C   0  0  0  0  0  0  0  0  0  0  0  0
  143.4296  136.7494  154.1329 C   0  0  2  0  0  0  0  0  0  0  0  0
  142.5775  137.2397  152.9432 C   0  0  0  0  0  0  0  0  0  0  0  0
  141.3993  138.0983  153.4303 C   0  0  0  0  0  0  0  0  0  0  0  0
  141.8785  139.2498  154.2346 N   0  3  1  0  0  0  0  0  0  0  0  0
  140.7828  140.1678  154.6125 C   0  0  0  0  0  0  0  0  0  0  0  0
  142.6802  138.8152  155.4056 C   0  0  0  0  0  0  0  0  0  0  0  0
  143.8851  137.9657  154.9683 C   0  0  0  0  0  0  0  0  0  0  0  0
  144.7219  136.0257  150.2914 H   0  0  0  0  0  0  0  0  0  0  0  0
  146.4057  135.5294  150.1443 H   0  0  0  0  0  0  0  0  0  0  0  0
  145.9204  136.6062  151.4433 H   0  0  0  0  0  0  0  0  0  0  0  0
  146.2509  134.2840  152.2910 H   0  0  0  0  0  0  0  0  0  0  0  0
  144.0734  133.4557  150.3261 H   0  0  0  0  0  0  0  0  0  0  0  0
  144.8356  132.4132  151.5253 H   0  0  0  0  0  0  0  0  0  0  0  0
  145.7875  133.0663  150.1985 H   0  0  0  0  0  0  0  0  0  0  0  0
  143.2997  135.0880  152.2372 H   0  0  0  0  0  0  0  0  0  0  0  0
  143.9593  133.8856  153.3095 H   0  0  0  0  0  0  0  0  0  0  0  0
  148.5617  134.8810  155.2220 H   0  0  0  0  0  0  0  0  0  0  0  0
  143.1096  134.8710  158.6508 H   0  0  0  0  0  0  0  0  0  0  0  0
  145.0986  133.5399  159.9323 H   0  0  0  0  0  0  0  0  0  0  0  0
  146.7193  133.7949  159.3378 H   0  0  0  0  0  0  0  0  0  0  0  0
  144.5009  136.2558  161.5275 H   0  0  0  0  0  0  0  0  0  0  0  0
  145.6610  134.7200  162.5078 H   0  0  0  0  0  0  0  0  0  0  0  0
  147.2145  134.3478  161.7597 H   0  0  0  0  0  0  0  0  0  0  0  0
  146.2853  137.0690  162.7391 H   0  0  0  0  0  0  0  0  0  0  0  0
  147.8040  136.2489  163.1117 H   0  0  0  0  0  0  0  0  0  0  0  0
  147.7879  135.9441  159.4809 H   0  0  0  0  0  0  0  0  0  0  0  0
  146.0494  137.2387  158.1838 H   0  0  0  0  0  0  0  0  0  0  0  0
  147.3741  138.2438  158.7618 H   0  0  0  0  0  0  0  0  0  0  0  0
  145.8209  138.2900  159.5827 H   0  0  0  0  0  0  0  0  0  0  0  0
  142.7701  136.1508  154.7630 H   0  0  0  0  0  0  0  0  0  0  0  0
  143.1813  137.8304  152.2529 H   0  0  0  0  0  0  0  0  0  0  0  0
  142.1972  136.3875  152.3789 H   0  0  0  0  0  0  0  0  0  0  0  0
  140.8354  138.4615  152.5702 H   0  0  0  0  0  0  0  0  0  0  0  0
  140.7141  137.4936  154.0266 H   0  0  0  0  0  0  0  0  0  0  0  0
  140.0648  139.6727  155.2678 H   0  0  0  0  0  0  0  0  0  0  0  0
  140.2526  140.5203  153.7271 H   0  0  0  0  0  0  0  0  0  0  0  0
  141.1754  141.0417  155.1334 H   0  0  0  0  0  0  0  0  0  0  0  0
  143.0332  139.6909  155.9516 H   0  0  0  0  0  0  0  0  0  0  0  0
  142.0492  138.2470  156.0909 H   0  0  0  0  0  0  0  0  0  0  0  0
  144.4336  137.6393  155.8522 H   0  0  0  0  0  0  0  0  0  0  0  0
  144.5675  138.5904  154.3917 H   0  0  0  0  0  0  0  0  0  0  0  0
  142.5009  139.7775  153.6391 H   0  0  0  0  0  0  0  0  0  0  0  0
  1  2  1  0  0  0  0
  1 30  1  0  0  0  0
  1 31  1  0  0  0  0
  1 32  1  0  0  0  0
  2  3  1  0  0  0  0
  2  4  1  0  0  0  0
  2 33  1  0  0  0  0
  3 34  1  0  0  0  0
  3 35  1  0  0  0  0
  3 36  1  0  0  0  0
  4  5  1  0  0  0  0
  4 37  1  0  0  0  0
  4 38  1  0  0  0  0
  5  6  1  0  0  0  0
  5 23  1  0  0  0  0
  6 11  1  0  0  0  0
  6  7  2  0  0  0  0
  7  8  1  0  0  0  0
  8  9  2  0  0  0  0
  8 39  1  0  0  0  0
  9 10  1  0  0  0  0
 10 14  1  0  0  0  0
 10 11  2  0  0  0  0
 11 12  1  0  0  0  0
 12 13  2  0  0  0  0
 13 14  1  0  0  0  0
 13 40  1  0  0  0  0
 14 15  1  0  0  0  0
 15 16  1  0  0  0  0
 15 41  1  0  0  0  0
 15 42  1  0  0  0  0
 16 21  1  0  0  0  0
 16 17  1  0  0  0  0
 16 18  1  0  0  0  0
 17 43  1  0  0  0  0
 18 19  1  0  0  0  0
 18 44  1  0  0  0  0
 18 45  1  0  0  0  0
 19 20  1  0  0  0  0
 19 46  1  0  0  0  0
 19 47  1  0  0  0  0
 20 21  1  0  0  0  0
 21 22  1  0  0  0  0
 21 48  1  0  0  0  0
 22 49  1  0  0  0  0
 22 50  1  0  0  0  0
 22 51  1  0  0  0  0
 23 29  1  0  0  0  0
 23 24  1  0  0  0  0
 23 52  1  0  0  0  0
 24 25  1  0  0  0  0
 24 53  1  0  0  0  0
 24 54  1  0  0  0  0
 25 26  1  0  0  0  0
 25 55  1  0  0  0  0
 25 56  1  0  0  0  0
 26 27  1  0  0  0  0
 26 28  1  0  0  0  0
 26 64  1  0  0  0  0
 27 57  1  0  0  0  0
 27 58  1  0  0  0  0
 27 59  1  0  0  0  0
 28 29  1  0  0  0  0
 28 60  1  0  0  0  0
 28 61  1  0  0  0  0
 29 62  1  0  0  0  0
 29 63  1  0  0  0  0
M  CHG  1  26   1
M  END
> <s_m_source_file>
AV-unprocessed.smi

> <i_m_source_file_index>
81

> <i_lp_mmshare_version>
43012

> <i_f3d_flags>
0

> <s_epik_input>
W0NIMl0xW0NIMl1OKFtDSDNdKVtDSDJdW0NIMl1bQ0hdMU4oW0NIMl1bQ0hdKFtDSDNdKVtDSDNdKWMobltjSF1uMiljKGMyMyluW2NIXW4zW0NIMl1bQ0BAXTQoW09IXSlbQ0gyXVtDSDJdT1tDQEhdNFtDSDNd

> <s_epik_cmdline>
J2VwaWtfcHl0aG9uJywgJy1waCcsICc3LjAnLCAnLXRuJywgJzgnLCAnLW1hJywgJzIwMCcsICctbWV0YWxfYmluZGluZycsICctaW1hZScsICc8aW5maWxlLm1hZT4nLCAnLW9tYWUnLCAnPG91dGZpbGUubWFlPic=

> <r_lp_tautomer_probability>
1

> <r_epik_Ionization_Penalty>
0.00272708

> <r_epik_Ionization_Penalty_Charging>
0.00158983

> <r_epik_Ionization_Penalty_Neutral>
0.00113725

> <r_epik_State_Penalty>
-0

> <r_epik_Charging_Adjusted_Penalty>
0.00158983

> <i_epik_Tot_Q>
1

> <i_epik_Tot_abs_Q>
1

> <r_epik_Metal_State_Penalty>
-0

> <b_epik_Metal_Only>
0

> <s_lp_Force_Field>
OPLS_2005

> <r_lp_Energy>
45.229

> <b_lp_Chiralities_Consistent>
1

> <s_lp_Variant>
AV-unprocessed.smi:81-3

> <Gold.Version>
5.8.1

> <Gold.Id.Protein>
6NUR|6NUR_protein|mol2

> <Gold.PLP.Fitness>
37.7363

> <Gold.PLP.PLP>
-27.8194

> <Gold.PLP.part.hbond>
-3.0000

> <Gold.PLP.part.metal>
0.0000

> <Gold.PLP.part.buried>
-5.8036

> <Gold.PLP.part.nonpolar>
-19.5159

> <Gold.PLP.part.repulsive>
0.1601

> <Gold.PLP.ligand.clash>
0.0000

> <Gold.PLP.ligand.torsion>
1.2712

> <Gold.PLP.Chemscore.Hbond>
3.8880

> <Gold.PLP.Chemscore.CHOScore>
0.0000

> <Gold.PLP.Chemscore.Metal>
0.0000

> <Gold.Chemscore.Hbonds>
donor molecule, donor type, donor heavy atom, donor atom, acceptor molecule, acceptor atom, score
      L1  H    26    64       P1 10175  2.00
      P1  H  6931  6943       L1    20  1.00
      P1  H  6934  6947       L1    20  0.83

> <Gold.PLP.Chemscore.Internal.Correction>
0.7954

> <Gold.Rescore>
     Score         DG    S(hbond)    S(metal)    S(lipo)     H(rot)  DE(clash)    DE(int)     intcor
      9.28     -12.91       1.89        0.00      66.02       2.58       0.07       3.57       ----

> <Gold.Chemscore.Fitness>
9.2763

> <Gold.Chemscore.DG>
-12.9139

> <Gold.Chemscore.ZeroCoef>
-5.4800

> <Gold.Chemscore.Hbond>
1.8886

> <Gold.Chemscore.Metal>
0.0000

> <Gold.Chemscore.Lipo>
66.0185

> <Gold.Chemscore.Internal_Hbond>
0.0000

> <Gold.Chemscore.DEClash>
0.0650

> <Gold.Chemscore.DEInternal>
3.5725

> <Gold.Chemscore.Rot>
2.5774

> <Gold.Chemscore.Internal.Correction>
   9.000000E+99

> <Gold.Chemscore.Hbonds>
donor molecule, donor type, donor heavy atom, donor atom, acceptor molecule, acceptor atom, score
      L1  H    26    64       P1 10175  0.99
      P1  H  6931  6943       L1    20  0.40
      P1  H  6934  6947       L1    20  0.18

> <Gold.Chemscore.Hbond.Weighted>
-6.3080

> <Gold.Chemscore.Metal.Weighted>
-0.0000

> <Gold.Chemscore.Lipo.Weighted>
-7.7242

> <Gold.Chemscore.Internal_Hbond.Weighted>
0.0000

> <Gold.Chemscore.DEClash.Weighted>
0.0650

> <Gold.Chemscore.DEInternal.Weighted>
3.5725

> <Gold.Chemscore.Rot.Weighted>
6.5982

> <Gold.Chemscore.Internal.Correction.Weighted>
   9.000000E+99

> <Gold.Protein.RotatedTorsions>
[ 6907 6896 6895 6894 ] final  -10.92 input  -60.11 | X-H torsion
[ 7974 7965 7964 7962 ] final  133.64 input  175.53 | X-H torsion
[ 8008 7997 7996 7995 ] final  -35.99 input   59.86 | X-H torsion
[ 10167 10162 10161 10158 ] final -166.96 input  -65.29 | X-H torsion
[ 10718 10713 10712 10709 ] final  -43.57 input   66.30 | X-H torsion
[ 10763 10752 10751 10750 ] final  -88.11 input  -60.55 | X-H torsion
[ 11005 11000 10999 10996 ] final  174.50 input  -57.11 | X-H torsion

> <Gold.Protein.ActiveResidues>
 VAL166  LYS551  ARG553  GLY616  TRP617  ASP618  TYR619  PRO620  LYS621  CYS622 
 ASP623  PHE694  ASN695  SER759  ASP760  ASP761  ALA762  ILE779  LEU786  VAL792 
 PHE793  MET794  SER795  GLU796  ALA797  LYS798  CYS799  TRP800  GLU811  SER814 

> <Gold.Protein.RotatedAtoms>
  151.3943  135.0961  159.9535 H   0  0  0  0  0  0  0  0  0  0  0  0  # atno 6907 bound_to 6896
  152.5070  133.8949  159.7423 H   0  0  0  0  0  0  0  0  0  0  0  0  # atno 6908 bound_to 6896
  150.9409  133.6601  159.2819 H   0  0  0  0  0  0  0  0  0  0  0  0  # atno 6909 bound_to 6896
  144.9844  139.4471  143.5370 H   0  0  0  0  0  0  0  0  0  0  0  0  # atno 7974 bound_to 7965
  154.4083  140.1642  156.2302 H   0  0  0  0  0  0  0  0  0  0  0  0  # atno 8008 bound_to 7997
  155.9289  140.3416  155.6210 H   0  0  0  0  0  0  0  0  0  0  0  0  # atno 8009 bound_to 7997
  155.7130  140.0759  157.2353 H   0  0  0  0  0  0  0  0  0  0  0  0  # atno 8010 bound_to 7997
  139.6080  144.0873  152.1813 H   0  0  0  0  0  0  0  0  0  0  0  0  # atno 10167 bound_to 10162
  156.2476  130.4185  149.8687 H   0  0  0  0  0  0  0  0  0  0  0  0  # atno 10718 bound_to 10713
  154.6410  135.5389  153.7789 H   0  0  0  0  0  0  0  0  0  0  0  0  # atno 10763 bound_to 10752
  153.0333  135.6459  154.1160 H   0  0  0  0  0  0  0  0  0  0  0  0  # atno 10764 bound_to 10752
  154.1084  135.2928  155.3216 H   0  0  0  0  0  0  0  0  0  0  0  0  # atno 10765 bound_to 10752
  140.3520  134.7187  157.4274 H   0  0  0  0  0  0  0  0  0  0  0  0  # atno 11005 bound_to 11000
  146.3416  139.9137  142.8776 LP  0  0  0  0  0  0  0  0  0  0  0  0  # atno 17320 bound_to 7965
  145.2374  140.9996  143.3955 LP  0  0  0  0  0  0  0  0  0  0  0  0  # atno 17321 bound_to 7965
  140.0485  144.5952  150.7355 LP  0  0  0  0  0  0  0  0  0  0  0  0  # atno 17342 bound_to 10162
  140.7299  143.2677  151.3989 LP  0  0  0  0  0  0  0  0  0  0  0  0  # atno 17343 bound_to 10162
  156.6247  130.8641  151.3483 LP  0  0  0  0  0  0  0  0  0  0  0  0  # atno 17370 bound_to 10713
  157.7201  130.9547  150.1406 LP  0  0  0  0  0  0  0  0  0  0  0  0  # atno 17371 bound_to 10713
  140.0695  134.5882  155.8657 LP  0  0  0  0  0  0  0  0  0  0  0  0  # atno 17394 bound_to 11000
  141.2009  133.6615  156.5923 LP  0  0  0  0  0  0  0  0  0  0  0  0  # atno 17395 bound_to 11000

$$$$
