AV-unprocessed.smi:2702|AV-procd|sdf|10437|dock6
  -GOLD-   2272014473D 1   1.00000     0.00000
 Structure written by MMmdl.
 47 48  0  0  0  0  0  0  0  0  1 V2000
  143.4709  145.3469  155.3307 C   0  0  0  0  0  0  0  0  0  0  0  0
  144.2603  144.1906  155.5477 O   0  0  0  0  0  0  0  0  0  0  0  0
  144.9440  143.7731  154.3780 C   0  0  0  0  0  0  0  0  0  0  0  0
  146.0541  142.8024  154.7269 C   0  0  0  0  0  0  0  0  0  0  0  0
  146.3361  142.4636  156.0066 C   0  0  0  0  0  0  0  0  0  0  0  0
  147.4224  141.5318  156.3097 C   0  0  0  0  0  0  0  0  0  0  0  0
  147.7080  141.1972  157.4598 O   0  0  0  0  0  0  0  0  0  0  0  0
  148.0991  141.0630  155.2196 N   0  0  0  0  0  0  0  0  0  0  0  0
  149.2245  140.1216  155.3652 C   0  0  0  0  0  0  0  0  0  0  0  0
  150.4945  140.7746  155.9301 C   0  0  0  0  0  0  0  0  0  0  0  0
  151.5636  140.7044  155.3225 O   0  0  0  0  0  0  0  0  0  0  0  0
  150.3500  141.4259  157.0938 N   0  0  0  0  0  0  0  0  0  0  0  0
  151.4181  142.1028  157.8262 C   0  0  1  0  0  0  0  0  0  0  0  0
  151.0244  143.5736  158.0748 C   0  0  0  0  0  0  0  0  0  0  0  0
  152.0757  144.3135  158.9130 C   0  0  0  0  0  0  0  0  0  0  0  0
  152.3460  143.5804  160.2362 C   0  0  0  0  0  0  0  0  0  0  0  0
  152.7662  142.1132  160.0149 C   0  0  2  0  0  0  0  0  0  0  0  0
  154.2041  142.0104  159.4663 C   0  0  0  0  0  0  0  0  0  0  0  0
  151.7049  141.3679  159.1615 C   0  0  2  0  0  0  0  0  0  0  0  0
  152.0494  139.8777  158.9659 C   0  0  0  0  0  0  0  0  0  0  0  0
  147.7612  141.4467  153.9064 C   0  0  0  0  0  0  0  0  0  0  0  0
  146.7952  142.2747  153.6647 N   0  0  0  0  0  0  0  0  0  0  0  0
  142.9694  145.6268  156.2570 H   0  0  0  0  0  0  0  0  0  0  0  0
  142.7051  145.1660  154.5754 H   0  0  0  0  0  0  0  0  0  0  0  0
  144.0850  146.1902  155.0122 H   0  0  0  0  0  0  0  0  0  0  0  0
  144.2512  143.2809  153.6935 H   0  0  0  0  0  0  0  0  0  0  0  0
  145.3552  144.6387  153.8562 H   0  0  0  0  0  0  0  0  0  0  0  0
  145.7582  142.8808  156.8186 H   0  0  0  0  0  0  0  0  0  0  0  0
  148.9635  139.2795  156.0084 H   0  0  0  0  0  0  0  0  0  0  0  0
  149.4517  139.6741  154.3956 H   0  0  0  0  0  0  0  0  0  0  0  0
  149.4337  141.4366  157.5175 H   0  0  0  0  0  0  0  0  0  0  0  0
  152.3255  142.0798  157.2201 H   0  0  0  0  0  0  0  0  0  0  0  0
  150.8870  144.0924  157.1256 H   0  0  0  0  0  0  0  0  0  0  0  0
  150.0631  143.6146  158.5890 H   0  0  0  0  0  0  0  0  0  0  0  0
  152.9993  144.4104  158.3420 H   0  0  0  0  0  0  0  0  0  0  0  0
  151.7360  145.3291  159.1172 H   0  0  0  0  0  0  0  0  0  0  0  0
  153.1088  144.1109  160.8070 H   0  0  0  0  0  0  0  0  0  0  0  0
  151.4423  143.6061  160.8465 H   0  0  0  0  0  0  0  0  0  0  0  0
  152.7819  141.6414  160.9984 H   0  0  0  0  0  0  0  0  0  0  0  0
  154.2887  142.4043  158.4541 H   0  0  0  0  0  0  0  0  0  0  0  0
  154.5534  140.9781  159.4502 H   0  0  0  0  0  0  0  0  0  0  0  0
  154.8991  142.5687  160.0938 H   0  0  0  0  0  0  0  0  0  0  0  0
  150.7792  141.3893  159.7393 H   0  0  0  0  0  0  0  0  0  0  0  0
  152.8965  139.7459  158.2923 H   0  0  0  0  0  0  0  0  0  0  0  0
  151.2097  139.3244  158.5447 H   0  0  0  0  0  0  0  0  0  0  0  0
  152.2997  139.4051  159.9159 H   0  0  0  0  0  0  0  0  0  0  0  0
  148.3645  140.9979  153.1156 H   0  0  0  0  0  0  0  0  0  0  0  0
  1  2  1  0  0  0  0
  1 23  1  0  0  0  0
  1 24  1  0  0  0  0
  1 25  1  0  0  0  0
  2  3  1  0  0  0  0
  3  4  1  0  0  0  0
  3 26  1  0  0  0  0
  3 27  1  0  0  0  0
  4 22  1  0  0  0  0
  4  5  2  0  0  0  0
  5  6  1  0  0  0  0
  5 28  1  0  0  0  0
  6  7  2  0  0  0  0
  6  8  1  0  0  0  0
  8  9  1  0  0  0  0
  8 21  1  0  0  0  0
  9 10  1  0  0  0  0
  9 29  1  0  0  0  0
  9 30  1  0  0  0  0
 10 11  2  0  0  0  0
 10 12  1  0  0  0  0
 12 13  1  0  0  0  0
 12 31  1  0  0  0  0
 13 19  1  0  0  0  0
 13 14  1  0  0  0  0
 13 32  1  0  0  0  0
 14 15  1  0  0  0  0
 14 33  1  0  0  0  0
 14 34  1  0  0  0  0
 15 16  1  0  0  0  0
 15 35  1  0  0  0  0
 15 36  1  0  0  0  0
 16 17  1  0  0  0  0
 16 37  1  0  0  0  0
 16 38  1  0  0  0  0
 17 18  1  0  0  0  0
 17 19  1  0  0  0  0
 17 39  1  0  0  0  0
 18 40  1  0  0  0  0
 18 41  1  0  0  0  0
 18 42  1  0  0  0  0
 19 20  1  0  0  0  0
 19 43  1  0  0  0  0
 20 44  1  0  0  0  0
 20 45  1  0  0  0  0
 20 46  1  0  0  0  0
 21 22  2  0  0  0  0
 21 47  1  0  0  0  0
M  END
> <s_m_source_file>
AV-unprocessed.smi

> <i_m_source_file_index>
2702

> <i_lp_mmshare_version>
43012

> <i_f3d_flags>
0

> <s_epik_input>
W0NIM11PW0NIMl1jMVtjSF1jKD1PKW4oW2NIXW4xKVtDSDJdQyg9TylbTkhdW0NAQEhdMltDSDJdW0NIMl1bQ0gyXVtDQEBIXShbQ0gzXSlbQ0BIXTJbQ0gzXQ==

> <s_epik_cmdline>
J2VwaWtfcHl0aG9uJywgJy1waCcsICc3LjAnLCAnLXRuJywgJzgnLCAnLW1hJywgJzIwMCcsICctbWV0YWxfYmluZGluZycsICctaW1hZScsICc8aW5maWxlLm1hZT4nLCAnLW9tYWUnLCAnPG91dGZpbGUubWFlPic=

> <r_lp_tautomer_probability>
1

> <r_epik_Ionization_Penalty>
1.22164e-06

> <r_epik_Ionization_Penalty_Charging>
3.17988e-07

> <r_epik_Ionization_Penalty_Neutral>
9.03656e-07

> <r_epik_State_Penalty>
-0

> <r_epik_Charging_Adjusted_Penalty>
3.17988e-07

> <i_epik_Tot_Q>
0

> <i_epik_Tot_abs_Q>
0

> <r_epik_Metal_State_Penalty>
-0

> <b_epik_Metal_Only>
0

> <s_lp_Force_Field>
OPLS_2005

> <r_lp_Energy>
19.2685

> <b_lp_Chiralities_Consistent>
1

> <s_lp_Variant>
AV-unprocessed.smi:2702-8

> <Gold.Version>
5.8.1

> <Gold.Id.Protein>
6NUR|6NUR_protein|mol2

> <Gold.PLP.Fitness>
46.6250

> <Gold.PLP.PLP>
-41.7206

> <Gold.PLP.part.hbond>
-1.0000

> <Gold.PLP.part.metal>
0.0000

> <Gold.PLP.part.buried>
-3.9844

> <Gold.PLP.part.nonpolar>
-37.5760

> <Gold.PLP.part.repulsive>
0.4521

> <Gold.PLP.ligand.clash>
0.0000

> <Gold.PLP.ligand.torsion>
0.2646

> <Gold.PLP.Chemscore.Hbond>
0.8000

> <Gold.PLP.Chemscore.CHOScore>
1.0000

> <Gold.PLP.Chemscore.Metal>
0.0000

> <Gold.Chemscore.Hbonds>
donor molecule, donor type, donor heavy atom, donor atom, acceptor molecule, acceptor atom, score
      P1  H  7989  7998       L1    11  0.72
      L1  C    21    47       P1  7957  1.00

> <Gold.PLP.Chemscore.Internal.Correction>
0.0336

> <Gold.Rescore>
     Score         DG    S(hbond)    S(metal)    S(lipo)     H(rot)  DE(clash)    DE(int)     intcor
     15.32     -16.12       0.81        0.00     110.05       1.93       0.50       0.30       ----

> <Gold.Chemscore.Fitness>
15.3204

> <Gold.Chemscore.DG>
-16.1181

> <Gold.Chemscore.ZeroCoef>
-5.4800

> <Gold.Chemscore.Hbond>
0.8080

> <Gold.Chemscore.Metal>
0.0000

> <Gold.Chemscore.Lipo>
110.0539

> <Gold.Chemscore.Internal_Hbond>
0.0000

> <Gold.Chemscore.DEClash>
0.5018

> <Gold.Chemscore.DEInternal>
0.2960

> <Gold.Chemscore.Rot>
1.9284

> <Gold.Chemscore.Internal.Correction>
   9.000000E+99

> <Gold.Chemscore.Hbonds>
donor molecule, donor type, donor heavy atom, donor atom, acceptor molecule, acceptor atom, score
      P1  H  7989  7998       L1    11  0.71

> <Gold.Chemscore.Hbond.Weighted>
-2.6986

> <Gold.Chemscore.Metal.Weighted>
-0.0000

> <Gold.Chemscore.Lipo.Weighted>
-12.8763

> <Gold.Chemscore.Internal_Hbond.Weighted>
0.0000

> <Gold.Chemscore.DEClash.Weighted>
0.5018

> <Gold.Chemscore.DEInternal.Weighted>
0.2960

> <Gold.Chemscore.Rot.Weighted>
4.9368

> <Gold.Chemscore.Internal.Correction.Weighted>
   9.000000E+99

> <Gold.Protein.RotatedTorsions>
[ 6907 6896 6895 6894 ] final  -53.63 input  -60.11 | X-H torsion
[ 7974 7965 7964 7962 ] final   15.07 input  175.53 | X-H torsion
[ 8008 7997 7996 7995 ] final -157.67 input   59.86 | X-H torsion
[ 10167 10162 10161 10158 ] final  154.80 input  -65.29 | X-H torsion
[ 10718 10713 10712 10709 ] final -179.16 input   66.30 | X-H torsion
[ 10763 10752 10751 10750 ] final -112.31 input  -60.55 | X-H torsion
[ 11005 11000 10999 10996 ] final  -68.56 input  -57.11 | X-H torsion

> <Gold.Protein.ActiveResidues>
 VAL166  LYS551  ARG553  GLY616  TRP617  ASP618  TYR619  PRO620  LYS621  CYS622 
 ASP623  PHE694  ASN695  SER759  ASP760  ASP761  ALA762  ILE779  LEU786  VAL792 
 PHE793  MET794  SER795  GLU796  ALA797  LYS798  CYS799  TRP800  GLU811  SER814 

> <Gold.Protein.RotatedAtoms>
  150.8409  134.7701  159.6931 H   0  0  0  0  0  0  0  0  0  0  0  0  # atno 6907 bound_to 6896
  152.4497  134.5417  159.9851 H   0  0  0  0  0  0  0  0  0  0  0  0  # atno 6908 bound_to 6896
  151.5557  133.3373  159.2997 H   0  0  0  0  0  0  0  0  0  0  0  0  # atno 6909 bound_to 6896
  146.2288  139.8948  142.8549 H   0  0  0  0  0  0  0  0  0  0  0  0  # atno 7974 bound_to 7965
  155.7359  140.0808  157.2268 H   0  0  0  0  0  0  0  0  0  0  0  0  # atno 8008 bound_to 7997
  154.4027  140.1586  156.2617 H   0  0  0  0  0  0  0  0  0  0  0  0  # atno 8009 bound_to 7997
  155.9065  140.3406  155.6069 H   0  0  0  0  0  0  0  0  0  0  0  0  # atno 8010 bound_to 7997
  139.4822  144.5155  151.7958 H   0  0  0  0  0  0  0  0  0  0  0  0  # atno 10167 bound_to 10162
  156.8550  130.9732  151.3089 H   0  0  0  0  0  0  0  0  0  0  0  0  # atno 10718 bound_to 10713
  154.8343  135.4495  154.1175 H   0  0  0  0  0  0  0  0  0  0  0  0  # atno 10763 bound_to 10752
  153.2420  135.6917  153.7779 H   0  0  0  0  0  0  0  0  0  0  0  0  # atno 10764 bound_to 10752
  153.7123  135.3354  155.3225 H   0  0  0  0  0  0  0  0  0  0  0  0  # atno 10765 bound_to 10752
  141.1535  133.6743  156.6465 H   0  0  0  0  0  0  0  0  0  0  0  0  # atno 11005 bound_to 11000
  145.2382  140.9999  143.3951 LP  0  0  0  0  0  0  0  0  0  0  0  0  # atno 17320 bound_to 7965
  144.9474  139.4121  143.6419 LP  0  0  0  0  0  0  0  0  0  0  0  0  # atno 17321 bound_to 7965
  140.4663  144.1651  150.5912 LP  0  0  0  0  0  0  0  0  0  0  0  0  # atno 17342 bound_to 10162
  140.4431  143.2518  151.9447 LP  0  0  0  0  0  0  0  0  0  0  0  0  # atno 17343 bound_to 10162
  157.6282  130.8708  149.9227 LP  0  0  0  0  0  0  0  0  0  0  0  0  # atno 17370 bound_to 10713
  156.0808  130.3673  150.0585 LP  0  0  0  0  0  0  0  0  0  0  0  0  # atno 17371 bound_to 10713
  140.3353  134.7894  157.4357 LP  0  0  0  0  0  0  0  0  0  0  0  0  # atno 17394 bound_to 11000
  140.0983  134.5508  155.8377 LP  0  0  0  0  0  0  0  0  0  0  0  0  # atno 17395 bound_to 11000

$$$$
