AV-unprocessed.smi:1605|AV-procd|sdf|6460|dock3
  -GOLD-   22720 7113D 1   1.00000     0.00000
 Structure written by MMmdl.
 50 52  0  0  0  0  0  0  0  0  1 V2000
  144.0677  145.2489  153.8054 C   0  0  0  0  0  0  0  0  0  0  0  0
  144.2215  144.4750  154.9846 O   0  0  0  0  0  0  0  0  0  0  0  0
  144.8344  143.2087  154.7772 C   0  0  0  0  0  0  0  0  0  0  0  0
  145.1396  142.5008  156.1122 C   0  0  0  0  0  0  0  0  0  0  0  0
  145.9914  141.2403  155.8791 C   0  0  0  0  0  0  0  0  0  0  0  0
  147.2468  141.5285  155.1821 N   0  0  0  0  0  0  0  0  0  0  0  0
  148.0731  140.3244  155.0569 C   0  0  0  0  0  0  0  0  0  0  0  0
  149.5856  140.5679  154.8567 C   0  0  1  0  0  0  0  0  0  0  0  0
  149.7679  140.9183  153.4982 O   0  0  0  0  0  0  0  0  0  0  0  0
  150.2073  141.6667  155.7448 C   0  0  0  0  0  0  0  0  0  0  0  0
  150.9194  141.1269  156.8900 N   0  0  0  0  0  0  0  0  0  0  0  0
  151.2815  139.8464  157.0990 C   0  0  0  0  0  0  0  0  0  0  0  0
  151.9379  139.5755  158.2238 N   0  0  0  0  0  0  0  0  0  0  0  0
  152.0117  140.8269  158.8118 C   0  0  0  0  0  0  0  0  0  0  0  0
  152.5919  141.2340  160.0333 C   0  0  0  0  0  0  0  0  0  0  0  0
  152.5512  142.5869  160.4398 C   0  0  0  0  0  0  0  0  0  0  0  0
  153.1906  142.9809  161.7597 C   0  0  0  0  0  0  0  0  0  0  0  0
  151.9230  143.5573  159.6182 C   0  0  0  0  0  0  0  0  0  0  0  0
  151.8680  145.0170  160.0329 C   0  0  0  0  0  0  0  0  0  0  0  0
  151.3380  143.1675  158.3954 C   0  0  0  0  0  0  0  0  0  0  0  0
  151.3850  141.8186  158.0022 C   0  0  0  0  0  0  0  0  0  0  0  0
  146.9337  142.1258  153.8792 C   0  0  0  0  0  0  0  0  0  0  0  0
  146.1474  143.4398  154.0126 C   0  0  0  0  0  0  0  0  0  0  0  0
  143.6229  146.2108  154.0602 H   0  0  0  0  0  0  0  0  0  0  0  0
  143.4123  144.7630  153.0829 H   0  0  0  0  0  0  0  0  0  0  0  0
  145.0310  145.4423  153.3317 H   0  0  0  0  0  0  0  0  0  0  0  0
  144.1876  142.5779  154.1643 H   0  0  0  0  0  0  0  0  0  0  0  0
  145.6736  143.1817  156.7765 H   0  0  0  0  0  0  0  0  0  0  0  0
  144.2176  142.2252  156.6236 H   0  0  0  0  0  0  0  0  0  0  0  0
  146.2049  140.7868  156.8478 H   0  0  0  0  0  0  0  0  0  0  0  0
  145.4136  140.5059  155.3156 H   0  0  0  0  0  0  0  0  0  0  0  0
  147.9815  139.7459  155.9780 H   0  0  0  0  0  0  0  0  0  0  0  0
  147.6803  139.6736  154.2741 H   0  0  0  0  0  0  0  0  0  0  0  0
  150.1185  139.6302  155.0200 H   0  0  0  0  0  0  0  0  0  0  0  0
  149.5617  140.1671  152.9637 H   0  0  0  0  0  0  0  0  0  0  0  0
  150.8914  142.2894  155.1667 H   0  0  0  0  0  0  0  0  0  0  0  0
  149.4298  142.3196  156.1383 H   0  0  0  0  0  0  0  0  0  0  0  0
  151.0491  139.0691  156.3858 H   0  0  0  0  0  0  0  0  0  0  0  0
  153.0721  140.4950  160.6574 H   0  0  0  0  0  0  0  0  0  0  0  0
  154.0318  143.6531  161.5886 H   0  0  0  0  0  0  0  0  0  0  0  0
  153.5628  142.1083  162.2976 H   0  0  0  0  0  0  0  0  0  0  0  0
  152.4680  143.4848  162.4019 H   0  0  0  0  0  0  0  0  0  0  0  0
  151.3992  145.6313  159.2633 H   0  0  0  0  0  0  0  0  0  0  0  0
  152.8726  145.4049  160.2041 H   0  0  0  0  0  0  0  0  0  0  0  0
  151.2905  145.1308  160.9507 H   0  0  0  0  0  0  0  0  0  0  0  0
  150.8551  143.8950  157.7595 H   0  0  0  0  0  0  0  0  0  0  0  0
  147.8385  142.3245  153.3126 H   0  0  0  0  0  0  0  0  0  0  0  0
  146.3569  141.4202  153.2793 H   0  0  0  0  0  0  0  0  0  0  0  0
  145.9377  143.8525  153.0254 H   0  0  0  0  0  0  0  0  0  0  0  0
  146.7584  144.1770  154.5356 H   0  0  0  0  0  0  0  0  0  0  0  0
  1  2  1  0  0  0  0
  1 24  1  0  0  0  0
  1 25  1  0  0  0  0
  1 26  1  0  0  0  0
  2  3  1  0  0  0  0
  3 23  1  0  0  0  0
  3  4  1  0  0  0  0
  3 27  1  0  0  0  0
  4  5  1  0  0  0  0
  4 28  1  0  0  0  0
  4 29  1  0  0  0  0
  5  6  1  0  0  0  0
  5 30  1  0  0  0  0
  5 31  1  0  0  0  0
  6  7  1  0  0  0  0
  6 22  1  0  0  0  0
  7  8  1  0  0  0  0
  7 32  1  0  0  0  0
  7 33  1  0  0  0  0
  8  9  1  0  0  0  0
  8 10  1  0  0  0  0
  8 34  1  0  0  0  0
  9 35  1  0  0  0  0
 10 11  1  0  0  0  0
 10 36  1  0  0  0  0
 10 37  1  0  0  0  0
 11 21  1  0  0  0  0
 11 12  1  0  0  0  0
 12 13  2  0  0  0  0
 12 38  1  0  0  0  0
 13 14  1  0  0  0  0
 14 21  2  0  0  0  0
 14 15  1  0  0  0  0
 15 16  2  0  0  0  0
 15 39  1  0  0  0  0
 16 17  1  0  0  0  0
 16 18  1  0  0  0  0
 17 40  1  0  0  0  0
 17 41  1  0  0  0  0
 17 42  1  0  0  0  0
 18 19  1  0  0  0  0
 18 20  2  0  0  0  0
 19 43  1  0  0  0  0
 19 44  1  0  0  0  0
 19 45  1  0  0  0  0
 20 21  1  0  0  0  0
 20 46  1  0  0  0  0
 22 23  1  0  0  0  0
 22 47  1  0  0  0  0
 22 48  1  0  0  0  0
 23 49  1  0  0  0  0
 23 50  1  0  0  0  0
M  END
> <s_m_source_file>
AV-unprocessed.smi

> <i_m_source_file_index>
1605

> <i_lp_mmshare_version>
43012

> <i_f3d_flags>
0

> <s_epik_input>
W0NIM11PW0NIXTFbQ0gyXVtDSDJdTihbQ0gyXVtDSDJdMSlbQ0gyXVtDQEhdKFtPSF0pW0NIMl1uKFtjSF1uMiljKGMyMylbY0hdYyhbQ0gzXSljKFtjSF0zKVtDSDNd

> <s_epik_cmdline>
J2VwaWtfcHl0aG9uJywgJy1waCcsICc3LjAnLCAnLXRuJywgJzgnLCAnLW1hJywgJzIwMCcsICctbWV0YWxfYmluZGluZycsICctaW1hZScsICc8aW5maWxlLm1hZT4nLCAnLW9tYWUnLCAnPG91dGZpbGUubWFlPic=

> <r_epik_Ionization_Penalty>
2.02119

> <r_epik_Ionization_Penalty_Charging>
0

> <r_epik_Ionization_Penalty_Neutral>
2.02119

> <r_epik_State_Penalty>
2.11303

> <r_epik_Charging_Adjusted_Penalty>
2.11303

> <i_epik_Tot_Q>
0

> <i_epik_Tot_abs_Q>
0

> <r_epik_Metal_State_Penalty>
2.04251

> <b_epik_Metal_Only>
0

> <s_lp_Force_Field>
OPLS_2005

> <r_lp_Energy>
33.5926

> <b_lp_Chiralities_Consistent>
1

> <s_lp_Variant>
AV-unprocessed.smi:1605-10

> <Gold.Version>
5.8.1

> <Gold.Id.Protein>
6NUR|6NUR_protein|mol2

> <Gold.PLP.Fitness>
54.0320

> <Gold.PLP.PLP>
-50.5981

> <Gold.PLP.part.hbond>
-2.5395

> <Gold.PLP.part.metal>
0.0000

> <Gold.PLP.part.buried>
-6.5429

> <Gold.PLP.part.nonpolar>
-40.3981

> <Gold.PLP.part.repulsive>
0.2210

> <Gold.PLP.ligand.clash>
0.0000

> <Gold.PLP.ligand.torsion>
1.1101

> <Gold.PLP.Chemscore.Hbond>
1.8480

> <Gold.PLP.Chemscore.CHOScore>
0.0000

> <Gold.PLP.Chemscore.Metal>
0.0000

> <Gold.Chemscore.Hbonds>
donor molecule, donor type, donor heavy atom, donor atom, acceptor molecule, acceptor atom, score
      L1  H     9    35       P1  7957  0.56
      P1  H  7989  7998       L1     9  0.29
      P1  H  8011  8017       L1     9  1.00

> <Gold.PLP.Chemscore.Internal.Correction>
0.1101

> <Gold.Rescore>
     Score         DG    S(hbond)    S(metal)    S(lipo)     H(rot)  DE(clash)    DE(int)     intcor
     18.46     -19.61       1.32        0.00     129.87       2.14       0.06       1.09       ----

> <Gold.Chemscore.Fitness>
18.4591

> <Gold.Chemscore.DG>
-19.6054

> <Gold.Chemscore.ZeroCoef>
-5.4800

> <Gold.Chemscore.Hbond>
1.3230

> <Gold.Chemscore.Metal>
0.0000

> <Gold.Chemscore.Lipo>
129.8704

> <Gold.Chemscore.Internal_Hbond>
0.0000

> <Gold.Chemscore.DEClash>
0.0566

> <Gold.Chemscore.DEInternal>
1.0897

> <Gold.Chemscore.Rot>
2.1438

> <Gold.Chemscore.Internal.Correction>
   9.000000E+99

> <Gold.Chemscore.Hbonds>
donor molecule, donor type, donor heavy atom, donor atom, acceptor molecule, acceptor atom, score
      L1  H     9    35       P1  7957  0.56
      P1  H  7989  7998       L1     9  0.02
      P1  H  8011  8017       L1     9  0.53

> <Gold.Chemscore.Hbond.Weighted>
-4.4187

> <Gold.Chemscore.Metal.Weighted>
-0.0000

> <Gold.Chemscore.Lipo.Weighted>
-15.1948

> <Gold.Chemscore.Internal_Hbond.Weighted>
0.0000

> <Gold.Chemscore.DEClash.Weighted>
0.0566

> <Gold.Chemscore.DEInternal.Weighted>
1.0897

> <Gold.Chemscore.Rot.Weighted>
5.4881

> <Gold.Chemscore.Internal.Correction.Weighted>
   9.000000E+99

> <Gold.Protein.RotatedTorsions>
[ 6907 6896 6895 6894 ] final   55.56 input  -60.11 | X-H torsion
[ 7974 7965 7964 7962 ] final  -82.47 input  175.53 | X-H torsion
[ 8008 7997 7996 7995 ] final  -31.65 input   59.86 | X-H torsion
[ 10167 10162 10161 10158 ] final  -75.58 input  -65.29 | X-H torsion
[ 10718 10713 10712 10709 ] final -162.39 input   66.30 | X-H torsion
[ 10763 10752 10751 10750 ] final  -35.83 input  -60.55 | X-H torsion
[ 11005 11000 10999 10996 ] final  112.49 input  -57.11 | X-H torsion

> <Gold.Protein.ActiveResidues>
 VAL166  LYS551  ARG553  GLY616  TRP617  ASP618  TYR619  PRO620  LYS621  CYS622 
 ASP623  PHE694  ASN695  SER759  ASP760  ASP761  ALA762  ILE779  LEU786  VAL792 
 PHE793  MET794  SER795  GLU796  ALA797  LYS798  CYS799  TRP800  GLU811  SER814 

> <Gold.Protein.RotatedAtoms>
  152.3551  134.6952  160.0224 H   0  0  0  0  0  0  0  0  0  0  0  0  # atno 6907 bound_to 6896
  151.7293  133.3312  159.3344 H   0  0  0  0  0  0  0  0  0  0  0  0  # atno 6908 bound_to 6896
  150.7566  134.6311  159.6231 H   0  0  0  0  0  0  0  0  0  0  0  0  # atno 6909 bound_to 6896
  145.5329  140.9519  143.1593 H   0  0  0  0  0  0  0  0  0  0  0  0  # atno 7974 bound_to 7965
  154.4206  140.1758  156.1601 H   0  0  0  0  0  0  0  0  0  0  0  0  # atno 8008 bound_to 7997
  155.9845  140.3374  155.6670 H   0  0  0  0  0  0  0  0  0  0  0  0  # atno 8009 bound_to 7997
  155.6455  140.0684  157.2595 H   0  0  0  0  0  0  0  0  0  0  0  0  # atno 8010 bound_to 7997
  140.4931  143.2376  151.7875 H   0  0  0  0  0  0  0  0  0  0  0  0  # atno 10167 bound_to 10162
  156.6098  130.8846  151.2934 H   0  0  0  0  0  0  0  0  0  0  0  0  # atno 10718 bound_to 10713
  153.8697  135.6832  153.4775 H   0  0  0  0  0  0  0  0  0  0  0  0  # atno 10763 bound_to 10752
  153.1294  135.4704  154.9322 H   0  0  0  0  0  0  0  0  0  0  0  0  # atno 10764 bound_to 10752
  154.7720  135.3241  154.8121 H   0  0  0  0  0  0  0  0  0  0  0  0  # atno 10765 bound_to 10752
  139.8928  134.9531  156.6593 H   0  0  0  0  0  0  0  0  0  0  0  0  # atno 11005 bound_to 11000
  144.7616  139.6942  143.7232 LP  0  0  0  0  0  0  0  0  0  0  0  0  # atno 17320 bound_to 7965
  146.2032  139.5340  142.9729 LP  0  0  0  0  0  0  0  0  0  0  0  0  # atno 17321 bound_to 7965
  139.4855  144.4623  151.9526 LP  0  0  0  0  0  0  0  0  0  0  0  0  # atno 17342 bound_to 10162
  140.3710  144.2855  150.5920 LP  0  0  0  0  0  0  0  0  0  0  0  0  # atno 17343 bound_to 10162
  157.7257  130.9619  150.1626 LP  0  0  0  0  0  0  0  0  0  0  0  0  # atno 17370 bound_to 10713
  156.2399  130.3690  149.8349 LP  0  0  0  0  0  0  0  0  0  0  0  0  # atno 17371 bound_to 10713
  140.7459  133.8938  155.8312 LP  0  0  0  0  0  0  0  0  0  0  0  0  # atno 17394 bound_to 11000
  141.0040  134.1112  157.4289 LP  0  0  0  0  0  0  0  0  0  0  0  0  # atno 17395 bound_to 11000

$$$$
