AV-unprocessed.smi:2831|AV-procd|sdf|10911|dock2
  -GOLD-   2272015353D 1   1.00000     0.00000
 Structure written by MMmdl.
 29 30  0  0  0  0  0  0  0  0  2 V2000
  145.5339  134.6986  162.5949 C   0  0  0  0  0  0  0  0  0  0  0  0
  146.5601  135.3466  161.7300 C   0  0  0  0  0  0  0  0  0  0  0  0
  146.7812  136.6633  161.7329 N   0  0  0  0  0  0  0  0  0  0  0  0
  147.7853  137.0263  160.8467 N   0  0  0  0  0  0  0  0  0  0  0  0
  148.3161  135.9811  160.1963 C   0  0  0  0  0  0  0  0  0  0  0  0
  149.3011  136.1179  159.2932 N   0  5  0  0  0  0  0  0  0  0  0  0
  149.6347  137.3466  158.8372 C   0  0  0  0  0  0  0  0  0  0  0  0
  148.9678  138.3749  158.9687 O   0  0  0  0  0  0  0  0  0  0  0  0
  150.8147  137.3755  158.1947 N   0  0  0  0  0  0  0  0  0  0  0  0
  151.5078  138.5080  157.5638 C   0  0  2  0  0  0  0  0  0  0  0  0
  151.6734  139.6008  158.6364 C   0  0  0  0  0  0  0  0  0  0  0  0
  150.7635  139.0691  156.3390 C   0  0  0  0  0  0  0  0  0  0  0  0
  151.7279  138.8433  155.1759 C   0  0  0  0  0  0  0  0  0  0  0  0
  153.0021  138.8623  155.7952 O   0  0  0  0  0  0  0  0  0  0  0  0
  152.8838  138.1065  156.9903 C   0  0  0  0  0  0  0  0  0  0  0  0
  147.5784  134.4380  160.6259 S   0  0  0  0  0  0  0  0  0  0  0  0
  145.9263  134.5679  163.6035 H   0  0  0  0  0  0  0  0  0  0  0  0
  145.2647  133.7214  162.1939 H   0  0  0  0  0  0  0  0  0  0  0  0
  144.6357  135.3146  162.6429 H   0  0  0  0  0  0  0  0  0  0  0  0
  151.2949  136.4896  158.1332 H   0  0  0  0  0  0  0  0  0  0  0  0
  152.2095  140.4658  158.2440 H   0  0  0  0  0  0  0  0  0  0  0  0
  152.2339  139.2313  159.4961 H   0  0  0  0  0  0  0  0  0  0  0  0
  150.7053  139.9483  158.9993 H   0  0  0  0  0  0  0  0  0  0  0  0
  149.7920  138.6083  156.1559 H   0  0  0  0  0  0  0  0  0  0  0  0
  150.5846  140.1392  156.4516 H   0  0  0  0  0  0  0  0  0  0  0  0
  151.5623  137.8705  154.7111 H   0  0  0  0  0  0  0  0  0  0  0  0
  151.6435  139.6091  154.4048 H   0  0  0  0  0  0  0  0  0  0  0  0
  153.7092  138.3182  157.6707 H   0  0  0  0  0  0  0  0  0  0  0  0
  152.9407  137.0481  156.7340 H   0  0  0  0  0  0  0  0  0  0  0  0
  1  2  1  0  0  0  0
  1 17  1  0  0  0  0
  1 18  1  0  0  0  0
  1 19  1  0  0  0  0
  2 16  1  0  0  0  0
  2  3  2  0  0  0  0
  3  4  1  0  0  0  0
  4  5  2  0  0  0  0
  5  6  1  0  0  0  0
  5 16  1  0  0  0  0
  6  7  1  0  0  0  0
  7  8  2  0  0  0  0
  7  9  1  0  0  0  0
  9 10  1  0  0  0  0
  9 20  1  0  0  0  0
 10 15  1  0  0  0  0
 10 11  1  0  0  0  0
 10 12  1  0  0  0  0
 11 21  1  0  0  0  0
 11 22  1  0  0  0  0
 11 23  1  0  0  0  0
 12 13  1  0  0  0  0
 12 24  1  0  0  0  0
 12 25  1  0  0  0  0
 13 14  1  0  0  0  0
 13 26  1  0  0  0  0
 13 27  1  0  0  0  0
 14 15  1  0  0  0  0
 15 28  1  0  0  0  0
 15 29  1  0  0  0  0
M  CHG  1   6  -1
M  END
> <s_m_source_file>
AV-unprocessed.smi

> <i_m_source_file_index>
2831

> <i_lp_mmshare_version>
43012

> <i_f3d_flags>
0

> <s_epik_input>
W0NIM11jMW5uYyhzMSlbTkhdQyg9TylbTkhdW0NAQF0yKFtDSDNdKVtDSDJdW0NIMl1PW0NIMl0y

> <s_epik_cmdline>
J2VwaWtfcHl0aG9uJywgJy1waCcsICc3LjAnLCAnLXRuJywgJzgnLCAnLW1hJywgJzIwMCcsICctbWV0YWxfYmluZGluZycsICctaW1hZScsICc8aW5maWxlLm1hZT4nLCAnLW9tYWUnLCAnPG91dGZpbGUubWFlPic=

> <r_lp_tautomer_probability>
1

> <r_epik_Ionization_Penalty>
3.33648

> <r_epik_Ionization_Penalty_Charging>
3.18522

> <r_epik_Ionization_Penalty_Neutral>
0.151254

> <r_epik_State_Penalty>
3.18248

> <r_epik_Charging_Adjusted_Penalty>
6.3677

> <i_epik_Tot_Q>
-1

> <i_epik_Tot_abs_Q>
1

> <r_epik_Metal_State_Penalty>
0.469716

> <b_epik_Metal_Only>
1

> <s_lp_Force_Field>
OPLS_2005

> <r_lp_Energy>
14.5797

> <b_lp_Chiralities_Consistent>
1

> <s_lp_Variant>
AV-unprocessed.smi:2831-4

> <Gold.Version>
5.8.1

> <Gold.Id.Protein>
6NUR|6NUR_protein|mol2

> <Gold.PLP.Fitness>
36.6683

> <Gold.PLP.PLP>
-23.8049

> <Gold.PLP.part.hbond>
-5.9465

> <Gold.PLP.part.metal>
0.0000

> <Gold.PLP.part.buried>
-4.0933

> <Gold.PLP.part.nonpolar>
-16.0361

> <Gold.PLP.part.repulsive>
0.0987

> <Gold.PLP.ligand.clash>
0.0000

> <Gold.PLP.ligand.torsion>
0.1117

> <Gold.PLP.Chemscore.Hbond>
4.3567

> <Gold.PLP.Chemscore.CHOScore>
0.0000

> <Gold.PLP.Chemscore.Metal>
0.0000

> <Gold.Chemscore.Hbonds>
donor molecule, donor type, donor heavy atom, donor atom, acceptor molecule, acceptor atom, score
      P1  H  6896  6907       L1     6  1.92
      P1  H  6931  6943       L1     4  0.90
      P1  H  6934  6947       L1     4  0.42
      P1  H  7997  8010       L1    14  1.00

> <Gold.PLP.Chemscore.Internal.Correction>
0.0168

> <Gold.Rescore>
     Score         DG    S(hbond)    S(metal)    S(lipo)     H(rot)  DE(clash)    DE(int)     intcor
     15.62     -17.39       2.70        0.00      46.57       1.00       0.03       1.74       ----

> <Gold.Chemscore.Fitness>
15.6167

> <Gold.Chemscore.DG>
-17.3884

> <Gold.Chemscore.ZeroCoef>
-5.4800

> <Gold.Chemscore.Hbond>
2.7004

> <Gold.Chemscore.Metal>
0.0000

> <Gold.Chemscore.Lipo>
46.5740

> <Gold.Chemscore.Internal_Hbond>
0.0000

> <Gold.Chemscore.DEClash>
0.0274

> <Gold.Chemscore.DEInternal>
1.7443

> <Gold.Chemscore.Rot>
1.0000

> <Gold.Chemscore.Internal.Correction>
   9.000000E+99

> <Gold.Chemscore.Hbonds>
donor molecule, donor type, donor heavy atom, donor atom, acceptor molecule, acceptor atom, score
      P1  H  6896  6907       L1     6  0.63
      P1  H  6931  6943       L1     4  0.44
      P1  H  6934  6947       L1     4  0.02
      P1  H  7997  8010       L1    14  0.59

> <Gold.Chemscore.Hbond.Weighted>
-9.0192

> <Gold.Chemscore.Metal.Weighted>
-0.0000

> <Gold.Chemscore.Lipo.Weighted>
-5.4492

> <Gold.Chemscore.Internal_Hbond.Weighted>
0.0000

> <Gold.Chemscore.DEClash.Weighted>
0.0274

> <Gold.Chemscore.DEInternal.Weighted>
1.7443

> <Gold.Chemscore.Rot.Weighted>
2.5600

> <Gold.Chemscore.Internal.Correction.Weighted>
   9.000000E+99

> <Gold.Protein.RotatedTorsions>
[ 6907 6896 6895 6894 ] final  -41.59 input  -60.11 | X-H torsion
[ 7974 7965 7964 7962 ] final -144.13 input  175.53 | X-H torsion
[ 8008 7997 7996 7995 ] final   93.17 input   59.86 | X-H torsion
[ 10167 10162 10161 10158 ] final   17.60 input  -65.29 | X-H torsion
[ 10718 10713 10712 10709 ] final   38.03 input   66.30 | X-H torsion
[ 10763 10752 10751 10750 ] final  177.13 input  -60.55 | X-H torsion
[ 11005 11000 10999 10996 ] final -107.03 input  -57.11 | X-H torsion

> <Gold.Protein.ActiveResidues>
 VAL166  LYS551  ARG553  GLY616  TRP617  ASP618  TYR619  PRO620  LYS621  CYS622 
 ASP623  PHE694  ASN695  SER759  ASP760  ASP761  ALA762  ILE779  LEU786  VAL792 
 PHE793  MET794  SER795  GLU796  ALA797  LYS798  CYS799  TRP800  GLU811  SER814 

> <Gold.Protein.RotatedAtoms>
  150.9650  134.9032  159.7753 H   0  0  0  0  0  0  0  0  0  0  0  0  # atno 6907 bound_to 6896
  152.5170  134.3620  159.9298 H   0  0  0  0  0  0  0  0  0  0  0  0  # atno 6908 bound_to 6896
  151.3631  133.3841  159.2726 H   0  0  0  0  0  0  0  0  0  0  0  0  # atno 6909 bound_to 6896
  144.8320  140.5749  143.5509 H   0  0  0  0  0  0  0  0  0  0  0  0  # atno 7974 bound_to 7965
  156.0437  140.3316  155.7273 H   0  0  0  0  0  0  0  0  0  0  0  0  # atno 8008 bound_to 7997
  155.5705  140.0627  157.2825 H   0  0  0  0  0  0  0  0  0  0  0  0  # atno 8009 bound_to 7997
  154.4404  140.1861  156.0863 H   0  0  0  0  0  0  0  0  0  0  0  0  # atno 8010 bound_to 7997
  140.5714  143.9154  150.6716 H   0  0  0  0  0  0  0  0  0  0  0  0  # atno 10167 bound_to 10162
  157.3540  130.7614  149.6999 H   0  0  0  0  0  0  0  0  0  0  0  0  # atno 10718 bound_to 10713
  154.4904  135.2779  155.1501 H   0  0  0  0  0  0  0  0  0  0  0  0  # atno 10763 bound_to 10752
  154.3175  135.6216  153.5497 H   0  0  0  0  0  0  0  0  0  0  0  0  # atno 10764 bound_to 10752
  152.9887  135.5735  154.5324 H   0  0  0  0  0  0  0  0  0  0  0  0  # atno 10765 bound_to 10752
  141.0975  133.8945  157.1927 H   0  0  0  0  0  0  0  0  0  0  0  0  # atno 11005 bound_to 11000
  145.4876  139.1491  143.3727 LP  0  0  0  0  0  0  0  0  0  0  0  0  # atno 17320 bound_to 7965
  146.2622  140.5014  142.8849 LP  0  0  0  0  0  0  0  0  0  0  0  0  # atno 17321 bound_to 7965
  140.2630  143.3510  152.1305 LP  0  0  0  0  0  0  0  0  0  0  0  0  # atno 17342 bound_to 10162
  139.5119  144.6909  151.5763 LP  0  0  0  0  0  0  0  0  0  0  0  0  # atno 17343 bound_to 10162
  155.9726  130.4132  150.4072 LP  0  0  0  0  0  0  0  0  0  0  0  0  # atno 17370 bound_to 10713
  157.2139  131.0467  151.2584 LP  0  0  0  0  0  0  0  0  0  0  0  0  # atno 17371 bound_to 10713
  139.9816  135.0096  156.9762 LP  0  0  0  0  0  0  0  0  0  0  0  0  # atno 17394 bound_to 11000
  140.5104  134.1007  155.7269 LP  0  0  0  0  0  0  0  0  0  0  0  0  # atno 17395 bound_to 11000

$$$$
