AV-unprocessed.smi:2541|AV-procd|sdf|9990|dock1
  -GOLD-   2272014 43D 1   1.00000     0.00000
 Structure written by MMmdl.
 38 39  0  0  0  0  0  0  0  0  1 V2000
  150.5166  140.2011  154.7507 O   0  0  0  0  0  0  0  0  0  0  0  0
  149.7636  141.1646  154.8931 C   0  0  0  0  0  0  0  0  0  0  0  0
  148.5586  141.3382  153.9670 C   0  0  0  0  0  0  0  0  0  0  0  0
  147.4335  142.0227  154.6976 C   0  0  0  0  0  0  0  0  0  0  0  0
  146.4995  142.9708  154.1941 C   0  0  0  0  0  0  0  0  0  0  0  0
  145.7214  143.2591  155.2780 C   0  0  0  0  0  0  0  0  0  0  0  0
  146.1315  142.5501  156.3595 O   0  0  0  0  0  0  0  0  0  0  0  0
  147.2233  141.7616  155.9791 N   0  0  0  0  0  0  0  0  0  0  0  0
  149.9384  142.1061  155.8339 N   0  0  0  0  0  0  0  0  0  0  0  0
  151.0511  142.1626  156.7754 C   0  0  0  0  0  0  0  0  0  0  0  0
  151.0178  143.4535  157.6219 C   0  0  1  0  0  0  0  0  0  0  0  0
  149.6767  143.7206  157.9873 O   0  0  0  0  0  0  0  0  0  0  0  0
  151.8975  143.3702  158.8944 C   0  0  0  0  0  0  0  0  0  0  0  0
  151.9689  141.9543  159.5149 C   0  0  0  0  0  0  0  0  0  0  0  0
  152.8785  141.9217  160.7540 C   0  0  0  0  0  0  0  0  0  0  0  0
  152.4346  142.9545  161.8007 C   0  0  0  0  0  0  0  0  0  0  0  0
  152.3816  144.3645  161.1942 C   0  0  0  0  0  0  0  0  0  0  0  0
  151.4682  144.4048  159.9584 C   0  0  0  0  0  0  0  0  0  0  0  0
  148.8520  141.9239  153.0951 H   0  0  0  0  0  0  0  0  0  0  0  0
  148.2496  140.3607  153.5934 H   0  0  0  0  0  0  0  0  0  0  0  0
  146.4179  143.3778  153.1973 H   0  0  0  0  0  0  0  0  0  0  0  0
  144.8777  143.9152  155.4328 H   0  0  0  0  0  0  0  0  0  0  0  0
  149.2721  142.8640  155.8745 H   0  0  0  0  0  0  0  0  0  0  0  0
  151.0169  141.2778  157.4117 H   0  0  0  0  0  0  0  0  0  0  0  0
  151.9869  142.1009  156.2171 H   0  0  0  0  0  0  0  0  0  0  0  0
  151.3758  144.2888  157.0184 H   0  0  0  0  0  0  0  0  0  0  0  0
  149.2027  143.9848  157.2136 H   0  0  0  0  0  0  0  0  0  0  0  0
  152.9107  143.6390  158.5914 H   0  0  0  0  0  0  0  0  0  0  0  0
  150.9707  141.6169  159.7965 H   0  0  0  0  0  0  0  0  0  0  0  0
  152.3420  141.2369  158.7843 H   0  0  0  0  0  0  0  0  0  0  0  0
  152.8728  140.9233  161.1920 H   0  0  0  0  0  0  0  0  0  0  0  0
  153.9084  142.1220  160.4566 H   0  0  0  0  0  0  0  0  0  0  0  0
  151.4512  142.6844  162.1877 H   0  0  0  0  0  0  0  0  0  0  0  0
  153.1172  142.9399  162.6508 H   0  0  0  0  0  0  0  0  0  0  0  0
  152.0283  145.0766  161.9404 H   0  0  0  0  0  0  0  0  0  0  0  0
  153.3876  144.6816  160.9166 H   0  0  0  0  0  0  0  0  0  0  0  0
  151.4825  145.4078  159.5307 H   0  0  0  0  0  0  0  0  0  0  0  0
  150.4396  144.2176  160.2686 H   0  0  0  0  0  0  0  0  0  0  0  0
  1  2  2  0  0  0  0
  2  3  1  0  0  0  0
  2  9  1  0  0  0  0
  3  4  1  0  0  0  0
  3 19  1  0  0  0  0
  3 20  1  0  0  0  0
  4  8  2  0  0  0  0
  4  5  1  0  0  0  0
  5  6  2  0  0  0  0
  5 21  1  0  0  0  0
  6  7  1  0  0  0  0
  6 22  1  0  0  0  0
  7  8  1  0  0  0  0
  9 10  1  0  0  0  0
  9 23  1  0  0  0  0
 10 11  1  0  0  0  0
 10 24  1  0  0  0  0
 10 25  1  0  0  0  0
 11 12  1  0  0  0  0
 11 13  1  0  0  0  0
 11 26  1  0  0  0  0
 12 27  1  0  0  0  0
 13 18  1  0  0  0  0
 13 14  1  0  0  0  0
 13 28  1  0  0  0  0
 14 15  1  0  0  0  0
 14 29  1  0  0  0  0
 14 30  1  0  0  0  0
 15 16  1  0  0  0  0
 15 31  1  0  0  0  0
 15 32  1  0  0  0  0
 16 17  1  0  0  0  0
 16 33  1  0  0  0  0
 16 34  1  0  0  0  0
 17 18  1  0  0  0  0
 17 35  1  0  0  0  0
 17 36  1  0  0  0  0
 18 37  1  0  0  0  0
 18 38  1  0  0  0  0
M  END
> <s_m_source_file>
AV-unprocessed.smi

> <i_m_source_file_index>
2541

> <i_lp_mmshare_version>
43012

> <i_f3d_flags>
0

> <s_epik_input>
bjFvW2NIXVtjSF1jMVtDSDJdQyg9TylbTkhdW0NIMl1bQ0BIXShbT0hdKVtDSF0yW0NIMl1bQ0gyXVtDSDJdW0NIMl1bQ0gyXTI=

> <s_epik_cmdline>
J2VwaWtfcHl0aG9uJywgJy1waCcsICc3LjAnLCAnLXRuJywgJzgnLCAnLW1hJywgJzIwMCcsICctbWV0YWxfYmluZGluZycsICctaW1hZScsICc8aW5maWxlLm1hZT4nLCAnLW9tYWUnLCAnPG91dGZpbGUubWFlPic=

> <r_lp_tautomer_probability>
1

> <r_epik_Ionization_Penalty>
2.3322e-07

> <r_epik_Ionization_Penalty_Charging>
0

> <r_epik_Ionization_Penalty_Neutral>
2.3322e-07

> <r_epik_State_Penalty>
-0

> <r_epik_Charging_Adjusted_Penalty>
0

> <i_epik_Tot_Q>
0

> <i_epik_Tot_abs_Q>
0

> <r_epik_Metal_State_Penalty>
-0

> <b_epik_Metal_Only>
0

> <s_lp_Force_Field>
OPLS_2005

> <r_lp_Energy>
13.2063

> <b_lp_Chiralities_Consistent>
1

> <s_lp_Variant>
AV-unprocessed.smi:2541-2

> <Gold.Version>
5.8.1

> <Gold.Id.Protein>
6NUR|6NUR_protein|mol2

> <Gold.PLP.Fitness>
48.5412

> <Gold.PLP.PLP>
-42.4063

> <Gold.PLP.part.hbond>
-4.0000

> <Gold.PLP.part.metal>
0.0000

> <Gold.PLP.part.buried>
-2.9386

> <Gold.PLP.part.nonpolar>
-35.1008

> <Gold.PLP.part.repulsive>
0.4371

> <Gold.PLP.ligand.clash>
0.0000

> <Gold.PLP.ligand.torsion>
1.4298

> <Gold.PLP.Chemscore.Hbond>
2.9440

> <Gold.PLP.Chemscore.CHOScore>
0.0000

> <Gold.PLP.Chemscore.Metal>
0.0000

> <Gold.Chemscore.Hbonds>
donor molecule, donor type, donor heavy atom, donor atom, acceptor molecule, acceptor atom, score
      L1  H     9    23       P1  8028  0.99
      L1  H    12    27       P1  8028  0.95
      P1  H  7989  7998       L1     1  0.95

> <Gold.PLP.Chemscore.Internal.Correction>
0.1626

> <Gold.Rescore>
     Score         DG    S(hbond)    S(metal)    S(lipo)     H(rot)  DE(clash)    DE(int)     intcor
     16.27     -17.84       1.80        0.00     107.03       2.42       0.15       1.42       ----

> <Gold.Chemscore.Fitness>
16.2662

> <Gold.Chemscore.DG>
-17.8409

> <Gold.Chemscore.ZeroCoef>
-5.4800

> <Gold.Chemscore.Hbond>
1.8044

> <Gold.Chemscore.Metal>
0.0000

> <Gold.Chemscore.Lipo>
107.0270

> <Gold.Chemscore.Internal_Hbond>
0.0000

> <Gold.Chemscore.DEClash>
0.1528

> <Gold.Chemscore.DEInternal>
1.4219

> <Gold.Chemscore.Rot>
2.4172

> <Gold.Chemscore.Internal.Correction>
   9.000000E+99

> <Gold.Chemscore.Hbonds>
donor molecule, donor type, donor heavy atom, donor atom, acceptor molecule, acceptor atom, score
      L1  H     9    23       P1  8028  0.93
      L1  H    12    27       P1  8028  0.21
      P1  H  7989  7998       L1     1  0.21

> <Gold.Chemscore.Hbond.Weighted>
-6.0268

> <Gold.Chemscore.Metal.Weighted>
-0.0000

> <Gold.Chemscore.Lipo.Weighted>
-12.5222

> <Gold.Chemscore.Internal_Hbond.Weighted>
0.0000

> <Gold.Chemscore.DEClash.Weighted>
0.1528

> <Gold.Chemscore.DEInternal.Weighted>
1.4219

> <Gold.Chemscore.Rot.Weighted>
6.1880

> <Gold.Chemscore.Internal.Correction.Weighted>
   9.000000E+99

> <Gold.Protein.RotatedTorsions>
[ 6907 6896 6895 6894 ] final   46.62 input  -60.11 | X-H torsion
[ 7974 7965 7964 7962 ] final  -98.40 input  175.53 | X-H torsion
[ 8008 7997 7996 7995 ] final   63.75 input   59.86 | X-H torsion
[ 10167 10162 10161 10158 ] final -115.14 input  -65.29 | X-H torsion
[ 10718 10713 10712 10709 ] final -111.30 input   66.30 | X-H torsion
[ 10763 10752 10751 10750 ] final  115.24 input  -60.55 | X-H torsion
[ 11005 11000 10999 10996 ] final  112.59 input  -57.11 | X-H torsion

> <Gold.Protein.ActiveResidues>
 VAL166  LYS551  ARG553  GLY616  TRP617  ASP618  TYR619  PRO620  LYS621  CYS622 
 ASP623  PHE694  ASN695  SER759  ASP760  ASP761  ALA762  ILE779  LEU786  VAL792 
 PHE793  MET794  SER795  GLU796  ALA797  LYS798  CYS799  TRP800  GLU811  SER814 

> <Gold.Protein.RotatedAtoms>
  152.2586  134.8058  160.0434 H   0  0  0  0  0  0  0  0  0  0  0  0  # atno 6907 bound_to 6896
  151.8713  133.3471  159.3744 H   0  0  0  0  0  0  0  0  0  0  0  0  # atno 6908 bound_to 6896
  150.7108  134.5037  159.5618 H   0  0  0  0  0  0  0  0  0  0  0  0  # atno 6909 bound_to 6896
  145.3211  140.9422  143.2715 H   0  0  0  0  0  0  0  0  0  0  0  0  # atno 7974 bound_to 7965
  155.6351  140.3496  155.4696 H   0  0  0  0  0  0  0  0  0  0  0  0  # atno 8008 bound_to 7997
  155.9972  140.1205  157.0606 H   0  0  0  0  0  0  0  0  0  0  0  0  # atno 8009 bound_to 7997
  154.4237  140.1108  156.5632 H   0  0  0  0  0  0  0  0  0  0  0  0  # atno 8010 bound_to 7997
  140.0933  143.4680  152.1857 H   0  0  0  0  0  0  0  0  0  0  0  0  # atno 10167 bound_to 10162
  156.0639  130.5860  150.8355 H   0  0  0  0  0  0  0  0  0  0  0  0  # atno 10718 bound_to 10713
  153.5193  135.3601  155.2624 H   0  0  0  0  0  0  0  0  0  0  0  0  # atno 10763 bound_to 10752
  154.8736  135.4041  154.3278 H   0  0  0  0  0  0  0  0  0  0  0  0  # atno 10764 bound_to 10752
  153.3946  135.7073  153.6537 H   0  0  0  0  0  0  0  0  0  0  0  0  # atno 10765 bound_to 10752
  139.8931  134.9533  156.6608 H   0  0  0  0  0  0  0  0  0  0  0  0  # atno 11005 bound_to 11000
  144.8938  139.4739  143.6665 LP  0  0  0  0  0  0  0  0  0  0  0  0  # atno 17320 bound_to 7965
  146.3082  139.7652  142.9040 LP  0  0  0  0  0  0  0  0  0  0  0  0  # atno 17321 bound_to 7965
  139.5712  144.7464  151.3885 LP  0  0  0  0  0  0  0  0  0  0  0  0  # atno 17342 bound_to 10162
  140.7017  143.7615  150.7414 LP  0  0  0  0  0  0  0  0  0  0  0  0  # atno 17343 bound_to 10162
  157.5668  131.0946  150.9478 LP  0  0  0  0  0  0  0  0  0  0  0  0  # atno 17370 bound_to 10713
  156.9703  130.5488  149.5290 LP  0  0  0  0  0  0  0  0  0  0  0  0  # atno 17371 bound_to 10713
  140.7448  133.8947  155.8304 LP  0  0  0  0  0  0  0  0  0  0  0  0  # atno 17394 bound_to 11000
  141.0048  134.1101  157.4281 LP  0  0  0  0  0  0  0  0  0  0  0  0  # atno 17395 bound_to 11000

$$$$
