AV-unprocessed.smi:2314|AV-procd|sdf|9267|dock6
  -GOLD-   2272012493D 1   1.00000     0.00000
 Structure written by MMmdl.
 37 38  0  0  0  0  0  0  0  0  1 V2000
  144.0994  132.7751  148.9857 C   0  0  0  0  0  0  0  0  0  0  0  0
  145.2085  132.7821  150.0530 C   0  0  0  0  0  0  0  0  0  0  0  0
  145.2843  131.4456  150.8079 C   0  0  0  0  0  0  0  0  0  0  0  0
  145.0758  133.8964  151.0023 N   0  0  0  0  0  0  0  0  0  0  0  0
  144.2711  135.0734  150.7164 C   0  0  0  0  0  0  0  0  0  0  0  0
  144.2064  135.8381  152.0422 C   0  0  0  0  0  0  0  0  0  0  0  0
  145.3132  135.2611  152.9395 C   0  0  2  0  0  0  0  0  0  0  0  0
  146.4602  136.1662  152.9585 N   0  0  0  0  0  0  0  0  0  0  0  0
  146.4387  137.4325  153.3990 C   0  0  0  0  0  0  0  0  0  0  0  0
  145.4214  137.9995  153.7976 O   0  0  0  0  0  0  0  0  0  0  0  0
  147.6559  137.9957  153.3286 N   0  0  0  0  0  0  0  0  0  0  0  0
  148.0113  139.3123  153.7193 C   0  0  0  0  0  0  0  0  0  0  0  0
  147.1073  140.3576  153.4379 C   0  0  0  0  0  0  0  0  0  0  0  0
  147.4596  141.6730  153.8004 C   0  0  0  0  0  0  0  0  0  0  0  0
  148.6297  141.9915  154.3931 N   0  0  0  0  0  0  0  0  0  0  0  0
  149.5045  140.9924  154.6372 C   0  0  0  0  0  0  0  0  0  0  0  0
  149.2537  139.6432  154.3143 C   0  0  0  0  0  0  0  0  0  0  0  0
  150.2065  138.7088  154.5471 F   0  0  0  0  0  0  0  0  0  0  0  0
  145.6782  133.9769  152.1967 C   0  0  0  0  0  0  0  0  0  0  0  0
  146.4277  133.1283  152.6795 O   0  0  0  0  0  0  0  0  0  0  0  0
  144.2777  131.9920  148.2482 H   0  0  0  0  0  0  0  0  0  0  0  0
  144.0624  133.7237  148.4496 H   0  0  0  0  0  0  0  0  0  0  0  0
  143.1162  132.5933  149.4206 H   0  0  0  0  0  0  0  0  0  0  0  0
  146.1505  132.9110  149.5170 H   0  0  0  0  0  0  0  0  0  0  0  0
  145.4249  130.6133  150.1178 H   0  0  0  0  0  0  0  0  0  0  0  0
  144.3714  131.2582  151.3739 H   0  0  0  0  0  0  0  0  0  0  0  0
  146.1197  131.4336  151.5090 H   0  0  0  0  0  0  0  0  0  0  0  0
  144.7627  135.6758  149.9511 H   0  0  0  0  0  0  0  0  0  0  0  0
  143.2765  134.8043  150.3588 H   0  0  0  0  0  0  0  0  0  0  0  0
  144.2879  136.9164  151.8964 H   0  0  0  0  0  0  0  0  0  0  0  0
  143.2384  135.6572  152.5117 H   0  0  0  0  0  0  0  0  0  0  0  0
  144.9425  135.0489  153.9439 H   0  0  0  0  0  0  0  0  0  0  0  0
  147.3410  135.7872  152.6427 H   0  0  0  0  0  0  0  0  0  0  0  0
  148.3750  137.4646  152.8602 H   0  0  0  0  0  0  0  0  0  0  0  0
  146.1577  140.1589  152.9632 H   0  0  0  0  0  0  0  0  0  0  0  0
  146.7834  142.4922  153.6061 H   0  0  0  0  0  0  0  0  0  0  0  0
  150.4415  141.2791  155.0912 H   0  0  0  0  0  0  0  0  0  0  0  0
  1  2  1  0  0  0  0
  1 21  1  0  0  0  0
  1 22  1  0  0  0  0
  1 23  1  0  0  0  0
  2  3  1  0  0  0  0
  2  4  1  0  0  0  0
  2 24  1  0  0  0  0
  3 25  1  0  0  0  0
  3 26  1  0  0  0  0
  3 27  1  0  0  0  0
  4 19  1  0  0  0  0
  4  5  1  0  0  0  0
  5  6  1  0  0  0  0
  5 28  1  0  0  0  0
  5 29  1  0  0  0  0
  6  7  1  0  0  0  0
  6 30  1  0  0  0  0
  6 31  1  0  0  0  0
  7  8  1  0  0  0  0
  7 19  1  0  0  0  0
  7 32  1  0  0  0  0
  8  9  1  0  0  0  0
  8 33  1  0  0  0  0
  9 10  2  0  0  0  0
  9 11  1  0  0  0  0
 11 12  1  0  0  0  0
 11 34  1  0  0  0  0
 12 17  1  0  0  0  0
 12 13  2  0  0  0  0
 13 14  1  0  0  0  0
 13 35  1  0  0  0  0
 14 15  2  0  0  0  0
 14 36  1  0  0  0  0
 15 16  1  0  0  0  0
 16 17  2  0  0  0  0
 16 37  1  0  0  0  0
 17 18  1  0  0  0  0
 19 20  2  0  0  0  0
M  END
> <s_m_source_file>
AV-unprocessed.smi

> <i_m_source_file_index>
2314

> <i_lp_mmshare_version>
43012

> <i_f3d_flags>
0

> <s_epik_input>
W0NIM11bQ0hdKFtDSDNdKU4xW0NIMl1bQ0gyXVtDQEhdKEMxPU8pW05IXUMoPU8pW05IXWMyW2NIXVtjSF1uW2NIXWMyRg==

> <s_epik_cmdline>
J2VwaWtfcHl0aG9uJywgJy1waCcsICc3LjAnLCAnLXRuJywgJzgnLCAnLW1hJywgJzIwMCcsICctbWV0YWxfYmluZGluZycsICctaW1hZScsICc8aW5maWxlLm1hZT4nLCAnLW9tYWUnLCAnPG91dGZpbGUubWFlPic=

> <r_epik_Ionization_Penalty>
0.00267735

> <r_epik_Ionization_Penalty_Charging>
0

> <r_epik_Ionization_Penalty_Neutral>
0.00267735

> <r_epik_State_Penalty>
0.00184148

> <r_epik_Charging_Adjusted_Penalty>
0.00184148

> <i_epik_Tot_Q>
0

> <i_epik_Tot_abs_Q>
0

> <r_epik_Metal_State_Penalty>
-0

> <b_epik_Metal_Only>
0

> <s_lp_Force_Field>
OPLS_2005

> <r_lp_Energy>
28.4638

> <b_lp_Chiralities_Consistent>
1

> <s_lp_Variant>
AV-unprocessed.smi:2314-2

> <Gold.Version>
5.8.1

> <Gold.Id.Protein>
6NUR|6NUR_protein|mol2

> <Gold.PLP.Fitness>
40.8201

> <Gold.PLP.PLP>
-36.6487

> <Gold.PLP.part.hbond>
-3.0000

> <Gold.PLP.part.metal>
0.0000

> <Gold.PLP.part.buried>
-3.3546

> <Gold.PLP.part.nonpolar>
-30.4192

> <Gold.PLP.part.repulsive>
1.3087

> <Gold.PLP.ligand.clash>
0.0000

> <Gold.PLP.ligand.torsion>
0.8831

> <Gold.PLP.Chemscore.Hbond>
1.9121

> <Gold.PLP.Chemscore.CHOScore>
0.0000

> <Gold.PLP.Chemscore.Metal>
0.0000

> <Gold.Chemscore.Hbonds>
donor molecule, donor type, donor heavy atom, donor atom, acceptor molecule, acceptor atom, score
      L1  H     8    33       P1  7948  0.88
      L1  H    11    34       P1  7948  1.00
      P1  H  8011  8017       L1    15  0.01

> <Gold.PLP.Chemscore.Internal.Correction>
0.2012

> <Gold.Rescore>
     Score         DG    S(hbond)    S(metal)    S(lipo)     H(rot)  DE(clash)    DE(int)     intcor
     14.28     -17.91       1.90        0.00      79.58       1.26       0.14       3.48       ----

> <Gold.Chemscore.Fitness>
14.2788

> <Gold.Chemscore.DG>
-17.9068

> <Gold.Chemscore.ZeroCoef>
-5.4800

> <Gold.Chemscore.Hbond>
1.9005

> <Gold.Chemscore.Metal>
0.0000

> <Gold.Chemscore.Lipo>
79.5841

> <Gold.Chemscore.Internal_Hbond>
0.0000

> <Gold.Chemscore.DEClash>
0.1446

> <Gold.Chemscore.DEInternal>
3.4834

> <Gold.Chemscore.Rot>
1.2626

> <Gold.Chemscore.Internal.Correction>
   9.000000E+99

> <Gold.Chemscore.Hbonds>
donor molecule, donor type, donor heavy atom, donor atom, acceptor molecule, acceptor atom, score
      L1  H     8    33       P1  7948  0.87
      L1  H    11    34       P1  7948  0.98

> <Gold.Chemscore.Hbond.Weighted>
-6.3476

> <Gold.Chemscore.Metal.Weighted>
-0.0000

> <Gold.Chemscore.Lipo.Weighted>
-9.3113

> <Gold.Chemscore.Internal_Hbond.Weighted>
0.0000

> <Gold.Chemscore.DEClash.Weighted>
0.1446

> <Gold.Chemscore.DEInternal.Weighted>
3.4834

> <Gold.Chemscore.Rot.Weighted>
3.2322

> <Gold.Chemscore.Internal.Correction.Weighted>
   9.000000E+99

> <Gold.Protein.RotatedTorsions>
[ 6907 6896 6895 6894 ] final  -42.96 input  -60.11 | X-H torsion
[ 7974 7965 7964 7962 ] final  -79.40 input  175.53 | X-H torsion
[ 8008 7997 7996 7995 ] final -151.67 input   59.86 | X-H torsion
[ 10167 10162 10161 10158 ] final  154.30 input  -65.29 | X-H torsion
[ 10718 10713 10712 10709 ] final  -30.81 input   66.30 | X-H torsion
[ 10763 10752 10751 10750 ] final   50.99 input  -60.55 | X-H torsion
[ 11005 11000 10999 10996 ] final -142.57 input  -57.11 | X-H torsion

> <Gold.Protein.ActiveResidues>
 VAL166  LYS551  ARG553  GLY616  TRP617  ASP618  TYR619  PRO620  LYS621  CYS622 
 ASP623  PHE694  ASN695  SER759  ASP760  ASP761  ALA762  ILE779  LEU786  VAL792 
 PHE793  MET794  SER795  GLU796  ALA797  LYS798  CYS799  TRP800  GLU811  SER814 

> <Gold.Protein.RotatedAtoms>
  150.9493  134.8895  159.7661 H   0  0  0  0  0  0  0  0  0  0  0  0  # atno 6907 bound_to 6896
  152.5113  134.3829  159.9367 H   0  0  0  0  0  0  0  0  0  0  0  0  # atno 6908 bound_to 6896
  151.3846  133.3769  159.2749 H   0  0  0  0  0  0  0  0  0  0  0  0  # atno 6909 bound_to 6896
  145.5737  140.9461  143.1381 H   0  0  0  0  0  0  0  0  0  0  0  0  # atno 7974 bound_to 7965
  155.6431  140.0704  157.2612 H   0  0  0  0  0  0  0  0  0  0  0  0  # atno 8008 bound_to 7997
  154.4179  140.1747  156.1644 H   0  0  0  0  0  0  0  0  0  0  0  0  # atno 8009 bound_to 7997
  155.9839  140.3351  155.6692 H   0  0  0  0  0  0  0  0  0  0  0  0  # atno 8010 bound_to 7997
  139.4824  144.5199  151.7893 H   0  0  0  0  0  0  0  0  0  0  0  0  # atno 10167 bound_to 10162
  156.3952  130.4380  149.7364 H   0  0  0  0  0  0  0  0  0  0  0  0  # atno 10718 bound_to 10713
  152.9785  135.5861  154.4342 H   0  0  0  0  0  0  0  0  0  0  0  0  # atno 10763 bound_to 10752
  154.3951  135.2768  155.2133 H   0  0  0  0  0  0  0  0  0  0  0  0  # atno 10764 bound_to 10752
  154.3988  135.6108  153.5939 H   0  0  0  0  0  0  0  0  0  0  0  0  # atno 10765 bound_to 10752
  140.8212  134.2629  157.4899 H   0  0  0  0  0  0  0  0  0  0  0  0  # atno 11005 bound_to 11000
  144.7426  139.7407  143.7305 LP  0  0  0  0  0  0  0  0  0  0  0  0  # atno 17320 bound_to 7965
  146.1766  139.4939  142.9893 LP  0  0  0  0  0  0  0  0  0  0  0  0  # atno 17321 bound_to 7965
  140.4712  144.1585  150.5918 LP  0  0  0  0  0  0  0  0  0  0  0  0  # atno 17342 bound_to 10162
  140.4380  143.2538  151.9509 LP  0  0  0  0  0  0  0  0  0  0  0  0  # atno 17343 bound_to 10162
  156.4402  130.7857  151.2878 LP  0  0  0  0  0  0  0  0  0  0  0  0  # atno 17370 bound_to 10713
  157.7501  131.0127  150.3395 LP  0  0  0  0  0  0  0  0  0  0  0  0  # atno 17371 bound_to 10713
  139.8708  134.9536  156.4151 LP  0  0  0  0  0  0  0  0  0  0  0  0  # atno 17394 bound_to 11000
  140.9097  133.7720  155.9777 LP  0  0  0  0  0  0  0  0  0  0  0  0  # atno 17395 bound_to 11000

$$$$
