AV-unprocessed.smi:651|AV-procd|sdf|3190|dock3
  -GOLD-   22720 0113D 1   1.00000     0.00000
 Structure written by MMmdl.
 39 40  0  0  0  0  0  0  0  0  2 V2000
  151.5373  145.6014  160.0934 C   0  0  0  0  0  0  0  0  0  0  0  0
  151.8572  144.2007  159.6156 C   0  0  0  0  0  0  0  0  0  0  0  0
  152.6533  143.3131  160.3706 C   0  0  0  0  0  0  0  0  0  0  0  0
  152.9076  142.0196  159.8688 C   0  0  0  0  0  0  0  0  0  0  0  0
  152.3606  141.6389  158.6234 C   0  0  0  0  0  0  0  0  0  0  0  0
  152.6107  140.2490  158.0600 C   0  0  0  0  0  0  0  0  0  0  0  0
  151.3076  139.4917  157.7766 C   0  0  0  0  0  0  0  0  0  0  0  0
  150.2109  139.9855  158.0435 O   0  0  0  0  0  0  0  0  0  0  0  0
  151.4486  138.2807  157.2173 N   0  0  0  0  0  0  0  0  0  0  0  0
  150.3471  137.3888  156.8485 C   0  0  2  0  0  0  0  0  0  0  0  0
  150.8746  136.0050  156.4213 C   0  0  0  0  0  0  0  0  0  0  0  0
  150.1127  135.6083  155.1514 C   0  0  0  0  0  0  0  0  0  0  0  0
  148.9506  136.5974  155.0399 C   0  0  0  0  0  0  0  0  0  0  0  0
  149.4488  137.8983  155.6872 C   0  0  2  0  0  0  0  0  0  0  0  0
  150.1582  138.7921  154.6466 C   0  0  0  0  0  0  0  0  0  0  0  0
  149.8709  138.5678  153.3620 N   0  0  0  0  0  0  0  0  0  0  0  0
  150.9433  139.6735  154.9922 O   0  0  0  0  0  0  0  0  0  0  0  0
  151.5722  142.5698  157.9127 C   0  0  0  0  0  0  0  0  0  0  0  0
  151.3514  143.7989  158.4279 N   0  3  0  0  0  0  0  0  0  0  0  0
  152.3248  145.9765  160.7477 H   0  0  0  0  0  0  0  0  0  0  0  0
  150.5991  145.6048  160.6487 H   0  0  0  0  0  0  0  0  0  0  0  0
  151.4415  146.2879  159.2515 H   0  0  0  0  0  0  0  0  0  0  0  0
  153.0629  143.6163  161.3231 H   0  0  0  0  0  0  0  0  0  0  0  0
  153.5121  141.3272  160.4367 H   0  0  0  0  0  0  0  0  0  0  0  0
  153.1863  140.3292  157.1367 H   0  0  0  0  0  0  0  0  0  0  0  0
  153.2164  139.6743  158.7622 H   0  0  0  0  0  0  0  0  0  0  0  0
  152.3832  137.9512  157.0225 H   0  0  0  0  0  0  0  0  0  0  0  0
  149.7130  137.2422  157.7252 H   0  0  0  0  0  0  0  0  0  0  0  0
  151.9471  136.0166  156.2213 H   0  0  0  0  0  0  0  0  0  0  0  0
  150.7064  135.2777  157.2164 H   0  0  0  0  0  0  0  0  0  0  0  0
  150.7672  135.7071  154.2846 H   0  0  0  0  0  0  0  0  0  0  0  0
  149.7690  134.5740  155.1812 H   0  0  0  0  0  0  0  0  0  0  0  0
  148.6215  136.7255  154.0074 H   0  0  0  0  0  0  0  0  0  0  0  0
  148.0955  136.2203  155.6025 H   0  0  0  0  0  0  0  0  0  0  0  0
  148.6036  138.4557  156.0951 H   0  0  0  0  0  0  0  0  0  0  0  0
  150.3002  139.1320  152.6429 H   0  0  0  0  0  0  0  0  0  0  0  0
  149.2158  137.8400  153.1150 H   0  0  0  0  0  0  0  0  0  0  0  0
  151.1096  142.3681  156.9574 H   0  0  0  0  0  0  0  0  0  0  0  0
  150.7757  144.4529  157.8972 H   0  0  0  0  0  0  0  0  0  0  0  0
  1  2  1  0  0  0  0
  1 20  1  0  0  0  0
  1 21  1  0  0  0  0
  1 22  1  0  0  0  0
  2 19  1  0  0  0  0
  2  3  2  0  0  0  0
  3  4  1  0  0  0  0
  3 23  1  0  0  0  0
  4  5  2  0  0  0  0
  4 24  1  0  0  0  0
  5  6  1  0  0  0  0
  5 18  1  0  0  0  0
  6  7  1  0  0  0  0
  6 25  1  0  0  0  0
  6 26  1  0  0  0  0
  7  8  2  0  0  0  0
  7  9  1  0  0  0  0
  9 10  1  0  0  0  0
  9 27  1  0  0  0  0
 10 14  1  0  0  0  0
 10 11  1  0  0  0  0
 10 28  1  0  0  0  0
 11 12  1  0  0  0  0
 11 29  1  0  0  0  0
 11 30  1  0  0  0  0
 12 13  1  0  0  0  0
 12 31  1  0  0  0  0
 12 32  1  0  0  0  0
 13 14  1  0  0  0  0
 13 33  1  0  0  0  0
 13 34  1  0  0  0  0
 14 15  1  0  0  0  0
 14 35  1  0  0  0  0
 15 16  1  0  0  0  0
 15 17  2  0  0  0  0
 16 36  1  0  0  0  0
 16 37  1  0  0  0  0
 18 19  2  0  0  0  0
 18 38  1  0  0  0  0
 19 39  1  0  0  0  0
M  CHG  1  19   1
M  END
> <s_m_source_file>
AV-unprocessed.smi

> <i_m_source_file_index>
651

> <i_lp_mmshare_version>
43012

> <i_f3d_flags>
0

> <s_epik_input>
W0NIM11jMVtjSF1bY0hdYyhbY0hdbjEpW0NIMl1DKD1PKVtOSF1bQ0BASF0yW0NIMl1bQ0gyXVtDSDJdW0NASF0yQyg9TylbTkgyXQ==

> <s_epik_cmdline>
J2VwaWtfcHl0aG9uJywgJy1waCcsICc3LjAnLCAnLXRuJywgJzgnLCAnLW1hJywgJzIwMCcsICctbWV0YWxfYmluZGluZycsICctaW1hZScsICc8aW5maWxlLm1hZT4nLCAnLW9tYWUnLCAnPG91dGZpbGUubWFlPic=

> <r_epik_Ionization_Penalty>
2.14971

> <r_epik_Ionization_Penalty_Charging>
2.14971

> <r_epik_Ionization_Penalty_Neutral>
1.65229e-07

> <r_epik_State_Penalty>
2.28946

> <r_epik_Charging_Adjusted_Penalty>
4.43917

> <i_epik_Tot_Q>
1

> <i_epik_Tot_abs_Q>
1

> <r_epik_Metal_State_Penalty>
2.30508

> <b_epik_Metal_Only>
0

> <s_lp_Force_Field>
OPLS_2005

> <r_lp_Energy>
19.6238

> <b_lp_Chiralities_Consistent>
1

> <s_lp_Variant>
AV-unprocessed.smi:651-7

> <Gold.Version>
5.8.1

> <Gold.Id.Protein>
6NUR|6NUR_protein|mol2

> <Gold.PLP.Fitness>
38.9783

> <Gold.PLP.PLP>
-32.6624

> <Gold.PLP.part.hbond>
-2.9968

> <Gold.PLP.part.metal>
0.0000

> <Gold.PLP.part.buried>
-4.0332

> <Gold.PLP.part.nonpolar>
-25.5627

> <Gold.PLP.part.repulsive>
0.2114

> <Gold.PLP.ligand.clash>
0.1171

> <Gold.PLP.ligand.torsion>
0.5987

> <Gold.PLP.Chemscore.Hbond>
2.5360

> <Gold.PLP.Chemscore.CHOScore>
0.0000

> <Gold.PLP.Chemscore.Metal>
0.0000

> <Gold.Chemscore.Hbonds>
donor molecule, donor type, donor heavy atom, donor atom, acceptor molecule, acceptor atom, score
      L1  H    16    36       P1  7957  0.67
      L1  H    16    37       P1  7948  0.82
      P1  H  7989  7998       L1    17  0.99

> <Gold.PLP.Chemscore.Internal.Correction>
0.0224

> <Gold.Rescore>
     Score         DG    S(hbond)    S(metal)    S(lipo)     H(rot)  DE(clash)    DE(int)     intcor
     13.76     -18.63       2.34        0.00      90.10       2.04       0.23       4.64       ----

> <Gold.Chemscore.Fitness>
13.7600

> <Gold.Chemscore.DG>
-18.6338

> <Gold.Chemscore.ZeroCoef>
-5.4800

> <Gold.Chemscore.Hbond>
2.3447

> <Gold.Chemscore.Metal>
0.0000

> <Gold.Chemscore.Lipo>
90.0971

> <Gold.Chemscore.Internal_Hbond>
0.0000

> <Gold.Chemscore.DEClash>
0.2292

> <Gold.Chemscore.DEInternal>
4.6447

> <Gold.Chemscore.Rot>
2.0386

> <Gold.Chemscore.Internal.Correction>
   9.000000E+99

> <Gold.Chemscore.Hbonds>
donor molecule, donor type, donor heavy atom, donor atom, acceptor molecule, acceptor atom, score
      L1  H    16    36       P1  7957  0.34
      L1  H    16    37       P1  7948  0.75
      P1  H  7989  7998       L1    17  0.86

> <Gold.Chemscore.Hbond.Weighted>
-7.8312

> <Gold.Chemscore.Metal.Weighted>
-0.0000

> <Gold.Chemscore.Lipo.Weighted>
-10.5414

> <Gold.Chemscore.Internal_Hbond.Weighted>
0.0000

> <Gold.Chemscore.DEClash.Weighted>
0.2292

> <Gold.Chemscore.DEInternal.Weighted>
4.6447

> <Gold.Chemscore.Rot.Weighted>
5.2188

> <Gold.Chemscore.Internal.Correction.Weighted>
   9.000000E+99

> <Gold.Protein.RotatedTorsions>
[ 6907 6896 6895 6894 ] final   20.09 input  -60.11 | X-H torsion
[ 7974 7965 7964 7962 ] final   34.64 input  175.53 | X-H torsion
[ 8008 7997 7996 7995 ] final -129.19 input   59.86 | X-H torsion
[ 10167 10162 10161 10158 ] final -155.08 input  -65.29 | X-H torsion
[ 10718 10713 10712 10709 ] final  -88.94 input   66.30 | X-H torsion
[ 10763 10752 10751 10750 ] final   80.49 input  -60.55 | X-H torsion
[ 11005 11000 10999 10996 ] final  -55.23 input  -57.11 | X-H torsion

> <Gold.Protein.ActiveResidues>
 VAL166  LYS551  ARG553  GLY616  TRP617  ASP618  TYR619  PRO620  LYS621  CYS622 
 ASP623  PHE694  ASN695  SER759  ASP760  ASP761  ALA762  ILE779  LEU786  VAL792 
 PHE793  MET794  SER795  GLU796  ALA797  LYS798  CYS799  TRP800  GLU811  SER814 

> <Gold.Protein.RotatedAtoms>
  151.8910  135.0416  160.0497 H   0  0  0  0  0  0  0  0  0  0  0  0  # atno 6907 bound_to 6896
  152.2435  133.5151  159.5292 H   0  0  0  0  0  0  0  0  0  0  0  0  # atno 6908 bound_to 6896
  150.7061  134.0973  159.3995 H   0  0  0  0  0  0  0  0  0  0  0  0  # atno 6909 bound_to 6896
  146.1339  139.6243  142.9208 H   0  0  0  0  0  0  0  0  0  0  0  0  # atno 7974 bound_to 7965
  155.2750  140.0441  157.3010 H   0  0  0  0  0  0  0  0  0  0  0  0  # atno 8008 bound_to 7997
  154.5630  140.2352  155.8274 H   0  0  0  0  0  0  0  0  0  0  0  0  # atno 8009 bound_to 7997
  156.2063  140.3011  155.9641 H   0  0  0  0  0  0  0  0  0  0  0  0  # atno 8010 bound_to 7997
  139.6961  143.9341  152.2407 H   0  0  0  0  0  0  0  0  0  0  0  0  # atno 10167 bound_to 10162
  155.9984  130.4854  150.5095 H   0  0  0  0  0  0  0  0  0  0  0  0  # atno 10718 bound_to 10713
  153.1038  135.4800  154.8914 H   0  0  0  0  0  0  0  0  0  0  0  0  # atno 10763 bound_to 10752
  154.7408  135.3082  154.8734 H   0  0  0  0  0  0  0  0  0  0  0  0  # atno 10764 bound_to 10752
  153.9343  135.6841  153.4798 H   0  0  0  0  0  0  0  0  0  0  0  0  # atno 10765 bound_to 10752
  141.1064  133.6613  156.4439 H   0  0  0  0  0  0  0  0  0  0  0  0  # atno 11005 bound_to 11000
  145.5200  141.0432  143.2440 LP  0  0  0  0  0  0  0  0  0  0  0  0  # atno 17320 bound_to 7965
  144.7719  139.6716  143.7191 LP  0  0  0  0  0  0  0  0  0  0  0  0  # atno 17321 bound_to 7965
  139.9170  144.6822  150.8502 LP  0  0  0  0  0  0  0  0  0  0  0  0  # atno 17342 bound_to 10162
  140.7696  143.3402  151.2224 LP  0  0  0  0  0  0  0  0  0  0  0  0  # atno 17343 bound_to 10162
  157.3070  131.0656  151.2028 LP  0  0  0  0  0  0  0  0  0  0  0  0  # atno 17370 bound_to 10713
  157.2987  130.6832  149.6153 LP  0  0  0  0  0  0  0  0  0  0  0  0  # atno 17371 bound_to 10713
  140.4891  134.6592  157.5203 LP  0  0  0  0  0  0  0  0  0  0  0  0  # atno 17394 bound_to 11000
  139.9936  134.6946  155.9647 LP  0  0  0  0  0  0  0  0  0  0  0  0  # atno 17395 bound_to 11000

$$$$
