AV-unprocessed.smi:246|AV-procd|sdf|1881|dock1
  -GOLD-   2262020523D 1   1.00000     0.00000
 Structure written by MMmdl.
 57 60  0  0  0  0  0  0  0  0  1 V2000
  152.8732  142.9749  161.1032 C   0  0  0  0  0  0  0  0  0  0  0  0
  153.1062  143.4314  159.6566 C   0  0  0  0  0  0  0  0  0  0  0  0
  152.0922  144.3244  159.2179 O   0  0  0  0  0  0  0  0  0  0  0  0
  151.0208  143.6986  158.5267 C   0  0  0  0  0  0  0  0  0  0  0  0
  151.5660  143.0610  157.2457 C   0  0  0  0  0  0  0  0  0  0  0  0
  151.3663  141.6569  157.3081 O   0  0  0  0  0  0  0  0  0  0  0  0
  151.0658  141.0694  156.0512 C   0  0  2  0  0  0  0  0  0  0  0  0
  149.9888  141.8722  155.3208 C   0  0  0  0  0  0  0  0  0  0  0  0
  149.3324  140.8503  154.3859 C   0  0  0  0  0  0  0  0  0  0  0  0
  149.6130  139.5472  154.9716 N   0  0  0  0  0  0  0  0  0  0  0  0
  148.8258  138.4632  154.7496 C   0  0  0  0  0  0  0  0  0  0  0  0
  149.1143  137.3070  155.4042 N   0  0  0  0  0  0  0  0  0  0  0  0
  148.3710  136.2137  155.2134 C   0  0  0  0  0  0  0  0  0  0  0  0
  147.3142  136.0536  154.4163 N   0  0  0  0  0  0  0  0  0  0  0  0
  147.0231  137.2041  153.7448 C   0  0  0  0  0  0  0  0  0  0  0  0
  147.7172  138.4442  153.8517 C   0  0  0  0  0  0  0  0  0  0  0  0
  147.1281  139.3805  153.0081 N   0  0  0  0  0  0  0  0  0  0  0  0
  146.1444  138.7359  152.4437 C   0  0  0  0  0  0  0  0  0  0  0  0
  146.0221  137.4160  152.8125 N   0  0  0  0  0  0  0  0  0  0  0  0
  145.0245  136.4713  152.3393 C   0  0  0  0  0  0  0  0  0  0  0  0
  145.5637  135.4695  151.2925 C   0  0  2  0  0  0  0  0  0  0  0  0
  145.0001  135.8636  150.0583 O   0  0  0  0  0  0  0  0  0  0  0  0
  145.1656  133.9927  151.5173 C   0  0  2  0  0  0  0  0  0  0  0  0
  145.7277  132.9796  150.5156 C   0  0  0  0  0  0  0  0  0  0  0  0
  144.7170  131.8444  150.5295 C   0  0  0  0  0  0  0  0  0  0  0  0
  143.4890  132.4545  151.2052 C   0  0  0  0  0  0  0  0  0  0  0  0
  143.7719  133.8438  151.2850 O   0  0  0  0  0  0  0  0  0  0  0  0
  150.4209  139.6860  156.1742 C   0  0  0  0  0  0  0  0  0  0  0  0
  151.9547  141.0168  155.4195 H   0  0  0  0  0  0  0  0  0  0  0  0
  153.6028  142.2175  161.3898 H   0  0  0  0  0  0  0  0  0  0  0  0
  151.8802  142.5401  161.2194 H   0  0  0  0  0  0  0  0  0  0  0  0
  152.9643  143.7992  161.8097 H   0  0  0  0  0  0  0  0  0  0  0  0
  154.0968  143.8729  159.5374 H   0  0  0  0  0  0  0  0  0  0  0  0
  153.0767  142.5582  159.0047 H   0  0  0  0  0  0  0  0  0  0  0  0
  150.5256  142.9459  159.1403 H   0  0  0  0  0  0  0  0  0  0  0  0
  150.2758  144.4521  158.2671 H   0  0  0  0  0  0  0  0  0  0  0  0
  151.0282  143.4580  156.3836 H   0  0  0  0  0  0  0  0  0  0  0  0
  152.6199  143.3118  157.1183 H   0  0  0  0  0  0  0  0  0  0  0  0
  149.2491  142.2306  156.0381 H   0  0  0  0  0  0  0  0  0  0  0  0
  150.3878  142.7381  154.7918 H   0  0  0  0  0  0  0  0  0  0  0  0
  148.2621  141.0386  154.2933 H   0  0  0  0  0  0  0  0  0  0  0  0
  149.7784  140.8942  153.3918 H   0  0  0  0  0  0  0  0  0  0  0  0
  148.6677  135.3422  155.7780 H   0  0  0  0  0  0  0  0  0  0  0  0
  145.4835  139.2066  151.7303 H   0  0  0  0  0  0  0  0  0  0  0  0
  144.5989  135.9374  153.1900 H   0  0  0  0  0  0  0  0  0  0  0  0
  144.2123  137.0589  151.9087 H   0  0  0  0  0  0  0  0  0  0  0  0
  146.6479  135.5580  151.2143 H   0  0  0  0  0  0  0  0  0  0  0  0
  145.2233  135.2134  149.4096 H   0  0  0  0  0  0  0  0  0  0  0  0
  145.4049  133.6747  152.5344 H   0  0  0  0  0  0  0  0  0  0  0  0
  145.7648  133.4155  149.5164 H   0  0  0  0  0  0  0  0  0  0  0  0
  146.7297  132.6403  150.7766 H   0  0  0  0  0  0  0  0  0  0  0  0
  144.4967  131.5068  149.5160 H   0  0  0  0  0  0  0  0  0  0  0  0
  145.0830  130.9889  151.0983 H   0  0  0  0  0  0  0  0  0  0  0  0
  142.5691  132.2718  150.6491 H   0  0  0  0  0  0  0  0  0  0  0  0
  143.3650  132.0538  152.2124 H   0  0  0  0  0  0  0  0  0  0  0  0
  151.1686  138.8961  156.2533 H   0  0  0  0  0  0  0  0  0  0  0  0
  149.7731  139.6400  157.0509 H   0  0  0  0  0  0  0  0  0  0  0  0
  1  2  1  0  0  0  0
  1 30  1  0  0  0  0
  1 31  1  0  0  0  0
  1 32  1  0  0  0  0
  2  3  1  0  0  0  0
  2 33  1  0  0  0  0
  2 34  1  0  0  0  0
  3  4  1  0  0  0  0
  4  5  1  0  0  0  0
  4 35  1  0  0  0  0
  4 36  1  0  0  0  0
  5  6  1  0  0  0  0
  5 37  1  0  0  0  0
  5 38  1  0  0  0  0
  6  7  1  0  0  0  0
  7 29  1  0  0  0  0
  7 28  1  0  0  0  0
  7  8  1  0  0  0  0
  8  9  1  0  0  0  0
  8 39  1  0  0  0  0
  8 40  1  0  0  0  0
  9 10  1  0  0  0  0
  9 41  1  0  0  0  0
  9 42  1  0  0  0  0
 10 11  1  0  0  0  0
 10 28  1  0  0  0  0
 11 16  1  0  0  0  0
 11 12  2  0  0  0  0
 12 13  1  0  0  0  0
 13 14  2  0  0  0  0
 13 43  1  0  0  0  0
 14 15  1  0  0  0  0
 15 19  1  0  0  0  0
 15 16  2  0  0  0  0
 16 17  1  0  0  0  0
 17 18  2  0  0  0  0
 18 19  1  0  0  0  0
 18 44  1  0  0  0  0
 19 20  1  0  0  0  0
 20 21  1  0  0  0  0
 20 45  1  0  0  0  0
 20 46  1  0  0  0  0
 21 22  1  0  0  0  0
 21 23  1  0  0  0  0
 21 47  1  0  0  0  0
 22 48  1  0  0  0  0
 23 27  1  0  0  0  0
 23 24  1  0  0  0  0
 23 49  1  0  0  0  0
 24 25  1  0  0  0  0
 24 50  1  0  0  0  0
 24 51  1  0  0  0  0
 25 26  1  0  0  0  0
 25 52  1  0  0  0  0
 25 53  1  0  0  0  0
 26 27  1  0  0  0  0
 26 54  1  0  0  0  0
 26 55  1  0  0  0  0
 28 56  1  0  0  0  0
 28 57  1  0  0  0  0
M  END
> <s_m_source_file>
AV-unprocessed.smi

> <i_m_source_file_index>
246

> <i_lp_mmshare_version>
43012

> <i_f3d_flags>
0

> <s_epik_input>
W0NIM11bQ0gyXU9bQ0gyXVtDSDJdT1tDQEhdMVtDSDJdW0NIMl1OKFtDSDJdMSljKG5bY0hdbjIpYyhjMjMpbltjSF1uM1tDSDJdW0NASF0oW09IXSlbQ0BASF00W0NIMl1bQ0gyXVtDSDJdTzQ=

> <s_epik_cmdline>
J2VwaWtfcHl0aG9uJywgJy1waCcsICc3LjAnLCAnLXRuJywgJzgnLCAnLW1hJywgJzIwMCcsICctbWV0YWxfYmluZGluZycsICctaW1hZScsICc8aW5maWxlLm1hZT4nLCAnLW9tYWUnLCAnPG91dGZpbGUubWFlPic=

> <r_lp_tautomer_probability>
1

> <r_epik_Ionization_Penalty>
0.0024631

> <r_epik_Ionization_Penalty_Charging>
0

> <r_epik_Ionization_Penalty_Neutral>
0.0024631

> <r_epik_State_Penalty>
0.00162428

> <r_epik_Charging_Adjusted_Penalty>
0.00162428

> <i_epik_Tot_Q>
0

> <i_epik_Tot_abs_Q>
0

> <r_epik_Metal_State_Penalty>
-0

> <b_epik_Metal_Only>
0

> <s_lp_Force_Field>
OPLS_2005

> <r_lp_Energy>
52.7106

> <b_lp_Chiralities_Consistent>
1

> <s_lp_Variant>
AV-unprocessed.smi:246-2

> <Gold.Version>
5.8.1

> <Gold.Id.Protein>
6NUR|6NUR_protein|mol2

> <Gold.PLP.Fitness>
49.2153

> <Gold.PLP.PLP>
-44.4637

> <Gold.PLP.part.hbond>
-2.0000

> <Gold.PLP.part.metal>
0.0000

> <Gold.PLP.part.buried>
-3.0246

> <Gold.PLP.part.nonpolar>
-42.2162

> <Gold.PLP.part.repulsive>
1.6199

> <Gold.PLP.ligand.clash>
0.0000

> <Gold.PLP.ligand.torsion>
2.0326

> <Gold.PLP.Chemscore.Hbond>
1.0000

> <Gold.PLP.Chemscore.CHOScore>
1.7681

> <Gold.PLP.Chemscore.Metal>
0.0000

> <Gold.Chemscore.Hbonds>
donor molecule, donor type, donor heavy atom, donor atom, acceptor molecule, acceptor atom, score
      L1  H    22    48       P1  7921  0.92
      L1  C    18    44       P1 10171  0.92
      L1  C    18    44       P1 10175  0.82

> <Gold.PLP.Chemscore.Internal.Correction>
0.5127

> <Gold.Rescore>
     Score         DG    S(hbond)    S(metal)    S(lipo)     H(rot)  DE(clash)    DE(int)     intcor
      9.76     -13.81       0.95        0.00     112.08       3.10       1.01       3.04       ----

> <Gold.Chemscore.Fitness>
9.7633

> <Gold.Chemscore.DG>
-13.8113

> <Gold.Chemscore.ZeroCoef>
-5.4800

> <Gold.Chemscore.Hbond>
0.9463

> <Gold.Chemscore.Metal>
0.0000

> <Gold.Chemscore.Lipo>
112.0796

> <Gold.Chemscore.Internal_Hbond>
0.0000

> <Gold.Chemscore.DEClash>
1.0079

> <Gold.Chemscore.DEInternal>
3.0401

> <Gold.Chemscore.Rot>
3.1026

> <Gold.Chemscore.Internal.Correction>
   9.000000E+99

> <Gold.Chemscore.Hbonds>
donor molecule, donor type, donor heavy atom, donor atom, acceptor molecule, acceptor atom, score
      L1  H    22    48       P1  7921  0.84

> <Gold.Chemscore.Hbond.Weighted>
-3.1606

> <Gold.Chemscore.Metal.Weighted>
-0.0000

> <Gold.Chemscore.Lipo.Weighted>
-13.1133

> <Gold.Chemscore.Internal_Hbond.Weighted>
0.0000

> <Gold.Chemscore.DEClash.Weighted>
1.0079

> <Gold.Chemscore.DEInternal.Weighted>
3.0401

> <Gold.Chemscore.Rot.Weighted>
7.9426

> <Gold.Chemscore.Internal.Correction.Weighted>
   9.000000E+99

> <Gold.Protein.RotatedTorsions>
[ 6907 6896 6895 6894 ] final   80.90 input  -60.11 | X-H torsion
[ 7974 7965 7964 7962 ] final  136.05 input  175.53 | X-H torsion
[ 8008 7997 7996 7995 ] final  -81.51 input   59.86 | X-H torsion
[ 10167 10162 10161 10158 ] final  129.65 input  -65.29 | X-H torsion
[ 10718 10713 10712 10709 ] final  -15.15 input   66.30 | X-H torsion
[ 10763 10752 10751 10750 ] final  149.73 input  -60.55 | X-H torsion
[ 11005 11000 10999 10996 ] final  127.13 input  -57.11 | X-H torsion

> <Gold.Protein.ActiveResidues>
 VAL166  LYS551  ARG553  GLY616  TRP617  ASP618  TYR619  PRO620  LYS621  CYS622 
 ASP623  PHE694  ASN695  SER759  ASP760  ASP761  ALA762  ILE779  LEU786  VAL792 
 PHE793  MET794  SER795  GLU796  ALA797  LYS798  CYS799  TRP800  GLU811  SER814 

> <Gold.Protein.RotatedAtoms>
  152.5250  134.3287  159.9174 H   0  0  0  0  0  0  0  0  0  0  0  0  # atno 6907 bound_to 6896
  151.3236  133.4023  159.2664 H   0  0  0  0  0  0  0  0  0  0  0  0  # atno 6908 bound_to 6896
  150.9938  134.9284  159.7972 H   0  0  0  0  0  0  0  0  0  0  0  0  # atno 6909 bound_to 6896
  144.9603  139.4718  143.5483 H   0  0  0  0  0  0  0  0  0  0  0  0  # atno 7974 bound_to 7965
  154.5990  140.0647  156.9343 H   0  0  0  0  0  0  0  0  0  0  0  0  # atno 8008 bound_to 7997
  155.2164  140.3326  155.4303 H   0  0  0  0  0  0  0  0  0  0  0  0  # atno 8009 bound_to 7997
  156.2306  140.1839  156.7236 H   0  0  0  0  0  0  0  0  0  0  0  0  # atno 8010 bound_to 7997
  139.5467  144.6780  151.4449 H   0  0  0  0  0  0  0  0  0  0  0  0  # atno 10167 bound_to 10162
  156.6058  130.4836  149.6221 H   0  0  0  0  0  0  0  0  0  0  0  0  # atno 10718 bound_to 10713
  154.0760  135.2863  155.3299 H   0  0  0  0  0  0  0  0  0  0  0  0  # atno 10763 bound_to 10752
  154.6715  135.5297  153.8148 H   0  0  0  0  0  0  0  0  0  0  0  0  # atno 10764 bound_to 10752
  153.0467  135.6559  154.0938 H   0  0  0  0  0  0  0  0  0  0  0  0  # atno 10765 bound_to 10752
  139.9491  134.9625  156.8809 H   0  0  0  0  0  0  0  0  0  0  0  0  # atno 11005 bound_to 11000
  146.3351  139.8748  142.8834 LP  0  0  0  0  0  0  0  0  0  0  0  0  # atno 17320 bound_to 7965
  145.2710  141.0108  143.3772 LP  0  0  0  0  0  0  0  0  0  0  0  0  # atno 17321 bound_to 7965
  140.6718  143.8277  150.7009 LP  0  0  0  0  0  0  0  0  0  0  0  0  # atno 17342 bound_to 10162
  140.1703  143.4200  152.2005 LP  0  0  0  0  0  0  0  0  0  0  0  0  # atno 17343 bound_to 10162
  156.2431  130.6863  151.1574 LP  0  0  0  0  0  0  0  0  0  0  0  0  # atno 17370 bound_to 10713
  157.7267  131.0644  150.5896 LP  0  0  0  0  0  0  0  0  0  0  0  0  # atno 17371 bound_to 10713
  140.5761  134.0397  155.7447 LP  0  0  0  0  0  0  0  0  0  0  0  0  # atno 17394 bound_to 11000
  141.1150  133.9555  157.2839 LP  0  0  0  0  0  0  0  0  0  0  0  0  # atno 17395 bound_to 11000

$$$$
