AV-unprocessed.smi:2923|AV-procd|sdf|11212|dock5
  -GOLD-   2272016103D 1   1.00000     0.00000
 Structure written by MMmdl.
 46 48  0  0  0  0  0  0  0  0  1 V2000
  145.5808  143.2769  154.5193 C   0  0  0  0  0  0  0  0  0  0  0  0
  146.5360  142.4446  155.2343 N   0  0  0  0  0  0  0  0  0  0  0  0
  146.5311  142.5604  156.6843 C   0  0  0  0  0  0  0  0  0  0  0  0
  146.5420  141.1148  154.7930 C   0  0  0  0  0  0  0  0  0  0  0  0
  145.5821  140.1837  155.2507 C   0  0  0  0  0  0  0  0  0  0  0  0
  145.6353  138.8619  154.7685 C   0  0  0  0  0  0  0  0  0  0  0  0
  146.6428  138.5141  153.8376 C   0  0  0  0  0  0  0  0  0  0  0  0
  146.8119  137.2141  153.2897 N   0  0  0  0  0  0  0  0  0  0  0  0
  145.9288  136.2016  153.2530 C   0  0  0  0  0  0  0  0  0  0  0  0
  144.7856  136.2351  153.7076 O   0  0  0  0  0  0  0  0  0  0  0  0
  146.4419  135.1343  152.6265 N   0  0  0  0  0  0  0  0  0  0  0  0
  145.7181  133.8880  152.3966 C   0  0  2  0  0  0  0  0  0  0  0  0
  146.4353  132.9643  151.3995 C   0  0  1  0  0  0  0  0  0  0  0  0
  146.9738  131.6370  151.8605 C   0  0  0  0  0  0  0  0  0  0  0  0
  145.8453  130.6664  151.5001 C   0  0  0  0  0  0  0  0  0  0  0  0
  144.6818  131.4852  151.4086 O   0  0  0  0  0  0  0  0  0  0  0  0
  145.0669  132.7083  150.7862 C   0  0  1  0  0  0  0  0  0  0  0  0
  144.5226  134.0076  151.4169 C   0  0  0  0  0  0  0  0  0  0  0  0
  143.1289  133.9188  152.0406 C   0  0  0  0  0  0  0  0  0  0  0  0
  144.5045  135.2107  150.4625 C   0  0  0  0  0  0  0  0  0  0  0  0
  147.5611  139.5158  153.4598 C   0  0  0  0  0  0  0  0  0  0  0  0
  147.5152  140.7848  153.9170 N   0  0  0  0  0  0  0  0  0  0  0  0
  145.6593  143.1212  153.4426 H   0  0  0  0  0  0  0  0  0  0  0  0
  145.7752  144.3306  154.7215 H   0  0  0  0  0  0  0  0  0  0  0  0
  144.5588  143.0531  154.8278 H   0  0  0  0  0  0  0  0  0  0  0  0
  147.2893  141.9137  157.1276 H   0  0  0  0  0  0  0  0  0  0  0  0
  145.5588  142.2863  157.0954 H   0  0  0  0  0  0  0  0  0  0  0  0
  146.7496  143.5868  156.9803 H   0  0  0  0  0  0  0  0  0  0  0  0
  144.8208  140.4718  155.9607 H   0  0  0  0  0  0  0  0  0  0  0  0
  144.9153  138.1447  155.1307 H   0  0  0  0  0  0  0  0  0  0  0  0
  147.6837  137.0600  152.8047 H   0  0  0  0  0  0  0  0  0  0  0  0
  147.3877  135.1883  152.2780 H   0  0  0  0  0  0  0  0  0  0  0  0
  145.4493  133.3595  153.3142 H   0  0  0  0  0  0  0  0  0  0  0  0
  147.0866  133.5081  150.7128 H   0  0  0  0  0  0  0  0  0  0  0  0
  147.9072  131.3676  151.3655 H   0  0  0  0  0  0  0  0  0  0  0  0
  147.1533  131.6422  152.9361 H   0  0  0  0  0  0  0  0  0  0  0  0
  146.0313  130.2061  150.5286 H   0  0  0  0  0  0  0  0  0  0  0  0
  145.7209  129.8721  152.2363 H   0  0  0  0  0  0  0  0  0  0  0  0
  145.0677  132.6634  149.6960 H   0  0  0  0  0  0  0  0  0  0  0  0
  142.3626  133.7443  151.2850 H   0  0  0  0  0  0  0  0  0  0  0  0
  142.8695  134.8359  152.5705 H   0  0  0  0  0  0  0  0  0  0  0  0
  143.0619  133.1044  152.7622 H   0  0  0  0  0  0  0  0  0  0  0  0
  143.7639  135.0806  149.6728 H   0  0  0  0  0  0  0  0  0  0  0  0
  145.4686  135.3547  149.9739 H   0  0  0  0  0  0  0  0  0  0  0  0
  144.2643  136.1371  150.9853 H   0  0  0  0  0  0  0  0  0  0  0  0
  148.3565  139.2953  152.7628 H   0  0  0  0  0  0  0  0  0  0  0  0
  1  2  1  0  0  0  0
  1 23  1  0  0  0  0
  1 24  1  0  0  0  0
  1 25  1  0  0  0  0
  2  3  1  0  0  0  0
  2  4  1  0  0  0  0
  3 26  1  0  0  0  0
  3 27  1  0  0  0  0
  3 28  1  0  0  0  0
  4 22  1  0  0  0  0
  4  5  2  0  0  0  0
  5  6  1  0  0  0  0
  5 29  1  0  0  0  0
  6  7  2  0  0  0  0
  6 30  1  0  0  0  0
  7  8  1  0  0  0  0
  7 21  1  0  0  0  0
  8  9  1  0  0  0  0
  8 31  1  0  0  0  0
  9 10  2  0  0  0  0
  9 11  1  0  0  0  0
 11 12  1  0  0  0  0
 11 32  1  0  0  0  0
 12 18  1  0  0  0  0
 12 13  1  0  0  0  0
 12 33  1  0  0  0  0
 13 17  1  0  0  0  0
 13 14  1  0  0  0  0
 13 34  1  0  0  0  0
 14 15  1  0  0  0  0
 14 35  1  0  0  0  0
 14 36  1  0  0  0  0
 15 16  1  0  0  0  0
 15 37  1  0  0  0  0
 15 38  1  0  0  0  0
 16 17  1  0  0  0  0
 17 18  1  0  0  0  0
 17 39  1  0  0  0  0
 18 19  1  0  0  0  0
 18 20  1  0  0  0  0
 19 40  1  0  0  0  0
 19 41  1  0  0  0  0
 19 42  1  0  0  0  0
 20 43  1  0  0  0  0
 20 44  1  0  0  0  0
 20 45  1  0  0  0  0
 21 22  2  0  0  0  0
 21 46  1  0  0  0  0
M  END
> <s_m_source_file>
AV-unprocessed.smi

> <i_m_source_file_index>
2923

> <i_lp_mmshare_version>
43012

> <i_f3d_flags>
0

> <s_epik_input>
W0NIM11OKFtDSDNdKWMxW2NIXVtjSF1jKFtjSF1uMSlbTkhdQyg9TylbTkhdW0NASF0yQyhbQ0gzXSkoW0NIM10pW0NAQEhdKFtDQEhdMjMpT1tDSDJdW0NIMl0z

> <s_epik_cmdline>
J2VwaWtfcHl0aG9uJywgJy1waCcsICc3LjAnLCAnLXRuJywgJzgnLCAnLW1hJywgJzIwMCcsICctbWV0YWxfYmluZGluZycsICctaW1hZScsICc8aW5maWxlLm1hZT4nLCAnLW9tYWUnLCAnPG91dGZpbGUubWFlPic=

> <r_lp_tautomer_probability>
1

> <r_epik_Ionization_Penalty>
0.628785

> <r_epik_Ionization_Penalty_Charging>
0

> <r_epik_Ionization_Penalty_Neutral>
0.628785

> <r_epik_State_Penalty>
0.644286

> <r_epik_Charging_Adjusted_Penalty>
0.644286

> <i_epik_Tot_Q>
0

> <i_epik_Tot_abs_Q>
0

> <r_epik_Metal_State_Penalty>
0.308404

> <b_epik_Metal_Only>
0

> <s_lp_Force_Field>
OPLS_2005

> <r_lp_Energy>
42.6723

> <b_lp_Chiralities_Consistent>
1

> <s_lp_Variant>
AV-unprocessed.smi:2923-11

> <Gold.Version>
5.8.1

> <Gold.Id.Protein>
6NUR|6NUR_protein|mol2

> <Gold.PLP.Fitness>
36.1245

> <Gold.PLP.PLP>
-27.7662

> <Gold.PLP.part.hbond>
-2.0000

> <Gold.PLP.part.metal>
0.0000

> <Gold.PLP.part.buried>
-1.1526

> <Gold.PLP.part.nonpolar>
-25.0932

> <Gold.PLP.part.repulsive>
0.5508

> <Gold.PLP.ligand.clash>
0.0000

> <Gold.PLP.ligand.torsion>
0.5130

> <Gold.PLP.Chemscore.Hbond>
2.0000

> <Gold.PLP.Chemscore.CHOScore>
1.0000

> <Gold.PLP.Chemscore.Metal>
0.0000

> <Gold.Chemscore.Hbonds>
donor molecule, donor type, donor heavy atom, donor atom, acceptor molecule, acceptor atom, score
      L1  H     8    31       P1  7948  1.00
      L1  H    11    32       P1  7948  1.00
      L1  C    21    46       P1  7957  1.00

> <Gold.PLP.Chemscore.Internal.Correction>
0.3843

> <Gold.Rescore>
     Score         DG    S(hbond)    S(metal)    S(lipo)     H(rot)  DE(clash)    DE(int)     intcor
     15.03     -17.98       1.96        0.00      77.04       1.19       1.45       1.50       ----

> <Gold.Chemscore.Fitness>
15.0269

> <Gold.Chemscore.DG>
-17.9803

> <Gold.Chemscore.ZeroCoef>
-5.4800

> <Gold.Chemscore.Hbond>
1.9588

> <Gold.Chemscore.Metal>
0.0000

> <Gold.Chemscore.Lipo>
77.0425

> <Gold.Chemscore.Internal_Hbond>
0.0000

> <Gold.Chemscore.DEClash>
1.4492

> <Gold.Chemscore.DEInternal>
1.5042

> <Gold.Chemscore.Rot>
1.1937

> <Gold.Chemscore.Internal.Correction>
   9.000000E+99

> <Gold.Chemscore.Hbonds>
donor molecule, donor type, donor heavy atom, donor atom, acceptor molecule, acceptor atom, score
      L1  H     8    31       P1  7948  1.00
      L1  H    11    32       P1  7948  0.95

> <Gold.Chemscore.Hbond.Weighted>
-6.5422

> <Gold.Chemscore.Metal.Weighted>
-0.0000

> <Gold.Chemscore.Lipo.Weighted>
-9.0140

> <Gold.Chemscore.Internal_Hbond.Weighted>
0.0000

> <Gold.Chemscore.DEClash.Weighted>
1.4492

> <Gold.Chemscore.DEInternal.Weighted>
1.5042

> <Gold.Chemscore.Rot.Weighted>
3.0559

> <Gold.Chemscore.Internal.Correction.Weighted>
   9.000000E+99

> <Gold.Protein.RotatedTorsions>
[ 6907 6896 6895 6894 ] final -135.97 input  -60.11 | X-H torsion
[ 7974 7965 7964 7962 ] final  144.05 input  175.53 | X-H torsion
[ 8008 7997 7996 7995 ] final   38.09 input   59.86 | X-H torsion
[ 10167 10162 10161 10158 ] final -144.12 input  -65.29 | X-H torsion
[ 10718 10713 10712 10709 ] final  131.56 input   66.30 | X-H torsion
[ 10763 10752 10751 10750 ] final  145.89 input  -60.55 | X-H torsion
[ 11005 11000 10999 10996 ] final   25.09 input  -57.11 | X-H torsion

> <Gold.Protein.ActiveResidues>
 VAL166  LYS551  ARG553  GLY616  TRP617  ASP618  TYR619  PRO620  LYS621  CYS622 
 ASP623  PHE694  ASN695  SER759  ASP760  ASP761  ALA762  ILE779  LEU786  VAL792 
 PHE793  MET794  SER795  GLU796  ALA797  LYS798  CYS799  TRP800  GLU811  SER814 

> <Gold.Protein.RotatedAtoms>
  151.0044  133.6025  159.2690 H   0  0  0  0  0  0  0  0  0  0  0  0  # atno 6907 bound_to 6896
  151.3200  135.0815  159.9312 H   0  0  0  0  0  0  0  0  0  0  0  0  # atno 6908 bound_to 6896
  152.5283  133.9693  159.7808 H   0  0  0  0  0  0  0  0  0  0  0  0  # atno 6909 bound_to 6896
  144.8868  139.5617  143.5817 H   0  0  0  0  0  0  0  0  0  0  0  0  # atno 7974 bound_to 7965
  155.2144  140.3326  155.4324 H   0  0  0  0  0  0  0  0  0  0  0  0  # atno 8008 bound_to 7997
  156.2358  140.1871  156.7172 H   0  0  0  0  0  0  0  0  0  0  0  0  # atno 8009 bound_to 7997
  154.6056  140.0616  156.9412 H   0  0  0  0  0  0  0  0  0  0  0  0  # atno 8010 bound_to 7997
  139.7929  143.7941  152.2651 H   0  0  0  0  0  0  0  0  0  0  0  0  # atno 10167 bound_to 10162
  157.4955  131.1092  150.9498 H   0  0  0  0  0  0  0  0  0  0  0  0  # atno 10718 bound_to 10713
  154.0129  135.2913  155.3390 H   0  0  0  0  0  0  0  0  0  0  0  0  # atno 10763 bound_to 10752
  154.7092  135.5156  153.8645 H   0  0  0  0  0  0  0  0  0  0  0  0  # atno 10764 bound_to 10752
  153.0715  135.6649  154.0358 H   0  0  0  0  0  0  0  0  0  0  0  0  # atno 10765 bound_to 10752
  140.3516  134.2222  155.7679 H   0  0  0  0  0  0  0  0  0  0  0  0  # atno 11005 bound_to 11000
  146.3029  139.7485  142.9078 LP  0  0  0  0  0  0  0  0  0  0  0  0  # atno 17320 bound_to 7965
  145.3854  141.0364  143.3154 LP  0  0  0  0  0  0  0  0  0  0  0  0  # atno 17321 bound_to 7965
  139.8038  144.7363  150.9789 LP  0  0  0  0  0  0  0  0  0  0  0  0  # atno 17342 bound_to 10162
  140.7820  143.4318  151.0682 LP  0  0  0  0  0  0  0  0  0  0  0  0  # atno 17343 bound_to 10162
  157.0186  130.5665  149.5329 LP  0  0  0  0  0  0  0  0  0  0  0  0  # atno 17370 bound_to 10713
  156.0198  130.5293  150.8242 LP  0  0  0  0  0  0  0  0  0  0  0  0  # atno 17371 bound_to 10713
  141.2010  133.7973  157.0460 LP  0  0  0  0  0  0  0  0  0  0  0  0  # atno 17394 bound_to 11000
  140.0698  134.9708  157.1448 LP  0  0  0  0  0  0  0  0  0  0  0  0  # atno 17395 bound_to 11000

$$$$
