#       Name:                AV-unprocessed.smi:1533
#       Creating user name   scv26
#       Creation time:       Fri Mar 27 06:31:28 2020


#       File generated by GOLD software.
#

@<TRIPOS>MOLECULE
AV-unprocessed.smi:1533
    43    45     1
SMALL
NO_CHARGES


@<TRIPOS>ATOM
      1 ****        -3.0933   6.3377   0.3561 C.3            1 S1                 0.0000
      2 ****        -3.1756   4.8657   0.1358 C.2            1 S1                 0.0000
      3 ****        -4.2454   4.3069  -0.4170 N.2            1 S1                 0.0000
      4 ****        -3.9188   2.9433  -0.4471 O.3            1 S1                 0.0000
      5 ****        -2.6884   2.8460   0.1113 C.2            1 S1                 0.0000
      6 ****        -2.0325   1.5081   0.1856 C.3            1 S1                 0.0000
      7 ****        -1.3115   1.1357  -1.1198 C.3            1 S1                 0.0000
      8 ****        -0.6743  -0.1731  -1.0274 N.am           1 S1                 0.0000
      9 ****         0.5078  -0.4130  -0.4385 C.2            1 S1                 0.0000
     10 ****         1.1825   0.4713   0.0899 O.2            1 S1                 0.0000
     11 ****         0.9910  -1.8742  -0.4517 C.3            1 S1                 0.0000
     12 ****         2.3671  -2.0585  -1.1384 C.3            1 S1                 0.0000
     13 ****         3.2089  -2.7675  -0.0590 C.3            1 S1                 0.0000
     14 ****         2.6830  -4.2016   0.1421 C.3            1 S1                 0.0000
     15 ****         1.3493  -3.9739   0.8804 C.3            1 S1                 0.0000
     16 ****         1.2703  -2.4375   0.9654 C.3            1 S1                 0.0000
     17 ****         2.7357  -2.0809   1.2145 C.3            1 S1                 0.0000
     18 ****        -2.1686   4.0156   0.4755 N.2            1 S1                 0.0000
     19 ****        -4.0692   6.8068   0.2261 H              1 S1                 0.0000
     20 ****        -2.3966   6.7850  -0.3532 H              1 S1                 0.0000
     21 ****        -2.7428   6.5491   1.3666 H              1 S1                 0.0000
     22 ****        -1.3299   1.5158   1.0200 H              1 S1                 0.0000
     23 ****        -2.7910   0.7614   0.4233 H              1 S1                 0.0000
     24 ****        -2.0253   1.1085  -1.9438 H              1 S1                 0.0000
     25 ****        -0.5703   1.8949  -1.3765 H              1 S1                 0.0000
     26 ****        -1.1660  -0.9520  -1.4416 H              1 S1                 0.0000
     27 ****         0.2377  -2.4851  -0.9527 H              1 S1                 0.0000
     28 ****         2.2922  -2.6516  -2.0505 H              1 S1                 0.0000
     29 ****         2.8255  -1.1057  -1.4091 H              1 S1                 0.0000
     30 ****         4.2831  -2.7162  -0.2388 H              1 S1                 0.0000
     31 ****         2.5513  -4.7294  -0.8032 H              1 S1                 0.0000
     32 ****         3.3677  -4.7850   0.7592 H              1 S1                 0.0000
     33 ****         0.4995  -4.4103   0.3544 H              1 S1                 0.0000
     34 ****         1.3848  -4.4146   1.8777 H              1 S1                 0.0000
     35 ****         0.5803  -2.0815   1.7318 H              1 S1                 0.0000
     36 ****         3.1411  -2.5298   2.1232 H              1 S1                 0.0000
     37 ****         2.9425  -1.0107   1.2312 H              1 S1                 0.0000
     38 ****        -5.0828   4.7513  -0.7354 LP             1 S1                 0.0000
     39 ****        -3.9007   2.6103  -1.3899 LP             1 S1                 0.0000
     40 ****        -4.5835   2.4143   0.0805 LP             1 S1                 0.0000
     41 ****         0.8549   1.4161   0.0921 LP             1 S1                 0.0000
     42 ****         2.0579   0.2446   0.5167 LP             1 S1                 0.0000
     43 ****        -1.2795   4.2156   0.8870 LP             1 S1                 0.0000
@<TRIPOS>BOND
    1    1    2 1     
    2    1   19 1     
    3    1   20 1     
    4    1   21 1     
    5    2   18 1     
    6    2    3 2     
    7    3    4 1     
    8    4    5 1     
    9    5    6 1     
   10    5   18 2     
   11    6    7 1     
   12    6   22 1     
   13    6   23 1     
   14    7    8 1     
   15    7   24 1     
   16    7   25 1     
   17    8    9 am    
   18    8   26 1     
   19    9   10 2     
   20    9   11 1     
   21   11   16 1     
   22   11   12 1     
   23   11   27 1     
   24   12   13 1     
   25   12   28 1     
   26   12   29 1     
   27   13   17 1     
   28   13   14 1     
   29   13   30 1     
   30   14   15 1     
   31   14   31 1     
   32   14   32 1     
   33   15   16 1     
   34   15   33 1     
   35   15   34 1     
   36   16   17 1     
   37   16   35 1     
   38   17   36 1     
   39   17   37 1     
   40    3   38 1     
   41    4   39 1     
   42    4   40 1     
   43   10   41 1     
   44   10   42 1     
   45   18   43 1     
@<TRIPOS>SUBSTRUCTURE
      1 S1             1
@<TRIPOS>SET
LONE_PAIRS      STATIC     ATOMS    <user>   **** ""
6 38 39 40 41 42 43
DONOR_HYDROGENS      STATIC     ATOMS    <user>   **** ""
1 26
ATOM$BLUE        STATIC     ATOMS    COLORGROUP SYSTEM
6 38 39 40 41 42 43
ATOM$RED        STATIC     ATOMS    COLORGROUP SYSTEM
1 26
