#       Name:                AV-unprocessed.smi:3170
#       Creating user name   scv26
#       Creation time:       Fri Mar 27 17:54:34 2020


#       File generated by GOLD software.
#

@<TRIPOS>MOLECULE
AV-unprocessed.smi:3170
    40    41     1
SMALL
NO_CHARGES


@<TRIPOS>ATOM
      1 ****         0.7542   0.5573   0.0847 O.2            1 S1                 0.0000
      2 ****         0.3361  -0.5860  -0.0998 C.2            1 S1                 0.0000
      3 ****         1.1189  -1.6729  -0.1523 N.am           1 S1                 0.0000
      4 ****         2.5742  -1.6729  -0.0320 C.3            1 S1                 0.0000
      5 ****         3.0444  -1.8528   1.4237 C.3            1 S1                 0.0000
      6 ****         2.8093  -0.6640   2.2491 N.pl3          1 S1                 0.0000
      7 ****         3.5011   0.5195   2.2138 C.2            1 S1                 0.0000
      8 ****         2.9254   1.3367   3.1520 C.2            1 S1                 0.0000
      9 ****         1.9108   0.6166   3.7235 N.pl3          1 S1                 1.0000
     10 ****         1.8440  -0.6012   3.1758 C.2            1 S1                 0.0000
     11 ****        -0.9569  -0.8952  -0.2665 N.am           1 S1                 0.0000
     12 ****        -2.0541   0.0664  -0.2666 C.3            1 S1                 0.0000
     13 ****        -2.1616   0.8238  -1.6041 C.3            1 S1                 0.0000
     14 ****        -3.3362   1.7769  -1.6781 C.3            1 S1                 0.0000
     15 ****        -3.4590   1.9986  -3.1819 C.3            1 S1                 0.0000
     16 ****        -3.0767   0.7649  -3.7824 O.3            1 S1                 0.0000
     17 ****        -2.4163  -0.0613  -2.8270 C.3            1 S1                 0.0000
     18 ****         0.6775  -2.5673  -0.3104 H              1 S1                 0.0000
     19 ****         2.9455  -2.5050  -0.6304 H              1 S1                 0.0000
     20 ****         3.0034  -0.7708  -0.4717 H              1 S1                 0.0000
     21 ****         2.5576  -2.7111   1.8899 H              1 S1                 0.0000
     22 ****         4.1171  -2.0490   1.4444 H              1 S1                 0.0000
     23 ****         4.3256   0.6899   1.5368 H              1 S1                 0.0000
     24 ****         3.1553   2.3501   3.4472 H              1 S1                 0.0000
     25 ****         1.1416  -1.3762   3.4260 H              1 S1                 0.0000
     26 ****        -1.2018  -1.8642  -0.4111 H              1 S1                 0.0000
     27 ****        -2.9779  -0.4783  -0.0691 H              1 S1                 0.0000
     28 ****        -1.9306   0.7710   0.5575 H              1 S1                 0.0000
     29 ****        -1.2490   1.3979  -1.7742 H              1 S1                 0.0000
     30 ****        -4.2409   1.3019  -1.2954 H              1 S1                 0.0000
     31 ****        -3.1742   2.7022  -1.1242 H              1 S1                 0.0000
     32 ****        -4.4645   2.2949  -3.4813 H              1 S1                 0.0000
     33 ****        -2.7652   2.7743  -3.5086 H              1 S1                 0.0000
     34 ****        -1.4956  -0.4798  -3.2344 H              1 S1                 0.0000
     35 ****        -3.0799  -0.8898  -2.5757 H              1 S1                 0.0000
     36 ****         1.2972   0.9557   4.4537 H              1 S1                 0.0000
     37 ****         1.7337   0.7179   0.2065 LP             1 S1                 0.0000
     38 ****         0.1143   1.3252   0.1127 LP             1 S1                 0.0000
     39 ****        -2.4576   0.9468  -4.5464 LP             1 S1                 0.0000
     40 ****        -3.8922   0.2942  -4.1191 LP             1 S1                 0.0000
@<TRIPOS>BOND
    1    1    2 2     
    2    2    3 am    
    3    2   11 am    
    4    3    4 1     
    5    3   18 1     
    6    4    5 1     
    7    4   19 1     
    8    4   20 1     
    9    5    6 1     
   10    5   21 1     
   11    5   22 1     
   12    6   10 1     
   13    6    7 1     
   14    7    8 2     
   15    7   23 1     
   16    8    9 1     
   17    8   24 1     
   18    9   10 2     
   19    9   36 1     
   20   10   25 1     
   21   11   12 1     
   22   11   26 1     
   23   12   13 1     
   24   12   27 1     
   25   12   28 1     
   26   13   17 1     
   27   13   14 1     
   28   13   29 1     
   29   14   15 1     
   30   14   30 1     
   31   14   31 1     
   32   15   16 1     
   33   15   32 1     
   34   15   33 1     
   35   16   17 1     
   36   17   34 1     
   37   17   35 1     
   38    1   37 1     
   39    1   38 1     
   40   16   39 1     
   41   16   40 1     
@<TRIPOS>SUBSTRUCTURE
      1 S1             1
@<TRIPOS>SET
LONE_PAIRS      STATIC     ATOMS    <user>   **** ""
4 37 38 39 40
DONOR_HYDROGENS      STATIC     ATOMS    <user>   **** ""
3 18 36 26
ATOM$BLUE        STATIC     ATOMS    COLORGROUP SYSTEM
4 37 38 39 40
ATOM$RED        STATIC     ATOMS    COLORGROUP SYSTEM
3 18 36 26
