AV-unprocessed.smi:1695|AV-procd|sdf|6793|dock2
  -GOLD-   22720 7553D 1   1.00000     0.00000
 Structure written by MMmdl.
 52 54  0  0  0  0  0  0  0  0  3 V2000
  152.9478  142.6177  159.9234 C   0  0  0  0  0  0  0  0  0  0  0  0
  152.2077  142.0753  158.7123 C   0  0  0  0  0  0  0  0  0  0  0  0
  152.3215  140.6991  158.4131 C   0  0  0  0  0  0  0  0  0  0  0  0
  151.6336  140.2329  157.2992 C   0  0  0  0  0  0  0  0  0  0  0  0
  151.5453  138.9518  156.7512 N   0  3  0  0  0  0  0  0  0  0  0  0
  150.7462  138.9826  155.6495 C   0  0  0  0  0  0  0  0  0  0  0  0
  150.3186  140.2645  155.4871 N   0  0  0  0  0  0  0  0  0  0  0  0
  149.4432  140.8310  154.4512 C   0  0  0  0  0  0  0  0  0  0  0  0
  148.3022  139.8781  154.0422 C   0  0  2  0  0  0  0  0  0  0  0  0
  148.8748  138.8145  153.3091 O   0  0  0  0  0  0  0  0  0  0  0  0
  147.2108  140.5473  153.1787 C   0  0  0  0  0  0  0  0  0  0  0  0
  146.1362  141.1708  153.9935 N   0  3  1  0  0  0  0  0  0  0  0  0
  145.9244  140.4940  155.3007 C   0  0  0  0  0  0  0  0  0  0  0  0
  144.7276  141.0991  156.0596 C   0  0  0  0  0  0  0  0  0  0  0  0
  144.8318  142.6275  156.2471 C   0  0  1  0  0  0  0  0  0  0  0  0
  145.8270  143.0280  157.3524 C   0  0  0  0  0  0  0  0  0  0  0  0
  147.1013  142.6677  157.1798 N   0  0  0  0  0  0  0  0  0  0  0  0
  145.4606  143.6512  158.3465 O   0  0  0  0  0  0  0  0  0  0  0  0
  145.1498  143.2872  154.8889 C   0  0  0  0  0  0  0  0  0  0  0  0
  146.3378  142.6334  154.1574 C   0  0  0  0  0  0  0  0  0  0  0  0
  150.8520  141.0826  156.4916 C   0  0  0  0  0  0  0  0  0  0  0  0
  150.7303  142.4420  156.7730 C   0  0  0  0  0  0  0  0  0  0  0  0
  151.4227  142.9356  157.9018 C   0  0  0  0  0  0  0  0  0  0  0  0
  151.3080  144.4142  158.2322 C   0  0  0  0  0  0  0  0  0  0  0  0
  153.4558  141.8227  160.4699 H   0  0  0  0  0  0  0  0  0  0  0  0
  152.2564  143.1036  160.6122 H   0  0  0  0  0  0  0  0  0  0  0  0
  153.7001  143.3450  159.6167 H   0  0  0  0  0  0  0  0  0  0  0  0
  152.9183  140.0383  159.0250 H   0  0  0  0  0  0  0  0  0  0  0  0
  150.4981  138.1413  155.0178 H   0  0  0  0  0  0  0  0  0  0  0  0
  149.0568  141.7936  154.7864 H   0  0  0  0  0  0  0  0  0  0  0  0
  150.0752  141.0431  153.5876 H   0  0  0  0  0  0  0  0  0  0  0  0
  147.8667  139.4598  154.9489 H   0  0  0  0  0  0  0  0  0  0  0  0
  149.1787  139.1451  152.4772 H   0  0  0  0  0  0  0  0  0  0  0  0
  147.6378  141.3103  152.5274 H   0  0  0  0  0  0  0  0  0  0  0  0
  146.7845  139.7903  152.5184 H   0  0  0  0  0  0  0  0  0  0  0  0
  145.7329  139.4330  155.1477 H   0  0  0  0  0  0  0  0  0  0  0  0
  146.8339  140.5545  155.8986 H   0  0  0  0  0  0  0  0  0  0  0  0
  143.8125  140.8745  155.5101 H   0  0  0  0  0  0  0  0  0  0  0  0
  144.6197  140.6064  157.0268 H   0  0  0  0  0  0  0  0  0  0  0  0
  143.8500  142.9857  156.5620 H   0  0  0  0  0  0  0  0  0  0  0  0
  147.7946  142.9055  157.8745 H   0  0  0  0  0  0  0  0  0  0  0  0
  147.3692  142.1563  156.3511 H   0  0  0  0  0  0  0  0  0  0  0  0
  144.2664  143.2240  154.2520 H   0  0  0  0  0  0  0  0  0  0  0  0
  145.3428  144.3524  155.0224 H   0  0  0  0  0  0  0  0  0  0  0  0
  147.2736  142.8194  154.6848 H   0  0  0  0  0  0  0  0  0  0  0  0
  146.4401  143.0977  153.1759 H   0  0  0  0  0  0  0  0  0  0  0  0
  150.1325  143.1007  156.1616 H   0  0  0  0  0  0  0  0  0  0  0  0
  150.7103  144.9445  157.4902 H   0  0  0  0  0  0  0  0  0  0  0  0
  152.2934  144.8798  158.2583 H   0  0  0  0  0  0  0  0  0  0  0  0
  150.8329  144.5528  159.2037 H   0  0  0  0  0  0  0  0  0  0  0  0
  145.2825  141.0637  153.4637 H   0  0  0  0  0  0  0  0  0  0  0  0
  151.9995  138.1168  157.0993 H   0  0  0  0  0  0  0  0  0  0  0  0
  1  2  1  0  0  0  0
  1 25  1  0  0  0  0
  1 26  1  0  0  0  0
  1 27  1  0  0  0  0
  2 23  1  0  0  0  0
  2  3  2  0  0  0  0
  3  4  1  0  0  0  0
  3 28  1  0  0  0  0
  4 21  2  0  0  0  0
  4  5  1  0  0  0  0
  5  6  2  0  0  0  0
  5 52  1  0  0  0  0
  6  7  1  0  0  0  0
  6 29  1  0  0  0  0
  7  8  1  0  0  0  0
  7 21  1  0  0  0  0
  8  9  1  0  0  0  0
  8 30  1  0  0  0  0
  8 31  1  0  0  0  0
  9 10  1  0  0  0  0
  9 11  1  0  0  0  0
  9 32  1  0  0  0  0
 10 33  1  0  0  0  0
 11 12  1  0  0  0  0
 11 34  1  0  0  0  0
 11 35  1  0  0  0  0
 12 20  1  0  0  0  0
 12 13  1  0  0  0  0
 12 51  1  0  0  0  0
 13 14  1  0  0  0  0
 13 36  1  0  0  0  0
 13 37  1  0  0  0  0
 14 15  1  0  0  0  0
 14 38  1  0  0  0  0
 14 39  1  0  0  0  0
 15 16  1  0  0  0  0
 15 19  1  0  0  0  0
 15 40  1  0  0  0  0
 16 17  1  0  0  0  0
 16 18  2  0  0  0  0
 17 41  1  0  0  0  0
 17 42  1  0  0  0  0
 19 20  1  0  0  0  0
 19 43  1  0  0  0  0
 19 44  1  0  0  0  0
 20 45  1  0  0  0  0
 20 46  1  0  0  0  0
 21 22  1  0  0  0  0
 22 23  2  0  0  0  0
 22 47  1  0  0  0  0
 23 24  1  0  0  0  0
 24 48  1  0  0  0  0
 24 49  1  0  0  0  0
 24 50  1  0  0  0  0
M  CHG  1   5   1
M  CHG  1  12   1
M  END
> <s_m_source_file>
AV-unprocessed.smi

> <i_m_source_file_index>
1695

> <i_lp_mmshare_version>
43012

> <i_f3d_flags>
0

> <s_epik_input>
W0NIM11jKFtjSF0xKWMoW0NIM10pW2NIXWMoYzEyKW4oW2NIXW4yKVtDSDJdW0NASF0oW09IXSlbQ0gyXU4zW0NIMl1bQ0gyXVtDSF0oQyg9TylbTkgyXSlbQ0gyXVtDSDJdMw==

> <s_epik_cmdline>
J2VwaWtfcHl0aG9uJywgJy1waCcsICc3LjAnLCAnLXRuJywgJzgnLCAnLW1hJywgJzIwMCcsICctbWV0YWxfYmluZGluZycsICctaW1hZScsICc8aW5maWxlLm1hZT4nLCAnLW9tYWUnLCAnPG91dGZpbGUubWFlPic=

> <r_epik_Ionization_Penalty>
1.20173

> <r_epik_Ionization_Penalty_Charging>
1.20172

> <r_epik_Ionization_Penalty_Neutral>
1.7852e-06

> <r_epik_State_Penalty>
1.28089

> <r_epik_Charging_Adjusted_Penalty>
2.48261

> <i_epik_Tot_Q>
2

> <i_epik_Tot_abs_Q>
2

> <r_epik_Metal_State_Penalty>
1.35652

> <b_epik_Metal_Only>
0

> <s_lp_Force_Field>
OPLS_2005

> <r_lp_Energy>
28.6872

> <b_lp_Chiralities_Consistent>
1

> <s_lp_Variant>
AV-unprocessed.smi:1695-5

> <Gold.Version>
5.8.1

> <Gold.Id.Protein>
6NUR|6NUR_protein|mol2

> <Gold.PLP.Fitness>
51.8331

> <Gold.PLP.PLP>
-45.1616

> <Gold.PLP.part.hbond>
-4.4154

> <Gold.PLP.part.metal>
0.0000

> <Gold.PLP.part.buried>
-2.0389

> <Gold.PLP.part.nonpolar>
-38.3318

> <Gold.PLP.part.repulsive>
0.2216

> <Gold.PLP.ligand.clash>
0.0000

> <Gold.PLP.ligand.torsion>
1.2052

> <Gold.PLP.Chemscore.Hbond>
3.0000

> <Gold.PLP.Chemscore.CHOScore>
0.0000

> <Gold.PLP.Chemscore.Metal>
0.0000

> <Gold.Chemscore.Hbonds>
donor molecule, donor type, donor heavy atom, donor atom, acceptor molecule, acceptor atom, score
      L1  H    10    33       P1  7957  1.00
      L1  H    12    51       P1 10175  2.00

> <Gold.PLP.Chemscore.Internal.Correction>
0.0817

> <Gold.Rescore>
     Score         DG    S(hbond)    S(metal)    S(lipo)     H(rot)  DE(clash)    DE(int)     intcor
     14.79     -17.11       1.88        0.00     109.33       2.91       0.15       2.18       ----

> <Gold.Chemscore.Fitness>
14.7867

> <Gold.Chemscore.DG>
-17.1097

> <Gold.Chemscore.ZeroCoef>
-5.4800

> <Gold.Chemscore.Hbond>
1.8848

> <Gold.Chemscore.Metal>
0.0000

> <Gold.Chemscore.Lipo>
109.3257

> <Gold.Chemscore.Internal_Hbond>
0.0000

> <Gold.Chemscore.DEClash>
0.1455

> <Gold.Chemscore.DEInternal>
2.1776

> <Gold.Chemscore.Rot>
2.9127

> <Gold.Chemscore.Internal.Correction>
   9.000000E+99

> <Gold.Chemscore.Hbonds>
donor molecule, donor type, donor heavy atom, donor atom, acceptor molecule, acceptor atom, score
      L1  H    10    33       P1  7957  0.99
      L1  H    12    51       P1 10175  0.54

> <Gold.Chemscore.Hbond.Weighted>
-6.2951

> <Gold.Chemscore.Metal.Weighted>
-0.0000

> <Gold.Chemscore.Lipo.Weighted>
-12.7911

> <Gold.Chemscore.Internal_Hbond.Weighted>
0.0000

> <Gold.Chemscore.DEClash.Weighted>
0.1455

> <Gold.Chemscore.DEInternal.Weighted>
2.1776

> <Gold.Chemscore.Rot.Weighted>
7.4565

> <Gold.Chemscore.Internal.Correction.Weighted>
   9.000000E+99

> <Gold.Protein.RotatedTorsions>
[ 6907 6896 6895 6894 ] final -137.08 input  -60.11 | X-H torsion
[ 7974 7965 7964 7962 ] final  173.66 input  175.53 | X-H torsion
[ 8008 7997 7996 7995 ] final   83.39 input   59.86 | X-H torsion
[ 10167 10162 10161 10158 ] final   24.92 input  -65.29 | X-H torsion
[ 10718 10713 10712 10709 ] final   80.19 input   66.30 | X-H torsion
[ 10763 10752 10751 10750 ] final -106.91 input  -60.55 | X-H torsion
[ 11005 11000 10999 10996 ] final -143.09 input  -57.11 | X-H torsion

> <Gold.Protein.ActiveResidues>
 VAL166  LYS551  ARG553  GLY616  TRP617  ASP618  TYR619  PRO620  LYS621  CYS622 
 ASP623  PHE694  ASN695  SER759  ASP760  ASP761  ALA762  ILE779  LEU786  VAL792 
 PHE793  MET794  SER795  GLU796  ALA797  LYS798  CYS799  TRP800  GLU811  SER814 

> <Gold.Protein.RotatedAtoms>
  151.0180  133.5903  159.2674 H   0  0  0  0  0  0  0  0  0  0  0  0  # atno 6907 bound_to 6896
  151.3030  135.0773  159.9255 H   0  0  0  0  0  0  0  0  0  0  0  0  # atno 6908 bound_to 6896
  152.5316  133.9859  159.7882 H   0  0  0  0  0  0  0  0  0  0  0  0  # atno 6909 bound_to 6896
  144.7239  139.9680  143.6436 H   0  0  0  0  0  0  0  0  0  0  0  0  # atno 7974 bound_to 7965
  155.9233  140.3420  155.6190 H   0  0  0  0  0  0  0  0  0  0  0  0  # atno 8008 bound_to 7997
  155.7247  140.0788  157.2334 H   0  0  0  0  0  0  0  0  0  0  0  0  # atno 8009 bound_to 7997
  154.4073  140.1599  156.2429 H   0  0  0  0  0  0  0  0  0  0  0  0  # atno 8010 bound_to 7997
  140.5149  144.0099  150.6389 H   0  0  0  0  0  0  0  0  0  0  0  0  # atno 10167 bound_to 10162
  157.6799  130.9948  150.2043 H   0  0  0  0  0  0  0  0  0  0  0  0  # atno 10718 bound_to 10713
  154.8042  135.4694  154.0351 H   0  0  0  0  0  0  0  0  0  0  0  0  # atno 10763 bound_to 10752
  153.1833  135.6844  153.8456 H   0  0  0  0  0  0  0  0  0  0  0  0  # atno 10764 bound_to 10752
  153.7999  135.3231  155.3366 H   0  0  0  0  0  0  0  0  0  0  0  0  # atno 10765 bound_to 10752
  140.8160  134.2688  157.4921 H   0  0  0  0  0  0  0  0  0  0  0  0  # atno 11005 bound_to 11000
  146.0585  139.3580  143.0596 LP  0  0  0  0  0  0  0  0  0  0  0  0  # atno 17320 bound_to 7965
  145.8123  140.9720  143.0942 LP  0  0  0  0  0  0  0  0  0  0  0  0  # atno 17321 bound_to 7965
  140.3432  143.3007  152.0566 LP  0  0  0  0  0  0  0  0  0  0  0  0  # atno 17342 bound_to 10162
  139.4906  144.6427  151.6842 LP  0  0  0  0  0  0  0  0  0  0  0  0  # atno 17343 bound_to 10162
  156.2727  130.3724  149.8015 LP  0  0  0  0  0  0  0  0  0  0  0  0  # atno 17370 bound_to 10713
  156.5727  130.8431  151.3361 LP  0  0  0  0  0  0  0  0  0  0  0  0  # atno 17371 bound_to 10713
  139.8711  134.9509  156.4069 LP  0  0  0  0  0  0  0  0  0  0  0  0  # atno 17394 bound_to 11000
  140.9149  133.7686  155.9835 LP  0  0  0  0  0  0  0  0  0  0  0  0  # atno 17395 bound_to 11000

$$$$
