AV-unprocessed.smi:438|AV-procd|sdf|2575|dock9
  -GOLD-   2262022553D 1   1.00000     0.00000
 Structure written by MMmdl.
 48 49  0  0  0  0  0  0  0  0  1 V2000
  147.0172  136.9053  163.1108 C   0  0  0  0  0  0  0  0  0  0  0  0
  147.6096  136.2988  161.8521 C   0  0  0  0  0  0  0  0  0  0  0  0
  148.1851  137.1730  160.9976 N   0  0  0  0  0  0  0  0  0  0  0  0
  148.7340  136.6604  159.8975 C   0  0  0  0  0  0  0  0  0  0  0  0
  149.5156  137.8361  158.8105 S   0  0  0  0  0  0  0  0  0  0  0  0
  151.2803  137.5163  159.1215 C   0  0  0  0  0  0  0  0  0  0  0  0
  152.1388  138.7803  159.0810 C   0  0  0  0  0  0  0  0  0  0  0  0
  153.3256  138.7221  159.4007 O   0  0  0  0  0  0  0  0  0  0  0  0
  151.5212  139.9096  158.6931 N   0  0  0  0  0  0  0  0  0  0  0  0
  152.0986  141.2540  158.5989 C   0  0  2  0  0  0  0  0  0  0  0  0
  152.7482  141.6940  159.9302 C   0  0  0  0  0  0  0  0  0  0  0  0
  153.4268  143.0643  159.7921 C   0  0  0  0  0  0  0  0  0  0  0  0
  152.4319  144.1200  159.2882 C   0  0  0  0  0  0  0  0  0  0  0  0
  151.7938  143.6916  157.9571 C   0  0  0  0  0  0  0  0  0  0  0  0
  151.1005  142.3178  158.0648 C   0  0  1  0  0  0  0  0  0  0  0  0
  150.4796  141.9234  156.7130 C   0  0  0  0  0  0  0  0  0  0  0  0
  148.7622  135.3781  159.5310 N   0  0  0  0  0  0  0  0  0  0  0  0
  148.1906  134.4913  160.3731 C   0  0  0  0  0  0  0  0  0  0  0  0
  148.2180  133.1722  160.0240 O   0  0  0  0  0  0  0  0  0  0  0  0
  147.5815  134.9055  161.5842 C   0  0  0  0  0  0  0  0  0  0  0  0
  146.9373  133.8989  162.5322 C   0  0  0  0  0  0  0  0  0  0  0  0
  145.4073  134.0328  162.5993 C   0  0  0  0  0  0  0  0  0  0  0  0
  144.7954  132.7610  162.6178 O   0  0  0  0  0  0  0  0  0  0  0  0
  145.9646  136.6419  163.2077 H   0  0  0  0  0  0  0  0  0  0  0  0
  147.0893  137.9935  163.0999 H   0  0  0  0  0  0  0  0  0  0  0  0
  147.5488  136.5442  163.9912 H   0  0  0  0  0  0  0  0  0  0  0  0
  151.3959  137.0180  160.0846 H   0  0  0  0  0  0  0  0  0  0  0  0
  151.6430  136.8183  158.3666 H   0  0  0  0  0  0  0  0  0  0  0  0
  150.5424  139.8346  158.4556 H   0  0  0  0  0  0  0  0  0  0  0  0
  152.9007  141.1637  157.8651 H   0  0  0  0  0  0  0  0  0  0  0  0
  152.0001  141.7512  160.7212 H   0  0  0  0  0  0  0  0  0  0  0  0
  153.4813  140.9533  160.2521 H   0  0  0  0  0  0  0  0  0  0  0  0
  153.8415  143.3723  160.7523 H   0  0  0  0  0  0  0  0  0  0  0  0
  154.2670  142.9908  159.1004 H   0  0  0  0  0  0  0  0  0  0  0  0
  151.6520  144.2746  160.0348 H   0  0  0  0  0  0  0  0  0  0  0  0
  152.9378  145.0784  159.1663 H   0  0  0  0  0  0  0  0  0  0  0  0
  151.0739  144.4475  157.6412 H   0  0  0  0  0  0  0  0  0  0  0  0
  152.5618  143.6573  157.1831 H   0  0  0  0  0  0  0  0  0  0  0  0
  150.2850  142.4225  158.7813 H   0  0  0  0  0  0  0  0  0  0  0  0
  151.2450  141.7967  155.9469 H   0  0  0  0  0  0  0  0  0  0  0  0
  149.7816  142.6851  156.3647 H   0  0  0  0  0  0  0  0  0  0  0  0
  149.9253  140.9891  156.7842 H   0  0  0  0  0  0  0  0  0  0  0  0
  149.0545  132.9084  159.6725 H   0  0  0  0  0  0  0  0  0  0  0  0
  147.1909  132.8975  162.1829 H   0  0  0  0  0  0  0  0  0  0  0  0
  147.3667  133.9678  163.5311 H   0  0  0  0  0  0  0  0  0  0  0  0
  145.0956  134.6074  163.4721 H   0  0  0  0  0  0  0  0  0  0  0  0
  145.0448  134.5650  161.7197 H   0  0  0  0  0  0  0  0  0  0  0  0
  143.9900  132.8075  162.1254 H   0  0  0  0  0  0  0  0  0  0  0  0
  1  2  1  0  0  0  0
  1 24  1  0  0  0  0
  1 25  1  0  0  0  0
  1 26  1  0  0  0  0
  2 20  1  0  0  0  0
  2  3  2  0  0  0  0
  3  4  1  0  0  0  0
  4  5  1  0  0  0  0
  4 17  2  0  0  0  0
  5  6  1  0  0  0  0
  6  7  1  0  0  0  0
  6 27  1  0  0  0  0
  6 28  1  0  0  0  0
  7  8  2  0  0  0  0
  7  9  1  0  0  0  0
  9 10  1  0  0  0  0
  9 29  1  0  0  0  0
 10 15  1  0  0  0  0
 10 11  1  0  0  0  0
 10 30  1  0  0  0  0
 11 12  1  0  0  0  0
 11 31  1  0  0  0  0
 11 32  1  0  0  0  0
 12 13  1  0  0  0  0
 12 33  1  0  0  0  0
 12 34  1  0  0  0  0
 13 14  1  0  0  0  0
 13 35  1  0  0  0  0
 13 36  1  0  0  0  0
 14 15  1  0  0  0  0
 14 37  1  0  0  0  0
 14 38  1  0  0  0  0
 15 16  1  0  0  0  0
 15 39  1  0  0  0  0
 16 40  1  0  0  0  0
 16 41  1  0  0  0  0
 16 42  1  0  0  0  0
 17 18  1  0  0  0  0
 18 19  1  0  0  0  0
 18 20  2  0  0  0  0
 19 43  1  0  0  0  0
 20 21  1  0  0  0  0
 21 22  1  0  0  0  0
 21 44  1  0  0  0  0
 21 45  1  0  0  0  0
 22 23  1  0  0  0  0
 22 46  1  0  0  0  0
 22 47  1  0  0  0  0
 23 48  1  0  0  0  0
M  END
> <s_m_source_file>
AV-unprocessed.smi

> <i_m_source_file_index>
438

> <i_lp_mmshare_version>
43012

> <i_f3d_flags>
0

> <s_epik_input>
W09IXVtDSDJdW0NIMl1jMWMoW09IXSluYyhuYzFbQ0gzXSlTW0NIMl1DKD1PKVtOSF1bQ0BASF0yW0NIMl1bQ0gyXVtDSDJdW0NIMl1bQ0BIXTJbQ0gzXQ==

> <s_epik_cmdline>
J2VwaWtfcHl0aG9uJywgJy1waCcsICc3LjAnLCAnLXRuJywgJzgnLCAnLW1hJywgJzIwMCcsICctbWV0YWxfYmluZGluZycsICctaW1hZScsICc8aW5maWxlLm1hZT4nLCAnLW9tYWUnLCAnPG91dGZpbGUubWFlPic=

> <r_lp_tautomer_probability>
0.0660145

> <r_epik_Ionization_Penalty>
2.91405

> <r_epik_Ionization_Penalty_Charging>
0

> <r_epik_Ionization_Penalty_Neutral>
2.91405

> <r_epik_State_Penalty>
2.44767

> <r_epik_Charging_Adjusted_Penalty>
2.44767

> <i_epik_Tot_Q>
0

> <i_epik_Tot_abs_Q>
0

> <r_epik_Metal_State_Penalty>
3.04288

> <b_epik_Metal_Only>
0

> <s_lp_Force_Field>
OPLS_2005

> <r_lp_Energy>
1.00415

> <b_lp_Chiralities_Consistent>
1

> <s_lp_Variant>
AV-unprocessed.smi:438-13

> <Gold.Version>
5.8.1

> <Gold.Id.Protein>
6NUR|6NUR_protein|mol2

> <Gold.PLP.Fitness>
54.3723

> <Gold.PLP.PLP>
-48.6036

> <Gold.PLP.part.hbond>
-3.9658

> <Gold.PLP.part.metal>
0.0000

> <Gold.PLP.part.buried>
-5.7648

> <Gold.PLP.part.nonpolar>
-40.1962

> <Gold.PLP.part.repulsive>
0.1422

> <Gold.PLP.ligand.clash>
0.0000

> <Gold.PLP.ligand.torsion>
0.8424

> <Gold.PLP.Chemscore.Hbond>
2.4552

> <Gold.PLP.Chemscore.CHOScore>
0.0000

> <Gold.PLP.Chemscore.Metal>
0.0000

> <Gold.Chemscore.Hbonds>
donor molecule, donor type, donor heavy atom, donor atom, acceptor molecule, acceptor atom, score
      P1  H  6896  6907       L1    17  0.85
      P1  H  6931  6943       L1     3  0.98
      P1  H  6934  6947       L1     3  0.54

> <Gold.PLP.Chemscore.Internal.Correction>
0.0879

> <Gold.Rescore>
     Score         DG    S(hbond)    S(metal)    S(lipo)     H(rot)  DE(clash)    DE(int)     intcor
     14.32     -15.07       1.46        0.00     115.49       3.44       0.04       0.71       ----

> <Gold.Chemscore.Fitness>
14.3180

> <Gold.Chemscore.DG>
-15.0731

> <Gold.Chemscore.ZeroCoef>
-5.4800

> <Gold.Chemscore.Hbond>
1.4603

> <Gold.Chemscore.Metal>
0.0000

> <Gold.Chemscore.Lipo>
115.4852

> <Gold.Chemscore.Internal_Hbond>
0.0000

> <Gold.Chemscore.DEClash>
0.0417

> <Gold.Chemscore.DEInternal>
0.7134

> <Gold.Chemscore.Rot>
3.4359

> <Gold.Chemscore.Internal.Correction>
   9.000000E+99

> <Gold.Chemscore.Hbonds>
donor molecule, donor type, donor heavy atom, donor atom, acceptor molecule, acceptor atom, score
      P1  H  6896  6907       L1    17  0.13
      P1  H  6931  6943       L1     3  0.59
      P1  H  6934  6947       L1     3  0.45

> <Gold.Chemscore.Hbond.Weighted>
-4.8773

> <Gold.Chemscore.Metal.Weighted>
-0.0000

> <Gold.Chemscore.Lipo.Weighted>
-13.5118

> <Gold.Chemscore.Internal_Hbond.Weighted>
0.0000

> <Gold.Chemscore.DEClash.Weighted>
0.0417

> <Gold.Chemscore.DEInternal.Weighted>
0.7134

> <Gold.Chemscore.Rot.Weighted>
8.7960

> <Gold.Chemscore.Internal.Correction.Weighted>
   9.000000E+99

> <Gold.Protein.RotatedTorsions>
[ 6907 6896 6895 6894 ] final  -60.53 input  -60.11 | X-H torsion
[ 7974 7965 7964 7962 ] final   10.47 input  175.53 | X-H torsion
[ 8008 7997 7996 7995 ] final  166.08 input   59.86 | X-H torsion
[ 10167 10162 10161 10158 ] final  162.79 input  -65.29 | X-H torsion
[ 10718 10713 10712 10709 ] final   54.96 input   66.30 | X-H torsion
[ 10763 10752 10751 10750 ] final -179.02 input  -60.55 | X-H torsion
[ 11005 11000 10999 10996 ] final   29.41 input  -57.11 | X-H torsion

> <Gold.Protein.ActiveResidues>
 VAL166  LYS551  ARG553  GLY616  TRP617  ASP618  TYR619  PRO620  LYS621  CYS622 
 ASP623  PHE694  ASN695  SER759  ASP760  ASP761  ALA762  ILE779  LEU786  VAL792 
 PHE793  MET794  SER795  GLU796  ALA797  LYS798  CYS799  TRP800  GLU811  SER814 

> <Gold.Protein.RotatedAtoms>
  150.7850  134.6826  159.6451 H   0  0  0  0  0  0  0  0  0  0  0  0  # atno 6907 bound_to 6896
  152.3944  134.6387  160.0104 H   0  0  0  0  0  0  0  0  0  0  0  0  # atno 6908 bound_to 6896
  151.6677  133.3278  159.3225 H   0  0  0  0  0  0  0  0  0  0  0  0  # atno 6909 bound_to 6896
  146.2388  139.9629  142.8456 H   0  0  0  0  0  0  0  0  0  0  0  0  # atno 7974 bound_to 7965
  156.1748  140.1653  156.8382 H   0  0  0  0  0  0  0  0  0  0  0  0  # atno 8008 bound_to 7997
  154.5295  140.0760  156.8353 H   0  0  0  0  0  0  0  0  0  0  0  0  # atno 8009 bound_to 7997
  155.3436  140.3386  155.4241 H   0  0  0  0  0  0  0  0  0  0  0  0  # atno 8010 bound_to 7997
  139.4865  144.4402  151.8962 H   0  0  0  0  0  0  0  0  0  0  0  0  # atno 10167 bound_to 10162
  157.5303  130.8626  149.8679 H   0  0  0  0  0  0  0  0  0  0  0  0  # atno 10718 bound_to 10713
  154.5404  135.2805  155.1100 H   0  0  0  0  0  0  0  0  0  0  0  0  # atno 10763 bound_to 10752
  154.2585  135.6326  153.5270 H   0  0  0  0  0  0  0  0  0  0  0  0  # atno 10764 bound_to 10752
  152.9977  135.5600  154.5942 H   0  0  0  0  0  0  0  0  0  0  0  0  # atno 10765 bound_to 10752
  140.3052  134.2711  155.7745 H   0  0  0  0  0  0  0  0  0  0  0  0  # atno 11005 bound_to 11000
  145.1753  140.9741  143.4297 LP  0  0  0  0  0  0  0  0  0  0  0  0  # atno 17320 bound_to 7965
  144.9991  139.3616  143.6176 LP  0  0  0  0  0  0  0  0  0  0  0  0  # atno 17321 bound_to 7965
  140.3853  144.2684  150.5904 LP  0  0  0  0  0  0  0  0  0  0  0  0  # atno 17342 bound_to 10162
  140.5196  143.2269  151.8410 LP  0  0  0  0  0  0  0  0  0  0  0  0  # atno 17343 bound_to 10162
  156.0418  130.3737  150.1417 LP  0  0  0  0  0  0  0  0  0  0  0  0  # atno 17370 bound_to 10713
  156.9602  130.9802  151.3480 LP  0  0  0  0  0  0  0  0  0  0  0  0  # atno 17371 bound_to 10713
  141.2120  133.7672  156.9826 LP  0  0  0  0  0  0  0  0  0  0  0  0  # atno 17394 bound_to 11000
  140.1073  134.9498  157.2013 LP  0  0  0  0  0  0  0  0  0  0  0  0  # atno 17395 bound_to 11000

$$$$
