#       Name:                AV-unprocessed.smi:1047
#       Creating user name   scv26
#       Creation time:       Fri Mar 27 03:04:08 2020


#       File generated by GOLD software.
#

@<TRIPOS>MOLECULE
AV-unprocessed.smi:1047
    62    64     1
SMALL
NO_CHARGES


@<TRIPOS>ATOM
      1 ****        -3.5207   6.3028   1.5826 C.3            1 S1                 0.0000
      2 ****        -2.5857   5.0856   1.5985 C.3            1 S1                 0.0000
      3 ****        -2.9910   4.0476   0.6140 N.4            1 S1                 1.0000
      4 ****        -2.7122   4.3925  -0.8033 C.3            1 S1                 0.0000
      5 ****        -1.2258   4.1868  -1.1522 C.3            1 S1                 0.0000
      6 ****        -0.8380   2.8564  -0.8317 O.3            1 S1                 0.0000
      7 ****        -0.9765   2.5661   0.5560 C.3            1 S1                 0.0000
      8 ****        -0.4531   1.1432   0.7993 C.3            1 S1                 0.0000
      9 ****         1.0039   1.1005   0.7325 N.3            1 S1                 0.0000
     10 ****         1.5514  -0.2372   0.9375 C.3            1 S1                 0.0000
     11 ****         3.0878  -0.2358   0.8173 C.3            1 S1                 0.0000
     12 ****         3.6260   0.2808   2.0168 O.3            1 S1                 0.0000
     13 ****         3.6921  -1.6386   0.6113 C.3            1 S1                 0.0000
     14 ****         3.2410  -2.2668  -0.6174 N.pl3          1 S1                 0.0000
     15 ****         3.6675  -1.9972  -1.8662 C.2            1 S1                 0.0000
     16 ****         3.1171  -2.6876  -2.8604 N.2            1 S1                 0.0000
     17 ****         2.2345  -3.5059  -2.1764 C.ar           1 S1                 0.0000
     18 ****         1.3358  -4.4852  -2.6533 C.ar           1 S1                 0.0000
     19 ****         0.5148  -5.2114  -1.7613 C.ar           1 S1                 0.0000
     20 ****        -0.4382  -6.2549  -2.3173 C.3            1 S1                 0.0000
     21 ****         0.5860  -4.9616  -0.3672 C.ar           1 S1                 0.0000
     22 ****        -0.2865  -5.7292   0.6103 C.3            1 S1                 0.0000
     23 ****         1.4776  -3.9860   0.1260 C.ar           1 S1                 0.0000
     24 ****         2.2894  -3.2699  -0.7714 C.ar           1 S1                 0.0000
     25 ****        -2.4686   2.6951   0.9293 C.3            1 S1                 0.0000
     26 ****        -3.2601   6.9952   2.3834 H              1 S1                 0.0000
     27 ****        -4.5591   6.0047   1.7304 H              1 S1                 0.0000
     28 ****        -3.4583   6.8557   0.6457 H              1 S1                 0.0000
     29 ****        -1.5540   5.3967   1.4358 H              1 S1                 0.0000
     30 ****        -2.6206   4.6569   2.6008 H              1 S1                 0.0000
     31 ****        -3.3183   3.7412  -1.4343 H              1 S1                 0.0000
     32 ****        -3.0245   5.4105  -1.0328 H              1 S1                 0.0000
     33 ****        -1.0682   4.3491  -2.2185 H              1 S1                 0.0000
     34 ****        -0.5888   4.9013  -0.6296 H              1 S1                 0.0000
     35 ****        -0.3868   3.2702   1.1461 H              1 S1                 0.0000
     36 ****        -0.7755   0.8032   1.7843 H              1 S1                 0.0000
     37 ****        -0.8916   0.4567   0.0737 H              1 S1                 0.0000
     38 ****         1.3148   1.4612  -0.1644 H              1 S1                 0.0000
     39 ****         1.2444  -0.6403   1.9037 H              1 S1                 0.0000
     40 ****         1.1271  -0.8992   0.1828 H              1 S1                 0.0000
     41 ****         3.3990   0.4064  -0.0081 H              1 S1                 0.0000
     42 ****         3.2733   1.1471   2.1529 H              1 S1                 0.0000
     43 ****         4.7811  -1.5793   0.5792 H              1 S1                 0.0000
     44 ****         3.4417  -2.2890   1.4504 H              1 S1                 0.0000
     45 ****         4.4225  -1.2479  -2.0556 H              1 S1                 0.0000
     46 ****         1.2816  -4.6741  -3.7153 H              1 S1                 0.0000
     47 ****        -0.2110  -7.2384  -1.9058 H              1 S1                 0.0000
     48 ****        -0.3661  -6.3224  -3.4032 H              1 S1                 0.0000
     49 ****        -1.4688  -6.0030  -2.0661 H              1 S1                 0.0000
     50 ****        -0.1031  -5.4154   1.6383 H              1 S1                 0.0000
     51 ****        -0.0837  -6.7984   0.5457 H              1 S1                 0.0000
     52 ****        -1.3417  -5.5623   0.3930 H              1 S1                 0.0000
     53 ****         1.5393  -3.7850   1.1852 H              1 S1                 0.0000
     54 ****        -2.6287   2.4619   1.9826 H              1 S1                 0.0000
     55 ****        -3.0495   1.9644   0.3645 H              1 S1                 0.0000
     56 ****        -3.9952   3.9812   0.7026 H              1 S1                 0.0000
     57 ****         0.1194   2.7302  -1.0916 LP             1 S1                 0.0000
     58 ****        -1.4107   2.2218  -1.3506 LP             1 S1                 0.0000
     59 ****         1.3442   1.6709   1.4800 LP             1 S1                 0.0000
     60 ****         4.6224   0.3289   1.9468 LP             1 S1                 0.0000
     61 ****         3.3738  -0.3108   2.7826 LP             1 S1                 0.0000
     62 ****         3.2940  -2.6307  -3.8430 LP             1 S1                 0.0000
@<TRIPOS>BOND
    1    1    2 1     
    2    1   26 1     
    3    1   27 1     
    4    1   28 1     
    5    2    3 1     
    6    2   29 1     
    7    2   30 1     
    8    3   25 1     
    9    3    4 1     
   10    3   56 1     
   11    4    5 1     
   12    4   31 1     
   13    4   32 1     
   14    5    6 1     
   15    5   33 1     
   16    5   34 1     
   17    6    7 1     
   18    7    8 1     
   19    7   25 1     
   20    7   35 1     
   21    8    9 1     
   22    8   36 1     
   23    8   37 1     
   24    9   10 1     
   25    9   38 1     
   26   10   11 1     
   27   10   39 1     
   28   10   40 1     
   29   11   12 1     
   30   11   13 1     
   31   11   41 1     
   32   12   42 1     
   33   13   14 1     
   34   13   43 1     
   35   13   44 1     
   36   14   24 1     
   37   14   15 1     
   38   15   16 2     
   39   15   45 1     
   40   16   17 1     
   41   17   24 ar    
   42   17   18 ar    
   43   18   19 ar    
   44   18   46 1     
   45   19   20 1     
   46   19   21 ar    
   47   20   47 1     
   48   20   48 1     
   49   20   49 1     
   50   21   22 1     
   51   21   23 ar    
   52   22   50 1     
   53   22   51 1     
   54   22   52 1     
   55   23   24 ar    
   56   23   53 1     
   57   25   54 1     
   58   25   55 1     
   59    6   57 1     
   60    6   58 1     
   61    9   59 1     
   62   12   60 1     
   63   12   61 1     
   64   16   62 1     
@<TRIPOS>SUBSTRUCTURE
      1 S1             1
@<TRIPOS>SET
LONE_PAIRS      STATIC     ATOMS    <user>   **** ""
6 57 58 59 60 61 62
DONOR_HYDROGENS      STATIC     ATOMS    <user>   **** ""
3 56 38 42
ATOM$BLUE        STATIC     ATOMS    COLORGROUP SYSTEM
6 57 58 59 60 61 62
ATOM$RED        STATIC     ATOMS    COLORGROUP SYSTEM
3 56 38 42
