AV-unprocessed.smi:1740|AV-procd|sdf|7015|dock4
  -GOLD-   22720 8233D 1   1.00000     0.00000
 Structure written by MMmdl.
 52 54  0  0  0  0  0  0  0  0  4 V2000
  147.1920  142.3387  155.5617 N   0  5  0  0  0  0  0  0  0  0  0  0
  147.9678  141.4309  154.9360 C   0  0  0  0  0  0  0  0  0  0  0  0
  148.9272  141.6381  154.1971 O   0  0  0  0  0  0  0  0  0  0  0  0
  147.5370  139.9909  155.2344 C   0  0  0  0  0  0  0  0  0  0  0  0
  148.7187  139.1268  155.4863 N   0  3  2  0  0  0  0  0  0  0  0  0
  149.5675  138.9270  154.2810 C   0  0  0  0  0  0  0  0  0  0  0  0
  150.8434  138.1340  154.6196 C   0  0  0  0  0  0  0  0  0  0  0  0
  150.5262  136.7889  155.2957 C   0  0  2  0  0  0  0  0  0  0  0  0
  149.9356  135.8588  154.3336 N   0  0  0  0  0  0  0  0  0  0  0  0
  149.8856  134.5266  154.4747 C   0  0  0  0  0  0  0  0  0  0  0  0
  150.3522  133.9237  155.4409 O   0  0  0  0  0  0  0  0  0  0  0  0
  149.2433  133.9493  153.4461 N   0  0  0  0  0  0  0  0  0  0  0  0
  148.9116  132.5733  153.3069 C   0  0  0  0  0  0  0  0  0  0  0  0
  149.7941  131.5678  153.7772 C   0  0  0  0  0  0  0  0  0  0  0  0
  149.4873  130.2102  153.5690 C   0  0  0  0  0  0  0  0  0  0  0  0
  148.3094  129.8784  152.8782 C   0  0  0  0  0  0  0  0  0  0  0  0
  147.4964  130.8583  152.4327 N   0  3  0  0  0  0  0  0  0  0  0  0
  147.7280  132.1828  152.6148 C   0  0  0  0  0  0  0  0  0  0  0  0
  146.7756  133.0941  152.1024 N   0  0  0  0  0  0  0  0  0  0  0  0
  146.5247  133.1695  150.6679 C   0  0  0  0  0  0  0  0  0  0  0  0
  145.2395  133.9810  150.5320 C   0  0  0  0  0  0  0  0  0  0  0  0
  144.4478  133.5509  151.7633 C   0  0  0  0  0  0  0  0  0  0  0  0
  145.5261  133.3117  152.8252 C   0  0  0  0  0  0  0  0  0  0  0  0
  149.5995  137.0262  156.5047 C   0  0  0  0  0  0  0  0  0  0  0  0
  148.3489  137.8369  156.1213 C   0  0  0  0  0  0  0  0  0  0  0  0
  147.6006  143.2481  155.8090 H   0  0  0  0  0  0  0  0  0  0  0  0
  146.8869  140.0118  156.1108 H   0  0  0  0  0  0  0  0  0  0  0  0
  146.9394  139.5896  154.4142 H   0  0  0  0  0  0  0  0  0  0  0  0
  148.9923  138.4080  153.5127 H   0  0  0  0  0  0  0  0  0  0  0  0
  149.8529  139.8909  153.8585 H   0  0  0  0  0  0  0  0  0  0  0  0
  151.4366  137.9748  153.7183 H   0  0  0  0  0  0  0  0  0  0  0  0
  151.4642  138.7323  155.2879 H   0  0  0  0  0  0  0  0  0  0  0  0
  151.4648  136.3578  155.6491 H   0  0  0  0  0  0  0  0  0  0  0  0
  149.5323  136.2635  153.5013 H   0  0  0  0  0  0  0  0  0  0  0  0
  148.8311  134.5722  152.7671 H   0  0  0  0  0  0  0  0  0  0  0  0
  150.7162  131.8222  154.2785 H   0  0  0  0  0  0  0  0  0  0  0  0
  150.1531  129.4367  153.9230 H   0  0  0  0  0  0  0  0  0  0  0  0
  147.9962  128.8666  152.6656 H   0  0  0  0  0  0  0  0  0  0  0  0
  147.3566  133.6365  150.1401 H   0  0  0  0  0  0  0  0  0  0  0  0
  146.3721  132.1709  150.2566 H   0  0  0  0  0  0  0  0  0  0  0  0
  145.4623  135.0475  150.5860 H   0  0  0  0  0  0  0  0  0  0  0  0
  144.7134  133.7908  149.5963 H   0  0  0  0  0  0  0  0  0  0  0  0
  143.7060  134.2879  152.0718 H   0  0  0  0  0  0  0  0  0  0  0  0
  143.9255  132.6166  151.5536 H   0  0  0  0  0  0  0  0  0  0  0  0
  145.2685  132.4683  153.4671 H   0  0  0  0  0  0  0  0  0  0  0  0
  145.6335  134.1972  153.4521 H   0  0  0  0  0  0  0  0  0  0  0  0
  149.3067  136.0791  156.9590 H   0  0  0  0  0  0  0  0  0  0  0  0
  150.1504  137.5688  157.2742 H   0  0  0  0  0  0  0  0  0  0  0  0
  147.7602  138.0268  157.0196 H   0  0  0  0  0  0  0  0  0  0  0  0
  147.7149  137.2634  155.4432 H   0  0  0  0  0  0  0  0  0  0  0  0
  149.2762  139.6305  156.1628 H   0  0  0  0  0  0  0  0  0  0  0  0
  146.6495  130.5845  151.9342 H   0  0  0  0  0  0  0  0  0  0  0  0
  1  2  1  0  0  0  0
  1 26  1  0  0  0  0
  2  3  2  0  0  0  0
  2  4  1  0  0  0  0
  4  5  1  0  0  0  0
  4 27  1  0  0  0  0
  4 28  1  0  0  0  0
  5 25  1  0  0  0  0
  5  6  1  0  0  0  0
  5 51  1  0  0  0  0
  6  7  1  0  0  0  0
  6 29  1  0  0  0  0
  6 30  1  0  0  0  0
  7  8  1  0  0  0  0
  7 31  1  0  0  0  0
  7 32  1  0  0  0  0
  8  9  1  0  0  0  0
  8 24  1  0  0  0  0
  8 33  1  0  0  0  0
  9 10  1  0  0  0  0
  9 34  1  0  0  0  0
 10 11  2  0  0  0  0
 10 12  1  0  0  0  0
 12 13  1  0  0  0  0
 12 35  1  0  0  0  0
 13 18  1  0  0  0  0
 13 14  2  0  0  0  0
 14 15  1  0  0  0  0
 14 36  1  0  0  0  0
 15 16  2  0  0  0  0
 15 37  1  0  0  0  0
 16 17  1  0  0  0  0
 16 38  1  0  0  0  0
 17 18  2  0  0  0  0
 17 52  1  0  0  0  0
 18 19  1  0  0  0  0
 19 23  1  0  0  0  0
 19 20  1  0  0  0  0
 20 21  1  0  0  0  0
 20 39  1  0  0  0  0
 20 40  1  0  0  0  0
 21 22  1  0  0  0  0
 21 41  1  0  0  0  0
 21 42  1  0  0  0  0
 22 23  1  0  0  0  0
 22 43  1  0  0  0  0
 22 44  1  0  0  0  0
 23 45  1  0  0  0  0
 23 46  1  0  0  0  0
 24 25  1  0  0  0  0
 24 47  1  0  0  0  0
 24 48  1  0  0  0  0
 25 49  1  0  0  0  0
 25 50  1  0  0  0  0
M  CHG  1   1  -1
M  CHG  1   5   1
M  CHG  1  17   1
M  END
> <s_m_source_file>
AV-unprocessed.smi

> <i_m_source_file_index>
1740

> <i_lp_mmshare_version>
43012

> <i_f3d_flags>
0

> <s_epik_input>
W05IMl1DKD1PKVtDSDJdTjFbQ0gyXVtDSDJdW0NIXShbQ0gyXVtDSDJdMSlbTkhdQyg9TylbTkhdYzJbY0hdW2NIXVtjSF1uYzJOM1tDSDJdW0NIMl1bQ0gyXVtDSDJdMw==

> <s_epik_cmdline>
J2VwaWtfcHl0aG9uJywgJy1waCcsICc3LjAnLCAnLXRuJywgJzgnLCAnLW1hJywgJzIwMCcsICctbWV0YWxfYmluZGluZycsICctaW1hZScsICc8aW5maWxlLm1hZT4nLCAnLW9tYWUnLCAnPG91dGZpbGUubWFlPic=

> <r_lp_tautomer_probability>
0.999994

> <r_epik_Ionization_Penalty>
6.97817

> <r_epik_Ionization_Penalty_Charging>
6.97815

> <r_epik_Ionization_Penalty_Neutral>
1.88285e-05

> <r_epik_State_Penalty>
7.80985

> <r_epik_Charging_Adjusted_Penalty>
14.788

> <i_epik_Tot_Q>
1

> <i_epik_Tot_abs_Q>
3

> <r_epik_Metal_State_Penalty>
3.85728

> <b_epik_Metal_Only>
1

> <s_lp_Force_Field>
OPLS_2005

> <r_lp_Energy>
44.1168

> <b_lp_Chiralities_Consistent>
1

> <s_lp_Variant>
AV-unprocessed.smi:1740-10

> <Gold.Version>
5.8.1

> <Gold.Id.Protein>
6NUR|6NUR_protein|mol2

> <Gold.PLP.Fitness>
46.4972

> <Gold.PLP.PLP>
-38.2003

> <Gold.PLP.part.hbond>
-6.4806

> <Gold.PLP.part.metal>
0.0000

> <Gold.PLP.part.buried>
-3.1186

> <Gold.PLP.part.nonpolar>
-28.6290

> <Gold.PLP.part.repulsive>
0.7278

> <Gold.PLP.ligand.clash>
0.0000

> <Gold.PLP.ligand.torsion>
1.0404

> <Gold.PLP.Chemscore.Hbond>
3.3016

> <Gold.PLP.Chemscore.CHOScore>
0.0000

> <Gold.PLP.Chemscore.Metal>
0.0000

> <Gold.Chemscore.Hbonds>
donor molecule, donor type, donor heavy atom, donor atom, acceptor molecule, acceptor atom, score
      L1  H     1    26       P1  8028  0.80
      L1  H     9    34       P1  7948  1.00
      L1  H    12    35       P1  7948  0.51
      P1  H  8011  8017       L1     3  0.34

> <Gold.PLP.Chemscore.Internal.Correction>
0.4730

> <Gold.Rescore>
     Score         DG    S(hbond)    S(metal)    S(lipo)     H(rot)  DE(clash)    DE(int)     intcor
     11.47     -16.00       2.40        0.00      69.34       2.18       0.77       3.77       ----

> <Gold.Chemscore.Fitness>
11.4692

> <Gold.Chemscore.DG>
-16.0048

> <Gold.Chemscore.ZeroCoef>
-5.4800

> <Gold.Chemscore.Hbond>
2.3956

> <Gold.Chemscore.Metal>
0.0000

> <Gold.Chemscore.Lipo>
69.3377

> <Gold.Chemscore.Internal_Hbond>
0.0000

> <Gold.Chemscore.DEClash>
0.7658

> <Gold.Chemscore.DEInternal>
3.7698

> <Gold.Chemscore.Rot>
2.1832

> <Gold.Chemscore.Internal.Correction>
   9.000000E+99

> <Gold.Chemscore.Hbonds>
donor molecule, donor type, donor heavy atom, donor atom, acceptor molecule, acceptor atom, score
      L1  H     1    26       P1  8028  0.12
      L1  H     9    34       P1  7948  0.54
      L1  H    12    35       P1  7948  0.03
      P1  H  8011  8017       L1     3  0.34

> <Gold.Chemscore.Hbond.Weighted>
-8.0014

> <Gold.Chemscore.Metal.Weighted>
-0.0000

> <Gold.Chemscore.Lipo.Weighted>
-8.1125

> <Gold.Chemscore.Internal_Hbond.Weighted>
0.0000

> <Gold.Chemscore.DEClash.Weighted>
0.7658

> <Gold.Chemscore.DEInternal.Weighted>
3.7698

> <Gold.Chemscore.Rot.Weighted>
5.5891

> <Gold.Chemscore.Internal.Correction.Weighted>
   9.000000E+99

> <Gold.Protein.RotatedTorsions>
[ 6907 6896 6895 6894 ] final  -50.40 input  -60.11 | X-H torsion
[ 7974 7965 7964 7962 ] final   17.78 input  175.53 | X-H torsion
[ 8008 7997 7996 7995 ] final -129.31 input   59.86 | X-H torsion
[ 10167 10162 10161 10158 ] final   -7.51 input  -65.29 | X-H torsion
[ 10718 10713 10712 10709 ] final   79.09 input   66.30 | X-H torsion
[ 10763 10752 10751 10750 ] final  112.02 input  -60.55 | X-H torsion
[ 11005 11000 10999 10996 ] final  -50.36 input  -57.11 | X-H torsion

> <Gold.Protein.ActiveResidues>
 VAL166  LYS551  ARG553  GLY616  TRP617  ASP618  TYR619  PRO620  LYS621  CYS622 
 ASP623  PHE694  ASN695  SER759  ASP760  ASP761  ALA762  ILE779  LEU786  VAL792 
 PHE793  MET794  SER795  GLU796  ALA797  LYS798  CYS799  TRP800  GLU811  SER814 

> <Gold.Protein.RotatedAtoms>
  150.8710  134.8084  159.7154 H   0  0  0  0  0  0  0  0  0  0  0  0  # atno 6907 bound_to 6896
  152.4715  134.4946  159.9716 H   0  0  0  0  0  0  0  0  0  0  0  0  # atno 6908 bound_to 6896
  151.5035  133.3461  159.2908 H   0  0  0  0  0  0  0  0  0  0  0  0  # atno 6909 bound_to 6896
  146.2207  139.8552  142.8615 H   0  0  0  0  0  0  0  0  0  0  0  0  # atno 7974 bound_to 7965
  155.2771  140.0442  157.3012 H   0  0  0  0  0  0  0  0  0  0  0  0  # atno 8008 bound_to 7997
  154.5619  140.2348  155.8291 H   0  0  0  0  0  0  0  0  0  0  0  0  # atno 8009 bound_to 7997
  156.2054  140.3014  155.9622 H   0  0  0  0  0  0  0  0  0  0  0  0  # atno 8010 bound_to 7997
  140.7031  143.6073  150.8738 H   0  0  0  0  0  0  0  0  0  0  0  0  # atno 10167 bound_to 10162
  157.6766  130.9898  150.1882 H   0  0  0  0  0  0  0  0  0  0  0  0  # atno 10718 bound_to 10713
  153.4717  135.3699  155.2394 H   0  0  0  0  0  0  0  0  0  0  0  0  # atno 10763 bound_to 10752
  154.8757  135.3933  154.3804 H   0  0  0  0  0  0  0  0  0  0  0  0  # atno 10764 bound_to 10752
  153.4393  135.7084  153.6244 H   0  0  0  0  0  0  0  0  0  0  0  0  # atno 10765 bound_to 10752
  141.0811  133.6653  156.3720 H   0  0  0  0  0  0  0  0  0  0  0  0  # atno 11005 bound_to 11000
  145.2760  141.0124  143.3744 LP  0  0  0  0  0  0  0  0  0  0  0  0  # atno 17320 bound_to 7965
  144.9187  139.4439  143.6552 LP  0  0  0  0  0  0  0  0  0  0  0  0  # atno 17321 bound_to 7965
  139.9797  143.5965  152.2947 LP  0  0  0  0  0  0  0  0  0  0  0  0  # atno 17342 bound_to 10162
  139.6582  144.7662  151.2015 LP  0  0  0  0  0  0  0  0  0  0  0  0  # atno 17343 bound_to 10162
  156.2599  130.3709  149.8141 LP  0  0  0  0  0  0  0  0  0  0  0  0  # atno 17370 bound_to 10713
  156.5889  130.8498  151.3403 LP  0  0  0  0  0  0  0  0  0  0  0  0  # atno 17371 bound_to 10713
  140.5465  134.6069  157.5395 LP  0  0  0  0  0  0  0  0  0  0  0  0  # atno 17394 bound_to 11000
  139.9625  134.7428  156.0206 LP  0  0  0  0  0  0  0  0  0  0  0  0  # atno 17395 bound_to 11000

$$$$
