AV-unprocessed.smi:2068|AV-procd|sdf|8430|dock8
  -GOLD-   2272011123D 1   1.00000     0.00000
 Structure written by MMmdl.
 32 33  0  0  0  0  0  0  0  0  2 V2000
  149.6579  138.8014  153.3917 N   0  0  0  0  0  0  0  0  0  0  0  0
  150.7544  138.8945  154.1504 C   0  0  0  0  0  0  0  0  0  0  0  0
  151.0921  139.9477  154.6876 O   0  0  0  0  0  0  0  0  0  0  0  0
  151.6045  137.6319  154.3185 C   0  0  0  0  0  0  0  0  0  0  0  0
  150.8921  136.6166  155.1654 C   0  0  0  0  0  0  0  0  0  0  0  0
  150.4378  135.3840  154.7720 C   0  0  0  0  0  0  0  0  0  0  0  0
  149.6796  134.5285  156.0844 S   0  0  0  0  0  0  0  0  0  0  0  0
  150.0076  135.8956  157.1504 C   0  0  0  0  0  0  0  0  0  0  0  0
  149.6733  135.9577  158.4484 N   0  5  0  0  0  0  0  0  0  0  0  0
  148.4607  136.4480  158.8018 C   0  0  0  0  0  0  0  0  0  0  0  0
  147.5905  136.9456  158.0857 O   0  0  0  0  0  0  0  0  0  0  0  0
  148.2007  136.3200  160.3094 C   0  0  0  0  0  0  0  0  0  0  0  0
  146.9195  135.5215  160.6361 C   0  0  1  0  0  0  0  0  0  0  0  0
  146.8843  134.1419  160.0236 C   0  0  0  0  0  0  0  0  0  0  0  0
  146.6290  133.1893  160.9174 C   0  0  0  0  0  0  0  0  0  0  0  0
  146.4434  133.7370  162.3051 C   0  0  0  0  0  0  0  0  0  0  0  0
  146.7389  135.2458  162.1508 C   0  0  0  0  0  0  0  0  0  0  0  0
  150.6267  136.8930  156.5097 N   0  0  0  0  0  0  0  0  0  0  0  0
  149.0574  139.6041  153.2726 H   0  0  0  0  0  0  0  0  0  0  0  0
  149.4225  137.9197  152.9575 H   0  0  0  0  0  0  0  0  0  0  0  0
  151.8333  137.2263  153.3320 H   0  0  0  0  0  0  0  0  0  0  0  0
  152.5610  137.8984  154.7701 H   0  0  0  0  0  0  0  0  0  0  0  0
  150.5082  134.9268  153.7966 H   0  0  0  0  0  0  0  0  0  0  0  0
  149.0578  135.8700  160.8149 H   0  0  0  0  0  0  0  0  0  0  0  0
  148.1108  137.3275  160.7171 H   0  0  0  0  0  0  0  0  0  0  0  0
  146.0486  136.0622  160.2623 H   0  0  0  0  0  0  0  0  0  0  0  0
  147.0389  133.9746  158.9674 H   0  0  0  0  0  0  0  0  0  0  0  0
  146.5468  132.1351  160.6975 H   0  0  0  0  0  0  0  0  0  0  0  0
  145.4211  133.5578  162.6398 H   0  0  0  0  0  0  0  0  0  0  0  0
  147.1298  133.2581  163.0038 H   0  0  0  0  0  0  0  0  0  0  0  0
  147.6477  135.4959  162.7001 H   0  0  0  0  0  0  0  0  0  0  0  0
  145.9365  135.8532  162.5707 H   0  0  0  0  0  0  0  0  0  0  0  0
  1  2  1  0  0  0  0
  1 19  1  0  0  0  0
  1 20  1  0  0  0  0
  2  3  2  0  0  0  0
  2  4  1  0  0  0  0
  4  5  1  0  0  0  0
  4 21  1  0  0  0  0
  4 22  1  0  0  0  0
  5 18  1  0  0  0  0
  5  6  2  0  0  0  0
  6  7  1  0  0  0  0
  6 23  1  0  0  0  0
  7  8  1  0  0  0  0
  8  9  1  0  0  0  0
  8 18  2  0  0  0  0
  9 10  1  0  0  0  0
 10 11  2  0  0  0  0
 10 12  1  0  0  0  0
 12 13  1  0  0  0  0
 12 24  1  0  0  0  0
 12 25  1  0  0  0  0
 13 17  1  0  0  0  0
 13 14  1  0  0  0  0
 13 26  1  0  0  0  0
 14 15  2  0  0  0  0
 14 27  1  0  0  0  0
 15 16  1  0  0  0  0
 15 28  1  0  0  0  0
 16 17  1  0  0  0  0
 16 29  1  0  0  0  0
 16 30  1  0  0  0  0
 17 31  1  0  0  0  0
 17 32  1  0  0  0  0
M  CHG  1   9  -1
M  END
> <s_m_source_file>
AV-unprocessed.smi

> <i_m_source_file_index>
2068

> <i_lp_mmshare_version>
43012

> <i_f3d_flags>
0

> <s_epik_input>
W05IMl1DKD1PKVtDSDJdYzFbY0hdc2MobjEpW05IXUMoPU8pW0NIMl1bQ0BASF0yW0NIXT1bQ0hdW0NIMl1bQ0gyXTI=

> <s_epik_cmdline>
J2VwaWtfcHl0aG9uJywgJy1waCcsICc3LjAnLCAnLXRuJywgJzgnLCAnLW1hJywgJzIwMCcsICctbWV0YWxfYmluZGluZycsICctaW1hZScsICc8aW5maWxlLm1hZT4nLCAnLW9tYWUnLCAnPG91dGZpbGUubWFlPic=

> <r_lp_tautomer_probability>
1

> <r_epik_Ionization_Penalty>
4.99584

> <r_epik_Ionization_Penalty_Charging>
4.63763

> <r_epik_Ionization_Penalty_Neutral>
0.358213

> <r_epik_State_Penalty>
4.63739

> <r_epik_Charging_Adjusted_Penalty>
9.27502

> <i_epik_Tot_Q>
-1

> <i_epik_Tot_abs_Q>
1

> <r_epik_Metal_State_Penalty>
0.891949

> <b_epik_Metal_Only>
1

> <s_lp_Force_Field>
OPLS_2005

> <r_lp_Energy>
14.2455

> <b_lp_Chiralities_Consistent>
1

> <s_lp_Variant>
AV-unprocessed.smi:2068-4

> <Gold.Version>
5.8.1

> <Gold.Id.Protein>
6NUR|6NUR_protein|mol2

> <Gold.PLP.Fitness>
44.6044

> <Gold.PLP.PLP>
-33.3112

> <Gold.PLP.part.hbond>
-4.0000

> <Gold.PLP.part.metal>
0.0000

> <Gold.PLP.part.buried>
-1.8807

> <Gold.PLP.part.nonpolar>
-27.0546

> <Gold.PLP.part.repulsive>
0.1830

> <Gold.PLP.ligand.clash>
0.0000

> <Gold.PLP.ligand.torsion>
0.9011

> <Gold.PLP.Chemscore.Hbond>
4.0000

> <Gold.PLP.Chemscore.CHOScore>
0.3229

> <Gold.PLP.Chemscore.Metal>
0.0000

> <Gold.Chemscore.Hbonds>
donor molecule, donor type, donor heavy atom, donor atom, acceptor molecule, acceptor atom, score
      L1  H     1    20       P1  7948  1.00
      P1  H  6896  6907       L1     9  2.00
      P1  H  7989  7998       L1     3  1.00
      L1  C     6    23       P1  7949  0.16

> <Gold.PLP.Chemscore.Internal.Correction>
0.1268

> <Gold.Rescore>
     Score         DG    S(hbond)    S(metal)    S(lipo)     H(rot)  DE(clash)    DE(int)     intcor
     16.19     -17.25       2.75        0.00      69.35       2.17       0.14       0.93       ----

> <Gold.Chemscore.Fitness>
16.1874

> <Gold.Chemscore.DG>
-17.2518

> <Gold.Chemscore.ZeroCoef>
-5.4800

> <Gold.Chemscore.Hbond>
2.7547

> <Gold.Chemscore.Metal>
0.0000

> <Gold.Chemscore.Lipo>
69.3470

> <Gold.Chemscore.Internal_Hbond>
0.0000

> <Gold.Chemscore.DEClash>
0.1369

> <Gold.Chemscore.DEInternal>
0.9275

> <Gold.Chemscore.Rot>
2.1650

> <Gold.Chemscore.Internal.Correction>
   9.000000E+99

> <Gold.Chemscore.Hbonds>
donor molecule, donor type, donor heavy atom, donor atom, acceptor molecule, acceptor atom, score
      L1  H     1    19       P1  7957  0.02
      L1  H     1    20       P1  7948  0.85
      P1  H  6896  6907       L1     9  0.84
      P1  H  7989  7998       L1     3  0.49

> <Gold.Chemscore.Hbond.Weighted>
-9.2007

> <Gold.Chemscore.Metal.Weighted>
-0.0000

> <Gold.Chemscore.Lipo.Weighted>
-8.1136

> <Gold.Chemscore.Internal_Hbond.Weighted>
0.0000

> <Gold.Chemscore.DEClash.Weighted>
0.1369

> <Gold.Chemscore.DEInternal.Weighted>
0.9275

> <Gold.Chemscore.Rot.Weighted>
5.5425

> <Gold.Chemscore.Internal.Correction.Weighted>
   9.000000E+99

> <Gold.Protein.RotatedTorsions>
[ 6907 6896 6895 6894 ] final  -57.83 input  -60.11 | X-H torsion
[ 7974 7965 7964 7962 ] final  -15.03 input  175.53 | X-H torsion
[ 8008 7997 7996 7995 ] final   40.87 input   59.86 | X-H torsion
[ 10167 10162 10161 10158 ] final   72.69 input  -65.29 | X-H torsion
[ 10718 10713 10712 10709 ] final  171.32 input   66.30 | X-H torsion
[ 10763 10752 10751 10750 ] final    7.15 input  -60.55 | X-H torsion
[ 11005 11000 10999 10996 ] final -113.33 input  -57.11 | X-H torsion

> <Gold.Protein.ActiveResidues>
 VAL166  LYS551  ARG553  GLY616  TRP617  ASP618  TYR619  PRO620  LYS621  CYS622 
 ASP623  PHE694  ASN695  SER759  ASP760  ASP761  ALA762  ILE779  LEU786  VAL792 
 PHE793  MET794  SER795  GLU796  ALA797  LYS798  CYS799  TRP800  GLU811  SER814 

> <Gold.Protein.RotatedAtoms>
  150.8055  134.7177  159.6639 H   0  0  0  0  0  0  0  0  0  0  0  0  # atno 6907 bound_to 6896
  152.4174  134.6014  160.0011 H   0  0  0  0  0  0  0  0  0  0  0  0  # atno 6908 bound_to 6896
  151.6239  133.3300  159.3130 H   0  0  0  0  0  0  0  0  0  0  0  0  # atno 6909 bound_to 6896
  146.2049  140.3433  142.8410 H   0  0  0  0  0  0  0  0  0  0  0  0  # atno 7974 bound_to 7965
  155.2602  140.3359  155.4274 H   0  0  0  0  0  0  0  0  0  0  0  0  # atno 8008 bound_to 7997
  156.2178  140.1796  156.7591 H   0  0  0  0  0  0  0  0  0  0  0  0  # atno 8009 bound_to 7997
  154.5779  140.0658  156.9046 H   0  0  0  0  0  0  0  0  0  0  0  0  # atno 8010 bound_to 7997
  140.0326  144.5453  150.7495 H   0  0  0  0  0  0  0  0  0  0  0  0  # atno 10167 bound_to 10162
  156.9953  131.0160  151.2845 H   0  0  0  0  0  0  0  0  0  0  0  0  # atno 10718 bound_to 10713
  153.2395  135.6902  153.7799 H   0  0  0  0  0  0  0  0  0  0  0  0  # atno 10763 bound_to 10752
  153.6934  135.3309  155.3208 H   0  0  0  0  0  0  0  0  0  0  0  0  # atno 10764 bound_to 10752
  154.8349  135.4550  154.1312 H   0  0  0  0  0  0  0  0  0  0  0  0  # atno 10765 bound_to 10752
  141.0621  133.9519  157.2648 H   0  0  0  0  0  0  0  0  0  0  0  0  # atno 11005 bound_to 11000
  144.8770  140.7349  143.6011 LP  0  0  0  0  0  0  0  0  0  0  0  0  # atno 17320 bound_to 7965
  145.3353  139.1747  143.4515 LP  0  0  0  0  0  0  0  0  0  0  0  0  # atno 17321 bound_to 7965
  140.7295  143.2673  151.4001 LP  0  0  0  0  0  0  0  0  0  0  0  0  # atno 17342 bound_to 10162
  139.6066  144.1184  152.2255 LP  0  0  0  0  0  0  0  0  0  0  0  0  # atno 17343 bound_to 10162
  157.5429  130.8132  149.8051 LP  0  0  0  0  0  0  0  0  0  0  0  0  # atno 17370 bound_to 10713
  156.0191  130.3802  150.2016 LP  0  0  0  0  0  0  0  0  0  0  0  0  # atno 17371 bound_to 10713
  139.9442  135.0186  156.8801 LP  0  0  0  0  0  0  0  0  0  0  0  0  # atno 17394 bound_to 11000
  140.5848  134.0318  155.7477 LP  0  0  0  0  0  0  0  0  0  0  0  0  # atno 17395 bound_to 11000

$$$$
