AV-unprocessed.smi:203|AV-procd|sdf|1592|dock1
  -GOLD-   2262019493D 1   1.00000     0.00000
 Structure written by MMmdl.
 57 61  0  0  0  0  0  0  0  0  1 V2000
  152.1319  137.2507  155.0763 O   0  0  0  0  0  0  0  0  0  0  0  0
  151.6252  137.9021  155.9867 C   0  0  0  0  0  0  0  0  0  0  0  0
  152.3014  139.0967  156.6401 C   0  0  0  0  0  0  0  0  0  0  0  0
  151.4188  139.3469  157.8768 C   0  0  1  0  0  0  0  0  0  0  0  0
  151.3110  140.8233  158.3714 C   0  0  1  0  0  0  0  0  0  0  0  0
  152.5616  141.2961  159.1599 C   0  0  0  0  0  0  0  0  0  0  0  0
  152.4231  142.7506  159.6288 C   0  0  0  0  0  0  0  0  0  0  0  0
  152.1411  143.6603  158.4292 C   0  0  0  0  0  0  0  0  0  0  0  0
  150.8943  143.1760  157.6791 C   0  0  0  0  0  0  0  0  0  0  0  0
  151.0220  141.7741  157.2812 N   0  0  0  0  0  0  0  0  0  0  0  0
  150.0225  141.4465  156.4312 C   0  0  0  0  0  0  0  0  0  0  0  0
  150.3788  140.9451  155.2231 N   0  0  0  0  0  0  0  0  0  0  0  0
  149.4369  140.6032  154.3387 C   0  0  0  0  0  0  0  0  0  0  0  0
  148.1099  140.6856  154.4575 N   0  0  0  0  0  0  0  0  0  0  0  0
  147.7511  141.1996  155.6691 C   0  0  0  0  0  0  0  0  0  0  0  0
  148.6351  141.6062  156.7071 C   0  0  0  0  0  0  0  0  0  0  0  0
  147.9074  142.0876  157.7889 N   0  0  0  0  0  0  0  0  0  0  0  0
  146.6635  141.9769  157.4100 C   0  0  0  0  0  0  0  0  0  0  0  0
  146.4793  141.4580  156.1489 N   0  0  0  0  0  0  0  0  0  0  0  0
  145.2112  141.2485  155.4752 C   0  0  0  0  0  0  0  0  0  0  0  0
  144.1632  142.3281  155.8190 C   0  0  2  0  0  0  0  0  0  0  0  0
  142.9199  141.8801  155.3175 O   0  0  0  0  0  0  0  0  0  0  0  0
  144.4733  143.7239  155.2332 C   0  0  1  0  0  0  0  0  0  0  0  0
  145.0005  143.7145  153.7975 C   0  0  0  0  0  0  0  0  0  0  0  0
  144.6813  145.1135  153.2955 C   0  0  0  0  0  0  0  0  0  0  0  0
  143.5983  145.6106  154.2564 C   0  0  0  0  0  0  0  0  0  0  0  0
  143.2889  144.4914  155.0742 O   0  0  0  0  0  0  0  0  0  0  0  0
  150.0884  138.6296  157.5708 C   0  0  0  0  0  0  0  0  0  0  0  0
  150.4323  137.6747  156.5358 N   0  0  0  0  0  0  0  0  0  0  0  0
  153.3340  138.8740  156.9105 H   0  0  0  0  0  0  0  0  0  0  0  0
  152.3034  139.9208  155.9300 H   0  0  0  0  0  0  0  0  0  0  0  0
  151.9029  138.7659  158.6631 H   0  0  0  0  0  0  0  0  0  0  0  0
  150.4709  140.8690  159.0651 H   0  0  0  0  0  0  0  0  0  0  0  0
  152.7347  140.6718  160.0344 H   0  0  0  0  0  0  0  0  0  0  0  0
  153.4566  141.2162  158.5440 H   0  0  0  0  0  0  0  0  0  0  0  0
  151.6124  142.8301  160.3541 H   0  0  0  0  0  0  0  0  0  0  0  0
  153.3328  143.0703  160.1381 H   0  0  0  0  0  0  0  0  0  0  0  0
  152.0027  144.6895  158.7609 H   0  0  0  0  0  0  0  0  0  0  0  0
  152.9991  143.6615  157.7554 H   0  0  0  0  0  0  0  0  0  0  0  0
  150.0149  143.2917  158.3145 H   0  0  0  0  0  0  0  0  0  0  0  0
  150.7344  143.8025  156.7998 H   0  0  0  0  0  0  0  0  0  0  0  0
  149.7984  140.2079  153.4010 H   0  0  0  0  0  0  0  0  0  0  0  0
  145.8405  142.2811  158.0402 H   0  0  0  0  0  0  0  0  0  0  0  0
  145.3898  141.2213  154.3993 H   0  0  0  0  0  0  0  0  0  0  0  0
  144.8410  140.2607  155.7528 H   0  0  0  0  0  0  0  0  0  0  0  0
  144.0683  142.4086  156.9026 H   0  0  0  0  0  0  0  0  0  0  0  0
  142.8762  142.0854  154.3961 H   0  0  0  0  0  0  0  0  0  0  0  0
  145.1687  144.2628  155.8797 H   0  0  0  0  0  0  0  0  0  0  0  0
  146.0627  143.4758  153.7372 H   0  0  0  0  0  0  0  0  0  0  0  0
  144.4555  142.9793  153.2034 H   0  0  0  0  0  0  0  0  0  0  0  0
  145.5586  145.7595  153.3466 H   0  0  0  0  0  0  0  0  0  0  0  0
  144.3357  145.0942  152.2615 H   0  0  0  0  0  0  0  0  0  0  0  0
  143.9784  146.4199  154.8814 H   0  0  0  0  0  0  0  0  0  0  0  0
  142.7088  145.9682  153.7374 H   0  0  0  0  0  0  0  0  0  0  0  0
  149.6849  138.1268  158.4503 H   0  0  0  0  0  0  0  0  0  0  0  0
  149.3224  139.3000  157.1844 H   0  0  0  0  0  0  0  0  0  0  0  0
  149.8102  136.9313  156.2524 H   0  0  0  0  0  0  0  0  0  0  0  0
  1  2  2  0  0  0  0
  2 29  1  0  0  0  0
  2  3  1  0  0  0  0
  3  4  1  0  0  0  0
  3 30  1  0  0  0  0
  3 31  1  0  0  0  0
  4  5  1  0  0  0  0
  4 28  1  0  0  0  0
  4 32  1  0  0  0  0
  5 10  1  0  0  0  0
  5  6  1  0  0  0  0
  5 33  1  0  0  0  0
  6  7  1  0  0  0  0
  6 34  1  0  0  0  0
  6 35  1  0  0  0  0
  7  8  1  0  0  0  0
  7 36  1  0  0  0  0
  7 37  1  0  0  0  0
  8  9  1  0  0  0  0
  8 38  1  0  0  0  0
  8 39  1  0  0  0  0
  9 10  1  0  0  0  0
  9 40  1  0  0  0  0
  9 41  1  0  0  0  0
 10 11  1  0  0  0  0
 11 16  1  0  0  0  0
 11 12  2  0  0  0  0
 12 13  1  0  0  0  0
 13 14  2  0  0  0  0
 13 42  1  0  0  0  0
 14 15  1  0  0  0  0
 15 19  1  0  0  0  0
 15 16  2  0  0  0  0
 16 17  1  0  0  0  0
 17 18  2  0  0  0  0
 18 19  1  0  0  0  0
 18 43  1  0  0  0  0
 19 20  1  0  0  0  0
 20 21  1  0  0  0  0
 20 44  1  0  0  0  0
 20 45  1  0  0  0  0
 21 22  1  0  0  0  0
 21 23  1  0  0  0  0
 21 46  1  0  0  0  0
 22 47  1  0  0  0  0
 23 27  1  0  0  0  0
 23 24  1  0  0  0  0
 23 48  1  0  0  0  0
 24 25  1  0  0  0  0
 24 49  1  0  0  0  0
 24 50  1  0  0  0  0
 25 26  1  0  0  0  0
 25 51  1  0  0  0  0
 25 52  1  0  0  0  0
 26 27  1  0  0  0  0
 26 53  1  0  0  0  0
 26 54  1  0  0  0  0
 28 29  1  0  0  0  0
 28 55  1  0  0  0  0
 28 56  1  0  0  0  0
 29 57  1  0  0  0  0
M  END
> <s_m_source_file>
AV-unprocessed.smi

> <i_m_source_file_index>
203

> <i_lp_mmshare_version>
43012

> <i_f3d_flags>
0

> <s_epik_input>
Tz1DMVtDSDJdW0NASF0oW0NIMl1bTkhdMSlbQ0BASF0yW0NIMl1bQ0gyXVtDSDJdW0NIMl1OMmMobltjSF1uMyljKGMzNCluW2NIXW40W0NIMl1bQ0BIXShbT0hdKVtDQEBIXTVbQ0gyXVtDSDJdW0NIMl1PNQ==

> <s_epik_cmdline>
J2VwaWtfcHl0aG9uJywgJy1waCcsICc3LjAnLCAnLXRuJywgJzgnLCAnLW1hJywgJzIwMCcsICctbWV0YWxfYmluZGluZycsICctaW1hZScsICc8aW5maWxlLm1hZT4nLCAnLW9tYWUnLCAnPG91dGZpbGUubWFlPic=

> <r_lp_tautomer_probability>
1

> <r_epik_Ionization_Penalty>
0.00175146

> <r_epik_Ionization_Penalty_Charging>
0

> <r_epik_Ionization_Penalty_Neutral>
0.00175146

> <r_epik_State_Penalty>
0.00109045

> <r_epik_Charging_Adjusted_Penalty>
0.00109045

> <i_epik_Tot_Q>
0

> <i_epik_Tot_abs_Q>
0

> <r_epik_Metal_State_Penalty>
-0

> <b_epik_Metal_Only>
0

> <s_lp_Force_Field>
OPLS_2005

> <r_lp_Energy>
55.4973

> <b_lp_Chiralities_Consistent>
1

> <s_lp_Variant>
AV-unprocessed.smi:203-11

> <Gold.Version>
5.8.1

> <Gold.Id.Protein>
6NUR|6NUR_protein|mol2

> <Gold.PLP.Fitness>
50.4272

> <Gold.PLP.PLP>
-43.8792

> <Gold.PLP.part.hbond>
-3.6488

> <Gold.PLP.part.metal>
0.0000

> <Gold.PLP.part.buried>
-3.6589

> <Gold.PLP.part.nonpolar>
-37.6355

> <Gold.PLP.part.repulsive>
0.5642

> <Gold.PLP.ligand.clash>
0.0000

> <Gold.PLP.ligand.torsion>
1.4106

> <Gold.PLP.Chemscore.Hbond>
2.0212

> <Gold.PLP.Chemscore.CHOScore>
1.0000

> <Gold.PLP.Chemscore.Metal>
0.0000

> <Gold.Chemscore.Hbonds>
donor molecule, donor type, donor heavy atom, donor atom, acceptor molecule, acceptor atom, score
      L1  H    22    47       P1 10174  0.27
      P1  H  7989  7998       L1    12  0.09
      P1  H 10752 10764       L1     1  0.83
      L1  C    13    42       P1  7957  1.00

> <Gold.PLP.Chemscore.Internal.Correction>
0.3056

> <Gold.Rescore>
     Score         DG    S(hbond)    S(metal)    S(lipo)     H(rot)  DE(clash)    DE(int)     intcor
     11.72     -14.75       1.34        0.00     100.51       2.72       0.25       2.78       ----

> <Gold.Chemscore.Fitness>
11.7207

> <Gold.Chemscore.DG>
-14.7514

> <Gold.Chemscore.ZeroCoef>
-5.4800

> <Gold.Chemscore.Hbond>
1.3377

> <Gold.Chemscore.Metal>
0.0000

> <Gold.Chemscore.Lipo>
100.5054

> <Gold.Chemscore.Internal_Hbond>
0.0000

> <Gold.Chemscore.DEClash>
0.2539

> <Gold.Chemscore.DEInternal>
2.7768

> <Gold.Chemscore.Rot>
2.7171

> <Gold.Chemscore.Internal.Correction>
   9.000000E+99

> <Gold.Chemscore.Hbonds>
donor molecule, donor type, donor heavy atom, donor atom, acceptor molecule, acceptor atom, score
      L1  H    22    47       P1 10174  0.04
      P1  H 10752 10764       L1     1  0.83

> <Gold.Chemscore.Hbond.Weighted>
-4.4679

> <Gold.Chemscore.Metal.Weighted>
-0.0000

> <Gold.Chemscore.Lipo.Weighted>
-11.7591

> <Gold.Chemscore.Internal_Hbond.Weighted>
0.0000

> <Gold.Chemscore.DEClash.Weighted>
0.2539

> <Gold.Chemscore.DEInternal.Weighted>
2.7768

> <Gold.Chemscore.Rot.Weighted>
6.9557

> <Gold.Chemscore.Internal.Correction.Weighted>
   9.000000E+99

> <Gold.Protein.RotatedTorsions>
[ 6907 6896 6895 6894 ] final -144.64 input  -60.11 | X-H torsion
[ 7974 7965 7964 7962 ] final    2.77 input  175.53 | X-H torsion
[ 8008 7997 7996 7995 ] final  -52.23 input   59.86 | X-H torsion
[ 10167 10162 10161 10158 ] final -115.12 input  -65.29 | X-H torsion
[ 10718 10713 10712 10709 ] final  102.59 input   66.30 | X-H torsion
[ 10763 10752 10751 10750 ] final  -59.68 input  -60.55 | X-H torsion
[ 11005 11000 10999 10996 ] final  -65.56 input  -57.11 | X-H torsion

> <Gold.Protein.ActiveResidues>
 VAL166  LYS551  ARG553  GLY616  TRP617  ASP618  TYR619  PRO620  LYS621  CYS622 
 ASP623  PHE694  ASN695  SER759  ASP760  ASP761  ALA762  ILE779  LEU786  VAL792 
 PHE793  MET794  SER795  GLU796  ALA797  LYS798  CYS799  TRP800  GLU811  SER814 

> <Gold.Protein.RotatedAtoms>
  151.1168  133.5133  159.2603 H   0  0  0  0  0  0  0  0  0  0  0  0  # atno 6907 bound_to 6896
  151.1906  135.0400  159.8841 H   0  0  0  0  0  0  0  0  0  0  0  0  # atno 6908 bound_to 6896
  152.5453  134.1009  159.8371 H   0  0  0  0  0  0  0  0  0  0  0  0  # atno 6909 bound_to 6896
  146.2444  140.0787  142.8358 H   0  0  0  0  0  0  0  0  0  0  0  0  # atno 7974 bound_to 7965
  154.4101  140.1229  156.4957 H   0  0  0  0  0  0  0  0  0  0  0  0  # atno 8008 bound_to 7997
  155.6945  140.3495  155.4888 H   0  0  0  0  0  0  0  0  0  0  0  0  # atno 8009 bound_to 7997
  155.9439  140.1092  157.1023 H   0  0  0  0  0  0  0  0  0  0  0  0  # atno 8010 bound_to 7997
  140.0936  143.4677  152.1855 H   0  0  0  0  0  0  0  0  0  0  0  0  # atno 10167 bound_to 10162
  157.6797  131.0757  150.5427 H   0  0  0  0  0  0  0  0  0  0  0  0  # atno 10718 bound_to 10713
  154.2575  135.6314  153.5262 H   0  0  0  0  0  0  0  0  0  0  0  0  # atno 10763 bound_to 10752
  152.9901  135.5579  154.5741 H   0  0  0  0  0  0  0  0  0  0  0  0  # atno 10764 bound_to 10752
  154.5282  135.2886  155.1178 H   0  0  0  0  0  0  0  0  0  0  0  0  # atno 10765 bound_to 10752
  141.1458  133.6683  156.6004 H   0  0  0  0  0  0  0  0  0  0  0  0  # atno 11005 bound_to 11000
  145.0752  140.9183  143.4858 LP  0  0  0  0  0  0  0  0  0  0  0  0  # atno 17320 bound_to 7965
  145.0929  139.2877  143.5726 LP  0  0  0  0  0  0  0  0  0  0  0  0  # atno 17321 bound_to 7965
  139.5711  144.7463  151.3889 LP  0  0  0  0  0  0  0  0  0  0  0  0  # atno 17342 bound_to 10162
  140.7015  143.7618  150.7412 LP  0  0  0  0  0  0  0  0  0  0  0  0  # atno 17343 bound_to 10162
  156.5734  130.4285  149.6009 LP  0  0  0  0  0  0  0  0  0  0  0  0  # atno 17370 bound_to 10713
  156.2722  130.7023  151.1823 LP  0  0  0  0  0  0  0  0  0  0  0  0  # atno 17371 bound_to 10713
  140.3693  134.7620  157.4587 LP  0  0  0  0  0  0  0  0  0  0  0  0  # atno 17394 bound_to 11000
  140.0723  134.5845  155.8628 LP  0  0  0  0  0  0  0  0  0  0  0  0  # atno 17395 bound_to 11000

$$$$
