AV-unprocessed.smi:1535|AV-procd|sdf|6173|dock3
  -GOLD-   22720 6323D 1   1.00000     0.00000
 Structure written by MMmdl.
 46 47  0  0  0  0  0  0  0  0  1 V2000
  151.8782  143.2508  159.0267 C   0  0  0  0  0  0  0  0  0  0  0  0
  151.6867  142.0996  158.0552 C   0  0  0  0  0  0  0  0  0  0  0  0
  150.8396  142.2771  156.9384 C   0  0  0  0  0  0  0  0  0  0  0  0
  150.6365  141.2325  156.0101 C   0  0  0  0  0  0  0  0  0  0  0  0
  149.8624  141.1881  154.8634 N   0  0  0  0  0  0  0  0  0  0  0  0
  150.0900  139.9500  154.4349 C   0  0  0  0  0  0  0  0  0  0  0  0
  150.9197  139.1851  155.1698 N   0  0  0  0  0  0  0  0  0  0  0  0
  151.3120  137.8141  154.8945 C   0  0  0  0  0  0  0  0  0  0  0  0
  150.2449  136.7959  155.3395 C   0  0  1  0  0  0  0  0  0  0  0  0
  149.0592  137.0122  154.5990 O   0  0  0  0  0  0  0  0  0  0  0  0
  150.7165  135.3448  155.1056 C   0  0  0  0  0  0  0  0  0  0  0  0
  149.8360  134.2936  155.6242 N   0  0  0  0  0  0  0  0  0  0  0  0
  149.3492  134.6666  156.9483 C   0  0  0  0  0  0  0  0  0  0  0  0
  148.7191  134.0069  154.7165 C   0  0  0  0  0  0  0  0  0  0  0  0
  149.0595  133.1090  153.5114 C   0  0  1  0  0  0  0  0  0  0  0  0
  149.4261  131.6905  153.9653 C   0  0  0  0  0  0  0  0  0  0  0  0
  147.9582  133.0712  152.5347 C   0  0  0  0  0  0  0  0  0  0  0  0
  147.0926  133.0408  151.7674 N   0  0  0  0  0  0  0  0  0  0  0  0
  151.3092  139.9951  156.2313 C   0  0  0  0  0  0  0  0  0  0  0  0
  152.1536  139.8062  157.3396 C   0  0  0  0  0  0  0  0  0  0  0  0
  152.3446  140.8599  158.2579 C   0  0  0  0  0  0  0  0  0  0  0  0
  153.2583  140.6454  159.4517 C   0  0  0  0  0  0  0  0  0  0  0  0
  151.3416  144.1417  158.6992 H   0  0  0  0  0  0  0  0  0  0  0  0
  152.9338  143.5096  159.1109 H   0  0  0  0  0  0  0  0  0  0  0  0
  151.5072  142.9809  160.0157 H   0  0  0  0  0  0  0  0  0  0  0  0
  150.3374  143.2207  156.7839 H   0  0  0  0  0  0  0  0  0  0  0  0
  149.6280  139.5759  153.5330 H   0  0  0  0  0  0  0  0  0  0  0  0
  151.5202  137.7143  153.8283 H   0  0  0  0  0  0  0  0  0  0  0  0
  152.2520  137.6217  155.4134 H   0  0  0  0  0  0  0  0  0  0  0  0
  150.0261  136.9750  156.3908 H   0  0  0  0  0  0  0  0  0  0  0  0
  149.1142  136.5230  153.7927 H   0  0  0  0  0  0  0  0  0  0  0  0
  150.8468  135.2109  154.0305 H   0  0  0  0  0  0  0  0  0  0  0  0
  151.7104  135.2163  155.5376 H   0  0  0  0  0  0  0  0  0  0  0  0
  148.7854  133.8559  157.4080 H   0  0  0  0  0  0  0  0  0  0  0  0
  148.7079  135.5477  156.9003 H   0  0  0  0  0  0  0  0  0  0  0  0
  150.1806  134.8898  157.6179 H   0  0  0  0  0  0  0  0  0  0  0  0
  147.9001  133.5584  155.2810 H   0  0  0  0  0  0  0  0  0  0  0  0
  148.3232  134.9357  154.3107 H   0  0  0  0  0  0  0  0  0  0  0  0
  149.9226  133.5123  152.9834 H   0  0  0  0  0  0  0  0  0  0  0  0
  149.6941  131.0656  153.1130 H   0  0  0  0  0  0  0  0  0  0  0  0
  148.5916  131.2122  154.4790 H   0  0  0  0  0  0  0  0  0  0  0  0
  150.2768  131.7029  154.6471 H   0  0  0  0  0  0  0  0  0  0  0  0
  152.6517  138.8585  157.4802 H   0  0  0  0  0  0  0  0  0  0  0  0
  153.6379  139.6238  159.4840 H   0  0  0  0  0  0  0  0  0  0  0  0
  152.7226  140.8313  160.3827 H   0  0  0  0  0  0  0  0  0  0  0  0
  154.1132  141.3198  159.4024 H   0  0  0  0  0  0  0  0  0  0  0  0
  1  2  1  0  0  0  0
  1 23  1  0  0  0  0
  1 24  1  0  0  0  0
  1 25  1  0  0  0  0
  2 21  1  0  0  0  0
  2  3  2  0  0  0  0
  3  4  1  0  0  0  0
  3 26  1  0  0  0  0
  4 19  2  0  0  0  0
  4  5  1  0  0  0  0
  5  6  2  0  0  0  0
  6  7  1  0  0  0  0
  6 27  1  0  0  0  0
  7  8  1  0  0  0  0
  7 19  1  0  0  0  0
  8  9  1  0  0  0  0
  8 28  1  0  0  0  0
  8 29  1  0  0  0  0
  9 10  1  0  0  0  0
  9 11  1  0  0  0  0
  9 30  1  0  0  0  0
 10 31  1  0  0  0  0
 11 12  1  0  0  0  0
 11 32  1  0  0  0  0
 11 33  1  0  0  0  0
 12 13  1  0  0  0  0
 12 14  1  0  0  0  0
 13 34  1  0  0  0  0
 13 35  1  0  0  0  0
 13 36  1  0  0  0  0
 14 15  1  0  0  0  0
 14 37  1  0  0  0  0
 14 38  1  0  0  0  0
 15 16  1  0  0  0  0
 15 17  1  0  0  0  0
 15 39  1  0  0  0  0
 16 40  1  0  0  0  0
 16 41  1  0  0  0  0
 16 42  1  0  0  0  0
 17 18  3  0  0  0  0
 19 20  1  0  0  0  0
 20 21  2  0  0  0  0
 20 43  1  0  0  0  0
 21 22  1  0  0  0  0
 22 44  1  0  0  0  0
 22 45  1  0  0  0  0
 22 46  1  0  0  0  0
M  END
> <s_m_source_file>
AV-unprocessed.smi

> <i_m_source_file_index>
1535

> <i_lp_mmshare_version>
43012

> <i_f3d_flags>
0

> <s_epik_input>
W0NIM11jKFtjSF0xKWMoW0NIM10pW2NIXWMoYzEyKW4oW2NIXW4yKVtDSDJdW0NASF0oW09IXSlbQ0gyXU4oW0NIM10pW0NIMl1bQ0BIXShbQ0gzXSlDI04=

> <s_epik_cmdline>
J2VwaWtfcHl0aG9uJywgJy1waCcsICc3LjAnLCAnLXRuJywgJzgnLCAnLW1hJywgJzIwMCcsICctbWV0YWxfYmluZGluZycsICctaW1hZScsICc8aW5maWxlLm1hZT4nLCAnLW9tYWUnLCAnPG91dGZpbGUubWFlPic=

> <r_epik_Ionization_Penalty>
0.098511

> <r_epik_Ionization_Penalty_Charging>
0

> <r_epik_Ionization_Penalty_Neutral>
0.098511

> <r_epik_State_Penalty>
0.0881608

> <r_epik_Charging_Adjusted_Penalty>
0.0881608

> <i_epik_Tot_Q>
0

> <i_epik_Tot_abs_Q>
0

> <r_epik_Metal_State_Penalty>
0.0128087

> <b_epik_Metal_Only>
0

> <s_lp_Force_Field>
OPLS_2005

> <r_lp_Energy>
24.0286

> <b_lp_Chiralities_Consistent>
1

> <s_lp_Variant>
AV-unprocessed.smi:1535-4

> <Gold.Version>
5.8.1

> <Gold.Id.Protein>
6NUR|6NUR_protein|mol2

> <Gold.PLP.Fitness>
46.2803

> <Gold.PLP.PLP>
-41.6598

> <Gold.PLP.part.hbond>
-2.0000

> <Gold.PLP.part.metal>
0.0000

> <Gold.PLP.part.buried>
-2.9142

> <Gold.PLP.part.nonpolar>
-37.1757

> <Gold.PLP.part.repulsive>
0.3543

> <Gold.PLP.ligand.clash>
0.0000

> <Gold.PLP.ligand.torsion>
0.7331

> <Gold.PLP.Chemscore.Hbond>
1.0000

> <Gold.PLP.Chemscore.CHOScore>
1.0000

> <Gold.PLP.Chemscore.Metal>
0.0000

> <Gold.Chemscore.Hbonds>
donor molecule, donor type, donor heavy atom, donor atom, acceptor molecule, acceptor atom, score
      L1  H    10    31       P1  7948  1.00
      L1  C     6    27       P1  7957  1.00

> <Gold.PLP.Chemscore.Internal.Correction>
0.0867

> <Gold.Rescore>
     Score         DG    S(hbond)    S(metal)    S(lipo)     H(rot)  DE(clash)    DE(int)     intcor
     12.44     -14.30       1.00        0.00     101.82       2.51       0.13       1.73       ----

> <Gold.Chemscore.Fitness>
12.4430

> <Gold.Chemscore.DG>
-14.2966

> <Gold.Chemscore.ZeroCoef>
-5.4800

> <Gold.Chemscore.Hbond>
0.9978

> <Gold.Chemscore.Metal>
0.0000

> <Gold.Chemscore.Lipo>
101.8204

> <Gold.Chemscore.Internal_Hbond>
0.0000

> <Gold.Chemscore.DEClash>
0.1265

> <Gold.Chemscore.DEInternal>
1.7271

> <Gold.Chemscore.Rot>
2.5113

> <Gold.Chemscore.Internal.Correction>
   9.000000E+99

> <Gold.Chemscore.Hbonds>
donor molecule, donor type, donor heavy atom, donor atom, acceptor molecule, acceptor atom, score
      L1  H    10    31       P1  7948  0.96

> <Gold.Chemscore.Hbond.Weighted>
-3.3325

> <Gold.Chemscore.Metal.Weighted>
-0.0000

> <Gold.Chemscore.Lipo.Weighted>
-11.9130

> <Gold.Chemscore.Internal_Hbond.Weighted>
0.0000

> <Gold.Chemscore.DEClash.Weighted>
0.1265

> <Gold.Chemscore.DEInternal.Weighted>
1.7271

> <Gold.Chemscore.Rot.Weighted>
6.4289

> <Gold.Chemscore.Internal.Correction.Weighted>
   9.000000E+99

> <Gold.Protein.RotatedTorsions>
[ 6907 6896 6895 6894 ] final -161.20 input  -60.11 | X-H torsion
[ 7974 7965 7964 7962 ] final   68.42 input  175.53 | X-H torsion
[ 8008 7997 7996 7995 ] final  -82.42 input   59.86 | X-H torsion
[ 10167 10162 10161 10158 ] final   69.61 input  -65.29 | X-H torsion
[ 10718 10713 10712 10709 ] final   98.99 input   66.30 | X-H torsion
[ 10763 10752 10751 10750 ] final -161.75 input  -60.55 | X-H torsion
[ 11005 11000 10999 10996 ] final  131.94 input  -57.11 | X-H torsion

> <Gold.Protein.ActiveResidues>
 VAL166  LYS551  ARG553  GLY616  TRP617  ASP618  TYR619  PRO620  LYS621  CYS622 
 ASP623  PHE694  ASN695  SER759  ASP760  ASP761  ALA762  ILE779  LEU786  VAL792 
 PHE793  MET794  SER795  GLU796  ALA797  LYS798  CYS799  TRP800  GLU811  SER814 

> <Gold.Protein.RotatedAtoms>
  151.3609  133.3890  159.2689 H   0  0  0  0  0  0  0  0  0  0  0  0  # atno 6907 bound_to 6896
  150.9726  134.9097  159.7807 H   0  0  0  0  0  0  0  0  0  0  0  0  # atno 6908 bound_to 6896
  152.5190  134.3571  159.9324 H   0  0  0  0  0  0  0  0  0  0  0  0  # atno 6909 bound_to 6896
  145.8028  139.2991  143.1144 H   0  0  0  0  0  0  0  0  0  0  0  0  # atno 7974 bound_to 7965
  154.6085  140.0633  156.9462 H   0  0  0  0  0  0  0  0  0  0  0  0  # atno 8008 bound_to 7997
  155.2013  140.3315  155.4324 H   0  0  0  0  0  0  0  0  0  0  0  0  # atno 8009 bound_to 7997
  156.2362  140.1864  156.7096 H   0  0  0  0  0  0  0  0  0  0  0  0  # atno 8010 bound_to 7997
  140.0659  144.5193  150.7261 H   0  0  0  0  0  0  0  0  0  0  0  0  # atno 10167 bound_to 10162
  157.6885  131.0656  150.4880 H   0  0  0  0  0  0  0  0  0  0  0  0  # atno 10718 bound_to 10713
  154.7275  135.3039  154.8946 H   0  0  0  0  0  0  0  0  0  0  0  0  # atno 10763 bound_to 10752
  153.9799  135.6731  153.4754 H   0  0  0  0  0  0  0  0  0  0  0  0  # atno 10764 bound_to 10752
  153.0888  135.4970  154.8570 H   0  0  0  0  0  0  0  0  0  0  0  0  # atno 10765 bound_to 10752
  139.9760  134.9563  156.9511 H   0  0  0  0  0  0  0  0  0  0  0  0  # atno 11005 bound_to 11000
  145.9859  140.8643  143.0091 LP  0  0  0  0  0  0  0  0  0  0  0  0  # atno 17320 bound_to 7965
  144.6766  140.2147  143.7373 LP  0  0  0  0  0  0  0  0  0  0  0  0  # atno 17321 bound_to 7965
  140.7149  143.2536  151.4465 LP  0  0  0  0  0  0  0  0  0  0  0  0  # atno 17342 bound_to 10162
  139.5865  144.1593  152.2035 LP  0  0  0  0  0  0  0  0  0  0  0  0  # atno 17343 bound_to 10162
  156.5208  130.4161  149.6251 LP  0  0  0  0  0  0  0  0  0  0  0  0  # atno 17370 bound_to 10713
  156.3156  130.7252  151.2154 LP  0  0  0  0  0  0  0  0  0  0  0  0  # atno 17371 bound_to 10713
  140.5194  134.0923  155.7288 LP  0  0  0  0  0  0  0  0  0  0  0  0  # atno 17394 bound_to 11000
  141.1437  133.9093  157.2266 LP  0  0  0  0  0  0  0  0  0  0  0  0  # atno 17395 bound_to 11000

$$$$
