#       Name:                AV-unprocessed.smi:2373
#       Creating user name   scv26
#       Creation time:       Fri Mar 27 13:07:03 2020


#       File generated by GOLD software.
#

@<TRIPOS>MOLECULE
AV-unprocessed.smi:2373
    53    54     1
SMALL
NO_CHARGES


@<TRIPOS>ATOM
      1 ****        -6.6401   0.2482  -0.9234 C.3            1 S1                 0.0000
      2 ****        -5.9114  -1.0023  -0.7345 N.pl3          1 S1                 0.0000
      3 ****        -6.6428  -2.2552  -0.5934 C.3            1 S1                 0.0000
      4 ****        -4.5002  -0.9883  -0.6501 C.ar           1 S1                 0.0000
      5 ****        -3.7561  -2.1841  -0.4948 C.ar           1 S1                 0.0000
      6 ****        -2.3524  -2.1146  -0.4122 C.ar           1 S1                 0.0000
      7 ****        -1.7179  -0.8595  -0.4764 C.ar           1 S1                 0.0000
      8 ****        -0.2990  -0.8213  -0.4075 N.am           1 S1                 0.0000
      9 ****         0.4947   0.2151  -0.0876 C.2            1 S1                 0.0000
     10 ****         0.1008   1.3311   0.2481 O.2            1 S1                 0.0000
     11 ****         1.7907  -0.1330  -0.1594 N.am           1 S1                 0.0000
     12 ****         2.9741   0.6976   0.1117 C.3            1 S1                 0.0000
     13 ****         2.9910   1.1773   1.5951 C.3            1 S1                 0.0000
     14 ****         2.8251   0.0767   2.6613 C.3            1 S1                 0.0000
     15 ****         2.8451   0.6577   3.9473 O.3            1 S1                 0.0000
     16 ****         4.2064  -0.1784  -0.2273 C.3            1 S1                 0.0000
     17 ****         5.5133   0.6280  -0.3221 C.3            1 S1                 0.0000
     18 ****         5.3720   1.6662  -1.2817 O.3            1 S1                 0.0000
     19 ****         4.3638   2.6023  -0.9272 C.3            1 S1                 0.0000
     20 ****         2.9923   1.9069  -0.8614 C.3            1 S1                 0.0000
     21 ****        -2.5390   0.2795  -0.6471 C.ar           1 S1                 0.0000
     22 ****        -3.8845   0.2166  -0.7284 N.ar           1 S1                 0.0000
     23 ****        -6.3098   0.7510  -1.8329 H              1 S1                 0.0000
     24 ****        -6.4766   0.9180  -0.0785 H              1 S1                 0.0000
     25 ****        -7.7128   0.0751  -1.0114 H              1 S1                 0.0000
     26 ****        -6.4151  -2.7270   0.3631 H              1 S1                 0.0000
     27 ****        -6.3791  -2.9445  -1.3959 H              1 S1                 0.0000
     28 ****        -7.7201  -2.0934  -0.6341 H              1 S1                 0.0000
     29 ****        -4.2319  -3.1514  -0.4394 H              1 S1                 0.0000
     30 ****        -1.7727  -3.0189  -0.2962 H              1 S1                 0.0000
     31 ****         0.1657  -1.7011  -0.5775 H              1 S1                 0.0000
     32 ****         1.9865  -1.0825  -0.4406 H              1 S1                 0.0000
     33 ****         3.9148   1.7177   1.7988 H              1 S1                 0.0000
     34 ****         2.1999   1.9132   1.7421 H              1 S1                 0.0000
     35 ****         1.8822  -0.4558   2.5392 H              1 S1                 0.0000
     36 ****         3.6276  -0.6577   2.6046 H              1 S1                 0.0000
     37 ****         2.7193  -0.0252   4.5883 H              1 S1                 0.0000
     38 ****         4.3226  -0.9931   0.4867 H              1 S1                 0.0000
     39 ****         4.0489  -0.6596  -1.1941 H              1 S1                 0.0000
     40 ****         5.8009   1.0411   0.6452 H              1 S1                 0.0000
     41 ****         6.3279  -0.0248  -0.6361 H              1 S1                 0.0000
     42 ****         4.6115   3.0825   0.0201 H              1 S1                 0.0000
     43 ****         4.3426   3.3911  -1.6792 H              1 S1                 0.0000
     44 ****         2.7381   1.5684  -1.8671 H              1 S1                 0.0000
     45 ****         2.2321   2.6394  -0.5892 H              1 S1                 0.0000
     46 ****        -2.1294   1.2725  -0.7444 H              1 S1                 0.0000
     47 ****        -0.8797   1.5209   0.2988 LP             1 S1                 0.0000
     48 ****         0.7611   2.0484   0.4703 LP             1 S1                 0.0000
     49 ****         2.1102   1.3315   4.0241 LP             1 S1                 0.0000
     50 ****         3.7257   1.1059   4.1009 LP             1 S1                 0.0000
     51 ****         5.1347   1.2578  -2.1631 LP             1 S1                 0.0000
     52 ****         6.2439   2.1492  -1.3621 LP             1 S1                 0.0000
     53 ****        -4.4224   1.0514  -0.8454 LP             1 S1                 0.0000
@<TRIPOS>BOND
    1    1    2 1     
    2    1   23 1     
    3    1   24 1     
    4    1   25 1     
    5    2    3 1     
    6    2    4 1     
    7    3   26 1     
    8    3   27 1     
    9    3   28 1     
   10    4   22 ar    
   11    4    5 ar    
   12    5    6 ar    
   13    5   29 1     
   14    6    7 ar    
   15    6   30 1     
   16    7    8 1     
   17    7   21 ar    
   18    8    9 am    
   19    8   31 1     
   20    9   10 2     
   21    9   11 am    
   22   11   12 1     
   23   11   32 1     
   24   12   20 1     
   25   12   13 1     
   26   12   16 1     
   27   13   14 1     
   28   13   33 1     
   29   13   34 1     
   30   14   15 1     
   31   14   35 1     
   32   14   36 1     
   33   15   37 1     
   34   16   17 1     
   35   16   38 1     
   36   16   39 1     
   37   17   18 1     
   38   17   40 1     
   39   17   41 1     
   40   18   19 1     
   41   19   20 1     
   42   19   42 1     
   43   19   43 1     
   44   20   44 1     
   45   20   45 1     
   46   21   22 ar    
   47   21   46 1     
   48   10   47 1     
   49   10   48 1     
   50   15   49 1     
   51   15   50 1     
   52   18   51 1     
   53   18   52 1     
   54   22   53 1     
@<TRIPOS>SUBSTRUCTURE
      1 S1             1
@<TRIPOS>SET
LONE_PAIRS      STATIC     ATOMS    <user>   **** ""
7 47 48 49 50 51 52 53
DONOR_HYDROGENS      STATIC     ATOMS    <user>   **** ""
3 31 32 37
ATOM$BLUE        STATIC     ATOMS    COLORGROUP SYSTEM
7 47 48 49 50 51 52 53
ATOM$RED        STATIC     ATOMS    COLORGROUP SYSTEM
3 31 32 37
