#       Name:                AV-unprocessed.smi:1898
#       Creating user name   scv26
#       Creation time:       Fri Mar 27 09:43:57 2020


#       File generated by GOLD software.
#

@<TRIPOS>MOLECULE
AV-unprocessed.smi:1898
    54    55     1
SMALL
NO_CHARGES


@<TRIPOS>ATOM
      1 ****        -6.7666  -2.8390  -2.7636 C.3            1 S1                 0.0000
      2 ****        -6.2012  -2.1344  -1.6228 N.am           1 S1                 0.0000
      3 ****        -4.9058  -2.1720  -1.2810 C.2            1 S1                 0.0000
      4 ****        -4.0629  -2.8199  -1.9027 O.2            1 S1                 0.0000
      5 ****        -4.5098  -1.3681  -0.0379 C.3            1 S1                 0.0000
      6 ****        -3.0481  -1.1186   0.0501 N.4            1 S1                 1.0000
      7 ****        -2.5883  -0.9079   1.4463 C.3            1 S1                 0.0000
      8 ****        -1.0549  -0.8155   1.5142 C.3            1 S1                 0.0000
      9 ****        -0.5243   0.2997   0.5992 C.3            1 S1                 0.0000
     10 ****         0.9354   0.3019   0.6135 N.am           1 S1                 0.0000
     11 ****         1.7080   1.3759   0.3972 C.2            1 S1                 0.0000
     12 ****         1.2569   2.4972   0.1672 O.2            1 S1                 0.0000
     13 ****         3.0109   1.0556   0.4756 N.am           1 S1                 0.0000
     14 ****         4.1564   1.8895   0.3374 C.ar           1 S1                 0.0000
     15 ****         4.1317   3.1913  -0.2213 C.ar           1 S1                 0.0000
     16 ****         5.3332   3.9178  -0.3147 C.ar           1 S1                 0.0000
     17 ****         6.5182   3.3165   0.1461 C.ar           1 S1                 0.0000
     18 ****         6.5603   2.0743   0.6693 N.ar           1 S1                 0.0000
     19 ****         5.4032   1.3719   0.7610 C.ar           1 S1                 0.0000
     20 ****         5.4496   0.0970   1.2928 O.3            1 S1                 0.0000
     21 ****         6.7070  -0.4177   1.7173 C.3            1 S1                 0.0000
     22 ****        -1.0530   0.0913  -0.8314 C.3            1 S1                 0.0000
     23 ****        -2.5858  -0.0254  -0.8464 C.3            1 S1                 0.0000
     24 ****        -7.8390  -2.6526  -2.8214 H              1 S1                 0.0000
     25 ****        -6.6122  -3.9150  -2.6724 H              1 S1                 0.0000
     26 ****        -6.3109  -2.4992  -3.6946 H              1 S1                 0.0000
     27 ****        -6.8355  -1.5863  -1.0593 H              1 S1                 0.0000
     28 ****        -5.0551  -0.4234  -0.0027 H              1 S1                 0.0000
     29 ****        -4.8359  -1.9505   0.8249 H              1 S1                 0.0000
     30 ****        -3.0404   0.0007   1.8473 H              1 S1                 0.0000
     31 ****        -2.9229  -1.7339   2.0751 H              1 S1                 0.0000
     32 ****        -0.7421  -0.6358   2.5435 H              1 S1                 0.0000
     33 ****        -0.6228  -1.7741   1.2223 H              1 S1                 0.0000
     34 ****        -0.8925   1.2548   0.9792 H              1 S1                 0.0000
     35 ****         1.3917  -0.5794   0.7998 H              1 S1                 0.0000
     36 ****         3.2137   0.0969   0.7193 H              1 S1                 0.0000
     37 ****         3.2271   3.6469  -0.5904 H              1 S1                 0.0000
     38 ****         5.3456   4.9129  -0.7341 H              1 S1                 0.0000
     39 ****         7.4582   3.8450   0.0888 H              1 S1                 0.0000
     40 ****         6.5704  -1.4276   2.1033 H              1 S1                 0.0000
     41 ****         7.1363   0.1871   2.5173 H              1 S1                 0.0000
     42 ****         7.4159  -0.4733   0.8899 H              1 S1                 0.0000
     43 ****        -0.7424   0.9179  -1.4717 H              1 S1                 0.0000
     44 ****        -0.6176  -0.8126  -1.2607 H              1 S1                 0.0000
     45 ****        -2.9201  -0.2091  -1.8678 H              1 S1                 0.0000
     46 ****        -3.0355   0.9184  -0.5337 H              1 S1                 0.0000
     47 ****        -2.6033  -1.9679  -0.2689 H              1 S1                 0.0000
     48 ****        -4.3332  -3.3520  -2.7050 LP             1 S1                 0.0000
     49 ****        -3.1082  -2.8139  -1.6051 LP             1 S1                 0.0000
     50 ****         0.2678   2.6412   0.1346 LP             1 S1                 0.0000
     51 ****         1.8793   3.2645   0.0129 LP             1 S1                 0.0000
     52 ****         7.4243   1.6800   0.9824 LP             1 S1                 0.0000
     53 ****         5.0958  -0.5265   0.5956 LP             1 S1                 0.0000
     54 ****         4.8431   0.0867   2.0878 LP             1 S1                 0.0000
@<TRIPOS>BOND
    1    1    2 1     
    2    1   24 1     
    3    1   25 1     
    4    1   26 1     
    5    2    3 am    
    6    2   27 1     
    7    3    4 2     
    8    3    5 1     
    9    5    6 1     
   10    5   28 1     
   11    5   29 1     
   12    6   23 1     
   13    6    7 1     
   14    6   47 1     
   15    7    8 1     
   16    7   30 1     
   17    7   31 1     
   18    8    9 1     
   19    8   32 1     
   20    8   33 1     
   21    9   10 1     
   22    9   22 1     
   23    9   34 1     
   24   10   11 am    
   25   10   35 1     
   26   11   12 2     
   27   11   13 am    
   28   13   14 1     
   29   13   36 1     
   30   14   19 ar    
   31   14   15 ar    
   32   15   16 ar    
   33   15   37 1     
   34   16   17 ar    
   35   16   38 1     
   36   17   18 ar    
   37   17   39 1     
   38   18   19 ar    
   39   19   20 1     
   40   20   21 1     
   41   21   40 1     
   42   21   41 1     
   43   21   42 1     
   44   22   23 1     
   45   22   43 1     
   46   22   44 1     
   47   23   45 1     
   48   23   46 1     
   49    4   48 1     
   50    4   49 1     
   51   12   50 1     
   52   12   51 1     
   53   18   52 1     
   54   20   53 1     
   55   20   54 1     
@<TRIPOS>SUBSTRUCTURE
      1 S1             1
@<TRIPOS>SET
LONE_PAIRS      STATIC     ATOMS    <user>   **** ""
7 48 49 50 51 52 53 54
DONOR_HYDROGENS      STATIC     ATOMS    <user>   **** ""
4 27 47 35 36
ATOM$BLUE        STATIC     ATOMS    COLORGROUP SYSTEM
7 48 49 50 51 52 53 54
ATOM$RED        STATIC     ATOMS    COLORGROUP SYSTEM
4 27 47 35 36
