AV-unprocessed.smi:3208|AV-procd|sdf|12264|dock1
  -GOLD-   2272018 93D 1   1.00000     0.00000
 Structure written by MMmdl.
 29 29  0  0  0  0  0  0  0  0  2 V2000
  154.3668  136.9328  164.2922 C   0  0  0  0  0  0  0  0  0  0  0  0
  154.5845  136.8237  162.9719 C   0  0  0  0  0  0  0  0  0  0  0  0
  154.2876  137.8924  161.9382 C   0  0  0  0  0  0  0  0  0  0  0  0
  155.4761  138.3782  161.3217 O   0  0  0  0  0  0  0  0  0  0  0  0
  155.5424  139.7939  161.1676 C   0  0  2  0  0  0  0  0  0  0  0  0
  155.4576  140.4213  162.5658 C   0  0  0  0  0  0  0  0  0  0  0  0
  154.3931  140.2938  160.2765 C   0  0  0  0  0  0  0  0  0  0  0  0
  154.3488  139.9147  159.1026 O   0  0  0  0  0  0  0  0  0  0  0  0
  153.5315  141.1423  160.9667 N   0  0  0  0  0  0  0  0  0  0  0  0
  153.0211  142.2276  160.4511 C   0  0  0  0  0  0  0  0  0  0  0  0
  153.2911  142.6619  159.1415 N   0  0  0  0  0  0  0  0  0  0  0  0
  152.7491  143.8092  158.6025 C   0  0  0  0  0  0  0  0  0  0  0  0
  151.9241  144.5877  159.3047 C   0  0  0  0  0  0  0  0  0  0  0  0
  151.5950  144.2115  160.6642 C   0  0  0  0  0  0  0  0  0  0  0  0
  152.1139  143.0580  161.2640 C   0  0  0  0  0  0  0  0  0  0  0  0
  151.8013  142.7715  162.4431 O   0  5  0  0  0  0  0  0  0  0  0  0
  153.9467  137.8278  164.7270 H   0  0  0  0  0  0  0  0  0  0  0  0
  154.6087  136.1193  164.9601 H   0  0  0  0  0  0  0  0  0  0  0  0
  155.0065  135.9064  162.5885 H   0  0  0  0  0  0  0  0  0  0  0  0
  153.6263  137.4642  161.1837 H   0  0  0  0  0  0  0  0  0  0  0  0
  153.7436  138.6978  162.4322 H   0  0  0  0  0  0  0  0  0  0  0  0
  156.5071  140.0596  160.7299 H   0  0  0  0  0  0  0  0  0  0  0  0
  155.5184  141.5091  162.5159 H   0  0  0  0  0  0  0  0  0  0  0  0
  156.2776  140.0746  163.1948 H   0  0  0  0  0  0  0  0  0  0  0  0
  154.5242  140.1593  163.0656 H   0  0  0  0  0  0  0  0  0  0  0  0
  153.0458  144.0162  157.5850 H   0  0  0  0  0  0  0  0  0  0  0  0
  151.5083  145.4836  158.8677 H   0  0  0  0  0  0  0  0  0  0  0  0
  150.9257  144.8496  161.2233 H   0  0  0  0  0  0  0  0  0  0  0  0
  153.9045  142.1328  158.5396 H   0  0  0  0  0  0  0  0  0  0  0  0
  1  2  2  0  0  0  0
  1 17  1  0  0  0  0
  1 18  1  0  0  0  0
  2  3  1  0  0  0  0
  2 19  1  0  0  0  0
  3  4  1  0  0  0  0
  3 20  1  0  0  0  0
  3 21  1  0  0  0  0
  4  5  1  0  0  0  0
  5  6  1  0  0  0  0
  5  7  1  0  0  0  0
  5 22  1  0  0  0  0
  6 23  1  0  0  0  0
  6 24  1  0  0  0  0
  6 25  1  0  0  0  0
  7  8  2  0  0  0  0
  7  9  1  0  0  0  0
  9 10  2  0  0  0  0
 10 15  1  0  0  0  0
 10 11  1  0  0  0  0
 11 29  1  0  0  0  0
 11 12  1  0  0  0  0
 12 26  1  0  0  0  0
 12 13  2  0  0  0  0
 13 27  1  0  0  0  0
 13 14  1  0  0  0  0
 14 15  2  0  0  0  0
 14 28  1  0  0  0  0
 15 16  1  0  0  0  0
M  CHG  1  16  -1
M  END
> <s_m_source_file>
AV-unprocessed.smi

> <i_m_source_file_index>
3208

> <i_lp_mmshare_version>
43012

> <i_f3d_flags>
0

> <s_epik_input>
W0NIMl09W0NIXVtDSDJdT1tDQEhdKFtDSDNdKUMoPU8pW05IXWMxbltjSF1bY0hdW2NIXWMxW09IXQ==

> <s_epik_cmdline>
J2VwaWtfcHl0aG9uJywgJy1waCcsICc3LjAnLCAnLXRuJywgJzgnLCAnLW1hJywgJzIwMCcsICctbWV0YWxfYmluZGluZycsICctaW1hZScsICc8aW5maWxlLm1hZT4nLCAnLW9tYWUnLCAnPG91dGZpbGUubWFlPic=

> <r_epik_Ionization_Penalty>
0.613767

> <r_epik_Ionization_Penalty_Charging>
0.613767

> <r_epik_Ionization_Penalty_Neutral>
1.14324e-13

> <r_epik_State_Penalty>
1.22258

> <r_epik_Charging_Adjusted_Penalty>
1.83635

> <i_epik_Tot_Q>
-1

> <i_epik_Tot_abs_Q>
1

> <r_epik_Metal_State_Penalty>
1.18528

> <b_epik_Metal_Only>
0

> <s_lp_Force_Field>
OPLS_2005

> <r_lp_Energy>
36.008

> <b_lp_Chiralities_Consistent>
1

> <s_lp_Variant>
AV-unprocessed.smi:3208-5

> <Gold.Version>
5.8.1

> <Gold.Id.Protein>
6NUR|6NUR_protein|mol2

> <Gold.PLP.Fitness>
43.9690

> <Gold.PLP.PLP>
-36.2138

> <Gold.PLP.part.hbond>
-2.0000

> <Gold.PLP.part.metal>
0.0000

> <Gold.PLP.part.buried>
-4.0730

> <Gold.PLP.part.nonpolar>
-33.8663

> <Gold.PLP.part.repulsive>
3.2353

> <Gold.PLP.ligand.clash>
0.0000

> <Gold.PLP.ligand.torsion>
0.6634

> <Gold.PLP.Chemscore.Hbond>
3.0000

> <Gold.PLP.Chemscore.CHOScore>
0.0000

> <Gold.PLP.Chemscore.Metal>
0.0000

> <Gold.Chemscore.Hbonds>
donor molecule, donor type, donor heavy atom, donor atom, acceptor molecule, acceptor atom, score
      P1  H  6933  6945       L1    16  2.00
      P1  H  7997  8010       L1     8  1.00

> <Gold.PLP.Chemscore.Internal.Correction>
0.0821

> <Gold.Rescore>
     Score         DG    S(hbond)    S(metal)    S(lipo)     H(rot)  DE(clash)    DE(int)     intcor
     15.83     -17.65       1.82        0.00      88.33       1.65       1.23       0.60       ----

> <Gold.Chemscore.Fitness>
15.8250

> <Gold.Chemscore.DG>
-17.6505

> <Gold.Chemscore.ZeroCoef>
-5.4800

> <Gold.Chemscore.Hbond>
1.8168

> <Gold.Chemscore.Metal>
0.0000

> <Gold.Chemscore.Lipo>
88.3319

> <Gold.Chemscore.Internal_Hbond>
0.0000

> <Gold.Chemscore.DEClash>
1.2293

> <Gold.Chemscore.DEInternal>
0.5962

> <Gold.Chemscore.Rot>
1.6533

> <Gold.Chemscore.Internal.Correction>
   9.000000E+99

> <Gold.Chemscore.Hbonds>
donor molecule, donor type, donor heavy atom, donor atom, acceptor molecule, acceptor atom, score
      P1  H  6933  6945       L1    16  0.41
      P1  H  7997  8010       L1     8  0.96

> <Gold.Chemscore.Hbond.Weighted>
-6.0680

> <Gold.Chemscore.Metal.Weighted>
-0.0000

> <Gold.Chemscore.Lipo.Weighted>
-10.3348

> <Gold.Chemscore.Internal_Hbond.Weighted>
0.0000

> <Gold.Chemscore.DEClash.Weighted>
1.2293

> <Gold.Chemscore.DEInternal.Weighted>
0.5962

> <Gold.Chemscore.Rot.Weighted>
4.2324

> <Gold.Chemscore.Internal.Correction.Weighted>
   9.000000E+99

> <Gold.Protein.RotatedTorsions>
[ 6907 6896 6895 6894 ] final  -21.82 input  -60.11 | X-H torsion
[ 7974 7965 7964 7962 ] final  166.30 input  175.53 | X-H torsion
[ 8008 7997 7996 7995 ] final   -1.26 input   59.86 | X-H torsion
[ 10167 10162 10161 10158 ] final -100.75 input  -65.29 | X-H torsion
[ 10718 10713 10712 10709 ] final   38.26 input   66.30 | X-H torsion
[ 10763 10752 10751 10750 ] final -166.56 input  -60.55 | X-H torsion
[ 11005 11000 10999 10996 ] final   75.89 input  -57.11 | X-H torsion

> <Gold.Protein.ActiveResidues>
 VAL166  LYS551  ARG553  GLY616  TRP617  ASP618  TYR619  PRO620  LYS621  CYS622 
 ASP623  PHE694  ASN695  SER759  ASP760  ASP761  ALA762  ILE779  LEU786  VAL792 
 PHE793  MET794  SER795  GLU796  ALA797  LYS798  CYS799  TRP800  GLU811  SER814 

> <Gold.Protein.RotatedAtoms>
  151.2276  135.0542  159.8974 H   0  0  0  0  0  0  0  0  0  0  0  0  # atno 6907 bound_to 6896
  152.5408  134.0572  159.8146 H   0  0  0  0  0  0  0  0  0  0  0  0  # atno 6908 bound_to 6896
  151.0747  133.5389  159.2656 H   0  0  0  0  0  0  0  0  0  0  0  0  # atno 6909 bound_to 6896
  144.7468  139.8596  143.6379 H   0  0  0  0  0  0  0  0  0  0  0  0  # atno 7974 bound_to 7965
  154.6487  140.2564  155.7238 H   0  0  0  0  0  0  0  0  0  0  0  0  # atno 8008 bound_to 7997
  156.2565  140.2872  156.0833 H   0  0  0  0  0  0  0  0  0  0  0  0  # atno 8009 bound_to 7997
  155.1484  140.0381  157.2805 H   0  0  0  0  0  0  0  0  0  0  0  0  # atno 8010 bound_to 7997
  140.2486  143.3488  152.0735 H   0  0  0  0  0  0  0  0  0  0  0  0  # atno 10167 bound_to 10162
  157.3567  130.7627  149.7017 H   0  0  0  0  0  0  0  0  0  0  0  0  # atno 10718 bound_to 10713
  154.6820  135.2956  154.9599 H   0  0  0  0  0  0  0  0  0  0  0  0  # atno 10763 bound_to 10752
  154.0591  135.6634  153.4813 H   0  0  0  0  0  0  0  0  0  0  0  0  # atno 10764 bound_to 10752
  153.0554  135.5148  154.7869 H   0  0  0  0  0  0  0  0  0  0  0  0  # atno 10765 bound_to 10752
  139.9323  134.7556  156.1328 H   0  0  0  0  0  0  0  0  0  0  0  0  # atno 11005 bound_to 11000
  146.1358  139.4403  143.0140 LP  0  0  0  0  0  0  0  0  0  0  0  0  # atno 17320 bound_to 7965
  145.7094  141.0111  143.1461 LP  0  0  0  0  0  0  0  0  0  0  0  0  # atno 17321 bound_to 7965
  139.5053  144.6793  151.6049 LP  0  0  0  0  0  0  0  0  0  0  0  0  # atno 17342 bound_to 10162
  140.6058  143.9527  150.6417 LP  0  0  0  0  0  0  0  0  0  0  0  0  # atno 17343 bound_to 10162
  155.9730  130.4125  150.4036 LP  0  0  0  0  0  0  0  0  0  0  0  0  # atno 17370 bound_to 10713
  157.2107  131.0460  151.2600 LP  0  0  0  0  0  0  0  0  0  0  0  0  # atno 17371 bound_to 10713
  141.0918  133.6711  156.2557 LP  0  0  0  0  0  0  0  0  0  0  0  0  # atno 17394 bound_to 11000
  140.6170  134.5401  157.5542 LP  0  0  0  0  0  0  0  0  0  0  0  0  # atno 17395 bound_to 11000

$$$$
