AV-unprocessed.smi:2855|AV-procd|sdf|10986|dock2
  -GOLD-   2272015443D 1   1.00000     0.00000
 Structure written by MMmdl.
 46 47  0  0  0  0  0  0  0  0  2 V2000
  152.1881  145.4140  158.8351 C   0  0  0  0  0  0  0  0  0  0  0  0
  151.5830  144.0422  159.1657 C   0  0  1  0  0  0  0  0  0  0  0  0
  150.4477  143.6752  158.1890 C   0  0  0  0  0  0  0  0  0  0  0  0
  149.8832  142.2707  158.4739 C   0  0  0  0  0  0  0  0  0  0  0  0
  150.9784  141.1768  158.3997 C   0  0  1  0  0  0  0  0  0  0  0  0
  151.5156  140.9345  156.9444 C   0  0  0  0  0  0  0  0  0  0  0  0
  150.4082  141.0427  155.8759 C   0  0  0  0  0  0  0  0  0  0  0  0
  152.2160  139.5743  156.7578 C   0  0  0  0  0  0  0  0  0  0  0  0
  152.0378  141.5592  159.4795 C   0  0  1  0  0  0  0  0  0  0  0  0
  153.0753  140.5560  159.6992 N   0  0  0  0  0  0  0  0  0  0  0  0
  154.0371  140.6164  160.6331 C   0  0  0  0  0  0  0  0  0  0  0  0
  154.1593  141.5583  161.4174 O   0  0  0  0  0  0  0  0  0  0  0  0
  155.0239  139.4415  160.6599 C   0  0  0  0  0  0  0  0  0  0  0  0
  154.5657  138.2907  159.8652 N   0  0  0  0  0  0  0  0  0  0  0  0
  154.7120  138.3606  158.4684 C   0  0  0  0  0  0  0  0  0  0  0  0
  154.3262  137.3534  157.6620 C   0  0  0  0  0  0  0  0  0  0  0  0
  153.7438  136.1649  158.2727 C   0  0  0  0  0  0  0  0  0  0  0  0
  153.3843  135.2361  157.5520 O   0  0  0  0  0  0  0  0  0  0  0  0
  153.6250  136.1438  159.6326 N   0  5  0  0  0  0  0  0  0  0  0  0
  154.0211  137.1762  160.4401 C   0  0  0  0  0  0  0  0  0  0  0  0
  153.9006  137.1371  161.6649 O   0  0  0  0  0  0  0  0  0  0  0  0
  152.6622  142.9408  159.2020 C   0  0  0  0  0  0  0  0  0  0  0  0
  152.6443  145.4181  157.8448 H   0  0  0  0  0  0  0  0  0  0  0  0
  152.9576  145.6880  159.5574 H   0  0  0  0  0  0  0  0  0  0  0  0
  151.4262  146.1938  158.8537 H   0  0  0  0  0  0  0  0  0  0  0  0
  151.1477  144.1102  160.1638 H   0  0  0  0  0  0  0  0  0  0  0  0
  149.6451  144.4096  158.2658 H   0  0  0  0  0  0  0  0  0  0  0  0
  150.8075  143.7284  157.1612 H   0  0  0  0  0  0  0  0  0  0  0  0
  149.4443  142.2683  159.4728 H   0  0  0  0  0  0  0  0  0  0  0  0
  149.0479  142.0529  157.8106 H   0  0  0  0  0  0  0  0  0  0  0  0
  150.5046  140.2466  158.7165 H   0  0  0  0  0  0  0  0  0  0  0  0
  152.2478  141.7039  156.7040 H   0  0  0  0  0  0  0  0  0  0  0  0
  149.5755  140.3745  156.0978 H   0  0  0  0  0  0  0  0  0  0  0  0
  150.7848  140.7816  154.8865 H   0  0  0  0  0  0  0  0  0  0  0  0
  150.0194  142.0567  155.7906 H   0  0  0  0  0  0  0  0  0  0  0  0
  151.5967  138.7562  157.1269 H   0  0  0  0  0  0  0  0  0  0  0  0
  153.1789  139.5307  157.2623 H   0  0  0  0  0  0  0  0  0  0  0  0
  152.4262  139.3758  155.7066 H   0  0  0  0  0  0  0  0  0  0  0  0
  151.5139  141.6505  160.4335 H   0  0  0  0  0  0  0  0  0  0  0  0
  153.0544  139.7432  159.1007 H   0  0  0  0  0  0  0  0  0  0  0  0
  156.0050  139.7726  160.3138 H   0  0  0  0  0  0  0  0  0  0  0  0
  155.1729  139.1484  161.6998 H   0  0  0  0  0  0  0  0  0  0  0  0
  155.1580  139.2719  158.0982 H   0  0  0  0  0  0  0  0  0  0  0  0
  154.4478  137.4219  156.5910 H   0  0  0  0  0  0  0  0  0  0  0  0
  153.2204  142.9248  158.2658 H   0  0  0  0  0  0  0  0  0  0  0  0
  153.3878  143.1775  159.9814 H   0  0  0  0  0  0  0  0  0  0  0  0
  1  2  1  0  0  0  0
  1 23  1  0  0  0  0
  1 24  1  0  0  0  0
  1 25  1  0  0  0  0
  2 22  1  0  0  0  0
  2  3  1  0  0  0  0
  2 26  1  0  0  0  0
  3  4  1  0  0  0  0
  3 27  1  0  0  0  0
  3 28  1  0  0  0  0
  4  5  1  0  0  0  0
  4 29  1  0  0  0  0
  4 30  1  0  0  0  0
  5  6  1  0  0  0  0
  5  9  1  0  0  0  0
  5 31  1  0  0  0  0
  6  7  1  0  0  0  0
  6  8  1  0  0  0  0
  6 32  1  0  0  0  0
  7 33  1  0  0  0  0
  7 34  1  0  0  0  0
  7 35  1  0  0  0  0
  8 36  1  0  0  0  0
  8 37  1  0  0  0  0
  8 38  1  0  0  0  0
  9 10  1  0  0  0  0
  9 22  1  0  0  0  0
  9 39  1  0  0  0  0
 10 11  1  0  0  0  0
 10 40  1  0  0  0  0
 11 12  2  0  0  0  0
 11 13  1  0  0  0  0
 13 14  1  0  0  0  0
 13 41  1  0  0  0  0
 13 42  1  0  0  0  0
 14 20  1  0  0  0  0
 14 15  1  0  0  0  0
 15 16  2  0  0  0  0
 15 43  1  0  0  0  0
 16 17  1  0  0  0  0
 16 44  1  0  0  0  0
 17 18  2  0  0  0  0
 17 19  1  0  0  0  0
 19 20  1  0  0  0  0
 20 21  2  0  0  0  0
 22 45  1  0  0  0  0
 22 46  1  0  0  0  0
M  CHG  1  19  -1
M  END
> <s_m_source_file>
AV-unprocessed.smi

> <i_m_source_file_index>
2855

> <i_lp_mmshare_version>
43012

> <i_f3d_flags>
0

> <s_epik_input>
W0NIM11bQ0BASF0xW0NIMl1bQ0gyXVtDQEBIXShbQ0hdKFtDSDNdKVtDSDNdKVtDQEhdKFtDSDJdMSlbTkhdQyg9TylbQ0gyXW4yW2NIXVtjSF1jKD1PKVtuSF1jMj1P

> <s_epik_cmdline>
J2VwaWtfcHl0aG9uJywgJy1waCcsICc3LjAnLCAnLXRuJywgJzgnLCAnLW1hJywgJzIwMCcsICctbWV0YWxfYmluZGluZycsICctaW1hZScsICc8aW5maWxlLm1hZT4nLCAnLW9tYWUnLCAnPG91dGZpbGUubWFlPic=

> <r_lp_tautomer_probability>
0.999537

> <r_epik_Ionization_Penalty>
3.12102

> <r_epik_Ionization_Penalty_Charging>
2.9581e-08

> <r_epik_Ionization_Penalty_Neutral>
3.12102

> <r_epik_State_Penalty>
3.12011

> <r_epik_Charging_Adjusted_Penalty>
3.12011

> <i_epik_Tot_Q>
-1

> <i_epik_Tot_abs_Q>
1

> <r_epik_Metal_State_Penalty>
0.463583

> <b_epik_Metal_Only>
1

> <s_lp_Force_Field>
OPLS_2005

> <r_lp_Energy>
27.3846

> <b_lp_Chiralities_Consistent>
1

> <s_lp_Variant>
AV-unprocessed.smi:2855-10

> <Gold.Version>
5.8.1

> <Gold.Id.Protein>
6NUR|6NUR_protein|mol2

> <Gold.PLP.Fitness>
42.5719

> <Gold.PLP.PLP>
-35.0331

> <Gold.PLP.part.hbond>
-2.6349

> <Gold.PLP.part.metal>
0.0000

> <Gold.PLP.part.buried>
-2.4155

> <Gold.PLP.part.nonpolar>
-29.4582

> <Gold.PLP.part.repulsive>
0.1076

> <Gold.PLP.ligand.clash>
0.0000

> <Gold.PLP.ligand.torsion>
0.7721

> <Gold.PLP.Chemscore.Hbond>
3.0000

> <Gold.PLP.Chemscore.CHOScore>
0.0000

> <Gold.PLP.Chemscore.Metal>
0.0000

> <Gold.Chemscore.Hbonds>
donor molecule, donor type, donor heavy atom, donor atom, acceptor molecule, acceptor atom, score
      P1  H  6896  6907       L1    19  2.00
      P1  H 10752 10764       L1    18  0.57

> <Gold.PLP.Chemscore.Internal.Correction>
0.0829

> <Gold.Rescore>
     Score         DG    S(hbond)    S(metal)    S(lipo)     H(rot)  DE(clash)    DE(int)     intcor
     17.28     -18.73       1.88        0.00      99.24       1.81       0.62       0.84       ----

> <Gold.Chemscore.Fitness>
17.2766

> <Gold.Chemscore.DG>
-18.7300

> <Gold.Chemscore.ZeroCoef>
-5.4800

> <Gold.Chemscore.Hbond>
1.8780

> <Gold.Chemscore.Metal>
0.0000

> <Gold.Chemscore.Lipo>
99.2384

> <Gold.Chemscore.Internal_Hbond>
0.0000

> <Gold.Chemscore.DEClash>
0.6182

> <Gold.Chemscore.DEInternal>
0.8351

> <Gold.Chemscore.Rot>
1.8100

> <Gold.Chemscore.Internal.Correction>
   9.000000E+99

> <Gold.Chemscore.Hbonds>
donor molecule, donor type, donor heavy atom, donor atom, acceptor molecule, acceptor atom, score
      P1  H  6896  6907       L1    19  0.58
      P1  H 10752 10764       L1    18  0.55

> <Gold.Chemscore.Hbond.Weighted>
-6.2726

> <Gold.Chemscore.Metal.Weighted>
-0.0000

> <Gold.Chemscore.Lipo.Weighted>
-11.6109

> <Gold.Chemscore.Internal_Hbond.Weighted>
0.0000

> <Gold.Chemscore.DEClash.Weighted>
0.6182

> <Gold.Chemscore.DEInternal.Weighted>
0.8351

> <Gold.Chemscore.Rot.Weighted>
4.6335

> <Gold.Chemscore.Internal.Correction.Weighted>
   9.000000E+99

> <Gold.Protein.RotatedTorsions>
[ 6907 6896 6895 6894 ] final   33.10 input  -60.11 | X-H torsion
[ 7974 7965 7964 7962 ] final   28.00 input  175.53 | X-H torsion
[ 8008 7997 7996 7995 ] final  -97.83 input   59.86 | X-H torsion
[ 10167 10162 10161 10158 ] final  -32.86 input  -65.29 | X-H torsion
[ 10718 10713 10712 10709 ] final  115.58 input   66.30 | X-H torsion
[ 10763 10752 10751 10750 ] final    0.07 input  -60.55 | X-H torsion
[ 11005 11000 10999 10996 ] final   48.06 input  -57.11 | X-H torsion

> <Gold.Protein.ActiveResidues>
 VAL166  LYS551  ARG553  GLY616  TRP617  ASP618  TYR619  PRO620  LYS621  CYS622 
 ASP623  PHE694  ASN695  SER759  ASP760  ASP761  ALA762  ILE779  LEU786  VAL792 
 PHE793  MET794  SER795  GLU796  ALA797  LYS798  CYS799  TRP800  GLU811  SER814 

> <Gold.Protein.RotatedAtoms>
  152.0838  134.9453  160.0572 H   0  0  0  0  0  0  0  0  0  0  0  0  # atno 6907 bound_to 6896
  152.0731  133.4111  159.4476 H   0  0  0  0  0  0  0  0  0  0  0  0  # atno 6908 bound_to 6896
  150.6836  134.2988  159.4741 H   0  0  0  0  0  0  0  0  0  0  0  0  # atno 6909 bound_to 6896
  146.1753  139.7115  142.8938 H   0  0  0  0  0  0  0  0  0  0  0  0  # atno 7974 bound_to 7965
  154.7930  140.0460  157.1215 H   0  0  0  0  0  0  0  0  0  0  0  0  # atno 8008 bound_to 7997
  154.9568  140.3072  155.5029 H   0  0  0  0  0  0  0  0  0  0  0  0  # atno 8009 bound_to 7997
  156.2952  140.2278  156.4650 H   0  0  0  0  0  0  0  0  0  0  0  0  # atno 8010 bound_to 7997
  140.7214  143.3663  151.1865 H   0  0  0  0  0  0  0  0  0  0  0  0  # atno 10167 bound_to 10162
  157.6213  131.1014  150.7349 H   0  0  0  0  0  0  0  0  0  0  0  0  # atno 10718 bound_to 10713
  153.3254  135.6972  153.6994 H   0  0  0  0  0  0  0  0  0  0  0  0  # atno 10763 bound_to 10752
  153.5817  135.3496  155.2878 H   0  0  0  0  0  0  0  0  0  0  0  0  # atno 10764 bound_to 10752
  154.8607  135.4296  154.2429 H   0  0  0  0  0  0  0  0  0  0  0  0  # atno 10765 bound_to 10752
  140.1223  134.4813  155.8587 H   0  0  0  0  0  0  0  0  0  0  0  0  # atno 11005 bound_to 11000
  145.4228  141.0408  143.2954 LP  0  0  0  0  0  0  0  0  0  0  0  0  # atno 17320 bound_to 7965
  144.8227  139.5764  143.6979 LP  0  0  0  0  0  0  0  0  0  0  0  0  # atno 17321 bound_to 7965
  139.7225  143.9201  152.2990 LP  0  0  0  0  0  0  0  0  0  0  0  0  # atno 17342 bound_to 10162
  139.8962  144.6937  150.8715 LP  0  0  0  0  0  0  0  0  0  0  0  0  # atno 17343 bound_to 10162
  156.7706  130.4827  149.5419 LP  0  0  0  0  0  0  0  0  0  0  0  0  # atno 17370 bound_to 10713
  156.1361  130.6212  151.0402 LP  0  0  0  0  0  0  0  0  0  0  0  0  # atno 17371 bound_to 10713
  141.2154  133.6765  156.6913 LP  0  0  0  0  0  0  0  0  0  0  0  0  # atno 17394 bound_to 11000
  140.2948  134.8211  157.4048 LP  0  0  0  0  0  0  0  0  0  0  0  0  # atno 17395 bound_to 11000

$$$$
