AV-unprocessed.smi:3023|AV-procd|sdf|11502|dock8
  -GOLD-   2272016433D 1   1.00000     0.00000
 Structure written by MMmdl.
 43 44  0  0  0  0  0  0  0  0  2 V2000
  144.7068  138.3714  154.6596 C   0  0  0  0  0  0  0  0  0  0  0  0
  145.6728  139.4588  154.3835 N   0  3  1  0  0  0  0  0  0  0  0  0
  145.9792  140.2518  155.6054 C   0  0  0  0  0  0  0  0  0  0  0  0
  146.1544  141.7601  155.3223 C   0  0  0  0  0  0  0  0  0  0  0  0
  147.0443  142.1148  154.1143 C   0  0  0  0  0  0  0  0  0  0  0  0
  148.1011  141.1134  153.9047 N   0  0  0  0  0  0  0  0  0  0  0  0
  149.2861  141.0744  154.5653 C   0  0  0  0  0  0  0  0  0  0  0  0
  150.1240  140.1898  154.3865 O   0  0  0  0  0  0  0  0  0  0  0  0
  149.4799  142.0911  155.4248 N   0  0  0  0  0  0  0  0  0  0  0  0
  150.6968  142.3408  156.1946 C   0  0  0  0  0  0  0  0  0  0  0  0
  150.8540  141.3426  157.3566 C   0  0  0  0  0  0  0  0  0  0  0  0
  151.6827  141.8906  158.4885 C   0  0  0  0  0  0  0  0  0  0  0  0
  152.2064  143.2073  158.6324 C   0  0  0  0  0  0  0  0  0  0  0  0
  152.8700  143.3757  159.7643 N   0  0  0  0  0  0  0  0  0  0  0  0
  152.7995  142.1763  160.3770 N   0  0  0  0  0  0  0  0  0  0  0  0
  153.4245  141.9957  161.6696 C   0  0  0  0  0  0  0  0  0  0  0  0
  152.0922  141.2601  159.6296 C   0  0  0  0  0  0  0  0  0  0  0  0
  147.7049  140.0441  152.9793 C   0  0  0  0  0  0  0  0  0  0  0  0
  146.8880  138.9450  153.6885 C   0  0  0  0  0  0  0  0  0  0  0  0
  145.1248  137.6469  155.3598 H   0  0  0  0  0  0  0  0  0  0  0  0
  144.4391  137.8465  153.7421 H   0  0  0  0  0  0  0  0  0  0  0  0
  143.7858  138.7707  155.0858 H   0  0  0  0  0  0  0  0  0  0  0  0
  145.1716  140.1503  156.3320 H   0  0  0  0  0  0  0  0  0  0  0  0
  146.8632  139.8466  156.1002 H   0  0  0  0  0  0  0  0  0  0  0  0
  145.1763  142.2212  155.1799 H   0  0  0  0  0  0  0  0  0  0  0  0
  146.5693  142.2243  156.2177 H   0  0  0  0  0  0  0  0  0  0  0  0
  146.4125  142.1794  153.2277 H   0  0  0  0  0  0  0  0  0  0  0  0
  147.4537  143.1204  154.2213 H   0  0  0  0  0  0  0  0  0  0  0  0
  148.7417  142.7736  155.5162 H   0  0  0  0  0  0  0  0  0  0  0  0
  151.5513  142.2585  155.5227 H   0  0  0  0  0  0  0  0  0  0  0  0
  150.7125  143.3619  156.5791 H   0  0  0  0  0  0  0  0  0  0  0  0
  149.8628  141.0627  157.7149 H   0  0  0  0  0  0  0  0  0  0  0  0
  151.2942  140.4216  156.9729 H   0  0  0  0  0  0  0  0  0  0  0  0
  152.1127  144.0441  157.9561 H   0  0  0  0  0  0  0  0  0  0  0  0
  153.5169  140.9325  161.8936 H   0  0  0  0  0  0  0  0  0  0  0  0
  152.8164  142.4704  162.4403 H   0  0  0  0  0  0  0  0  0  0  0  0
  154.4188  142.4438  161.6702 H   0  0  0  0  0  0  0  0  0  0  0  0
  151.9309  140.2485  159.9720 H   0  0  0  0  0  0  0  0  0  0  0  0
  147.1252  140.4525  152.1508 H   0  0  0  0  0  0  0  0  0  0  0  0
  148.5785  139.5964  152.5022 H   0  0  0  0  0  0  0  0  0  0  0  0
  147.5149  138.4008  154.3970 H   0  0  0  0  0  0  0  0  0  0  0  0
  146.5883  138.2177  152.9329 H   0  0  0  0  0  0  0  0  0  0  0  0
  145.2042  140.0803  153.7398 H   0  0  0  0  0  0  0  0  0  0  0  0
  1  2  1  0  0  0  0
  1 20  1  0  0  0  0
  1 21  1  0  0  0  0
  1 22  1  0  0  0  0
  2 19  1  0  0  0  0
  2  3  1  0  0  0  0
  2 43  1  0  0  0  0
  3  4  1  0  0  0  0
  3 23  1  0  0  0  0
  3 24  1  0  0  0  0
  4  5  1  0  0  0  0
  4 25  1  0  0  0  0
  4 26  1  0  0  0  0
  5  6  1  0  0  0  0
  5 27  1  0  0  0  0
  5 28  1  0  0  0  0
  6  7  1  0  0  0  0
  6 18  1  0  0  0  0
  7  8  2  0  0  0  0
  7  9  1  0  0  0  0
  9 10  1  0  0  0  0
  9 29  1  0  0  0  0
 10 11  1  0  0  0  0
 10 30  1  0  0  0  0
 10 31  1  0  0  0  0
 11 12  1  0  0  0  0
 11 32  1  0  0  0  0
 11 33  1  0  0  0  0
 12 17  2  0  0  0  0
 12 13  1  0  0  0  0
 13 14  2  0  0  0  0
 13 34  1  0  0  0  0
 14 15  1  0  0  0  0
 15 16  1  0  0  0  0
 15 17  1  0  0  0  0
 16 35  1  0  0  0  0
 16 36  1  0  0  0  0
 16 37  1  0  0  0  0
 17 38  1  0  0  0  0
 18 19  1  0  0  0  0
 18 39  1  0  0  0  0
 18 40  1  0  0  0  0
 19 41  1  0  0  0  0
 19 42  1  0  0  0  0
M  CHG  1   2   1
M  END
> <s_m_source_file>
AV-unprocessed.smi

> <i_m_source_file_index>
3023

> <i_lp_mmshare_version>
43012

> <i_f3d_flags>
0

> <s_epik_input>
W0NIM11OMVtDSDJdW0NIMl1bQ0gyXU4oW0NIMl1bQ0gyXTEpQyg9TylbTkhdW0NIMl1bQ0gyXWMyW2NIXW5uKFtDSDNdKVtjSF0y

> <s_epik_cmdline>
J2VwaWtfcHl0aG9uJywgJy1waCcsICc3LjAnLCAnLXRuJywgJzgnLCAnLW1hJywgJzIwMCcsICctbWV0YWxfYmluZGluZycsICctaW1hZScsICc8aW5maWxlLm1hZT4nLCAnLW9tYWUnLCAnPG91dGZpbGUubWFlPic=

> <r_lp_tautomer_probability>
1

> <r_epik_Ionization_Penalty>
0.00258886

> <r_epik_Ionization_Penalty_Charging>
0.00208099

> <r_epik_Ionization_Penalty_Neutral>
0.00050787

> <r_epik_State_Penalty>
-0

> <r_epik_Charging_Adjusted_Penalty>
0.00208099

> <i_epik_Tot_Q>
1

> <i_epik_Tot_abs_Q>
1

> <r_epik_Metal_State_Penalty>
-0

> <b_epik_Metal_Only>
0

> <s_lp_Force_Field>
OPLS_2005

> <r_lp_Energy>
39.0301

> <b_lp_Chiralities_Consistent>
1

> <s_lp_Variant>
AV-unprocessed.smi:3023-2

> <Gold.Version>
5.8.1

> <Gold.Id.Protein>
6NUR|6NUR_protein|mol2

> <Gold.PLP.Fitness>
47.5314

> <Gold.PLP.PLP>
-37.1981

> <Gold.PLP.part.hbond>
-3.0000

> <Gold.PLP.part.metal>
0.0000

> <Gold.PLP.part.buried>
-0.9663

> <Gold.PLP.part.nonpolar>
-33.6271

> <Gold.PLP.part.repulsive>
0.2871

> <Gold.PLP.ligand.clash>
0.0000

> <Gold.PLP.ligand.torsion>
0.2558

> <Gold.PLP.Chemscore.Hbond>
3.6080

> <Gold.PLP.Chemscore.CHOScore>
0.0000

> <Gold.PLP.Chemscore.Metal>
0.0000

> <Gold.Chemscore.Hbonds>
donor molecule, donor type, donor heavy atom, donor atom, acceptor molecule, acceptor atom, score
      L1  H     2    43       P1 10175  2.00
      L1  H     9    29       P1  8028  0.59
      P1  H  7989  7998       L1     8  1.00

> <Gold.PLP.Chemscore.Internal.Correction>
0.0210

> <Gold.Rescore>
     Score         DG    S(hbond)    S(metal)    S(lipo)     H(rot)  DE(clash)    DE(int)     intcor
     16.92     -18.91       2.29        0.00      79.91       1.39       1.79       0.19       ----

> <Gold.Chemscore.Fitness>
16.9219

> <Gold.Chemscore.DG>
-18.9056

> <Gold.Chemscore.ZeroCoef>
-5.4800

> <Gold.Chemscore.Hbond>
2.2861

> <Gold.Chemscore.Metal>
0.0000

> <Gold.Chemscore.Lipo>
79.9126

> <Gold.Chemscore.Internal_Hbond>
0.0000

> <Gold.Chemscore.DEClash>
1.7906

> <Gold.Chemscore.DEInternal>
0.1931

> <Gold.Chemscore.Rot>
1.3906

> <Gold.Chemscore.Internal.Correction>
   9.000000E+99

> <Gold.Chemscore.Hbonds>
donor molecule, donor type, donor heavy atom, donor atom, acceptor molecule, acceptor atom, score
      L1  H     2    43       P1 10175  0.90
      L1  H     9    29       P1  8028  0.57
      P1  H  7989  7998       L1     8  0.71

> <Gold.Chemscore.Hbond.Weighted>
-7.6357

> <Gold.Chemscore.Metal.Weighted>
-0.0000

> <Gold.Chemscore.Lipo.Weighted>
-9.3498

> <Gold.Chemscore.Internal_Hbond.Weighted>
0.0000

> <Gold.Chemscore.DEClash.Weighted>
1.7906

> <Gold.Chemscore.DEInternal.Weighted>
0.1931

> <Gold.Chemscore.Rot.Weighted>
3.5598

> <Gold.Chemscore.Internal.Correction.Weighted>
   9.000000E+99

> <Gold.Protein.RotatedTorsions>
[ 6907 6896 6895 6894 ] final  -45.55 input  -60.11 | X-H torsion
[ 7974 7965 7964 7962 ] final  -47.17 input  175.53 | X-H torsion
[ 8008 7997 7996 7995 ] final   52.32 input   59.86 | X-H torsion
[ 10167 10162 10161 10158 ] final   90.76 input  -65.29 | X-H torsion
[ 10718 10713 10712 10709 ] final  175.12 input   66.30 | X-H torsion
[ 10763 10752 10751 10750 ] final   12.40 input  -60.55 | X-H torsion
[ 11005 11000 10999 10996 ] final -100.47 input  -57.11 | X-H torsion

> <Gold.Protein.ActiveResidues>
 VAL166  LYS551  ARG553  GLY616  TRP617  ASP618  TYR619  PRO620  LYS621  CYS622 
 ASP623  PHE694  ASN695  SER759  ASP760  ASP761  ALA762  ILE779  LEU786  VAL792 
 PHE793  MET794  SER795  GLU796  ALA797  LYS798  CYS799  TRP800  GLU811  SER814 

> <Gold.Protein.RotatedAtoms>
  150.9207  134.8625  159.7486 H   0  0  0  0  0  0  0  0  0  0  0  0  # atno 6907 bound_to 6896
  152.4991  134.4222  159.9494 H   0  0  0  0  0  0  0  0  0  0  0  0  # atno 6908 bound_to 6896
  151.4256  133.3645  159.2797 H   0  0  0  0  0  0  0  0  0  0  0  0  # atno 6909 bound_to 6896
  145.9643  140.7447  142.9442 H   0  0  0  0  0  0  0  0  0  0  0  0  # atno 7974 bound_to 7965
  155.4498  140.3458  155.4299 H   0  0  0  0  0  0  0  0  0  0  0  0  # atno 8008 bound_to 7997
  156.1227  140.1491  156.9211 H   0  0  0  0  0  0  0  0  0  0  0  0  # atno 8009 bound_to 7997
  154.4835  140.0862  156.7412 H   0  0  0  0  0  0  0  0  0  0  0  0  # atno 8010 bound_to 7997
  139.8441  144.6626  150.9248 H   0  0  0  0  0  0  0  0  0  0  0  0  # atno 10167 bound_to 10162
  156.9396  130.9997  151.2971 H   0  0  0  0  0  0  0  0  0  0  0  0  # atno 10718 bound_to 10713
  153.1826  135.6830  153.8458 H   0  0  0  0  0  0  0  0  0  0  0  0  # atno 10763 bound_to 10752
  153.7785  135.3186  155.3363 H   0  0  0  0  0  0  0  0  0  0  0  0  # atno 10764 bound_to 10752
  154.8069  135.4743  154.0510 H   0  0  0  0  0  0  0  0  0  0  0  0  # atno 10765 bound_to 10752
  141.1269  133.8401  157.1106 H   0  0  0  0  0  0  0  0  0  0  0  0  # atno 11005 bound_to 11000
  144.6822  140.2643  143.7314 LP  0  0  0  0  0  0  0  0  0  0  0  0  # atno 17320 bound_to 7965
  145.7996  139.1959  143.2056 LP  0  0  0  0  0  0  0  0  0  0  0  0  # atno 17321 bound_to 7965
  140.7795  143.3886  151.1350 LP  0  0  0  0  0  0  0  0  0  0  0  0  # atno 17342 bound_to 10162
  139.7529  143.8751  152.3081 LP  0  0  0  0  0  0  0  0  0  0  0  0  # atno 17343 bound_to 10162
  157.5794  130.8365  149.8500 LP  0  0  0  0  0  0  0  0  0  0  0  0  # atno 17370 bound_to 10713
  156.0410  130.3739  150.1435 LP  0  0  0  0  0  0  0  0  0  0  0  0  # atno 17371 bound_to 10713
  140.0277  134.9916  157.0719 LP  0  0  0  0  0  0  0  0  0  0  0  0  # atno 17394 bound_to 11000
  140.4335  134.1755  155.7169 LP  0  0  0  0  0  0  0  0  0  0  0  0  # atno 17395 bound_to 11000

$$$$
