AV-unprocessed.smi:560|AV-procd|sdf|2930|dock10
  -GOLD-   2262023423D 1   1.00000     0.00000
 Structure written by MMmdl.
 42 43  0  0  0  0  0  0  0  0  2 V2000
  152.4686  138.5456  154.7285 C   0  0  0  0  0  0  0  0  0  0  0  0
  151.1582  138.0877  154.0565 C   0  0  2  0  0  0  0  0  0  0  0  0
  150.1256  139.2190  153.9172 C   0  0  0  0  0  0  0  0  0  0  0  0
  150.3001  140.3064  154.4682 O   0  0  0  0  0  0  0  0  0  0  0  0
  149.0468  138.9460  153.1650 N   0  0  0  0  0  0  0  0  0  0  0  0
  147.9286  139.8561  152.9234 C   0  0  2  0  0  0  0  0  0  0  0  0
  147.1363  140.0863  154.2218 C   0  0  0  0  0  0  0  0  0  0  0  0
  146.3231  138.8446  154.6320 C   0  0  0  0  0  0  0  0  0  0  0  0
  145.4237  138.4034  153.5358 N   0  3  2  0  0  0  0  0  0  0  0  0
  144.5229  137.2974  153.9517 C   0  0  0  0  0  0  0  0  0  0  0  0
  143.4153  137.0118  152.9321 C   0  0  0  0  0  0  0  0  0  0  0  0
  142.7450  138.0649  152.4592 N   0  0  0  0  0  0  0  0  0  0  0  0
  143.1761  135.8632  152.5636 O   0  0  0  0  0  0  0  0  0  0  0  0
  146.1834  138.1025  152.2931 C   0  0  0  0  0  0  0  0  0  0  0  0
  146.9845  139.3292  151.8241 C   0  0  0  0  0  0  0  0  0  0  0  0
  150.5705  136.9389  154.7367 N   0  0  0  0  0  0  0  0  0  0  0  0
  149.3044  136.8275  155.2745 C   0  0  0  0  0  0  0  0  0  0  0  0
  149.2051  135.5880  155.8382 C   0  0  0  0  0  0  0  0  0  0  0  0
  150.4807  135.0053  155.6006 C   0  0  0  0  0  0  0  0  0  0  0  0
  151.2971  135.8170  154.9492 N   0  0  0  0  0  0  0  0  0  0  0  0
  152.9343  139.3585  154.1705 H   0  0  0  0  0  0  0  0  0  0  0  0
  153.1885  137.7279  154.7729 H   0  0  0  0  0  0  0  0  0  0  0  0
  152.3052  138.8952  155.7489 H   0  0  0  0  0  0  0  0  0  0  0  0
  151.4114  137.7662  153.0448 H   0  0  0  0  0  0  0  0  0  0  0  0
  148.9833  138.0251  152.7559 H   0  0  0  0  0  0  0  0  0  0  0  0
  148.3407  140.8155  152.6048 H   0  0  0  0  0  0  0  0  0  0  0  0
  147.8091  140.3779  155.0295 H   0  0  0  0  0  0  0  0  0  0  0  0
  146.4542  140.9256  154.0792 H   0  0  0  0  0  0  0  0  0  0  0  0
  146.9896  138.0264  154.9095 H   0  0  0  0  0  0  0  0  0  0  0  0
  145.7329  139.0847  155.5170 H   0  0  0  0  0  0  0  0  0  0  0  0
  145.1044  136.3958  154.1513 H   0  0  0  0  0  0  0  0  0  0  0  0
  144.0240  137.5620  154.8850 H   0  0  0  0  0  0  0  0  0  0  0  0
  142.0010  137.9362  151.7884 H   0  0  0  0  0  0  0  0  0  0  0  0
  142.9820  138.9935  152.7792 H   0  0  0  0  0  0  0  0  0  0  0  0
  146.8523  137.2582  152.4669 H   0  0  0  0  0  0  0  0  0  0  0  0
  145.5002  137.8008  151.4988 H   0  0  0  0  0  0  0  0  0  0  0  0
  146.2883  140.1206  151.5434 H   0  0  0  0  0  0  0  0  0  0  0  0
  147.5425  139.0876  150.9188 H   0  0  0  0  0  0  0  0  0  0  0  0
  148.5856  137.6312  155.2116 H   0  0  0  0  0  0  0  0  0  0  0  0
  148.3517  135.1626  156.3449 H   0  0  0  0  0  0  0  0  0  0  0  0
  150.8364  134.0254  155.8831 H   0  0  0  0  0  0  0  0  0  0  0  0
  144.8220  139.1884  153.3286 H   0  0  0  0  0  0  0  0  0  0  0  0
  1  2  1  0  0  0  0
  1 21  1  0  0  0  0
  1 22  1  0  0  0  0
  1 23  1  0  0  0  0
  2  3  1  0  0  0  0
  2 16  1  0  0  0  0
  2 24  1  0  0  0  0
  3  4  2  0  0  0  0
  3  5  1  0  0  0  0
  5  6  1  0  0  0  0
  5 25  1  0  0  0  0
  6 15  1  0  0  0  0
  6  7  1  0  0  0  0
  6 26  1  0  0  0  0
  7  8  1  0  0  0  0
  7 27  1  0  0  0  0
  7 28  1  0  0  0  0
  8  9  1  0  0  0  0
  8 29  1  0  0  0  0
  8 30  1  0  0  0  0
  9 10  1  0  0  0  0
  9 14  1  0  0  0  0
  9 42  1  0  0  0  0
 10 11  1  0  0  0  0
 10 31  1  0  0  0  0
 10 32  1  0  0  0  0
 11 12  1  0  0  0  0
 11 13  2  0  0  0  0
 12 33  1  0  0  0  0
 12 34  1  0  0  0  0
 14 15  1  0  0  0  0
 14 35  1  0  0  0  0
 14 36  1  0  0  0  0
 15 37  1  0  0  0  0
 15 38  1  0  0  0  0
 16 20  1  0  0  0  0
 16 17  1  0  0  0  0
 17 18  2  0  0  0  0
 17 39  1  0  0  0  0
 18 19  1  0  0  0  0
 18 40  1  0  0  0  0
 19 20  2  0  0  0  0
 19 41  1  0  0  0  0
M  CHG  1   9   1
M  END
> <s_m_source_file>
AV-unprocessed.smi

> <i_m_source_file_index>
560

> <i_lp_mmshare_version>
43012

> <i_f3d_flags>
0

> <s_epik_input>
bjFbY0hdW2NIXVtjSF1uMVtDQEhdKFtDSDNdKUMoPU8pW05IXVtDSF0yW0NIMl1bQ0gyXU4oW0NIMl1bQ0gyXTIpW0NIMl1DKD1PKVtOSDJd

> <s_epik_cmdline>
J2VwaWtfcHl0aG9uJywgJy1waCcsICc3LjAnLCAnLXRuJywgJzgnLCAnLW1hJywgJzIwMCcsICctbWV0YWxfYmluZGluZycsICctaW1hZScsICc8aW5maWxlLm1hZT4nLCAnLW9tYWUnLCAnPG91dGZpbGUubWFlPic=

> <r_lp_tautomer_probability>
1

> <r_epik_Ionization_Penalty>
1.02943

> <r_epik_Ionization_Penalty_Charging>
1.02936

> <r_epik_Ionization_Penalty_Neutral>
7.4537e-05

> <r_epik_State_Penalty>
1.08036

> <r_epik_Charging_Adjusted_Penalty>
2.10972

> <i_epik_Tot_Q>
1

> <i_epik_Tot_abs_Q>
1

> <r_epik_Metal_State_Penalty>
1.09347

> <b_epik_Metal_Only>
0

> <s_lp_Force_Field>
OPLS_2005

> <r_lp_Energy>
16.2494

> <b_lp_Chiralities_Consistent>
1

> <s_lp_Variant>
AV-unprocessed.smi:560-5

> <Gold.Version>
5.8.1

> <Gold.Id.Protein>
6NUR|6NUR_protein|mol2

> <Gold.PLP.Fitness>
47.4057

> <Gold.PLP.PLP>
-30.0419

> <Gold.PLP.part.hbond>
-6.4063

> <Gold.PLP.part.metal>
0.0000

> <Gold.PLP.part.buried>
3.8786

> <Gold.PLP.part.nonpolar>
-27.5418

> <Gold.PLP.part.repulsive>
0.5805

> <Gold.PLP.ligand.clash>
0.0000

> <Gold.PLP.ligand.torsion>
0.3712

> <Gold.PLP.Chemscore.Hbond>
5.9920

> <Gold.PLP.Chemscore.CHOScore>
0.0000

> <Gold.PLP.Chemscore.Metal>
0.0000

> <Gold.Chemscore.Hbonds>
donor molecule, donor type, donor heavy atom, donor atom, acceptor molecule, acceptor atom, score
      L1  H     5    25       P1  7948  1.00
      L1  H     9    42       P1 10175  2.00
      L1  H    12    34       P1 10175  0.98
      P1  H  7989  7998       L1     4  0.90
      P1  H 10752 10763       L1    20  1.00

> <Gold.PLP.Chemscore.Internal.Correction>
0.1301

> <Gold.Rescore>
     Score         DG    S(hbond)    S(metal)    S(lipo)     H(rot)  DE(clash)    DE(int)     intcor
     18.38     -22.13       4.75        0.00      62.02       2.52       3.23       0.52       ----

> <Gold.Chemscore.Fitness>
18.3829

> <Gold.Chemscore.DG>
-22.1285

> <Gold.Chemscore.ZeroCoef>
-5.4800

> <Gold.Chemscore.Hbond>
4.7467

> <Gold.Chemscore.Metal>
0.0000

> <Gold.Chemscore.Lipo>
62.0232

> <Gold.Chemscore.Internal_Hbond>
0.0000

> <Gold.Chemscore.DEClash>
3.2299

> <Gold.Chemscore.DEInternal>
0.5157

> <Gold.Chemscore.Rot>
2.5243

> <Gold.Chemscore.Internal.Correction>
   9.000000E+99

> <Gold.Chemscore.Hbonds>
donor molecule, donor type, donor heavy atom, donor atom, acceptor molecule, acceptor atom, score
      L1  H     5    25       P1  7948  0.98
      L1  H     9    42       P1 10175  1.00
      L1  H    12    34       P1 10175  0.92
      P1  H  7989  7998       L1     4  0.17
      P1  H 10752 10763       L1    20  0.99

> <Gold.Chemscore.Hbond.Weighted>
-15.8540

> <Gold.Chemscore.Metal.Weighted>
-0.0000

> <Gold.Chemscore.Lipo.Weighted>
-7.2567

> <Gold.Chemscore.Internal_Hbond.Weighted>
0.0000

> <Gold.Chemscore.DEClash.Weighted>
3.2299

> <Gold.Chemscore.DEInternal.Weighted>
0.5157

> <Gold.Chemscore.Rot.Weighted>
6.4622

> <Gold.Chemscore.Internal.Correction.Weighted>
   9.000000E+99

> <Gold.Protein.RotatedTorsions>
[ 6907 6896 6895 6894 ] final  116.11 input  -60.11 | X-H torsion
[ 7974 7965 7964 7962 ] final    2.89 input  175.53 | X-H torsion
[ 8008 7997 7996 7995 ] final  -38.10 input   59.86 | X-H torsion
[ 10167 10162 10161 10158 ] final -157.25 input  -65.29 | X-H torsion
[ 10718 10713 10712 10709 ] final   31.79 input   66.30 | X-H torsion
[ 10763 10752 10751 10750 ] final   69.55 input  -60.55 | X-H torsion
[ 11005 11000 10999 10996 ] final  -57.74 input  -57.11 | X-H torsion

> <Gold.Protein.ActiveResidues>
 VAL166  LYS551  ARG553  GLY616  TRP617  ASP618  TYR619  PRO620  LYS621  CYS622 
 ASP623  PHE694  ASN695  SER759  ASP760  ASP761  ALA762  ILE779  LEU786  VAL792 
 PHE793  MET794  SER795  GLU796  ALA797  LYS798  CYS799  TRP800  GLU811  SER814 

> <Gold.Protein.RotatedAtoms>
  152.4699  133.8005  159.6950 H   0  0  0  0  0  0  0  0  0  0  0  0  # atno 6907 bound_to 6896
  150.8682  133.7534  159.2976 H   0  0  0  0  0  0  0  0  0  0  0  0  # atno 6908 bound_to 6896
  151.5077  135.1067  159.9898 H   0  0  0  0  0  0  0  0  0  0  0  0  # atno 6909 bound_to 6896
  146.2444  140.0768  142.8359 H   0  0  0  0  0  0  0  0  0  0  0  0  # atno 7974 bound_to 7965
  154.4042  140.1586  156.2645 H   0  0  0  0  0  0  0  0  0  0  0  0  # atno 8008 bound_to 7997
  155.9007  140.3433  155.6002 H   0  0  0  0  0  0  0  0  0  0  0  0  # atno 8009 bound_to 7997
  155.7451  140.0797  157.2218 H   0  0  0  0  0  0  0  0  0  0  0  0  # atno 8010 bound_to 7997
  139.6785  143.9621  152.2324 H   0  0  0  0  0  0  0  0  0  0  0  0  # atno 10167 bound_to 10162
  157.2770  130.7236  149.6535 H   0  0  0  0  0  0  0  0  0  0  0  0  # atno 10718 bound_to 10713
  153.0293  135.5206  154.7305 H   0  0  0  0  0  0  0  0  0  0  0  0  # atno 10763 bound_to 10752
  154.6334  135.2903  155.0191 H   0  0  0  0  0  0  0  0  0  0  0  0  # atno 10764 bound_to 10752
  154.1135  135.6618  153.4942 H   0  0  0  0  0  0  0  0  0  0  0  0  # atno 10765 bound_to 10752
  141.1178  133.6611  156.4816 H   0  0  0  0  0  0  0  0  0  0  0  0  # atno 11005 bound_to 11000
  145.0768  140.9193  143.4849 LP  0  0  0  0  0  0  0  0  0  0  0  0  # atno 17320 bound_to 7965
  145.0913  139.2888  143.5733 LP  0  0  0  0  0  0  0  0  0  0  0  0  # atno 17321 bound_to 7965
  139.9405  144.6685  150.8271 LP  0  0  0  0  0  0  0  0  0  0  0  0  # atno 17342 bound_to 10162
  140.7644  143.3248  151.2541 LP  0  0  0  0  0  0  0  0  0  0  0  0  # atno 17343 bound_to 10162
  155.9664  130.4350  150.5073 LP  0  0  0  0  0  0  0  0  0  0  0  0  # atno 17370 bound_to 10713
  157.3009  131.0645  151.2069 LP  0  0  0  0  0  0  0  0  0  0  0  0  # atno 17371 bound_to 10713
  140.4596  134.6853  157.5079 LP  0  0  0  0  0  0  0  0  0  0  0  0  # atno 17394 bound_to 11000
  140.0112  134.6687  155.9378 LP  0  0  0  0  0  0  0  0  0  0  0  0  # atno 17395 bound_to 11000

$$$$
