AV-unprocessed.smi:1005|AV-procd|sdf|4364|dock7
  -GOLD-   22720 2263D 1   1.00000     0.00000
 Structure written by MMmdl.
 56 58  0  0  0  0  0  0  0  0  2 V2000
  152.9814  143.0271  161.2225 C   0  0  0  0  0  0  0  0  0  0  0  0
  152.3994  142.6680  159.8667 C   0  0  0  0  0  0  0  0  0  0  0  0
  152.7138  141.4152  159.2939 C   0  0  0  0  0  0  0  0  0  0  0  0
  152.1914  141.0421  158.0363 C   0  0  0  0  0  0  0  0  0  0  0  0
  152.3618  139.8815  157.3012 N   0  0  0  0  0  0  0  0  0  0  0  0
  151.6226  140.1351  156.2256 C   0  0  0  0  0  0  0  0  0  0  0  0
  150.9848  141.3204  156.1804 N   0  0  0  0  0  0  0  0  0  0  0  0
  150.1171  141.8016  155.1203 C   0  0  0  0  0  0  0  0  0  0  0  0
  148.9438  140.8416  154.8493 C   0  0  2  0  0  0  0  0  0  0  0  0
  149.3970  139.8464  153.9559 O   0  0  0  0  0  0  0  0  0  0  0  0
  147.7172  141.5380  154.2168 C   0  0  0  0  0  0  0  0  0  0  0  0
  146.9491  142.3936  155.1216 N   0  0  0  0  0  0  0  0  0  0  0  0
  146.3767  141.6116  156.2118 C   0  0  0  0  0  0  0  0  0  0  0  0
  145.5535  142.4841  157.1730 C   0  0  0  0  0  0  0  0  0  0  0  0
  144.5319  143.1567  156.4443 O   0  0  0  0  0  0  0  0  0  0  0  0
  145.0420  143.9777  155.3965 C   0  0  2  0  0  0  0  0  0  0  0  0
  143.8484  144.6346  154.6811 C   0  0  0  0  0  0  0  0  0  0  0  0
  143.1619  145.6438  155.5268 N   0  3  0  0  0  0  0  0  0  0  0  0
  144.0246  146.7923  155.8872 C   0  0  0  0  0  0  0  0  0  0  0  0
  141.8825  146.0911  154.9333 C   0  0  0  0  0  0  0  0  0  0  0  0
  145.8668  143.0983  154.4349 C   0  0  0  0  0  0  0  0  0  0  0  0
  151.3385  141.9640  157.3616 C   0  0  0  0  0  0  0  0  0  0  0  0
  151.0192  143.2140  157.9208 C   0  0  0  0  0  0  0  0  0  0  0  0
  151.5511  143.5715  159.1775 C   0  0  0  0  0  0  0  0  0  0  0  0
  151.2000  144.9235  159.7723 C   0  0  0  0  0  0  0  0  0  0  0  0
  153.5655  142.2045  161.6364 H   0  0  0  0  0  0  0  0  0  0  0  0
  152.1865  143.2607  161.9310 H   0  0  0  0  0  0  0  0  0  0  0  0
  153.6369  143.8941  161.1382 H   0  0  0  0  0  0  0  0  0  0  0  0
  153.3600  140.7265  159.8182 H   0  0  0  0  0  0  0  0  0  0  0  0
  151.5319  139.4141  155.4263 H   0  0  0  0  0  0  0  0  0  0  0  0
  149.7485  142.7930  155.3865 H   0  0  0  0  0  0  0  0  0  0  0  0
  150.7214  141.9249  154.2205 H   0  0  0  0  0  0  0  0  0  0  0  0
  148.6840  140.3522  155.7868 H   0  0  0  0  0  0  0  0  0  0  0  0
  149.4584  140.2259  153.0925 H   0  0  0  0  0  0  0  0  0  0  0  0
  148.0293  142.1400  153.3634 H   0  0  0  0  0  0  0  0  0  0  0  0
  147.0685  140.7671  153.7980 H   0  0  0  0  0  0  0  0  0  0  0  0
  145.7410  140.8221  155.8075 H   0  0  0  0  0  0  0  0  0  0  0  0
  147.1720  141.1157  156.7697 H   0  0  0  0  0  0  0  0  0  0  0  0
  145.0943  141.8681  157.9462 H   0  0  0  0  0  0  0  0  0  0  0  0
  146.1907  143.2117  157.6781 H   0  0  0  0  0  0  0  0  0  0  0  0
  145.6960  144.7397  155.8214 H   0  0  0  0  0  0  0  0  0  0  0  0
  144.1682  145.1005  153.7478 H   0  0  0  0  0  0  0  0  0  0  0  0
  143.1437  143.8487  154.4041 H   0  0  0  0  0  0  0  0  0  0  0  0
  144.3472  147.3336  154.9966 H   0  0  0  0  0  0  0  0  0  0  0  0
  144.9117  146.4728  156.4329 H   0  0  0  0  0  0  0  0  0  0  0  0
  143.4851  147.4893  156.5294 H   0  0  0  0  0  0  0  0  0  0  0  0
  142.0478  146.5891  153.9770 H   0  0  0  0  0  0  0  0  0  0  0  0
  141.3705  146.7874  155.5983 H   0  0  0  0  0  0  0  0  0  0  0  0
  141.2147  145.2446  154.7688 H   0  0  0  0  0  0  0  0  0  0  0  0
  146.2652  143.7319  153.6443 H   0  0  0  0  0  0  0  0  0  0  0  0
  145.2080  142.3765  153.9490 H   0  0  0  0  0  0  0  0  0  0  0  0
  150.3687  143.8914  157.3877 H   0  0  0  0  0  0  0  0  0  0  0  0
  150.5955  145.5157  159.0845 H   0  0  0  0  0  0  0  0  0  0  0  0
  152.1033  145.4916  159.9950 H   0  0  0  0  0  0  0  0  0  0  0  0
  150.6325  144.7975  160.6945 H   0  0  0  0  0  0  0  0  0  0  0  0
  142.9189  145.1757  156.3889 H   0  0  0  0  0  0  0  0  0  0  0  0
  1  2  1  0  0  0  0
  1 26  1  0  0  0  0
  1 27  1  0  0  0  0
  1 28  1  0  0  0  0
  2 24  1  0  0  0  0
  2  3  2  0  0  0  0
  3  4  1  0  0  0  0
  3 29  1  0  0  0  0
  4 22  2  0  0  0  0
  4  5  1  0  0  0  0
  5  6  2  0  0  0  0
  6  7  1  0  0  0  0
  6 30  1  0  0  0  0
  7  8  1  0  0  0  0
  7 22  1  0  0  0  0
  8  9  1  0  0  0  0
  8 31  1  0  0  0  0
  8 32  1  0  0  0  0
  9 10  1  0  0  0  0
  9 11  1  0  0  0  0
  9 33  1  0  0  0  0
 10 34  1  0  0  0  0
 11 12  1  0  0  0  0
 11 35  1  0  0  0  0
 11 36  1  0  0  0  0
 12 21  1  0  0  0  0
 12 13  1  0  0  0  0
 13 14  1  0  0  0  0
 13 37  1  0  0  0  0
 13 38  1  0  0  0  0
 14 15  1  0  0  0  0
 14 39  1  0  0  0  0
 14 40  1  0  0  0  0
 15 16  1  0  0  0  0
 16 17  1  0  0  0  0
 16 21  1  0  0  0  0
 16 41  1  0  0  0  0
 17 18  1  0  0  0  0
 17 42  1  0  0  0  0
 17 43  1  0  0  0  0
 18 19  1  0  0  0  0
 18 20  1  0  0  0  0
 18 56  1  0  0  0  0
 19 44  1  0  0  0  0
 19 45  1  0  0  0  0
 19 46  1  0  0  0  0
 20 47  1  0  0  0  0
 20 48  1  0  0  0  0
 20 49  1  0  0  0  0
 21 50  1  0  0  0  0
 21 51  1  0  0  0  0
 22 23  1  0  0  0  0
 23 24  2  0  0  0  0
 23 52  1  0  0  0  0
 24 25  1  0  0  0  0
 25 53  1  0  0  0  0
 25 54  1  0  0  0  0
 25 55  1  0  0  0  0
M  CHG  1  18   1
M  END
> <s_m_source_file>
AV-unprocessed.smi

> <i_m_source_file_index>
1005

> <i_lp_mmshare_version>
43012

> <i_f3d_flags>
0

> <s_epik_input>
W0NIM11jKFtjSF0xKWMoW0NIM10pW2NIXWMoYzEyKW4oW2NIXW4yKVtDSDJdW0NASF0oW09IXSlbQ0gyXU4zW0NIMl1bQ0gyXU9bQ0BIXShbQ0gyXTMpW0NIMl1OKFtDSDNdKVtDSDNd

> <s_epik_cmdline>
J2VwaWtfcHl0aG9uJywgJy1waCcsICc3LjAnLCAnLXRuJywgJzgnLCAnLW1hJywgJzIwMCcsICctbWV0YWxfYmluZGluZycsICctaW1hZScsICc8aW5maWxlLm1hZT4nLCAnLW9tYWUnLCAnPG91dGZpbGUubWFlPic=

> <r_epik_Ionization_Penalty>
0.226781

> <r_epik_Ionization_Penalty_Charging>
0.00915946

> <r_epik_Ionization_Penalty_Neutral>
0.217622

> <r_epik_State_Penalty>
0.173018

> <r_epik_Charging_Adjusted_Penalty>
0.182178

> <i_epik_Tot_Q>
1

> <i_epik_Tot_abs_Q>
1

> <r_epik_Metal_State_Penalty>
0.0905268

> <b_epik_Metal_Only>
0

> <s_lp_Force_Field>
OPLS_2005

> <r_lp_Energy>
37.9452

> <b_lp_Chiralities_Consistent>
1

> <s_lp_Variant>
AV-unprocessed.smi:1005-3

> <Gold.Version>
5.8.1

> <Gold.Id.Protein>
6NUR|6NUR_protein|mol2

> <Gold.PLP.Fitness>
53.7431

> <Gold.PLP.PLP>
-48.4237

> <Gold.PLP.part.hbond>
-2.1280

> <Gold.PLP.part.metal>
0.0000

> <Gold.PLP.part.buried>
-7.2284

> <Gold.PLP.part.nonpolar>
-39.2425

> <Gold.PLP.part.repulsive>
0.3721

> <Gold.PLP.ligand.clash>
0.0000

> <Gold.PLP.ligand.torsion>
0.4403

> <Gold.PLP.Chemscore.Hbond>
1.9833

> <Gold.PLP.Chemscore.CHOScore>
0.0000

> <Gold.PLP.Chemscore.Metal>
0.0000

> <Gold.Chemscore.Hbonds>
donor molecule, donor type, donor heavy atom, donor atom, acceptor molecule, acceptor atom, score
      L1  H    10    34       P1  7957  1.00
      P1  H  7997  8009       L1     5  0.76

> <Gold.PLP.Chemscore.Internal.Correction>
0.2503

> <Gold.Rescore>
     Score         DG    S(hbond)    S(metal)    S(lipo)     H(rot)  DE(clash)    DE(int)     intcor
     16.96     -18.10       1.05        0.00     130.86       2.41       0.68       0.47       ----

> <Gold.Chemscore.Fitness>
16.9560

> <Gold.Chemscore.DG>
-18.1028

> <Gold.Chemscore.ZeroCoef>
-5.4800

> <Gold.Chemscore.Hbond>
1.0451

> <Gold.Chemscore.Metal>
0.0000

> <Gold.Chemscore.Lipo>
130.8632

> <Gold.Chemscore.Internal_Hbond>
0.0000

> <Gold.Chemscore.DEClash>
0.6804

> <Gold.Chemscore.DEInternal>
0.4664

> <Gold.Chemscore.Rot>
2.4136

> <Gold.Chemscore.Internal.Correction>
   9.000000E+99

> <Gold.Chemscore.Hbonds>
donor molecule, donor type, donor heavy atom, donor atom, acceptor molecule, acceptor atom, score
      L1  H    10    34       P1  7957  0.95
      P1  H  7997  8009       L1     5  0.13

> <Gold.Chemscore.Hbond.Weighted>
-3.4905

> <Gold.Chemscore.Metal.Weighted>
-0.0000

> <Gold.Chemscore.Lipo.Weighted>
-15.3110

> <Gold.Chemscore.Internal_Hbond.Weighted>
0.0000

> <Gold.Chemscore.DEClash.Weighted>
0.6804

> <Gold.Chemscore.DEInternal.Weighted>
0.4664

> <Gold.Chemscore.Rot.Weighted>
6.1788

> <Gold.Chemscore.Internal.Correction.Weighted>
   9.000000E+99

> <Gold.Protein.RotatedTorsions>
[ 6907 6896 6895 6894 ] final  166.04 input  -60.11 | X-H torsion
[ 7974 7965 7964 7962 ] final  -81.88 input  175.53 | X-H torsion
[ 8008 7997 7996 7995 ] final  178.06 input   59.86 | X-H torsion
[ 10167 10162 10161 10158 ] final -118.88 input  -65.29 | X-H torsion
[ 10718 10713 10712 10709 ] final   85.52 input   66.30 | X-H torsion
[ 10763 10752 10751 10750 ] final  -82.36 input  -60.55 | X-H torsion
[ 11005 11000 10999 10996 ] final -155.56 input  -57.11 | X-H torsion

> <Gold.Protein.ActiveResidues>
 VAL166  LYS551  ARG553  GLY616  TRP617  ASP618  TYR619  PRO620  LYS621  CYS622 
 ASP623  PHE694  ASN695  SER759  ASP760  ASP761  ALA762  ILE779  LEU786  VAL792 
 PHE793  MET794  SER795  GLU796  ALA797  LYS798  CYS799  TRP800  GLU811  SER814 

> <Gold.Protein.RotatedAtoms>
  151.8851  133.3504  159.3779 H   0  0  0  0  0  0  0  0  0  0  0  0  # atno 6907 bound_to 6896
  150.7117  134.4979  159.5556 H   0  0  0  0  0  0  0  0  0  0  0  0  # atno 6908 bound_to 6896
  152.2539  134.8105  160.0492 H   0  0  0  0  0  0  0  0  0  0  0  0  # atno 6909 bound_to 6896
  145.5407  140.9510  143.1553 H   0  0  0  0  0  0  0  0  0  0  0  0  # atno 7974 bound_to 7965
  156.0588  140.1343  156.9965 H   0  0  0  0  0  0  0  0  0  0  0  0  # atno 8008 bound_to 7997
  154.4471  140.0996  156.6556 H   0  0  0  0  0  0  0  0  0  0  0  0  # atno 8009 bound_to 7997
  155.5410  140.3461  155.4449 H   0  0  0  0  0  0  0  0  0  0  0  0  # atno 8010 bound_to 7997
  140.0527  143.5045  152.2073 H   0  0  0  0  0  0  0  0  0  0  0  0  # atno 10167 bound_to 10162
  157.6916  131.0178  150.2835 H   0  0  0  0  0  0  0  0  0  0  0  0  # atno 10718 bound_to 10713
  154.5748  135.5594  153.7129 H   0  0  0  0  0  0  0  0  0  0  0  0  # atno 10763 bound_to 10752
  153.0061  135.6306  154.2064 H   0  0  0  0  0  0  0  0  0  0  0  0  # atno 10764 bound_to 10752
  154.2004  135.2878  155.2972 H   0  0  0  0  0  0  0  0  0  0  0  0  # atno 10765 bound_to 10752
  140.6852  134.4101  157.5223 H   0  0  0  0  0  0  0  0  0  0  0  0  # atno 11005 bound_to 11000
  144.7578  139.7030  143.7246 LP  0  0  0  0  0  0  0  0  0  0  0  0  # atno 17320 bound_to 7965
  146.1983  139.5262  142.9760 LP  0  0  0  0  0  0  0  0  0  0  0  0  # atno 17321 bound_to 7965
  139.5943  144.7561  151.3324 LP  0  0  0  0  0  0  0  0  0  0  0  0  # atno 17342 bound_to 10162
  140.7209  143.7137  150.7749 LP  0  0  0  0  0  0  0  0  0  0  0  0  # atno 17343 bound_to 10162
  156.3378  130.3810  149.7435 LP  0  0  0  0  0  0  0  0  0  0  0  0  # atno 17370 bound_to 10713
  156.4954  130.8104  151.3111 LP  0  0  0  0  0  0  0  0  0  0  0  0  # atno 17371 bound_to 10713
  139.8940  134.8718  156.2199 LP  0  0  0  0  0  0  0  0  0  0  0  0  # atno 17394 bound_to 11000
  141.0286  133.7001  156.1390 LP  0  0  0  0  0  0  0  0  0  0  0  0  # atno 17395 bound_to 11000

$$$$
