AV-unprocessed.smi:3314|AV-procd|sdf|12743|dock1
  -GOLD-   2272019 83D 1   1.00000     0.00000
 Structure written by MMmdl.
 37 38  0  0  0  0  0  0  0  0  3 V2000
  152.0083  143.5275  160.1859 C   0  0  0  0  0  0  0  0  0  0  0  0
  152.3479  142.2525  159.4431 C   0  0  0  0  0  0  0  0  0  0  0  0
  153.3429  141.3795  159.9225 C   0  0  0  0  0  0  0  0  0  0  0  0
  153.6151  140.2140  159.1800 C   0  0  0  0  0  0  0  0  0  0  0  0
  154.6720  139.2307  159.6371 C   0  0  0  0  0  0  0  0  0  0  0  0
  152.9664  139.8975  158.0385 N   0  0  0  0  0  0  0  0  0  0  0  0
  152.0006  140.7243  157.5717 C   0  0  0  0  0  0  0  0  0  0  0  0
  151.3718  140.4034  156.4316 N   0  5  0  0  0  0  0  0  0  0  0  0
  151.9532  139.5508  155.5528 C   0  0  0  0  0  0  0  0  0  0  0  0
  153.1342  139.4865  155.2057 O   0  0  0  0  0  0  0  0  0  0  0  0
  150.9342  138.5758  154.9462 C   0  0  2  0  0  0  0  0  0  0  0  0
  149.6849  139.3086  154.4102 C   0  0  0  0  0  0  0  0  0  0  0  0
  148.6910  138.3295  153.9147 N   0  3  2  0  0  0  0  0  0  0  0  0
  147.4912  138.9746  153.3407 C   0  0  0  0  0  0  0  0  0  0  0  0
  148.3613  137.3366  154.9623 C   0  0  0  0  0  0  0  0  0  0  0  0
  149.6434  136.6711  155.4889 C   0  0  0  0  0  0  0  0  0  0  0  0
  150.5345  137.6689  155.9697 O   0  0  0  0  0  0  0  0  0  0  0  0
  151.6721  141.9200  158.2519 C   0  0  0  0  0  0  0  0  0  0  0  0
  152.4664  143.5429  161.1751 H   0  0  0  0  0  0  0  0  0  0  0  0
  150.9290  143.6187  160.3098 H   0  0  0  0  0  0  0  0  0  0  0  0
  152.3657  144.3935  159.6284 H   0  0  0  0  0  0  0  0  0  0  0  0
  153.8835  141.5976  160.8319 H   0  0  0  0  0  0  0  0  0  0  0  0
  155.3221  139.6746  160.3912 H   0  0  0  0  0  0  0  0  0  0  0  0
  155.2934  138.9171  158.7978 H   0  0  0  0  0  0  0  0  0  0  0  0
  154.2013  138.3462  160.0670 H   0  0  0  0  0  0  0  0  0  0  0  0
  151.3905  138.0088  154.1301 H   0  0  0  0  0  0  0  0  0  0  0  0
  149.2279  139.9195  155.1912 H   0  0  0  0  0  0  0  0  0  0  0  0
  149.9670  139.9818  153.5993 H   0  0  0  0  0  0  0  0  0  0  0  0
  146.9556  139.5498  154.0973 H   0  0  0  0  0  0  0  0  0  0  0  0
  146.8104  138.2268  152.9333 H   0  0  0  0  0  0  0  0  0  0  0  0
  147.7687  139.6491  152.5302 H   0  0  0  0  0  0  0  0  0  0  0  0
  147.8344  137.8285  155.7814 H   0  0  0  0  0  0  0  0  0  0  0  0
  147.6900  136.5795  154.5556 H   0  0  0  0  0  0  0  0  0  0  0  0
  149.4048  135.9886  156.3048 H   0  0  0  0  0  0  0  0  0  0  0  0
  150.1257  136.0790  154.7096 H   0  0  0  0  0  0  0  0  0  0  0  0
  150.9064  142.5762  157.8638 H   0  0  0  0  0  0  0  0  0  0  0  0
  149.1377  137.8221  153.1641 H   0  0  0  0  0  0  0  0  0  0  0  0
  1  2  1  0  0  0  0
  1 19  1  0  0  0  0
  1 20  1  0  0  0  0
  1 21  1  0  0  0  0
  2 18  2  0  0  0  0
  2  3  1  0  0  0  0
  3  4  2  0  0  0  0
  3 22  1  0  0  0  0
  4  5  1  0  0  0  0
  4  6  1  0  0  0  0
  5 23  1  0  0  0  0
  5 24  1  0  0  0  0
  5 25  1  0  0  0  0
  6  7  2  0  0  0  0
  7  8  1  0  0  0  0
  7 18  1  0  0  0  0
  8  9  1  0  0  0  0
  9 10  2  0  0  0  0
  9 11  1  0  0  0  0
 11 17  1  0  0  0  0
 11 12  1  0  0  0  0
 11 26  1  0  0  0  0
 12 13  1  0  0  0  0
 12 27  1  0  0  0  0
 12 28  1  0  0  0  0
 13 14  1  0  0  0  0
 13 15  1  0  0  0  0
 13 37  1  0  0  0  0
 14 29  1  0  0  0  0
 14 30  1  0  0  0  0
 14 31  1  0  0  0  0
 15 16  1  0  0  0  0
 15 32  1  0  0  0  0
 15 33  1  0  0  0  0
 16 17  1  0  0  0  0
 16 34  1  0  0  0  0
 16 35  1  0  0  0  0
 18 36  1  0  0  0  0
M  CHG  1   8  -1
M  CHG  1  13   1
M  END
> <s_m_source_file>
AV-unprocessed.smi

> <i_m_source_file_index>
3314

> <i_lp_mmshare_version>
43012

> <i_f3d_flags>
0

> <s_epik_input>
W0NIM11jMVtjSF1jKFtDSDNdKW5jKFtjSF0xKVtOSF1DKD1PKVtDQEBIXTJbQ0gyXU4oW0NIM10pW0NIMl1bQ0gyXU8y

> <s_epik_cmdline>
J2VwaWtfcHl0aG9uJywgJy1waCcsICc3LjAnLCAnLXRuJywgJzgnLCAnLW1hJywgJzIwMCcsICctbWV0YWxfYmluZGluZycsICctaW1hZScsICc8aW5maWxlLm1hZT4nLCAnLW9tYWUnLCAnPG91dGZpbGUubWFlPic=

> <r_epik_Ionization_Penalty>
13.8964

> <r_epik_Ionization_Penalty_Charging>
7.88995

> <r_epik_Ionization_Penalty_Neutral>
6.00641

> <r_epik_State_Penalty>
8.39989

> <r_epik_Charging_Adjusted_Penalty>
16.2898

> <i_epik_Tot_Q>
0

> <i_epik_Tot_abs_Q>
2

> <r_epik_Metal_State_Penalty>
4.31145

> <b_epik_Metal_Only>
1

> <s_lp_Force_Field>
OPLS_2005

> <r_lp_Energy>
9.48457

> <b_lp_Chiralities_Consistent>
1

> <s_lp_Variant>
AV-unprocessed.smi:3314-13

> <Gold.Version>
5.8.1

> <Gold.Id.Protein>
6NUR|6NUR_protein|mol2

> <Gold.PLP.Fitness>
39.3063

> <Gold.PLP.PLP>
-31.5586

> <Gold.PLP.part.hbond>
-3.0000

> <Gold.PLP.part.metal>
0.0000

> <Gold.PLP.part.buried>
-3.7730

> <Gold.PLP.part.nonpolar>
-24.9137

> <Gold.PLP.part.repulsive>
0.0313

> <Gold.PLP.ligand.clash>
0.0000

> <Gold.PLP.ligand.torsion>
0.6122

> <Gold.PLP.Chemscore.Hbond>
2.9840

> <Gold.PLP.Chemscore.CHOScore>
0.0000

> <Gold.PLP.Chemscore.Metal>
0.0000

> <Gold.Chemscore.Hbonds>
donor molecule, donor type, donor heavy atom, donor atom, acceptor molecule, acceptor atom, score
      L1  H    13    37       P1  7948  1.84
      P1  H  7997  8010       L1     6  1.00

> <Gold.PLP.Chemscore.Internal.Correction>
0.0201

> <Gold.Rescore>
     Score         DG    S(hbond)    S(metal)    S(lipo)     H(rot)  DE(clash)    DE(int)     intcor
     17.07     -18.65       1.92        0.00      79.60       1.00       0.06       1.52       ----

> <Gold.Chemscore.Fitness>
17.0690

> <Gold.Chemscore.DG>
-18.6511

> <Gold.Chemscore.ZeroCoef>
-5.4800

> <Gold.Chemscore.Hbond>
1.9216

> <Gold.Chemscore.Metal>
0.0000

> <Gold.Chemscore.Lipo>
79.5962

> <Gold.Chemscore.Internal_Hbond>
0.0000

> <Gold.Chemscore.DEClash>
0.0580

> <Gold.Chemscore.DEInternal>
1.5241

> <Gold.Chemscore.Rot>
1.0000

> <Gold.Chemscore.Internal.Correction>
   9.000000E+99

> <Gold.Chemscore.Hbonds>
donor molecule, donor type, donor heavy atom, donor atom, acceptor molecule, acceptor atom, score
      L1  H    13    37       P1  7948  0.82
      P1  H  7997  8010       L1    10  0.27

> <Gold.Chemscore.Hbond.Weighted>
-6.4183

> <Gold.Chemscore.Metal.Weighted>
-0.0000

> <Gold.Chemscore.Lipo.Weighted>
-9.3128

> <Gold.Chemscore.Internal_Hbond.Weighted>
0.0000

> <Gold.Chemscore.DEClash.Weighted>
0.0580

> <Gold.Chemscore.DEInternal.Weighted>
1.5241

> <Gold.Chemscore.Rot.Weighted>
2.5600

> <Gold.Chemscore.Internal.Correction.Weighted>
   9.000000E+99

> <Gold.Protein.RotatedTorsions>
[ 6907 6896 6895 6894 ] final   17.47 input  -60.11 | X-H torsion
[ 7974 7965 7964 7962 ] final -136.36 input  175.53 | X-H torsion
[ 8008 7997 7996 7995 ] final   54.45 input   59.86 | X-H torsion
[ 10167 10162 10161 10158 ] final -136.82 input  -65.29 | X-H torsion
[ 10718 10713 10712 10709 ] final -138.98 input   66.30 | X-H torsion
[ 10763 10752 10751 10750 ] final   52.03 input  -60.55 | X-H torsion
[ 11005 11000 10999 10996 ] final  -13.37 input  -57.11 | X-H torsion

> <Gold.Protein.ActiveResidues>
 VAL166  LYS551  ARG553  GLY616  TRP617  ASP618  TYR619  PRO620  LYS621  CYS622 
 ASP623  PHE694  ASN695  SER759  ASP760  ASP761  ALA762  ILE779  LEU786  VAL792 
 PHE793  MET794  SER795  GLU796  ALA797  LYS798  CYS799  TRP800  GLU811  SER814 

> <Gold.Protein.RotatedAtoms>
  151.8501  135.0561  160.0457 H   0  0  0  0  0  0  0  0  0  0  0  0  # atno 6907 bound_to 6896
  152.2743  133.5407  159.5467 H   0  0  0  0  0  0  0  0  0  0  0  0  # atno 6908 bound_to 6896
  150.7164  134.0570  159.3860 H   0  0  0  0  0  0  0  0  0  0  0  0  # atno 6909 bound_to 6896
  144.8933  140.6672  143.5131 H   0  0  0  0  0  0  0  0  0  0  0  0  # atno 7974 bound_to 7965
  155.4849  140.3469  155.4345 H   0  0  0  0  0  0  0  0  0  0  0  0  # atno 8008 bound_to 7997
  156.1015  140.1436  156.9490 H   0  0  0  0  0  0  0  0  0  0  0  0  # atno 8009 bound_to 7997
  154.4696  140.0905  156.7089 H   0  0  0  0  0  0  0  0  0  0  0  0  # atno 8010 bound_to 7997
  139.8639  143.7042  152.2647 H   0  0  0  0  0  0  0  0  0  0  0  0  # atno 10167 bound_to 10162
  156.3055  130.7453  151.1515 H   0  0  0  0  0  0  0  0  0  0  0  0  # atno 10718 bound_to 10713
  152.9787  135.5826  154.4511 H   0  0  0  0  0  0  0  0  0  0  0  0  # atno 10763 bound_to 10752
  154.4100  135.2770  155.2045 H   0  0  0  0  0  0  0  0  0  0  0  0  # atno 10764 bound_to 10752
  154.3839  135.6140  153.5860 H   0  0  0  0  0  0  0  0  0  0  0  0  # atno 10765 bound_to 10752
  140.7754  133.8405  155.9244 H   0  0  0  0  0  0  0  0  0  0  0  0  # atno 11005 bound_to 11000
  145.3744  139.1651  143.4314 LP  0  0  0  0  0  0  0  0  0  0  0  0  # atno 17320 bound_to 7965
  146.3067  140.3819  142.8685 LP  0  0  0  0  0  0  0  0  0  0  0  0  # atno 17321 bound_to 7965
  139.7347  144.7574  151.0746 LP  0  0  0  0  0  0  0  0  0  0  0  0  # atno 17342 bound_to 10162
  140.7771  143.5045  150.9730 LP  0  0  0  0  0  0  0  0  0  0  0  0  # atno 17343 bound_to 10162
  157.7378  131.0547  150.5330 LP  0  0  0  0  0  0  0  0  0  0  0  0  # atno 17370 bound_to 10713
  156.5463  130.4220  149.6129 LP  0  0  0  0  0  0  0  0  0  0  0  0  # atno 17371 bound_to 10713
  140.9534  134.1749  157.4710 LP  0  0  0  0  0  0  0  0  0  0  0  0  # atno 17394 bound_to 11000
  139.8750  134.9918  156.5565 LP  0  0  0  0  0  0  0  0  0  0  0  0  # atno 17395 bound_to 11000

$$$$
