#       Name:                AV-unprocessed.smi:1768
#       Creating user name   scv26
#       Creation time:       Fri Mar 27 08:38:26 2020


#       File generated by GOLD software.
#

@<TRIPOS>MOLECULE
AV-unprocessed.smi:1768
    39    40     1
SMALL
NO_CHARGES


@<TRIPOS>ATOM
      1 ****        -6.4709   2.7321  -0.6719 C.3            1 S1                 0.0000
      2 ****        -5.0413   2.3105  -0.6945 C.2            1 S1                 0.0000
      3 ****        -4.0270   3.1829  -0.7393 N.2            1 S1                 0.0000
      4 ****        -2.7907   2.5523  -0.7509 N.2            1 S1                 0.0000
      5 ****        -2.9097   1.2179  -0.7150 C.2            1 S1                 0.0000
      6 ****        -1.8051   0.3257  -0.7169 N.am           1 S1                 0.0000
      7 ****        -0.4938   0.6215  -0.7424 C.2            1 S1                 0.0000
      8 ****        -0.0223   1.7585  -0.7690 O.2            1 S1                 0.0000
      9 ****         0.2509  -0.4940  -0.7342 N.am           1 S1                 0.0000
     10 ****         1.7112  -0.5499  -0.7313 C.3            1 S1                 0.0000
     11 ****         2.1821  -1.2666  -2.0061 C.3            1 S1                 0.0000
     12 ****         2.1910  -1.2554   0.5518 C.3            1 S1                 0.0000
     13 ****         3.7103  -1.3048   0.7258 C.3            1 S1                 0.0000
     14 ****         3.9029  -1.3812   2.2333 C.3            1 S1                 0.0000
     15 ****         2.5251  -1.0379   2.8050 C.3            1 S1                 0.0000
     16 ****         1.7879  -0.5296   1.7033 O.3            1 S1                 0.0000
     17 ****        -4.5591   0.6189  -0.6649 S.3            1 S1                 0.0000
     18 ****        -6.5525   3.8196  -0.6609 H              1 S1                 0.0000
     19 ****        -6.9615   2.3366   0.2176 H              1 S1                 0.0000
     20 ****        -6.9850   2.3519  -1.5548 H              1 S1                 0.0000
     21 ****        -2.0415  -0.6549  -0.6925 H              1 S1                 0.0000
     22 ****        -0.2306  -1.3807  -0.7114 H              1 S1                 0.0000
     23 ****         2.1282   0.4587  -0.7427 H              1 S1                 0.0000
     24 ****         3.2700  -1.2956  -2.0668 H              1 S1                 0.0000
     25 ****         1.8213  -0.7541  -2.8987 H              1 S1                 0.0000
     26 ****         1.8187  -2.2941  -2.0417 H              1 S1                 0.0000
     27 ****         1.7785  -2.2649   0.6112 H              1 S1                 0.0000
     28 ****         4.1648  -2.1445   0.1993 H              1 S1                 0.0000
     29 ****         4.1640  -0.3870   0.3489 H              1 S1                 0.0000
     30 ****         4.2166  -2.3763   2.5504 H              1 S1                 0.0000
     31 ****         4.6613  -0.6694   2.5611 H              1 S1                 0.0000
     32 ****         2.0317  -1.9348   3.1827 H              1 S1                 0.0000
     33 ****         2.5754  -0.3101   3.6149 H              1 S1                 0.0000
     34 ****        -4.1464   4.1755  -0.7618 LP             1 S1                 0.0000
     35 ****        -1.9159   3.0357  -0.7823 LP             1 S1                 0.0000
     36 ****        -0.6307   2.5521  -0.7729 LP             1 S1                 0.0000
     37 ****         0.9690   1.8884  -0.7867 LP             1 S1                 0.0000
     38 ****         0.8083  -0.6547   1.8606 LP             1 S1                 0.0000
     39 ****         1.9842   0.4432   1.5803 LP             1 S1                 0.0000
@<TRIPOS>BOND
    1    1    2 1     
    2    1   18 1     
    3    1   19 1     
    4    1   20 1     
    5    2   17 1     
    6    2    3 2     
    7    3    4 1     
    8    4    5 2     
    9    5    6 1     
   10    5   17 1     
   11    6    7 am    
   12    6   21 1     
   13    7    8 2     
   14    7    9 am    
   15    9   10 1     
   16    9   22 1     
   17   10   11 1     
   18   10   12 1     
   19   10   23 1     
   20   11   24 1     
   21   11   25 1     
   22   11   26 1     
   23   12   16 1     
   24   12   13 1     
   25   12   27 1     
   26   13   14 1     
   27   13   28 1     
   28   13   29 1     
   29   14   15 1     
   30   14   30 1     
   31   14   31 1     
   32   15   16 1     
   33   15   32 1     
   34   15   33 1     
   35    3   34 1     
   36    4   35 1     
   37    8   36 1     
   38    8   37 1     
   39   16   38 1     
   40   16   39 1     
@<TRIPOS>SUBSTRUCTURE
      1 S1             1
@<TRIPOS>SET
LONE_PAIRS      STATIC     ATOMS    <user>   **** ""
6 34 35 36 37 38 39
DONOR_HYDROGENS      STATIC     ATOMS    <user>   **** ""
2 21 22
ATOM$BLUE        STATIC     ATOMS    COLORGROUP SYSTEM
6 34 35 36 37 38 39
ATOM$RED        STATIC     ATOMS    COLORGROUP SYSTEM
2 21 22
