#       Name:                AV-unprocessed.smi:3030
#       Creating user name   scv26
#       Creation time:       Fri Mar 27 16:48:09 2020


#       File generated by GOLD software.
#

@<TRIPOS>MOLECULE
AV-unprocessed.smi:3030
    56    57     1
SMALL
NO_CHARGES


@<TRIPOS>ATOM
      1 ****        -3.5188   5.4972   0.6171 C.3            1 S1                 0.0000
      2 ****        -3.7313   4.5331   1.7895 C.3            1 S1                 0.0000
      3 ****        -3.9417   3.1665   1.3335 N.pl3          1 S1                 0.0000
      4 ****        -5.2209   2.6731   1.0986 C.2            1 S1                 0.0000
      5 ****        -5.4853   1.4037   0.7336 C.2            1 S1                 0.0000
      6 ****        -4.3694   0.4505   0.5690 C.2            1 S1                 0.0000
      7 ****        -4.5751  -0.7178   0.2402 O.2            1 S1                 0.0000
      8 ****        -3.0022   0.9770   0.8214 C.2            1 S1                 0.0000
      9 ****        -1.9463   0.0623   0.6795 N.am           1 S1                 0.0000
     10 ****        -0.6223   0.2959   0.6335 C.2            1 S1                 0.0000
     11 ****        -0.0843   1.4026   0.6601 O.2            1 S1                 0.0000
     12 ****         0.0614  -0.8532   0.5338 N.am           1 S1                 0.0000
     13 ****         1.5133  -0.9713   0.4369 C.3            1 S1                 0.0000
     14 ****         1.9945  -2.3354   0.9662 C.3            1 S1                 0.0000
     15 ****         3.5333  -2.3781   1.0620 C.3            1 S1                 0.0000
     16 ****         4.0298  -3.7498   1.5399 C.3            1 S1                 0.0000
     17 ****         4.1857  -1.9747  -0.2764 C.3            1 S1                 0.0000
     18 ****         3.6349  -0.6344  -0.8017 C.3            1 S1                 0.0000
     19 ****         2.0953  -0.6649  -0.9767 C.3            1 S1                 0.0000
     20 ****         1.6267  -1.5977  -2.1494 C.3            1 S1                 0.0000
     21 ****         2.3618  -1.2964  -3.4714 C.3            1 S1                 0.0000
     22 ****         0.1112  -1.5476  -2.4272 C.3            1 S1                 0.0000
     23 ****        -2.8779   2.2780   1.1891 C.2            1 S1                 0.0000
     24 ****        -3.3648   6.5149   0.9759 H              1 S1                 0.0000
     25 ****        -4.3830   5.5061  -0.0477 H              1 S1                 0.0000
     26 ****        -2.6451   5.2152   0.0286 H              1 S1                 0.0000
     27 ****        -2.8693   4.5666   2.4571 H              1 S1                 0.0000
     28 ****        -4.5887   4.8545   2.3823 H              1 S1                 0.0000
     29 ****        -6.0094   3.4007   1.2271 H              1 S1                 0.0000
     30 ****        -6.4960   1.0661   0.5580 H              1 S1                 0.0000
     31 ****        -2.2362  -0.8999   0.5815 H              1 S1                 0.0000
     32 ****        -0.4633  -1.7152   0.5134 H              1 S1                 0.0000
     33 ****         1.9137  -0.2235   1.1251 H              1 S1                 0.0000
     34 ****         1.5692  -2.5156   1.9546 H              1 S1                 0.0000
     35 ****         1.6299  -3.1412   0.3287 H              1 S1                 0.0000
     36 ****         3.8375  -1.6437   1.8094 H              1 S1                 0.0000
     37 ****         3.7541  -4.5376   0.8382 H              1 S1                 0.0000
     38 ****         3.6044  -4.0052   2.5108 H              1 S1                 0.0000
     39 ****         5.1151  -3.7603   1.6430 H              1 S1                 0.0000
     40 ****         5.2657  -1.8965  -0.1486 H              1 S1                 0.0000
     41 ****         4.0269  -2.7563  -1.0197 H              1 S1                 0.0000
     42 ****         3.8965   0.1515  -0.0916 H              1 S1                 0.0000
     43 ****         4.1421  -0.3487  -1.7216 H              1 S1                 0.0000
     44 ****         1.7936   0.3491  -1.2437 H              1 S1                 0.0000
     45 ****         1.8634  -2.6303  -1.8960 H              1 S1                 0.0000
     46 ****         2.2664  -0.2461  -3.7484 H              1 S1                 0.0000
     47 ****         1.9607  -1.8910  -4.2927 H              1 S1                 0.0000
     48 ****         3.4221  -1.5397  -3.4162 H              1 S1                 0.0000
     49 ****        -0.2438  -0.5210  -2.5229 H              1 S1                 0.0000
     50 ****        -0.4634  -2.0407  -1.6455 H              1 S1                 0.0000
     51 ****        -0.1410  -2.0689  -3.3509 H              1 S1                 0.0000
     52 ****        -1.9273   2.7357   1.4126 H              1 S1                 0.0000
     53 ****        -5.5099  -1.0349   0.0799 LP             1 S1                 0.0000
     54 ****        -3.8075  -1.3497   0.1333 LP             1 S1                 0.0000
     55 ****        -0.6438   2.2292   0.7209 LP             1 S1                 0.0000
     56 ****         0.9122   1.4752   0.6208 LP             1 S1                 0.0000
@<TRIPOS>BOND
    1    1    2 1     
    2    1   24 1     
    3    1   25 1     
    4    1   26 1     
    5    2    3 1     
    6    2   27 1     
    7    2   28 1     
    8    3   23 1     
    9    3    4 1     
   10    4    5 2     
   11    4   29 1     
   12    5    6 1     
   13    5   30 1     
   14    6    7 2     
   15    6    8 1     
   16    8    9 1     
   17    8   23 2     
   18    9   10 am    
   19    9   31 1     
   20   10   11 2     
   21   10   12 am    
   22   12   13 1     
   23   12   32 1     
   24   13   19 1     
   25   13   14 1     
   26   13   33 1     
   27   14   15 1     
   28   14   34 1     
   29   14   35 1     
   30   15   16 1     
   31   15   17 1     
   32   15   36 1     
   33   16   37 1     
   34   16   38 1     
   35   16   39 1     
   36   17   18 1     
   37   17   40 1     
   38   17   41 1     
   39   18   19 1     
   40   18   42 1     
   41   18   43 1     
   42   19   20 1     
   43   19   44 1     
   44   20   21 1     
   45   20   22 1     
   46   20   45 1     
   47   21   46 1     
   48   21   47 1     
   49   21   48 1     
   50   22   49 1     
   51   22   50 1     
   52   22   51 1     
   53   23   52 1     
   54    7   53 1     
   55    7   54 1     
   56   11   55 1     
   57   11   56 1     
@<TRIPOS>SUBSTRUCTURE
      1 S1             1
@<TRIPOS>SET
LONE_PAIRS      STATIC     ATOMS    <user>   **** ""
4 53 54 55 56
DONOR_HYDROGENS      STATIC     ATOMS    <user>   **** ""
2 31 32
ATOM$BLUE        STATIC     ATOMS    COLORGROUP SYSTEM
4 53 54 55 56
ATOM$RED        STATIC     ATOMS    COLORGROUP SYSTEM
2 31 32
