#       Name:                AV-unprocessed.smi:292
#       Creating user name   scv26
#       Creation time:       Thu Mar 26 22:13:28 2020


#       File generated by GOLD software.
#

@<TRIPOS>MOLECULE
AV-unprocessed.smi:292
    40    41     1
SMALL
NO_CHARGES


@<TRIPOS>ATOM
      1 ****        -5.0885   1.7391  -3.5669 N.1            1 S1                 0.0000
      2 ****        -4.1736   1.0386  -3.4601 C.1            1 S1                 0.0000
      3 ****        -3.0249   0.1589  -3.3259 C.2            1 S1                 0.0000
      4 ****        -3.1742  -1.1776  -3.0937 N.2            1 S1                 0.0000
      5 ****        -1.8937  -1.5228  -3.0474 C.2            1 S1                 0.0000
      6 ****        -1.0485  -0.5026  -3.2300 N.pl3          1 S1                 0.0000
      7 ****         0.4060  -0.4703  -3.2268 C.3            1 S1                 0.0000
      8 ****         1.0030  -0.0171  -1.8863 C.2            1 S1                 0.0000
      9 ****         2.1335   0.4681  -1.8640 O.2            1 S1                 0.0000
     10 ****         0.2593  -0.1900  -0.7802 N.am           1 S1                 0.0000
     11 ****         0.6314   0.1901   0.5810 C.3            1 S1                 0.0000
     12 ****         1.5434  -0.8903   1.2181 C.3            1 S1                 0.0000
     13 ****         1.5078  -0.9889   2.7575 C.3            1 S1                 0.0000
     14 ****         1.7977   0.3229   3.5145 C.3            1 S1                 0.0000
     15 ****         0.9274   1.5460   3.1403 C.3            1 S1                 0.0000
     16 ****        -0.3852   1.2048   2.5933 N.am           1 S1                 0.0000
     17 ****        -0.6003   0.5984   1.4130 C.2            1 S1                 0.0000
     18 ****        -1.7389   0.3578   1.0127 O.2            1 S1                 0.0000
     19 ****        -1.7805   0.6225  -3.4216 N.2            1 S1                 0.0000
     20 ****        -1.5645  -2.5359  -2.8684 H              1 S1                 0.0000
     21 ****         0.7791  -1.4675  -3.4627 H              1 S1                 0.0000
     22 ****         0.7443   0.1953  -4.0223 H              1 S1                 0.0000
     23 ****        -0.6606  -0.5918  -0.8917 H              1 S1                 0.0000
     24 ****         1.2229   1.1020   0.4880 H              1 S1                 0.0000
     25 ****         1.2700  -1.8701   0.8241 H              1 S1                 0.0000
     26 ****         2.5704  -0.7213   0.8920 H              1 S1                 0.0000
     27 ****         0.5394  -1.3801   3.0725 H              1 S1                 0.0000
     28 ****         2.2309  -1.7407   3.0748 H              1 S1                 0.0000
     29 ****         1.6687   0.1222   4.5786 H              1 S1                 0.0000
     30 ****         2.8485   0.5888   3.3944 H              1 S1                 0.0000
     31 ****         0.7816   2.1712   4.0215 H              1 S1                 0.0000
     32 ****         1.4580   2.1776   2.4269 H              1 S1                 0.0000
     33 ****        -1.1912   1.4628   3.1444 H              1 S1                 0.0000
     34 ****        -5.8791   2.3444  -3.6592 LP             1 S1                 0.0000
     35 ****        -4.0006  -1.7309  -2.9896 LP             1 S1                 0.0000
     36 ****         2.6534   0.5638  -2.7129 LP             1 S1                 0.0000
     37 ****         2.5325   0.7667  -0.9970 LP             1 S1                 0.0000
     38 ****        -1.8734  -0.1079   0.1380 LP             1 S1                 0.0000
     39 ****        -2.5295   0.6280   1.5621 LP             1 S1                 0.0000
     40 ****        -1.4673   1.5570  -3.5907 LP             1 S1                 0.0000
@<TRIPOS>BOND
    1    1    2 3     
    2    2    3 1     
    3    3   19 2     
    4    3    4 1     
    5    4    5 2     
    6    5    6 1     
    7    5   20 1     
    8    6    7 1     
    9    6   19 1     
   10    7    8 1     
   11    7   21 1     
   12    7   22 1     
   13    8    9 2     
   14    8   10 am    
   15   10   11 1     
   16   10   23 1     
   17   11   17 1     
   18   11   12 1     
   19   11   24 1     
   20   12   13 1     
   21   12   25 1     
   22   12   26 1     
   23   13   14 1     
   24   13   27 1     
   25   13   28 1     
   26   14   15 1     
   27   14   29 1     
   28   14   30 1     
   29   15   16 1     
   30   15   31 1     
   31   15   32 1     
   32   16   17 am    
   33   16   33 1     
   34   17   18 2     
   35    1   34 1     
   36    4   35 1     
   37    9   36 1     
   38    9   37 1     
   39   18   38 1     
   40   18   39 1     
   41   19   40 1     
@<TRIPOS>SUBSTRUCTURE
      1 S1             1
@<TRIPOS>SET
LONE_PAIRS      STATIC     ATOMS    <user>   **** ""
7 34 35 36 37 38 39 40
DONOR_HYDROGENS      STATIC     ATOMS    <user>   **** ""
2 23 33
ATOM$BLUE        STATIC     ATOMS    COLORGROUP SYSTEM
7 34 35 36 37 38 39 40
ATOM$RED        STATIC     ATOMS    COLORGROUP SYSTEM
2 23 33
