AV-unprocessed.smi:236|AV-procd|sdf|1810|dock1
  -GOLD-   2262020393D 1   1.00000     0.00000
 Structure written by MMmdl.
 58 62  0  0  0  0  0  0  0  0  1 V2000
  146.0987  137.9972  161.8481 C   0  0  0  0  0  0  0  0  0  0  0  0
  145.6696  136.6395  161.2687 C   0  0  1  0  0  0  0  0  0  0  0  0
  144.6463  136.0926  162.0950 O   0  0  0  0  0  0  0  0  0  0  0  0
  143.8128  135.2735  161.2951 C   0  0  0  0  0  0  0  0  0  0  0  0
  143.6814  136.0958  160.0237 C   0  0  0  0  0  0  0  0  0  0  0  0
  145.0949  136.6461  159.8243 C   0  0  1  0  0  0  0  0  0  0  0  0
  144.9902  137.9531  159.2840 O   0  0  0  0  0  0  0  0  0  0  0  0
  145.9727  135.7901  158.8734 C   0  0  0  0  0  0  0  0  0  0  0  0
  147.1845  136.4537  158.4149 N   0  0  0  0  0  0  0  0  0  0  0  0
  147.9302  137.3833  159.1051 C   0  0  0  0  0  0  0  0  0  0  0  0
  148.9804  137.8340  158.4747 N   0  0  0  0  0  0  0  0  0  0  0  0
  148.9694  137.1496  157.2652 C   0  0  0  0  0  0  0  0  0  0  0  0
  149.8063  137.1466  156.1134 C   0  0  0  0  0  0  0  0  0  0  0  0
  150.9061  137.9118  155.9547 N   0  0  0  0  0  0  0  0  0  0  0  0
  151.4142  137.9161  154.5898 C   0  0  0  0  0  0  0  0  0  0  0  0
  152.7516  138.6713  154.5347 C   0  0  0  0  0  0  0  0  0  0  0  0
  152.5779  139.9805  155.0686 O   0  0  0  0  0  0  0  0  0  0  0  0
  152.1702  139.9627  156.4358 C   0  0  1  0  0  0  0  0  0  0  0  0
  152.0892  141.4128  156.9294 C   0  0  0  0  0  0  0  0  0  0  0  0
  152.2450  141.4294  158.3386 O   0  0  0  0  0  0  0  0  0  0  0  0
  151.8569  142.6630  158.9171 C   0  0  0  0  0  0  0  0  0  0  0  0
  152.8905  143.0720  159.9449 C   0  0  0  0  0  0  0  0  0  0  0  0
  152.6679  142.8005  161.4158 C   0  0  0  0  0  0  0  0  0  0  0  0
  152.6099  144.2138  160.8955 C   0  0  0  0  0  0  0  0  0  0  0  0
  150.8075  139.2488  156.5271 C   0  0  0  0  0  0  0  0  0  0  0  0
  149.4723  136.3291  155.0852 N   0  0  0  0  0  0  0  0  0  0  0  0
  148.3893  135.5509  155.1756 C   0  0  0  0  0  0  0  0  0  0  0  0
  147.5187  135.4446  156.1821 N   0  0  0  0  0  0  0  0  0  0  0  0
  147.8494  136.2730  157.2144 C   0  0  0  0  0  0  0  0  0  0  0  0
  146.8915  138.4479  161.2508 H   0  0  0  0  0  0  0  0  0  0  0  0
  146.4765  137.8820  162.8642 H   0  0  0  0  0  0  0  0  0  0  0  0
  145.2626  138.6962  161.8859 H   0  0  0  0  0  0  0  0  0  0  0  0
  146.5196  135.9578  161.3243 H   0  0  0  0  0  0  0  0  0  0  0  0
  144.3023  134.3179  161.0999 H   0  0  0  0  0  0  0  0  0  0  0  0
  142.8535  135.0827  161.7764 H   0  0  0  0  0  0  0  0  0  0  0  0
  143.2921  135.5205  159.1856 H   0  0  0  0  0  0  0  0  0  0  0  0
  142.9769  136.9082  160.2109 H   0  0  0  0  0  0  0  0  0  0  0  0
  144.1330  138.2933  159.4893 H   0  0  0  0  0  0  0  0  0  0  0  0
  146.2636  134.8631  159.3692 H   0  0  0  0  0  0  0  0  0  0  0  0
  145.3967  135.4943  157.9957 H   0  0  0  0  0  0  0  0  0  0  0  0
  147.6653  137.7235  160.0957 H   0  0  0  0  0  0  0  0  0  0  0  0
  151.5474  136.8927  154.2370 H   0  0  0  0  0  0  0  0  0  0  0  0
  150.6913  138.3955  153.9287 H   0  0  0  0  0  0  0  0  0  0  0  0
  153.5238  138.1387  155.0921 H   0  0  0  0  0  0  0  0  0  0  0  0
  153.0982  138.7492  153.5043 H   0  0  0  0  0  0  0  0  0  0  0  0
  152.9047  139.4209  157.0348 H   0  0  0  0  0  0  0  0  0  0  0  0
  152.8516  142.0242  156.4439 H   0  0  0  0  0  0  0  0  0  0  0  0
  151.1163  141.8375  156.6763 H   0  0  0  0  0  0  0  0  0  0  0  0
  151.7949  143.4366  158.1503 H   0  0  0  0  0  0  0  0  0  0  0  0
  150.8770  142.5777  159.3896 H   0  0  0  0  0  0  0  0  0  0  0  0
  153.9167  143.0002  159.5895 H   0  0  0  0  0  0  0  0  0  0  0  0
  151.7294  142.3346  161.7103 H   0  0  0  0  0  0  0  0  0  0  0  0
  153.5349  142.5174  162.0094 H   0  0  0  0  0  0  0  0  0  0  0  0
  153.4376  144.8749  161.1441 H   0  0  0  0  0  0  0  0  0  0  0  0
  151.6325  144.6898  160.8436 H   0  0  0  0  0  0  0  0  0  0  0  0
  150.0535  139.8295  155.9950 H   0  0  0  0  0  0  0  0  0  0  0  0
  150.4881  139.1799  157.5679 H   0  0  0  0  0  0  0  0  0  0  0  0
  148.1911  134.9250  154.3180 H   0  0  0  0  0  0  0  0  0  0  0  0
  1  2  1  0  0  0  0
  1 30  1  0  0  0  0
  1 31  1  0  0  0  0
  1 32  1  0  0  0  0
  2  6  1  0  0  0  0
  2  3  1  0  0  0  0
  2 33  1  0  0  0  0
  3  4  1  0  0  0  0
  4  5  1  0  0  0  0
  4 34  1  0  0  0  0
  4 35  1  0  0  0  0
  5  6  1  0  0  0  0
  5 36  1  0  0  0  0
  5 37  1  0  0  0  0
  6  7  1  0  0  0  0
  6  8  1  0  0  0  0
  7 38  1  0  0  0  0
  8  9  1  0  0  0  0
  8 39  1  0  0  0  0
  8 40  1  0  0  0  0
  9 29  1  0  0  0  0
  9 10  1  0  0  0  0
 10 11  2  0  0  0  0
 10 41  1  0  0  0  0
 11 12  1  0  0  0  0
 12 29  2  0  0  0  0
 12 13  1  0  0  0  0
 13 14  1  0  0  0  0
 13 26  2  0  0  0  0
 14 25  1  0  0  0  0
 14 15  1  0  0  0  0
 15 16  1  0  0  0  0
 15 42  1  0  0  0  0
 15 43  1  0  0  0  0
 16 17  1  0  0  0  0
 16 44  1  0  0  0  0
 16 45  1  0  0  0  0
 17 18  1  0  0  0  0
 18 19  1  0  0  0  0
 18 25  1  0  0  0  0
 18 46  1  0  0  0  0
 19 20  1  0  0  0  0
 19 47  1  0  0  0  0
 19 48  1  0  0  0  0
 20 21  1  0  0  0  0
 21 22  1  0  0  0  0
 21 49  1  0  0  0  0
 21 50  1  0  0  0  0
 22 24  1  0  0  0  0
 22 23  1  0  0  0  0
 22 51  1  0  0  0  0
 23 24  1  0  0  0  0
 23 52  1  0  0  0  0
 23 53  1  0  0  0  0
 24 54  1  0  0  0  0
 24 55  1  0  0  0  0
 25 56  1  0  0  0  0
 25 57  1  0  0  0  0
 26 27  1  0  0  0  0
 27 28  2  0  0  0  0
 27 58  1  0  0  0  0
 28 29  1  0  0  0  0
M  END
> <s_m_source_file>
AV-unprocessed.smi

> <i_m_source_file_index>
236

> <i_lp_mmshare_version>
43012

> <i_f3d_flags>
0

> <s_epik_input>
W0NIMl0xW0NIMl1PW0NAQEhdKFtDSDNdKVtDQEBdMShbT0hdKVtDSDJdbihbY0hdbjIpYyhjMjMpbltjSF1uYzNONFtDSDJdW0NIMl1PW0NASF0oW0NIMl00KVtDSDJdT1tDSDJdW0NIXTVbQ0gyXVtDSDJdNQ==

> <s_epik_cmdline>
J2VwaWtfcHl0aG9uJywgJy1waCcsICc3LjAnLCAnLXRuJywgJzgnLCAnLW1hJywgJzIwMCcsICctbWV0YWxfYmluZGluZycsICctaW1hZScsICc8aW5maWxlLm1hZT4nLCAnLW9tYWUnLCAnPG91dGZpbGUubWFlPic=

> <r_lp_tautomer_probability>
1

> <r_epik_Ionization_Penalty>
7.21838e-05

> <r_epik_Ionization_Penalty_Charging>
0

> <r_epik_Ionization_Penalty_Neutral>
7.21838e-05

> <r_epik_State_Penalty>
-0

> <r_epik_Charging_Adjusted_Penalty>
0

> <i_epik_Tot_Q>
0

> <i_epik_Tot_abs_Q>
0

> <r_epik_Metal_State_Penalty>
-0

> <b_epik_Metal_Only>
0

> <s_lp_Force_Field>
OPLS_2005

> <r_lp_Energy>
50.1764

> <b_lp_Chiralities_Consistent>
1

> <s_lp_Variant>
AV-unprocessed.smi:236-2

> <Gold.Version>
5.8.1

> <Gold.Id.Protein>
6NUR|6NUR_protein|mol2

> <Gold.PLP.Fitness>
47.2647

> <Gold.PLP.PLP>
-47.6323

> <Gold.PLP.part.hbond>
-2.0000

> <Gold.PLP.part.metal>
0.0000

> <Gold.PLP.part.buried>
-8.8701

> <Gold.PLP.part.nonpolar>
-36.5646

> <Gold.PLP.part.repulsive>
0.1521

> <Gold.PLP.ligand.clash>
0.0000

> <Gold.PLP.ligand.torsion>
1.9401

> <Gold.PLP.Chemscore.Hbond>
0.8320

> <Gold.PLP.Chemscore.CHOScore>
0.0000

> <Gold.PLP.Chemscore.Metal>
0.0000

> <Gold.Chemscore.Hbonds>
donor molecule, donor type, donor heavy atom, donor atom, acceptor molecule, acceptor atom, score
      P1  H  7989  7998       L1    17  0.54
      P1  H  7997  8010       L1    17  0.27
      L1  C    27    58       P1  7948  0.11

> <Gold.PLP.Chemscore.Internal.Correction>
1.0167

> <Gold.Rescore>
     Score         DG    S(hbond)    S(metal)    S(lipo)     H(rot)  DE(clash)    DE(int)     intcor
     11.84     -14.93       0.72        0.00     122.95       2.87       0.18       2.91       ----

> <Gold.Chemscore.Fitness>
11.8399

> <Gold.Chemscore.DG>
-14.9329

> <Gold.Chemscore.ZeroCoef>
-5.4800

> <Gold.Chemscore.Hbond>
0.7196

> <Gold.Chemscore.Metal>
0.0000

> <Gold.Chemscore.Lipo>
122.9503

> <Gold.Chemscore.Internal_Hbond>
0.0000

> <Gold.Chemscore.DEClash>
0.1835

> <Gold.Chemscore.DEInternal>
2.9096

> <Gold.Chemscore.Rot>
2.8655

> <Gold.Chemscore.Internal.Correction>
   9.000000E+99

> <Gold.Chemscore.Hbonds>
donor molecule, donor type, donor heavy atom, donor atom, acceptor molecule, acceptor atom, score
      P1  H  7989  7998       L1    17  0.13

> <Gold.Chemscore.Hbond.Weighted>
-2.4035

> <Gold.Chemscore.Metal.Weighted>
-0.0000

> <Gold.Chemscore.Lipo.Weighted>
-14.3852

> <Gold.Chemscore.Internal_Hbond.Weighted>
0.0000

> <Gold.Chemscore.DEClash.Weighted>
0.1835

> <Gold.Chemscore.DEInternal.Weighted>
2.9096

> <Gold.Chemscore.Rot.Weighted>
7.3358

> <Gold.Chemscore.Internal.Correction.Weighted>
   9.000000E+99

> <Gold.Protein.RotatedTorsions>
[ 6907 6896 6895 6894 ] final   38.79 input  -60.11 | X-H torsion
[ 7974 7965 7964 7962 ] final  -94.14 input  175.53 | X-H torsion
[ 8008 7997 7996 7995 ] final  119.65 input   59.86 | X-H torsion
[ 10167 10162 10161 10158 ] final   93.15 input  -65.29 | X-H torsion
[ 10718 10713 10712 10709 ] final -160.52 input   66.30 | X-H torsion
[ 10763 10752 10751 10750 ] final  -75.83 input  -60.55 | X-H torsion
[ 11005 11000 10999 10996 ] final   55.97 input  -57.11 | X-H torsion

> <Gold.Protein.ActiveResidues>
 VAL166  LYS551  ARG553  GLY616  TRP617  ASP618  TYR619  PRO620  LYS621  CYS622 
 ASP623  PHE694  ASN695  SER759  ASP760  ASP761  ALA762  ILE779  LEU786  VAL792 
 PHE793  MET794  SER795  GLU796  ALA797  LYS798  CYS799  TRP800  GLU811  SER814 

> <Gold.Protein.RotatedAtoms>
  152.1611  134.8911  160.0541 H   0  0  0  0  0  0  0  0  0  0  0  0  # atno 6907 bound_to 6896
  151.9907  133.3785  159.4151 H   0  0  0  0  0  0  0  0  0  0  0  0  # atno 6908 bound_to 6896
  150.6888  134.3862  159.5100 H   0  0  0  0  0  0  0  0  0  0  0  0  # atno 6909 bound_to 6896
  145.3772  140.9513  143.2414 H   0  0  0  0  0  0  0  0  0  0  0  0  # atno 7974 bound_to 7965
  156.2606  140.2848  156.1024 H   0  0  0  0  0  0  0  0  0  0  0  0  # atno 8008 bound_to 7997
  155.1345  140.0394  157.2800 H   0  0  0  0  0  0  0  0  0  0  0  0  # atno 8009 bound_to 7997
  154.6575  140.2559  155.7151 H   0  0  0  0  0  0  0  0  0  0  0  0  # atno 8010 bound_to 7997
  139.8208  144.6732  150.9521 H   0  0  0  0  0  0  0  0  0  0  0  0  # atno 10167 bound_to 10162
  156.5834  130.8739  151.2870 H   0  0  0  0  0  0  0  0  0  0  0  0  # atno 10718 bound_to 10713
  154.4917  135.5818  153.6464 H   0  0  0  0  0  0  0  0  0  0  0  0  # atno 10763 bound_to 10752
  152.9863  135.6114  154.3116 H   0  0  0  0  0  0  0  0  0  0  0  0  # atno 10764 bound_to 10752
  154.3016  135.2846  155.2588 H   0  0  0  0  0  0  0  0  0  0  0  0  # atno 10765 bound_to 10752
  140.0565  134.5663  155.9202 H   0  0  0  0  0  0  0  0  0  0  0  0  # atno 11005 bound_to 11000
  144.8534  139.5287  143.6846 LP  0  0  0  0  0  0  0  0  0  0  0  0  # atno 17320 bound_to 7965
  146.2858  139.7002  142.9196 LP  0  0  0  0  0  0  0  0  0  0  0  0  # atno 17321 bound_to 7965
  140.7813  143.4094  151.1018 LP  0  0  0  0  0  0  0  0  0  0  0  0  # atno 17342 bound_to 10162
  139.7754  143.8433  152.3128 LP  0  0  0  0  0  0  0  0  0  0  0  0  # atno 17343 bound_to 10162
  157.7321  130.9710  150.1912 LP  0  0  0  0  0  0  0  0  0  0  0  0  # atno 17370 bound_to 10713
  156.2612  130.3711  149.8128 LP  0  0  0  0  0  0  0  0  0  0  0  0  # atno 17371 bound_to 10713
  141.1954  133.6587  156.5642 LP  0  0  0  0  0  0  0  0  0  0  0  0  # atno 17394 bound_to 11000
  140.3836  134.7502  157.4677 LP  0  0  0  0  0  0  0  0  0  0  0  0  # atno 17395 bound_to 11000

$$$$
