AV-unprocessed.smi:3111|AV-procd|sdf|11834|dock1
  -GOLD-   2272017203D 1   1.00000     0.00000
 Structure written by MMmdl.
 30 30  0  0  0  0  0  0  0  0  2 V2000
  148.7620  132.7870  153.1604 C   0  0  0  0  0  0  0  0  0  0  0  0
  148.0242  134.0307  153.3194 N   0  0  0  0  0  0  0  0  0  0  0  0
  147.2491  134.3178  154.3744 C   0  0  0  0  0  0  0  0  0  0  0  0
  147.0949  133.5498  155.3253 O   0  0  0  0  0  0  0  0  0  0  0  0
  146.5639  135.6902  154.3553 C   0  0  0  0  0  0  0  0  0  0  0  0
  147.4656  136.7687  153.9568 N   0  0  0  0  0  0  0  0  0  0  0  0
  147.3338  138.0566  154.3129 C   0  0  0  0  0  0  0  0  0  0  0  0
  146.4012  138.4726  155.0013 O   0  0  0  0  0  0  0  0  0  0  0  0
  148.4175  139.0208  153.8066 C   0  0  2  0  0  0  0  0  0  0  0  0
  149.8141  138.6840  154.3630 C   0  0  0  0  0  0  0  0  0  0  0  0
  148.0425  140.4176  154.0820 N   0  0  0  0  0  0  0  0  0  0  0  0
  146.9128  141.0669  153.6509 C   0  0  0  0  0  0  0  0  0  0  0  0
  146.9754  142.3417  154.1518 C   0  0  0  0  0  0  0  0  0  0  0  0
  148.1374  142.4189  154.8710 N   0  3  0  0  0  0  0  0  0  0  0  0
  148.7841  141.2497  154.8295 C   0  0  0  0  0  0  0  0  0  0  0  0
  149.2690  132.7756  152.1953 H   0  0  0  0  0  0  0  0  0  0  0  0
  148.0917  131.9273  153.2029 H   0  0  0  0  0  0  0  0  0  0  0  0
  149.5148  132.6814  153.9427 H   0  0  0  0  0  0  0  0  0  0  0  0
  148.1055  134.7141  152.5804 H   0  0  0  0  0  0  0  0  0  0  0  0
  145.7381  135.6539  153.6447 H   0  0  0  0  0  0  0  0  0  0  0  0
  146.1275  135.9058  155.3323 H   0  0  0  0  0  0  0  0  0  0  0  0
  148.2629  136.5083  153.3948 H   0  0  0  0  0  0  0  0  0  0  0  0
  148.4681  138.9193  152.7209 H   0  0  0  0  0  0  0  0  0  0  0  0
  150.0953  137.6580  154.1224 H   0  0  0  0  0  0  0  0  0  0  0  0
  149.8621  138.7933  155.4471 H   0  0  0  0  0  0  0  0  0  0  0  0
  150.5722  139.3386  153.9320 H   0  0  0  0  0  0  0  0  0  0  0  0
  146.1666  140.5868  153.0344 H   0  0  0  0  0  0  0  0  0  0  0  0
  146.2972  143.1769  154.0540 H   0  0  0  0  0  0  0  0  0  0  0  0
  149.7202  141.0216  155.3081 H   0  0  0  0  0  0  0  0  0  0  0  0
  148.4624  143.2403  155.3657 H   0  0  0  0  0  0  0  0  0  0  0  0
  1  2  1  0  0  0  0
  1 16  1  0  0  0  0
  1 17  1  0  0  0  0
  1 18  1  0  0  0  0
  2  3  1  0  0  0  0
  2 19  1  0  0  0  0
  3  4  2  0  0  0  0
  3  5  1  0  0  0  0
  5  6  1  0  0  0  0
  5 20  1  0  0  0  0
  5 21  1  0  0  0  0
  6  7  1  0  0  0  0
  6 22  1  0  0  0  0
  7  8  2  0  0  0  0
  7  9  1  0  0  0  0
  9 10  1  0  0  0  0
  9 11  1  0  0  0  0
  9 23  1  0  0  0  0
 10 24  1  0  0  0  0
 10 25  1  0  0  0  0
 10 26  1  0  0  0  0
 11 15  1  0  0  0  0
 11 12  1  0  0  0  0
 12 13  2  0  0  0  0
 12 27  1  0  0  0  0
 13 14  1  0  0  0  0
 13 28  1  0  0  0  0
 14 15  2  0  0  0  0
 14 30  1  0  0  0  0
 15 29  1  0  0  0  0
M  CHG  1  14   1
M  END
> <s_m_source_file>
AV-unprocessed.smi

> <i_m_source_file_index>
3111

> <i_lp_mmshare_version>
43012

> <i_f3d_flags>
0

> <s_epik_input>
W0NIM11bTkhdQyg9TylbQ0gyXVtOSF1DKD1PKVtDQEhdKFtDSDNdKW4xW2NIXVtjSF1uW2NIXTE=

> <s_epik_cmdline>
J2VwaWtfcHl0aG9uJywgJy1waCcsICc3LjAnLCAnLXRuJywgJzgnLCAnLW1hJywgJzIwMCcsICctbWV0YWxfYmluZGluZycsICctaW1hZScsICc8aW5maWxlLm1hZT4nLCAnLW9tYWUnLCAnPG91dGZpbGUubWFlPic=

> <r_lp_tautomer_probability>
1

> <r_epik_Ionization_Penalty>
0.581414

> <r_epik_Ionization_Penalty_Charging>
0

> <r_epik_Ionization_Penalty_Neutral>
0.581414

> <r_epik_State_Penalty>
0.594207

> <r_epik_Charging_Adjusted_Penalty>
0.594207

> <i_epik_Tot_Q>
1

> <i_epik_Tot_abs_Q>
1

> <r_epik_Metal_State_Penalty>
0.784638

> <b_epik_Metal_Only>
0

> <s_lp_Force_Field>
OPLS_2005

> <r_lp_Energy>
6.41512

> <b_lp_Chiralities_Consistent>
1

> <s_lp_Variant>
AV-unprocessed.smi:3111-3

> <Gold.Version>
5.8.1

> <Gold.Id.Protein>
6NUR|6NUR_protein|mol2

> <Gold.PLP.Fitness>
37.1946

> <Gold.PLP.PLP>
-23.0318

> <Gold.PLP.part.hbond>
-2.9615

> <Gold.PLP.part.metal>
0.0000

> <Gold.PLP.part.buried>
-3.1094

> <Gold.PLP.part.nonpolar>
-18.6812

> <Gold.PLP.part.repulsive>
0.2601

> <Gold.PLP.ligand.clash>
0.0000

> <Gold.PLP.ligand.torsion>
0.4704

> <Gold.PLP.Chemscore.Hbond>
4.0000

> <Gold.PLP.Chemscore.CHOScore>
1.0000

> <Gold.PLP.Chemscore.Metal>
0.0000

> <Gold.Chemscore.Hbonds>
donor molecule, donor type, donor heavy atom, donor atom, acceptor molecule, acceptor atom, score
      L1  H     2    19       P1  7948  0.99
      L1  H     6    22       P1  7948  1.00
      L1  H    14    30       P1  8028  2.00
      L1  C    12    27       P1 10175  0.97

> <Gold.PLP.Chemscore.Internal.Correction>
0.1035

> <Gold.Rescore>
     Score         DG    S(hbond)    S(metal)    S(lipo)     H(rot)  DE(clash)    DE(int)     intcor
     11.94     -12.75       2.72        0.00      35.51       2.33       0.03       0.79       ----

> <Gold.Chemscore.Fitness>
11.9383

> <Gold.Chemscore.DG>
-12.7535

> <Gold.Chemscore.ZeroCoef>
-5.4800

> <Gold.Chemscore.Hbond>
2.7204

> <Gold.Chemscore.Metal>
0.0000

> <Gold.Chemscore.Lipo>
35.5126

> <Gold.Chemscore.Internal_Hbond>
0.0000

> <Gold.Chemscore.DEClash>
0.0279

> <Gold.Chemscore.DEInternal>
0.7873

> <Gold.Chemscore.Rot>
2.3311

> <Gold.Chemscore.Internal.Correction>
   9.000000E+99

> <Gold.Chemscore.Hbonds>
donor molecule, donor type, donor heavy atom, donor atom, acceptor molecule, acceptor atom, score
      L1  H     2    19       P1  7948  0.57
      L1  H     6    22       P1  7948  0.94
      L1  H    14    30       P1  8028  0.94

> <Gold.Chemscore.Hbond.Weighted>
-9.0861

> <Gold.Chemscore.Metal.Weighted>
-0.0000

> <Gold.Chemscore.Lipo.Weighted>
-4.1550

> <Gold.Chemscore.Internal_Hbond.Weighted>
0.0000

> <Gold.Chemscore.DEClash.Weighted>
0.0279

> <Gold.Chemscore.DEInternal.Weighted>
0.7873

> <Gold.Chemscore.Rot.Weighted>
5.9676

> <Gold.Chemscore.Internal.Correction.Weighted>
   9.000000E+99

> <Gold.Protein.RotatedTorsions>
[ 6907 6896 6895 6894 ] final  -48.18 input  -60.11 | X-H torsion
[ 7974 7965 7964 7962 ] final   22.24 input  175.53 | X-H torsion
[ 8008 7997 7996 7995 ] final  105.80 input   59.86 | X-H torsion
[ 10167 10162 10161 10158 ] final  133.43 input  -65.29 | X-H torsion
[ 10718 10713 10712 10709 ] final  -76.06 input   66.30 | X-H torsion
[ 10763 10752 10751 10750 ] final   44.52 input  -60.55 | X-H torsion
[ 11005 11000 10999 10996 ] final   17.59 input  -57.11 | X-H torsion

> <Gold.Protein.ActiveResidues>
 VAL166  LYS551  ARG553  GLY616  TRP617  ASP618  TYR619  PRO620  LYS621  CYS622 
 ASP623  PHE694  ASN695  SER759  ASP760  ASP761  ALA762  ILE779  LEU786  VAL792 
 PHE793  MET794  SER795  GLU796  ALA797  LYS798  CYS799  TRP800  GLU811  SER814 

> <Gold.Protein.RotatedAtoms>
  150.8931  134.8337  159.7307 H   0  0  0  0  0  0  0  0  0  0  0  0  # atno 6907 bound_to 6896
  152.4849  134.4617  159.9617 H   0  0  0  0  0  0  0  0  0  0  0  0  # atno 6908 bound_to 6896
  151.4677  133.3538  159.2854 H   0  0  0  0  0  0  0  0  0  0  0  0  # atno 6909 bound_to 6896
  146.2037  139.7913  142.8742 H   0  0  0  0  0  0  0  0  0  0  0  0  # atno 7974 bound_to 7965
  156.1690  140.3124  155.8939 H   0  0  0  0  0  0  0  0  0  0  0  0  # atno 8008 bound_to 7997
  155.3627  140.0477  157.3063 H   0  0  0  0  0  0  0  0  0  0  0  0  # atno 8009 bound_to 7997
  154.5221  140.2202  155.8967 H   0  0  0  0  0  0  0  0  0  0  0  0  # atno 8010 bound_to 7997
  139.5297  144.6616  151.4994 H   0  0  0  0  0  0  0  0  0  0  0  0  # atno 10167 bound_to 10162
  156.0187  130.4456  150.3137 H   0  0  0  0  0  0  0  0  0  0  0  0  # atno 10718 bound_to 10713
  152.9840  135.6068  154.3288 H   0  0  0  0  0  0  0  0  0  0  0  0  # atno 10763 bound_to 10752
  154.2993  135.2773  155.2620 H   0  0  0  0  0  0  0  0  0  0  0  0  # atno 10764 bound_to 10752
  154.4880  135.5899  153.6494 H   0  0  0  0  0  0  0  0  0  0  0  0  # atno 10765 bound_to 10752
  140.4343  134.1388  155.7683 H   0  0  0  0  0  0  0  0  0  0  0  0  # atno 11005 bound_to 11000
  145.3394  141.0284  143.3401 LP  0  0  0  0  0  0  0  0  0  0  0  0  # atno 17320 bound_to 7965
  144.8743  139.4994  143.6753 LP  0  0  0  0  0  0  0  0  0  0  0  0  # atno 17321 bound_to 7965
  140.6467  143.8780  150.6744 LP  0  0  0  0  0  0  0  0  0  0  0  0  # atno 17342 bound_to 10162
  140.2132  143.3867  152.1702 LP  0  0  0  0  0  0  0  0  0  0  0  0  # atno 17343 bound_to 10162
  157.1239  131.0254  151.2998 LP  0  0  0  0  0  0  0  0  0  0  0  0  # atno 17370 bound_to 10713
  157.4606  130.7651  149.7232 LP  0  0  0  0  0  0  0  0  0  0  0  0  # atno 17371 bound_to 10713
  141.1732  133.8566  157.1504 LP  0  0  0  0  0  0  0  0  0  0  0  0  # atno 17394 bound_to 11000
  140.0113  134.9987  157.0401 LP  0  0  0  0  0  0  0  0  0  0  0  0  # atno 17395 bound_to 11000

$$$$
