AV-unprocessed.smi:1080|AV-procd|sdf|4706|dock4
  -GOLD-   22720 3233D 1   1.00000     0.00000
 Structure written by MMmdl.
 48 50  0  0  0  0  0  0  0  0  1 V2000
  150.1368  134.0431  155.7216 O   0  0  0  0  0  0  0  0  0  0  0  0
  149.7638  134.7363  154.7757 C   0  0  0  0  0  0  0  0  0  0  0  0
  148.9527  134.3314  153.7823 N   0  0  0  0  0  0  0  0  0  0  0  0
  148.3486  133.0604  153.5762 C   0  0  0  0  0  0  0  0  0  0  0  0
  149.0178  131.9303  154.0909 C   0  0  0  0  0  0  0  0  0  0  0  0
  148.4512  130.6553  153.8941 C   0  0  0  0  0  0  0  0  0  0  0  0
  147.2954  130.4522  153.2281 N   0  0  0  0  0  0  0  0  0  0  0  0
  146.6613  131.5326  152.7259 C   0  0  0  0  0  0  0  0  0  0  0  0
  147.1415  132.8503  152.8656 C   0  0  0  0  0  0  0  0  0  0  0  0
  150.1380  136.0121  154.5979 N   0  0  0  0  0  0  0  0  0  0  0  0
  151.0299  136.7734  155.4691 C   0  0  2  0  0  0  0  0  0  0  0  0
  150.4568  136.8173  156.8978 C   0  0  0  0  0  0  0  0  0  0  0  0
  151.3203  137.6882  157.8255 C   0  0  0  0  0  0  0  0  0  0  0  0
  151.4886  139.1165  157.2664 C   0  0  1  0  0  0  0  0  0  0  0  0
  152.3584  139.9717  158.2141 C   0  0  0  0  0  0  0  0  0  0  0  0
  153.5199  139.6147  158.4183 O   0  0  0  0  0  0  0  0  0  0  0  0
  151.8503  141.1001  158.7719 N   0  0  0  0  0  0  0  0  0  0  0  0
  152.6916  142.0642  159.4923 C   0  0  0  0  0  0  0  0  0  0  0  0
  152.9952  143.2512  158.5618 C   0  0  0  0  0  0  0  0  0  0  0  0
  151.4677  144.1178  158.0781 S   0  0  0  0  0  0  0  0  0  0  0  0
  150.4551  142.6977  157.5550 C   0  0  0  0  0  0  0  0  0  0  0  0
  150.4754  141.5921  158.6226 C   0  0  0  0  0  0  0  0  0  0  0  0
  152.0827  139.0548  155.8405 C   0  0  0  0  0  0  0  0  0  0  0  0
  151.2120  138.1959  154.9093 C   0  0  0  0  0  0  0  0  0  0  0  0
  148.7865  135.0066  153.0505 H   0  0  0  0  0  0  0  0  0  0  0  0
  149.9471  132.0333  154.6319 H   0  0  0  0  0  0  0  0  0  0  0  0
  148.9411  129.7745  154.2821 H   0  0  0  0  0  0  0  0  0  0  0  0
  145.7430  131.3419  152.1902 H   0  0  0  0  0  0  0  0  0  0  0  0
  146.5822  133.6574  152.4197 H   0  0  0  0  0  0  0  0  0  0  0  0
  149.7797  136.4983  153.7890 H   0  0  0  0  0  0  0  0  0  0  0  0
  152.0132  136.3014  155.5110 H   0  0  0  0  0  0  0  0  0  0  0  0
  149.4402  137.2127  156.8773 H   0  0  0  0  0  0  0  0  0  0  0  0
  150.3871  135.8071  157.3031 H   0  0  0  0  0  0  0  0  0  0  0  0
  150.8661  137.7199  158.8166 H   0  0  0  0  0  0  0  0  0  0  0  0
  152.2978  137.2197  157.9519 H   0  0  0  0  0  0  0  0  0  0  0  0
  150.5072  139.5747  157.1535 H   0  0  0  0  0  0  0  0  0  0  0  0
  152.1851  142.4112  160.3941 H   0  0  0  0  0  0  0  0  0  0  0  0
  153.6256  141.6211  159.8403 H   0  0  0  0  0  0  0  0  0  0  0  0
  153.6591  143.9611  159.0553 H   0  0  0  0  0  0  0  0  0  0  0  0
  153.5076  142.9064  157.6628 H   0  0  0  0  0  0  0  0  0  0  0  0
  149.4352  143.0410  157.3812 H   0  0  0  0  0  0  0  0  0  0  0  0
  150.8330  142.3200  156.6043 H   0  0  0  0  0  0  0  0  0  0  0  0
  149.7661  140.8023  158.3797 H   0  0  0  0  0  0  0  0  0  0  0  0
  150.1194  141.9933  159.5727 H   0  0  0  0  0  0  0  0  0  0  0  0
  152.1728  140.0605  155.4278 H   0  0  0  0  0  0  0  0  0  0  0  0
  153.0909  138.6378  155.8625 H   0  0  0  0  0  0  0  0  0  0  0  0
  151.6669  138.1520  153.9189 H   0  0  0  0  0  0  0  0  0  0  0  0
  150.2392  138.6731  154.7818 H   0  0  0  0  0  0  0  0  0  0  0  0
  1  2  2  0  0  0  0
  2  3  1  0  0  0  0
  2 10  1  0  0  0  0
  3  4  1  0  0  0  0
  3 25  1  0  0  0  0
  4  9  1  0  0  0  0
  4  5  2  0  0  0  0
  5  6  1  0  0  0  0
  5 26  1  0  0  0  0
  6  7  2  0  0  0  0
  6 27  1  0  0  0  0
  7  8  1  0  0  0  0
  8  9  2  0  0  0  0
  8 28  1  0  0  0  0
  9 29  1  0  0  0  0
 10 11  1  0  0  0  0
 10 30  1  0  0  0  0
 11 24  1  0  0  0  0
 11 12  1  0  0  0  0
 11 31  1  0  0  0  0
 12 13  1  0  0  0  0
 12 32  1  0  0  0  0
 12 33  1  0  0  0  0
 13 14  1  0  0  0  0
 13 34  1  0  0  0  0
 13 35  1  0  0  0  0
 14 15  1  0  0  0  0
 14 23  1  0  0  0  0
 14 36  1  0  0  0  0
 15 16  2  0  0  0  0
 15 17  1  0  0  0  0
 17 22  1  0  0  0  0
 17 18  1  0  0  0  0
 18 19  1  0  0  0  0
 18 37  1  0  0  0  0
 18 38  1  0  0  0  0
 19 20  1  0  0  0  0
 19 39  1  0  0  0  0
 19 40  1  0  0  0  0
 20 21  1  0  0  0  0
 21 22  1  0  0  0  0
 21 41  1  0  0  0  0
 21 42  1  0  0  0  0
 22 43  1  0  0  0  0
 22 44  1  0  0  0  0
 23 24  1  0  0  0  0
 23 45  1  0  0  0  0
 23 46  1  0  0  0  0
 24 47  1  0  0  0  0
 24 48  1  0  0  0  0
M  END
> <s_m_source_file>
AV-unprocessed.smi

> <i_m_source_file_index>
1080

> <i_lp_mmshare_version>
43012

> <i_f3d_flags>
0

> <s_epik_input>
W2NIXTFbY0hdbltjSF1bY0hdYzFbTkhdQyg9TylbTkhdW0NAQEhdMltDSDJdW0NIMl1bQ0BIXShbQ0gyXVtDSDJdMilDKD1PKU4zW0NIMl1bQ0gyXVNbQ0gyXVtDSDJdMw==

> <s_epik_cmdline>
J2VwaWtfcHl0aG9uJywgJy1waCcsICc3LjAnLCAnLXRuJywgJzgnLCAnLW1hJywgJzIwMCcsICctbWV0YWxfYmluZGluZycsICctaW1hZScsICc8aW5maWxlLm1hZT4nLCAnLW9tYWUnLCAnPG91dGZpbGUubWFlPic=

> <r_epik_Ionization_Penalty>
0.118325

> <r_epik_Ionization_Penalty_Charging>
0

> <r_epik_Ionization_Penalty_Neutral>
0.118325

> <r_epik_State_Penalty>
0.107868

> <r_epik_Charging_Adjusted_Penalty>
0.107868

> <i_epik_Tot_Q>
0

> <i_epik_Tot_abs_Q>
0

> <r_epik_Metal_State_Penalty>
0.0897632

> <b_epik_Metal_Only>
0

> <s_lp_Force_Field>
OPLS_2005

> <r_lp_Energy>
33.2651

> <b_lp_Chiralities_Consistent>
1

> <s_lp_Variant>
AV-unprocessed.smi:1080-1

> <Gold.Version>
5.8.1

> <Gold.Id.Protein>
6NUR|6NUR_protein|mol2

> <Gold.PLP.Fitness>
48.2598

> <Gold.PLP.PLP>
-40.3096

> <Gold.PLP.part.hbond>
-3.4747

> <Gold.PLP.part.metal>
0.0000

> <Gold.PLP.part.buried>
-3.4729

> <Gold.PLP.part.nonpolar>
-34.3980

> <Gold.PLP.part.repulsive>
0.2224

> <Gold.PLP.ligand.clash>
0.0000

> <Gold.PLP.ligand.torsion>
0.1894

> <Gold.PLP.Chemscore.Hbond>
2.7564

> <Gold.PLP.Chemscore.CHOScore>
0.0000

> <Gold.PLP.Chemscore.Metal>
0.0000

> <Gold.Chemscore.Hbonds>
donor molecule, donor type, donor heavy atom, donor atom, acceptor molecule, acceptor atom, score
      L1  H     3    25       P1  7948  1.00
      L1  H    10    30       P1  7948  0.76
      P1  H  7997  8008       L1    16  0.91

> <Gold.PLP.Chemscore.Internal.Correction>
0.0598

> <Gold.Rescore>
     Score         DG    S(hbond)    S(metal)    S(lipo)     H(rot)  DE(clash)    DE(int)     intcor
     20.13     -21.62       2.27        0.00     100.30       1.23       0.02       1.48       ----

> <Gold.Chemscore.Fitness>
20.1271

> <Gold.Chemscore.DG>
-21.6236

> <Gold.Chemscore.ZeroCoef>
-5.4800

> <Gold.Chemscore.Hbond>
2.2662

> <Gold.Chemscore.Metal>
0.0000

> <Gold.Chemscore.Lipo>
100.2952

> <Gold.Chemscore.Internal_Hbond>
0.0000

> <Gold.Chemscore.DEClash>
0.0153

> <Gold.Chemscore.DEInternal>
1.4812

> <Gold.Chemscore.Rot>
1.2344

> <Gold.Chemscore.Internal.Correction>
   9.000000E+99

> <Gold.Chemscore.Hbonds>
donor molecule, donor type, donor heavy atom, donor atom, acceptor molecule, acceptor atom, score
      L1  H     3    25       P1  7948  0.35
      L1  H    10    30       P1  7948  0.33
      P1  H  7997  8008       L1    16  0.89

> <Gold.Chemscore.Hbond.Weighted>
-7.5690

> <Gold.Chemscore.Metal.Weighted>
-0.0000

> <Gold.Chemscore.Lipo.Weighted>
-11.7345

> <Gold.Chemscore.Internal_Hbond.Weighted>
0.0000

> <Gold.Chemscore.DEClash.Weighted>
0.0153

> <Gold.Chemscore.DEInternal.Weighted>
1.4812

> <Gold.Chemscore.Rot.Weighted>
3.1600

> <Gold.Chemscore.Internal.Correction.Weighted>
   9.000000E+99

> <Gold.Protein.RotatedTorsions>
[ 6907 6896 6895 6894 ] final    1.66 input  -60.11 | X-H torsion
[ 7974 7965 7964 7962 ] final   67.58 input  175.53 | X-H torsion
[ 8008 7997 7996 7995 ] final -113.98 input   59.86 | X-H torsion
[ 10167 10162 10161 10158 ] final -172.21 input  -65.29 | X-H torsion
[ 10718 10713 10712 10709 ] final -171.81 input   66.30 | X-H torsion
[ 10763 10752 10751 10750 ] final  -98.86 input  -60.55 | X-H torsion
[ 11005 11000 10999 10996 ] final  -95.48 input  -57.11 | X-H torsion

> <Gold.Protein.ActiveResidues>
 VAL166  LYS551  ARG553  GLY616  TRP617  ASP618  TYR619  PRO620  LYS621  CYS622 
 ASP623  PHE694  ASN695  SER759  ASP760  ASP761  ALA762  ILE779  LEU786  VAL792 
 PHE793  MET794  SER795  GLU796  ALA797  LYS798  CYS799  TRP800  GLU811  SER814 

> <Gold.Protein.RotatedAtoms>
  151.5962  135.1050  160.0049 H   0  0  0  0  0  0  0  0  0  0  0  0  # atno 6907 bound_to 6896
  152.4281  133.7226  159.6552 H   0  0  0  0  0  0  0  0  0  0  0  0  # atno 6908 bound_to 6896
  150.8171  133.8246  159.3178 H   0  0  0  0  0  0  0  0  0  0  0  0  # atno 6909 bound_to 6896
  145.8130  139.3043  143.1088 H   0  0  0  0  0  0  0  0  0  0  0  0  # atno 7974 bound_to 7965
  155.0292  140.0393  157.2467 H   0  0  0  0  0  0  0  0  0  0  0  0  # atno 8008 bound_to 7997
  154.7311  140.2731  155.6432 H   0  0  0  0  0  0  0  0  0  0  0  0  # atno 8009 bound_to 7997
  156.2841  140.2684  156.2011 H   0  0  0  0  0  0  0  0  0  0  0  0  # atno 8010 bound_to 7997
  139.5758  144.1537  152.1448 H   0  0  0  0  0  0  0  0  0  0  0  0  # atno 10167 bound_to 10162
  156.7463  130.9361  151.3112 H   0  0  0  0  0  0  0  0  0  0  0  0  # atno 10718 bound_to 10713
  154.7450  135.4993  153.9188 H   0  0  0  0  0  0  0  0  0  0  0  0  # atno 10763 bound_to 10752
  153.1082  135.6702  153.9556 H   0  0  0  0  0  0  0  0  0  0  0  0  # atno 10764 bound_to 10752
  153.9322  135.3076  155.3424 H   0  0  0  0  0  0  0  0  0  0  0  0  # atno 10765 bound_to 10752
  141.1440  133.8029  157.0441 H   0  0  0  0  0  0  0  0  0  0  0  0  # atno 11005 bound_to 11000
  145.9757  140.8724  143.0140 LP  0  0  0  0  0  0  0  0  0  0  0  0  # atno 17320 bound_to 7965
  144.6755  140.2009  143.7387 LP  0  0  0  0  0  0  0  0  0  0  0  0  # atno 17321 bound_to 7965
  140.1079  144.5483  150.6944 LP  0  0  0  0  0  0  0  0  0  0  0  0  # atno 17342 bound_to 10162
  140.7040  143.2455  151.4780 LP  0  0  0  0  0  0  0  0  0  0  0  0  # atno 17343 bound_to 10162
  157.6797  130.9128  150.0236 LP  0  0  0  0  0  0  0  0  0  0  0  0  # atno 17370 bound_to 10713
  156.1431  130.3642  149.9552 LP  0  0  0  0  0  0  0  0  0  0  0  0  # atno 17371 bound_to 10713
  140.0674  134.9721  157.1409 LP  0  0  0  0  0  0  0  0  0  0  0  0  # atno 17394 bound_to 11000
  140.3760  134.2338  155.7174 LP  0  0  0  0  0  0  0  0  0  0  0  0  # atno 17395 bound_to 11000

$$$$
