AV-unprocessed.smi:826|AV-procd|sdf|3852|dock8
  -GOLD-   22720 1303D 1   1.00000     0.00000
 Structure written by MMmdl.
 39 40  0  0  0  0  0  0  0  0  1 V2000
  146.1636  133.9881  161.8023 C   0  0  0  0  0  0  0  0  0  0  0  0
  147.0195  135.0479  161.1978 C   0  0  0  0  0  0  0  0  0  0  0  0
  146.9132  136.3388  161.5347 N   0  0  0  0  0  0  0  0  0  0  0  0
  147.8095  137.1393  160.8402 N   0  0  0  0  0  0  0  0  0  0  0  0
  148.5685  136.4254  159.9976 C   0  0  0  0  0  0  0  0  0  0  0  0
  149.5632  136.9918  159.1578 N   0  0  0  0  0  0  0  0  0  0  0  0
  149.6096  138.2314  158.6394 C   0  0  0  0  0  0  0  0  0  0  0  0
  148.7795  139.1193  158.8380 O   0  0  0  0  0  0  0  0  0  0  0  0
  150.6927  138.3928  157.8644 N   0  0  0  0  0  0  0  0  0  0  0  0
  151.0532  139.6268  157.1682 C   0  0  2  0  0  0  0  0  0  0  0  0
  151.6692  139.2463  155.8115 C   0  0  0  0  0  0  0  0  0  0  0  0
  152.1061  140.4050  157.9723 C   0  0  0  0  0  0  0  0  0  0  0  0
  153.1526  139.8597  158.3272 O   0  0  0  0  0  0  0  0  0  0  0  0
  151.8158  141.6861  158.2444 N   0  0  0  0  0  0  0  0  0  0  0  0
  152.6694  142.5952  159.0035 C   0  0  0  0  0  0  0  0  0  0  0  0
  152.4673  142.4321  160.5250 C   0  0  0  0  0  0  0  0  0  0  0  0
  152.2399  143.8408  161.0766 C   0  0  0  0  0  0  0  0  0  0  0  0
  151.6009  144.5994  159.9179 C   0  0  0  0  0  0  0  0  0  0  0  0
  152.3206  144.0598  158.6820 C   0  0  0  0  0  0  0  0  0  0  0  0
  148.2490  134.6995  159.9883 S   0  0  0  0  0  0  0  0  0  0  0  0
  145.1166  134.2912  161.7791 H   0  0  0  0  0  0  0  0  0  0  0  0
  146.4577  133.8163  162.8379 H   0  0  0  0  0  0  0  0  0  0  0  0
  146.2672  133.0543  161.2493 H   0  0  0  0  0  0  0  0  0  0  0  0
  150.3238  136.3757  158.9123 H   0  0  0  0  0  0  0  0  0  0  0  0
  151.3270  137.6142  157.7630 H   0  0  0  0  0  0  0  0  0  0  0  0
  150.1645  140.2408  157.0079 H   0  0  0  0  0  0  0  0  0  0  0  0
  151.9615  140.1324  155.2466 H   0  0  0  0  0  0  0  0  0  0  0  0
  150.9528  138.6959  155.2006 H   0  0  0  0  0  0  0  0  0  0  0  0
  152.5540  138.6180  155.9272 H   0  0  0  0  0  0  0  0  0  0  0  0
  150.9335  142.0530  157.9176 H   0  0  0  0  0  0  0  0  0  0  0  0
  153.7128  142.4149  158.7381 H   0  0  0  0  0  0  0  0  0  0  0  0
  151.5858  141.8236  160.7341 H   0  0  0  0  0  0  0  0  0  0  0  0
  153.3159  141.9404  161.0014 H   0  0  0  0  0  0  0  0  0  0  0  0
  151.6222  143.8455  161.9748 H   0  0  0  0  0  0  0  0  0  0  0  0
  153.1988  144.2962  161.3284 H   0  0  0  0  0  0  0  0  0  0  0  0
  150.5386  144.3577  159.8611 H   0  0  0  0  0  0  0  0  0  0  0  0
  151.6935  145.6811  160.0199 H   0  0  0  0  0  0  0  0  0  0  0  0
  153.2429  144.6231  158.5336 H   0  0  0  0  0  0  0  0  0  0  0  0
  151.7264  144.1771  157.7747 H   0  0  0  0  0  0  0  0  0  0  0  0
  1  2  1  0  0  0  0
  1 21  1  0  0  0  0
  1 22  1  0  0  0  0
  1 23  1  0  0  0  0
  2 20  1  0  0  0  0
  2  3  2  0  0  0  0
  3  4  1  0  0  0  0
  4  5  2  0  0  0  0
  5  6  1  0  0  0  0
  5 20  1  0  0  0  0
  6  7  1  0  0  0  0
  6 24  1  0  0  0  0
  7  8  2  0  0  0  0
  7  9  1  0  0  0  0
  9 10  1  0  0  0  0
  9 25  1  0  0  0  0
 10 11  1  0  0  0  0
 10 12  1  0  0  0  0
 10 26  1  0  0  0  0
 11 27  1  0  0  0  0
 11 28  1  0  0  0  0
 11 29  1  0  0  0  0
 12 13  2  0  0  0  0
 12 14  1  0  0  0  0
 14 15  1  0  0  0  0
 14 30  1  0  0  0  0
 15 19  1  0  0  0  0
 15 16  1  0  0  0  0
 15 31  1  0  0  0  0
 16 17  1  0  0  0  0
 16 32  1  0  0  0  0
 16 33  1  0  0  0  0
 17 18  1  0  0  0  0
 17 34  1  0  0  0  0
 17 35  1  0  0  0  0
 18 19  1  0  0  0  0
 18 36  1  0  0  0  0
 18 37  1  0  0  0  0
 19 38  1  0  0  0  0
 19 39  1  0  0  0  0
M  END
> <s_m_source_file>
AV-unprocessed.smi

> <i_m_source_file_index>
826

> <i_lp_mmshare_version>
43012

> <i_f3d_flags>
0

> <s_epik_input>
W0NIM11jMW5uYyhzMSlbTkhdQyg9TylbTkhdW0NASF0oW0NIM10pQyg9TylbTkhdW0NIXTJbQ0gyXVtDSDJdW0NIMl1bQ0gyXTI=

> <s_epik_cmdline>
J2VwaWtfcHl0aG9uJywgJy1waCcsICc3LjAnLCAnLXRuJywgJzgnLCAnLW1hJywgJzIwMCcsICctbWV0YWxfYmluZGluZycsICctaW1hZScsICc8aW5maWxlLm1hZT4nLCAnLW9tYWUnLCAnPG91dGZpbGUubWFlPic=

> <r_lp_tautomer_probability>
1

> <r_epik_Ionization_Penalty>
0.00368568

> <r_epik_Ionization_Penalty_Charging>
0

> <r_epik_Ionization_Penalty_Neutral>
0.00368568

> <r_epik_State_Penalty>
-0

> <r_epik_Charging_Adjusted_Penalty>
0

> <i_epik_Tot_Q>
0

> <i_epik_Tot_abs_Q>
0

> <r_epik_Metal_State_Penalty>
0.369753

> <b_epik_Metal_Only>
0

> <s_lp_Force_Field>
OPLS_2005

> <r_lp_Energy>
15.7146

> <b_lp_Chiralities_Consistent>
1

> <s_lp_Variant>
AV-unprocessed.smi:826-1

> <Gold.Version>
5.8.1

> <Gold.Id.Protein>
6NUR|6NUR_protein|mol2

> <Gold.PLP.Fitness>
43.7305

> <Gold.PLP.PLP>
-37.3617

> <Gold.PLP.part.hbond>
-4.2380

> <Gold.PLP.part.metal>
0.0000

> <Gold.PLP.part.buried>
-2.6274

> <Gold.PLP.part.nonpolar>
-30.5732

> <Gold.PLP.part.repulsive>
0.3221

> <Gold.PLP.ligand.clash>
0.0000

> <Gold.PLP.ligand.torsion>
0.8711

> <Gold.PLP.Chemscore.Hbond>
2.6960

> <Gold.PLP.Chemscore.CHOScore>
0.0000

> <Gold.PLP.Chemscore.Metal>
0.0000

> <Gold.Chemscore.Hbonds>
donor molecule, donor type, donor heavy atom, donor atom, acceptor molecule, acceptor atom, score
      P1  H  6931  6943       L1     4  0.88
      P1  H  6934  6947       L1     4  0.86
      P1  H  7997  8010       L1    13  1.00

> <Gold.PLP.Chemscore.Internal.Correction>
0.0229

> <Gold.Rescore>
     Score         DG    S(hbond)    S(metal)    S(lipo)     H(rot)  DE(clash)    DE(int)     intcor
     17.00     -18.62       2.14        0.00      87.25       1.65       0.05       1.57       ----

> <Gold.Chemscore.Fitness>
16.9997

> <Gold.Chemscore.DG>
-18.6209

> <Gold.Chemscore.ZeroCoef>
-5.4800

> <Gold.Chemscore.Hbond>
2.1395

> <Gold.Chemscore.Metal>
0.0000

> <Gold.Chemscore.Lipo>
87.2511

> <Gold.Chemscore.Internal_Hbond>
0.0000

> <Gold.Chemscore.DEClash>
0.0544

> <Gold.Chemscore.DEInternal>
1.5668

> <Gold.Chemscore.Rot>
1.6458

> <Gold.Chemscore.Internal.Correction>
   9.000000E+99

> <Gold.Chemscore.Hbonds>
donor molecule, donor type, donor heavy atom, donor atom, acceptor molecule, acceptor atom, score
      P1  H  6931  6943       L1     4  0.49
      P1  H  6934  6947       L1     4  0.58
      P1  H  7997  8010       L1    13  0.89

> <Gold.Chemscore.Hbond.Weighted>
-7.1458

> <Gold.Chemscore.Metal.Weighted>
-0.0000

> <Gold.Chemscore.Lipo.Weighted>
-10.2084

> <Gold.Chemscore.Internal_Hbond.Weighted>
0.0000

> <Gold.Chemscore.DEClash.Weighted>
0.0544

> <Gold.Chemscore.DEInternal.Weighted>
1.5668

> <Gold.Chemscore.Rot.Weighted>
4.2133

> <Gold.Chemscore.Internal.Correction.Weighted>
   9.000000E+99

> <Gold.Protein.RotatedTorsions>
[ 6907 6896 6895 6894 ] final -161.87 input  -60.11 | X-H torsion
[ 7974 7965 7964 7962 ] final -165.25 input  175.53 | X-H torsion
[ 8008 7997 7996 7995 ] final   29.27 input   59.86 | X-H torsion
[ 10167 10162 10161 10158 ] final -109.39 input  -65.29 | X-H torsion
[ 10718 10713 10712 10709 ] final  -11.05 input   66.30 | X-H torsion
[ 10763 10752 10751 10750 ] final  111.61 input  -60.55 | X-H torsion
[ 11005 11000 10999 10996 ] final -120.71 input  -57.11 | X-H torsion

> <Gold.Protein.ActiveResidues>
 VAL166  LYS551  ARG553  GLY616  TRP617  ASP618  TYR619  PRO620  LYS621  CYS622 
 ASP623  PHE694  ASN695  SER759  ASP760  ASP761  ALA762  ILE779  LEU786  VAL792 
 PHE793  MET794  SER795  GLU796  ALA797  LYS798  CYS799  TRP800  GLU811  SER814 

> <Gold.Protein.RotatedAtoms>
  151.3714  133.3853  159.2699 H   0  0  0  0  0  0  0  0  0  0  0  0  # atno 6907 bound_to 6896
  150.9648  134.9032  159.7763 H   0  0  0  0  0  0  0  0  0  0  0  0  # atno 6908 bound_to 6896
  152.5163  134.3674  159.9358 H   0  0  0  0  0  0  0  0  0  0  0  0  # atno 6909 bound_to 6896
  144.7275  140.2842  143.6231 H   0  0  0  0  0  0  0  0  0  0  0  0  # atno 7974 bound_to 7965
  155.0719  140.3201  155.4628 H   0  0  0  0  0  0  0  0  0  0  0  0  # atno 8008 bound_to 7997
  156.2788  140.2110  156.5792 H   0  0  0  0  0  0  0  0  0  0  0  0  # atno 8009 bound_to 7997
  154.7048  140.0503  157.0480 H   0  0  0  0  0  0  0  0  0  0  0  0  # atno 8010 bound_to 7997
  140.1558  143.4161  152.1462 H   0  0  0  0  0  0  0  0  0  0  0  0  # atno 10167 bound_to 10162
  156.6646  130.4992  149.6019 H   0  0  0  0  0  0  0  0  0  0  0  0  # atno 10718 bound_to 10713
  153.4658  135.3712  155.2363 H   0  0  0  0  0  0  0  0  0  0  0  0  # atno 10763 bound_to 10752
  154.8757  135.3919  154.3871 H   0  0  0  0  0  0  0  0  0  0  0  0  # atno 10764 bound_to 10752
  153.4451  135.7085  153.6208 H   0  0  0  0  0  0  0  0  0  0  0  0  # atno 10765 bound_to 10752
  141.0124  134.0245  157.3396 H   0  0  0  0  0  0  0  0  0  0  0  0  # atno 11005 bound_to 11000
  145.7919  139.1930  143.2098 LP  0  0  0  0  0  0  0  0  0  0  0  0  # atno 17320 bound_to 7965
  146.0748  140.7829  142.9670 LP  0  0  0  0  0  0  0  0  0  0  0  0  # atno 17321 bound_to 7965
  139.5404  144.7251  151.4752 LP  0  0  0  0  0  0  0  0  0  0  0  0  # atno 17342 bound_to 10162
  140.6674  143.8368  150.6958 LP  0  0  0  0  0  0  0  0  0  0  0  0  # atno 17343 bound_to 10162
  156.1985  130.6604  151.1140 LP  0  0  0  0  0  0  0  0  0  0  0  0  # atno 17370 bound_to 10713
  157.7098  131.0739  150.6541 LP  0  0  0  0  0  0  0  0  0  0  0  0  # atno 17371 bound_to 10713
  139.9097  135.0187  156.7640 LP  0  0  0  0  0  0  0  0  0  0  0  0  # atno 17394 bound_to 11000
  140.6711  133.9558  155.7857 LP  0  0  0  0  0  0  0  0  0  0  0  0  # atno 17395 bound_to 11000

$$$$
