AV-unprocessed.smi:1826|AV-procd|sdf|7418|dock5
  -GOLD-   22720 9103D 1   1.00000     0.00000
 Structure written by MMmdl.
 40 42  0  0  0  0  0  0  0  0  2 V2000
  147.0524  138.5769  151.2616 O   0  0  0  0  0  0  0  0  0  0  0  0
  146.8708  139.3142  152.4529 C   0  0  0  0  0  0  0  0  0  0  0  0
  148.1119  139.4153  153.2809 C   0  0  0  0  0  0  0  0  0  0  0  0
  149.1130  138.4924  153.3575 N   0  3  0  0  0  0  0  0  0  0  0  0
  150.0946  138.9298  154.2469 C   0  0  0  0  0  0  0  0  0  0  0  0
  151.2861  138.3369  154.6526 C   0  0  0  0  0  0  0  0  0  0  0  0
  152.0635  139.0533  155.5863 C   0  0  0  0  0  0  0  0  0  0  0  0
  151.6482  140.3078  156.0786 C   0  0  0  0  0  0  0  0  0  0  0  0
  150.4390  140.8994  155.6580 C   0  0  0  0  0  0  0  0  0  0  0  0
  149.6757  140.1843  154.7355 C   0  0  0  0  0  0  0  0  0  0  0  0
  148.4508  140.4442  154.1100 N   0  0  0  0  0  0  0  0  0  0  0  0
  147.7318  141.6930  154.4168 C   0  0  0  0  0  0  0  0  0  0  0  0
  146.3825  141.5034  155.1605 C   0  0  1  0  0  0  0  0  0  0  0  0
  146.5314  140.8778  156.4234 O   0  0  0  0  0  0  0  0  0  0  0  0
  145.5999  142.8064  155.2452 C   0  0  0  0  0  0  0  0  0  0  0  0
  145.1977  143.3030  156.5030 C   0  0  0  0  0  0  0  0  0  0  0  0
  144.4658  144.5029  156.5938 C   0  0  0  0  0  0  0  0  0  0  0  0
  144.1269  145.2228  155.4280 C   0  0  0  0  0  0  0  0  0  0  0  0
  143.3277  146.5138  155.5278 C   0  0  0  0  0  0  0  0  0  0  0  0
  143.0080  146.9741  154.3178 F   0  0  0  0  0  0  0  0  0  0  0  0
  142.2060  146.2832  156.2088 F   0  0  0  0  0  0  0  0  0  0  0  0
  144.0286  147.4555  156.1600 F   0  0  0  0  0  0  0  0  0  0  0  0
  144.5199  144.7197  154.1690 C   0  0  0  0  0  0  0  0  0  0  0  0
  145.2528  143.5208  154.0779 C   0  0  0  0  0  0  0  0  0  0  0  0
  146.2115  138.4689  150.8438 H   0  0  0  0  0  0  0  0  0  0  0  0
  146.5272  140.3173  152.1995 H   0  0  0  0  0  0  0  0  0  0  0  0
  146.0863  138.8409  153.0438 H   0  0  0  0  0  0  0  0  0  0  0  0
  151.6048  137.3754  154.2773 H   0  0  0  0  0  0  0  0  0  0  0  0
  152.9961  138.6317  155.9322 H   0  0  0  0  0  0  0  0  0  0  0  0
  152.2692  140.8272  156.7940 H   0  0  0  0  0  0  0  0  0  0  0  0
  150.1314  141.8602  156.0425 H   0  0  0  0  0  0  0  0  0  0  0  0
  148.4027  142.3545  154.9657 H   0  0  0  0  0  0  0  0  0  0  0  0
  147.5534  142.2005  153.4682 H   0  0  0  0  0  0  0  0  0  0  0  0
  145.7807  140.8079  154.5738 H   0  0  0  0  0  0  0  0  0  0  0  0
  145.7032  140.9200  156.8770 H   0  0  0  0  0  0  0  0  0  0  0  0
  145.4472  142.7633  157.4049 H   0  0  0  0  0  0  0  0  0  0  0  0
  144.1627  144.8676  157.5644 H   0  0  0  0  0  0  0  0  0  0  0  0
  144.2594  145.2501  153.2650 H   0  0  0  0  0  0  0  0  0  0  0  0
  145.5424  143.1513  153.1050 H   0  0  0  0  0  0  0  0  0  0  0  0
  149.1135  137.6234  152.8388 H   0  0  0  0  0  0  0  0  0  0  0  0
  1  2  1  0  0  0  0
  1 25  1  0  0  0  0
  2  3  1  0  0  0  0
  2 26  1  0  0  0  0
  2 27  1  0  0  0  0
  3 11  1  0  0  0  0
  3  4  2  0  0  0  0
  4  5  1  0  0  0  0
  4 40  1  0  0  0  0
  5 10  2  0  0  0  0
  5  6  1  0  0  0  0
  6  7  2  0  0  0  0
  6 28  1  0  0  0  0
  7  8  1  0  0  0  0
  7 29  1  0  0  0  0
  8  9  2  0  0  0  0
  8 30  1  0  0  0  0
  9 10  1  0  0  0  0
  9 31  1  0  0  0  0
 10 11  1  0  0  0  0
 11 12  1  0  0  0  0
 12 13  1  0  0  0  0
 12 32  1  0  0  0  0
 12 33  1  0  0  0  0
 13 14  1  0  0  0  0
 13 15  1  0  0  0  0
 13 34  1  0  0  0  0
 14 35  1  0  0  0  0
 15 24  1  0  0  0  0
 15 16  2  0  0  0  0
 16 17  1  0  0  0  0
 16 36  1  0  0  0  0
 17 18  2  0  0  0  0
 17 37  1  0  0  0  0
 18 19  1  0  0  0  0
 18 23  1  0  0  0  0
 19 20  1  0  0  0  0
 19 21  1  0  0  0  0
 19 22  1  0  0  0  0
 23 24  2  0  0  0  0
 23 38  1  0  0  0  0
 24 39  1  0  0  0  0
M  CHG  1   4   1
M  END
> <s_m_source_file>
AV-unprocessed.smi

> <i_m_source_file_index>
1826

> <i_lp_mmshare_version>
43012

> <i_f3d_flags>
0

> <s_epik_input>
W2NIXTFbY0hdW2NIXVtjSF1jKGMxMiluKGMobjIpW0NIMl1bT0hdKVtDSDJdW0NASF0oW09IXSljM1tjSF1bY0hdYyhDKEYpKEYpRilbY0hdW2NIXTM=

> <s_epik_cmdline>
J2VwaWtfcHl0aG9uJywgJy1waCcsICc3LjAnLCAnLXRuJywgJzgnLCAnLW1hJywgJzIwMCcsICctbWV0YWxfYmluZGluZycsICctaW1hZScsICc8aW5maWxlLm1hZT4nLCAnLW9tYWUnLCAnPG91dGZpbGUubWFlPic=

> <r_epik_Ionization_Penalty>
1.35643

> <r_epik_Ionization_Penalty_Charging>
1.35557

> <r_epik_Ionization_Penalty_Neutral>
0.000856405

> <r_epik_State_Penalty>
1.43401

> <r_epik_Charging_Adjusted_Penalty>
2.78958

> <i_epik_Tot_Q>
1

> <i_epik_Tot_abs_Q>
1

> <r_epik_Metal_State_Penalty>
5.47166

> <b_epik_Metal_Only>
0

> <s_lp_Force_Field>
OPLS_2005

> <r_lp_Energy>
22.2169

> <b_lp_Chiralities_Consistent>
1

> <s_lp_Variant>
AV-unprocessed.smi:1826-4

> <Gold.Version>
5.8.1

> <Gold.Id.Protein>
6NUR|6NUR_protein|mol2

> <Gold.PLP.Fitness>
60.5740

> <Gold.PLP.PLP>
-52.4225

> <Gold.PLP.part.hbond>
-4.9505

> <Gold.PLP.part.metal>
0.0000

> <Gold.PLP.part.buried>
0.4106

> <Gold.PLP.part.nonpolar>
-48.0747

> <Gold.PLP.part.repulsive>
0.0792

> <Gold.PLP.ligand.clash>
1.1387

> <Gold.PLP.ligand.torsion>
0.5412

> <Gold.PLP.Chemscore.Hbond>
3.0000

> <Gold.PLP.Chemscore.CHOScore>
0.0000

> <Gold.PLP.Chemscore.Metal>
0.0000

> <Gold.Chemscore.Hbonds>
donor molecule, donor type, donor heavy atom, donor atom, acceptor molecule, acceptor atom, score
      L1  H     4    40       P1  7948  2.00
      P1  H  7954  7966       L1     1  1.00

> <Gold.PLP.Chemscore.Internal.Correction>
1.3727

> <Gold.Rescore>
     Score         DG    S(hbond)    S(metal)    S(lipo)     H(rot)  DE(clash)    DE(int)     intcor
     14.65     -17.15       2.33        0.00      98.57       2.98       2.05       0.46       ----

> <Gold.Chemscore.Fitness>
14.6460

> <Gold.Chemscore.DG>
-17.1518

> <Gold.Chemscore.ZeroCoef>
-5.4800

> <Gold.Chemscore.Hbond>
2.3274

> <Gold.Chemscore.Metal>
0.0000

> <Gold.Chemscore.Lipo>
98.5704

> <Gold.Chemscore.Internal_Hbond>
0.0000

> <Gold.Chemscore.DEClash>
2.0460

> <Gold.Chemscore.DEInternal>
0.4598

> <Gold.Chemscore.Rot>
2.9822

> <Gold.Chemscore.Internal.Correction>
   9.000000E+99

> <Gold.Chemscore.Hbonds>
donor molecule, donor type, donor heavy atom, donor atom, acceptor molecule, acceptor atom, score
      L1  H     4    40       P1  7948  0.99
      P1  H  7954  7966       L1     1  0.25

> <Gold.Chemscore.Hbond.Weighted>
-7.7734

> <Gold.Chemscore.Metal.Weighted>
-0.0000

> <Gold.Chemscore.Lipo.Weighted>
-11.5327

> <Gold.Chemscore.Internal_Hbond.Weighted>
0.0000

> <Gold.Chemscore.DEClash.Weighted>
2.0460

> <Gold.Chemscore.DEInternal.Weighted>
0.4598

> <Gold.Chemscore.Rot.Weighted>
7.6343

> <Gold.Chemscore.Internal.Correction.Weighted>
   9.000000E+99

> <Gold.Protein.RotatedTorsions>
[ 6907 6896 6895 6894 ] final  152.05 input  -60.11 | X-H torsion
[ 7974 7965 7964 7962 ] final   78.69 input  175.53 | X-H torsion
[ 8008 7997 7996 7995 ] final  110.42 input   59.86 | X-H torsion
[ 10167 10162 10161 10158 ] final    9.22 input  -65.29 | X-H torsion
[ 10718 10713 10712 10709 ] final   25.22 input   66.30 | X-H torsion
[ 10763 10752 10751 10750 ] final   45.44 input  -60.55 | X-H torsion
[ 11005 11000 10999 10996 ] final  -98.42 input  -57.11 | X-H torsion

> <Gold.Protein.ActiveResidues>
 VAL166  LYS551  ARG553  GLY616  TRP617  ASP618  TYR619  PRO620  LYS621  CYS622 
 ASP623  PHE694  ASN695  SER759  ASP760  ASP761  ALA762  ILE779  LEU786  VAL792 
 PHE793  MET794  SER795  GLU796  ALA797  LYS798  CYS799  TRP800  GLU811  SER814 

> <Gold.Protein.RotatedAtoms>
  152.0922  133.4206  159.4548 H   0  0  0  0  0  0  0  0  0  0  0  0  # atno 6907 bound_to 6896
  150.6862  134.2859  159.4655 H   0  0  0  0  0  0  0  0  0  0  0  0  # atno 6908 bound_to 6896
  152.0711  134.9532  160.0625 H   0  0  0  0  0  0  0  0  0  0  0  0  # atno 6909 bound_to 6896
  145.6739  139.2504  143.1852 H   0  0  0  0  0  0  0  0  0  0  0  0  # atno 7974 bound_to 7965
  156.2052  140.3039  155.9611 H   0  0  0  0  0  0  0  0  0  0  0  0  # atno 8008 bound_to 7997
  155.2859  140.0440  157.3036 H   0  0  0  0  0  0  0  0  0  0  0  0  # atno 8009 bound_to 7997
  154.5623  140.2324  155.8325 H   0  0  0  0  0  0  0  0  0  0  0  0  # atno 8010 bound_to 7997
  140.6268  143.8083  150.7243 H   0  0  0  0  0  0  0  0  0  0  0  0  # atno 10167 bound_to 10162
  157.1904  130.6843  149.6148 H   0  0  0  0  0  0  0  0  0  0  0  0  # atno 10718 bound_to 10713
  152.9824  135.6039  154.3438 H   0  0  0  0  0  0  0  0  0  0  0  0  # atno 10763 bound_to 10752
  154.3132  135.2771  155.2557 H   0  0  0  0  0  0  0  0  0  0  0  0  # atno 10764 bound_to 10752
  154.4757  135.5930  153.6409 H   0  0  0  0  0  0  0  0  0  0  0  0  # atno 10765 bound_to 10752
  141.1345  133.8244  157.0837 H   0  0  0  0  0  0  0  0  0  0  0  0  # atno 11005 bound_to 11000
  146.1022  140.7530  142.9544 LP  0  0  0  0  0  0  0  0  0  0  0  0  # atno 17320 bound_to 7965
  144.7048  140.3805  143.7127 LP  0  0  0  0  0  0  0  0  0  0  0  0  # atno 17321 bound_to 7965
  140.1686  143.4214  152.2017 LP  0  0  0  0  0  0  0  0  0  0  0  0  # atno 17342 bound_to 10162
  139.5487  144.7320  151.4502 LP  0  0  0  0  0  0  0  0  0  0  0  0  # atno 17343 bound_to 10162
  155.9712  130.4616  150.6117 LP  0  0  0  0  0  0  0  0  0  0  0  0  # atno 17370 bound_to 10713
  157.3866  131.0789  151.1430 LP  0  0  0  0  0  0  0  0  0  0  0  0  # atno 17371 bound_to 10713
  140.0435  134.9842  157.1007 LP  0  0  0  0  0  0  0  0  0  0  0  0  # atno 17394 bound_to 11000
  140.4098  134.1993  155.7163 LP  0  0  0  0  0  0  0  0  0  0  0  0  # atno 17395 bound_to 11000

$$$$
