#       Name:                AV-unprocessed.smi:1191
#       Creating user name   scv26
#       Creation time:       Fri Mar 27 03:58:23 2020


#       File generated by GOLD software.
#

@<TRIPOS>MOLECULE
AV-unprocessed.smi:1191
    50    51     1
SMALL
NO_CHARGES


@<TRIPOS>ATOM
      1 ****        -5.6166   1.7824  -0.7845 C.3            1 S1                 0.0000
      2 ****        -4.6791   0.8396  -1.4801 C.2            1 S1                 0.0000
      3 ****        -4.0769   0.9798  -2.7617 C.2            1 S1                 0.0000
      4 ****        -3.3243  -0.1515  -2.9076 C.2            1 S1                 0.0000
      5 ****        -2.4555  -0.5921  -4.0398 C.3            1 S1                 0.0000
      6 ****        -3.4957  -0.8983  -1.7552 N.pl3          1 S1                 0.0000
      7 ****        -2.9135  -2.1836  -1.3985 C.3            1 S1                 0.0000
      8 ****        -1.5038  -2.0220  -0.8262 C.2            1 S1                 0.0000
      9 ****        -0.5382  -2.4983  -1.4225 O.2            1 S1                 0.0000
     10 ****        -1.3970  -1.3515   0.3317 N.am           1 S1                 0.0000
     11 ****        -0.1483  -1.0883   1.0352 C.3            1 S1                 0.0000
     12 ****         0.6555   0.0393   0.3588 C.3            1 S1                 0.0000
     13 ****         1.9054   0.3588   1.0927 N.4            1 S1                 1.0000
     14 ****         2.3885   1.7350   0.8101 C.3            1 S1                 0.0000
     15 ****         3.5854   2.0964   1.7042 C.3            1 S1                 0.0000
     16 ****         4.7183   1.0712   1.5523 C.3            1 S1                 0.0000
     17 ****         4.2080  -0.3640   1.7792 C.3            1 S1                 0.0000
     18 ****         3.9315  -0.6720   3.2614 C.3            1 S1                 0.0000
     19 ****         2.9817  -0.6489   0.8874 C.3            1 S1                 0.0000
     20 ****        -4.3241  -0.2852  -0.8812 N.2            1 S1                 0.0000
     21 ****        -5.9028   2.6069  -1.4379 H              1 S1                 0.0000
     22 ****        -5.1548   2.2095   0.1058 H              1 S1                 0.0000
     23 ****        -6.5301   1.2734  -0.4758 H              1 S1                 0.0000
     24 ****        -4.1833   1.7891  -3.4689 H              1 S1                 0.0000
     25 ****        -2.4495   0.1506  -4.8377 H              1 S1                 0.0000
     26 ****        -2.8122  -1.5322  -4.4607 H              1 S1                 0.0000
     27 ****        -1.4267  -0.7362  -3.7091 H              1 S1                 0.0000
     28 ****        -3.5512  -2.6825  -0.6670 H              1 S1                 0.0000
     29 ****        -2.8899  -2.8203  -2.2837 H              1 S1                 0.0000
     30 ****        -2.2449  -0.9951   0.7501 H              1 S1                 0.0000
     31 ****        -0.3913  -0.8067   2.0601 H              1 S1                 0.0000
     32 ****         0.4254  -2.0131   1.0954 H              1 S1                 0.0000
     33 ****         0.8944  -0.2096  -0.6762 H              1 S1                 0.0000
     34 ****         0.0214   0.9266   0.3222 H              1 S1                 0.0000
     35 ****         2.6641   1.8162  -0.2428 H              1 S1                 0.0000
     36 ****         1.5863   2.4532   0.9845 H              1 S1                 0.0000
     37 ****         3.9511   3.0917   1.4500 H              1 S1                 0.0000
     38 ****         3.2652   2.1463   2.7453 H              1 S1                 0.0000
     39 ****         5.1352   1.1488   0.5471 H              1 S1                 0.0000
     40 ****         5.5336   1.3020   2.2388 H              1 S1                 0.0000
     41 ****         5.0035  -1.0427   1.4686 H              1 S1                 0.0000
     42 ****         3.1223  -0.0609   3.6613 H              1 S1                 0.0000
     43 ****         4.8167  -0.4904   3.8716 H              1 S1                 0.0000
     44 ****         3.6511  -1.7169   3.3968 H              1 S1                 0.0000
     45 ****         2.6157  -1.6538   1.0937 H              1 S1                 0.0000
     46 ****         3.2797  -0.6408  -0.1624 H              1 S1                 0.0000
     47 ****         1.6699   0.3419   2.0748 H              1 S1                 0.0000
     48 ****        -0.6747  -2.9914  -2.2817 LP             1 S1                 0.0000
     49 ****         0.3828  -2.3923  -1.0478 LP             1 S1                 0.0000
     50 ****        -4.6069  -0.6107   0.0211 LP             1 S1                 0.0000
@<TRIPOS>BOND
    1    1    2 1     
    2    1   21 1     
    3    1   22 1     
    4    1   23 1     
    5    2   20 2     
    6    2    3 1     
    7    3    4 2     
    8    3   24 1     
    9    4    5 1     
   10    4    6 1     
   11    5   25 1     
   12    5   26 1     
   13    5   27 1     
   14    6    7 1     
   15    6   20 1     
   16    7    8 1     
   17    7   28 1     
   18    7   29 1     
   19    8    9 2     
   20    8   10 am    
   21   10   11 1     
   22   10   30 1     
   23   11   12 1     
   24   11   31 1     
   25   11   32 1     
   26   12   13 1     
   27   12   33 1     
   28   12   34 1     
   29   13   19 1     
   30   13   14 1     
   31   13   47 1     
   32   14   15 1     
   33   14   35 1     
   34   14   36 1     
   35   15   16 1     
   36   15   37 1     
   37   15   38 1     
   38   16   17 1     
   39   16   39 1     
   40   16   40 1     
   41   17   18 1     
   42   17   19 1     
   43   17   41 1     
   44   18   42 1     
   45   18   43 1     
   46   18   44 1     
   47   19   45 1     
   48   19   46 1     
   49    9   48 1     
   50    9   49 1     
   51   20   50 1     
@<TRIPOS>SUBSTRUCTURE
      1 S1             1
@<TRIPOS>SET
LONE_PAIRS      STATIC     ATOMS    <user>   **** ""
3 48 49 50
DONOR_HYDROGENS      STATIC     ATOMS    <user>   **** ""
2 30 47
ATOM$BLUE        STATIC     ATOMS    COLORGROUP SYSTEM
3 48 49 50
ATOM$RED        STATIC     ATOMS    COLORGROUP SYSTEM
2 30 47
