AV-unprocessed.smi:3202|AV-procd|sdf|12242|dock7
  -GOLD-   2272018 73D 1   1.00000     0.00000
 Structure written by MMmdl.
 43 44  0  0  0  0  0  0  0  0  2 V2000
  149.2897  136.1307  154.5334 C   0  0  0  0  0  0  0  0  0  0  0  0
  149.6302  137.5755  154.6740 C   0  0  0  0  0  0  0  0  0  0  0  0
  148.9271  138.6238  155.1976 C   0  0  0  0  0  0  0  0  0  0  0  0
  149.7913  139.7460  155.0338 C   0  0  0  0  0  0  0  0  0  0  0  0
  149.5346  141.1741  155.4341 C   0  0  0  0  0  0  0  0  0  0  0  0
  149.4789  141.3890  156.9629 C   0  0  1  0  0  0  0  0  0  0  0  0
  150.0976  140.2263  157.7566 C   0  0  0  0  0  0  0  0  0  0  0  0
  150.1787  142.6422  157.3263 N   0  3  0  0  0  0  0  0  0  0  0  0
  150.3747  142.8818  158.7755 C   0  0  2  0  0  0  0  0  0  0  0  0
  149.6827  144.1469  159.2977 C   0  0  0  0  0  0  0  0  0  0  0  0
  150.4555  144.5343  160.5645 C   0  0  0  0  0  0  0  0  0  0  0  0
  151.7315  143.6769  160.5747 C   0  0  0  0  0  0  0  0  0  0  0  0
  151.8568  143.0516  159.1726 C   0  0  0  0  0  0  0  0  0  0  0  0
  152.5914  141.6988  159.2283 C   0  0  0  0  0  0  0  0  0  0  0  0
  152.6221  144.0164  158.2365 C   0  0  0  0  0  0  0  0  0  0  0  0
  150.9392  139.4186  154.4570 N   0  0  0  0  0  0  0  0  0  0  0  0
  150.8291  138.0944  154.2426 N   0  0  0  0  0  0  0  0  0  0  0  0
  151.5693  137.5648  153.8036 H   0  0  0  0  0  0  0  0  0  0  0  0
  148.4210  135.8741  155.1401 H   0  0  0  0  0  0  0  0  0  0  0  0
  150.1206  135.5014  154.8533 H   0  0  0  0  0  0  0  0  0  0  0  0
  149.0597  135.8871  153.4960 H   0  0  0  0  0  0  0  0  0  0  0  0
  147.9389  138.5945  155.6324 H   0  0  0  0  0  0  0  0  0  0  0  0
  150.3026  141.8198  155.0055 H   0  0  0  0  0  0  0  0  0  0  0  0
  148.5977  141.4991  154.9830 H   0  0  0  0  0  0  0  0  0  0  0  0
  148.4334  141.4659  157.2658 H   0  0  0  0  0  0  0  0  0  0  0  0
  149.5397  139.3007  157.6148 H   0  0  0  0  0  0  0  0  0  0  0  0
  150.0950  140.4381  158.8266 H   0  0  0  0  0  0  0  0  0  0  0  0
  151.1300  140.0443  157.4564 H   0  0  0  0  0  0  0  0  0  0  0  0
  151.1001  142.5942  156.9151 H   0  0  0  0  0  0  0  0  0  0  0  0
  149.9737  142.0251  159.3208 H   0  0  0  0  0  0  0  0  0  0  0  0
  149.7613  144.9543  158.5688 H   0  0  0  0  0  0  0  0  0  0  0  0
  148.6222  143.9856  159.4953 H   0  0  0  0  0  0  0  0  0  0  0  0
  150.6973  145.5979  160.5501 H   0  0  0  0  0  0  0  0  0  0  0  0
  149.8633  144.3475  161.4611 H   0  0  0  0  0  0  0  0  0  0  0  0
  152.6127  144.2534  160.8595 H   0  0  0  0  0  0  0  0  0  0  0  0
  151.6156  142.8924  161.3243 H   0  0  0  0  0  0  0  0  0  0  0  0
  153.6139  141.8209  159.5876 H   0  0  0  0  0  0  0  0  0  0  0  0
  152.6417  141.2348  158.2428 H   0  0  0  0  0  0  0  0  0  0  0  0
  152.0920  140.9958  159.8959 H   0  0  0  0  0  0  0  0  0  0  0  0
  153.6359  144.1892  158.5989 H   0  0  0  0  0  0  0  0  0  0  0  0
  152.1371  144.9899  158.1631 H   0  0  0  0  0  0  0  0  0  0  0  0
  152.7099  143.6152  157.2266 H   0  0  0  0  0  0  0  0  0  0  0  0
  149.6923  143.4270  156.9171 H   0  0  0  0  0  0  0  0  0  0  0  0
  1  2  1  0  0  0  0
  1 19  1  0  0  0  0
  1 20  1  0  0  0  0
  1 21  1  0  0  0  0
  2 17  1  0  0  0  0
  2  3  2  0  0  0  0
  3  4  1  0  0  0  0
  3 22  1  0  0  0  0
  4  5  1  0  0  0  0
  4 16  2  0  0  0  0
  5  6  1  0  0  0  0
  5 23  1  0  0  0  0
  5 24  1  0  0  0  0
  6  7  1  0  0  0  0
  6  8  1  0  0  0  0
  6 25  1  0  0  0  0
  7 26  1  0  0  0  0
  7 27  1  0  0  0  0
  7 28  1  0  0  0  0
  8  9  1  0  0  0  0
  8 29  1  0  0  0  0
  8 43  1  0  0  0  0
  9 13  1  0  0  0  0
  9 10  1  0  0  0  0
  9 30  1  0  0  0  0
 10 11  1  0  0  0  0
 10 31  1  0  0  0  0
 10 32  1  0  0  0  0
 11 12  1  0  0  0  0
 11 33  1  0  0  0  0
 11 34  1  0  0  0  0
 12 13  1  0  0  0  0
 12 35  1  0  0  0  0
 12 36  1  0  0  0  0
 13 14  1  0  0  0  0
 13 15  1  0  0  0  0
 14 37  1  0  0  0  0
 14 38  1  0  0  0  0
 14 39  1  0  0  0  0
 15 40  1  0  0  0  0
 15 41  1  0  0  0  0
 15 42  1  0  0  0  0
 16 17  1  0  0  0  0
 17 18  1  0  0  0  0
M  CHG  1   8   1
M  END
> <s_m_source_file>
AV-unprocessed.smi

> <i_m_source_file_index>
3202

> <i_lp_mmshare_version>
43012

> <i_f3d_flags>
0

> <s_epik_input>
W0NIM11jMVtjSF1jKG5bbkhdMSlbQ0gyXVtDQEhdKFtDSDNdKVtOSF1bQ0BASF0oQzIoW0NIM10pW0NIM10pW0NIMl1bQ0gyXVtDSDJdMg==

> <s_epik_cmdline>
J2VwaWtfcHl0aG9uJywgJy1waCcsICc3LjAnLCAnLXRuJywgJzgnLCAnLW1hJywgJzIwMCcsICctbWV0YWxfYmluZGluZycsICctaW1hZScsICc8aW5maWxlLm1hZT4nLCAnLW9tYWUnLCAnPG91dGZpbGUubWFlPic=

> <r_lp_tautomer_probability>
0.5

> <r_epik_Ionization_Penalty>
0.000341671

> <r_epik_Ionization_Penalty_Charging>
0.000281809

> <r_epik_Ionization_Penalty_Neutral>
5.9862e-05

> <r_epik_State_Penalty>
0.41068

> <r_epik_Charging_Adjusted_Penalty>
0.410962

> <i_epik_Tot_Q>
1

> <i_epik_Tot_abs_Q>
1

> <r_epik_Metal_State_Penalty>
0.410672

> <b_epik_Metal_Only>
0

> <s_lp_Force_Field>
OPLS_2005

> <r_lp_Energy>
29.8366

> <b_lp_Chiralities_Consistent>
1

> <s_lp_Variant>
AV-unprocessed.smi:3202-2

> <Gold.Version>
5.8.1

> <Gold.Id.Protein>
6NUR|6NUR_protein|mol2

> <Gold.PLP.Fitness>
43.7348

> <Gold.PLP.PLP>
-37.6416

> <Gold.PLP.part.hbond>
-2.0000

> <Gold.PLP.part.metal>
0.0000

> <Gold.PLP.part.buried>
-4.8040

> <Gold.PLP.part.nonpolar>
-32.3683

> <Gold.PLP.part.repulsive>
0.2495

> <Gold.PLP.ligand.clash>
0.0000

> <Gold.PLP.ligand.torsion>
1.4629

> <Gold.PLP.Chemscore.Hbond>
3.0000

> <Gold.PLP.Chemscore.CHOScore>
0.0000

> <Gold.PLP.Chemscore.Metal>
0.0000

> <Gold.Chemscore.Hbonds>
donor molecule, donor type, donor heavy atom, donor atom, acceptor molecule, acceptor atom, score
      L1  H     8    43       P1  8028  2.00
      P1  H  7989  7998       L1    16  1.00

> <Gold.PLP.Chemscore.Internal.Correction>
0.0190

> <Gold.Rescore>
     Score         DG    S(hbond)    S(metal)    S(lipo)     H(rot)  DE(clash)    DE(int)     intcor
     19.18     -20.43       1.80        0.00     108.25       1.46       0.08       1.18       ----

> <Gold.Chemscore.Fitness>
19.1761

> <Gold.Chemscore.DG>
-20.4324

> <Gold.Chemscore.ZeroCoef>
-5.4800

> <Gold.Chemscore.Hbond>
1.8034

> <Gold.Chemscore.Metal>
0.0000

> <Gold.Chemscore.Lipo>
108.2513

> <Gold.Chemscore.Internal_Hbond>
0.0000

> <Gold.Chemscore.DEClash>
0.0806

> <Gold.Chemscore.DEInternal>
1.1757

> <Gold.Chemscore.Rot>
1.4596

> <Gold.Chemscore.Internal.Correction>
   9.000000E+99

> <Gold.Chemscore.Hbonds>
donor molecule, donor type, donor heavy atom, donor atom, acceptor molecule, acceptor atom, score
      L1  H     8    43       P1  8028  0.97
      P1  H  7989  7998       L1    16  0.78

> <Gold.Chemscore.Hbond.Weighted>
-6.0235

> <Gold.Chemscore.Metal.Weighted>
-0.0000

> <Gold.Chemscore.Lipo.Weighted>
-12.6654

> <Gold.Chemscore.Internal_Hbond.Weighted>
0.0000

> <Gold.Chemscore.DEClash.Weighted>
0.0806

> <Gold.Chemscore.DEInternal.Weighted>
1.1757

> <Gold.Chemscore.Rot.Weighted>
3.7365

> <Gold.Chemscore.Internal.Correction.Weighted>
   9.000000E+99

> <Gold.Protein.RotatedTorsions>
[ 6907 6896 6895 6894 ] final -120.08 input  -60.11 | X-H torsion
[ 7974 7965 7964 7962 ] final  -31.86 input  175.53 | X-H torsion
[ 8008 7997 7996 7995 ] final   74.89 input   59.86 | X-H torsion
[ 10167 10162 10161 10158 ] final   -9.44 input  -65.29 | X-H torsion
[ 10718 10713 10712 10709 ] final   16.63 input   66.30 | X-H torsion
[ 10763 10752 10751 10750 ] final   56.98 input  -60.55 | X-H torsion
[ 11005 11000 10999 10996 ] final   27.76 input  -57.11 | X-H torsion

> <Gold.Protein.ActiveResidues>
 VAL166  LYS551  ARG553  GLY616  TRP617  ASP618  TYR619  PRO620  LYS621  CYS622 
 ASP623  PHE694  ASN695  SER759  ASP760  ASP761  ALA762  ILE779  LEU786  VAL792 
 PHE793  MET794  SER795  GLU796  ALA797  LYS798  CYS799  TRP800  GLU811  SER814 

> <Gold.Protein.RotatedAtoms>
  150.8362  133.8010  159.3078 H   0  0  0  0  0  0  0  0  0  0  0  0  # atno 6907 bound_to 6896
  151.5725  135.1060  160.0008 H   0  0  0  0  0  0  0  0  0  0  0  0  # atno 6908 bound_to 6896
  152.4434  133.7448  159.6717 H   0  0  0  0  0  0  0  0  0  0  0  0  # atno 6909 bound_to 6896
  146.1035  140.5720  142.8810 H   0  0  0  0  0  0  0  0  0  0  0  0  # atno 7974 bound_to 7965
  155.8050  140.3475  155.5424 H   0  0  0  0  0  0  0  0  0  0  0  0  # atno 8008 bound_to 7997
  155.8499  140.0954  157.1701 H   0  0  0  0  0  0  0  0  0  0  0  0  # atno 8009 bound_to 7997
  154.4007  140.1378  156.3819 H   0  0  0  0  0  0  0  0  0  0  0  0  # atno 8010 bound_to 7997
  140.7087  143.5858  150.8945 H   0  0  0  0  0  0  0  0  0  0  0  0  # atno 10167 bound_to 10162
  157.0705  130.6346  149.5805 H   0  0  0  0  0  0  0  0  0  0  0  0  # atno 10718 bound_to 10713
  152.9841  135.5657  154.5317 H   0  0  0  0  0  0  0  0  0  0  0  0  # atno 10763 bound_to 10752
  154.4787  135.2788  155.1589 H   0  0  0  0  0  0  0  0  0  0  0  0  # atno 10764 bound_to 10752
  154.3107  135.6289  153.5517 H   0  0  0  0  0  0  0  0  0  0  0  0  # atno 10765 bound_to 10752
  140.3229  134.2524  155.7714 H   0  0  0  0  0  0  0  0  0  0  0  0  # atno 11005 bound_to 11000
  144.7452  140.5048  143.6841 LP  0  0  0  0  0  0  0  0  0  0  0  0  # atno 17320 bound_to 7965
  145.5807  139.1489  143.3237 LP  0  0  0  0  0  0  0  0  0  0  0  0  # atno 17321 bound_to 7965
  139.9583  143.6192  152.3009 LP  0  0  0  0  0  0  0  0  0  0  0  0  # atno 17342 bound_to 10162
  139.6736  144.7660  151.1737 LP  0  0  0  0  0  0  0  0  0  0  0  0  # atno 17343 bound_to 10162
  155.9952  130.5018  150.7448 LP  0  0  0  0  0  0  0  0  0  0  0  0  # atno 17370 bound_to 10713
  157.4881  131.0908  151.0458 LP  0  0  0  0  0  0  0  0  0  0  0  0  # atno 17371 bound_to 10713
  141.2082  133.7783  157.0072 LP  0  0  0  0  0  0  0  0  0  0  0  0  # atno 17394 bound_to 11000
  140.0927  134.9583  157.1801 LP  0  0  0  0  0  0  0  0  0  0  0  0  # atno 17395 bound_to 11000

$$$$
