#       Name:                AV-unprocessed.smi:2457
#       Creating user name   scv26
#       Creation time:       Fri Mar 27 13:34:35 2020


#       File generated by GOLD software.
#

@<TRIPOS>MOLECULE
AV-unprocessed.smi:2457
    43    44     1
SMALL
NO_CHARGES


@<TRIPOS>ATOM
      1 ****        -2.0561   1.1562  -4.6395 C.3            1 S1                 0.0000
      2 ****        -2.0961   1.1125  -3.1446 C.2            1 S1                 0.0000
      3 ****        -2.6910   0.1552  -2.3614 C.2            1 S1                 0.0000
      4 ****        -2.5010   0.4953  -0.6635 S.3            1 S1                 0.0000
      5 ****        -1.6070   1.9521  -1.0861 C.2            1 S1                 0.0000
      6 ****        -1.0279   2.8828  -0.0639 C.3            1 S1                 0.0000
      7 ****        -1.6313   4.2915  -0.1551 C.3            1 S1                 0.0000
      8 ****         0.5175   2.8893  -0.0531 C.3            1 S1                 0.0000
      9 ****         1.0932   1.5471  -0.0310 N.am           1 S1                 0.0000
     10 ****         1.0901   0.7278   1.0289 C.2            1 S1                 0.0000
     11 ****         0.6340   1.0291   2.1318 O.2            1 S1                 0.0000
     12 ****         1.6216  -0.4666   0.7350 N.am           1 S1                 0.0000
     13 ****         1.7112  -1.5960   1.6556 C.3            1 S1                 0.0000
     14 ****         0.3845  -2.3841   1.6585 C.3            1 S1                 0.0000
     15 ****         0.3965  -3.5552   2.6540 C.3            1 S1                 0.0000
     16 ****         1.4879  -4.5854   2.3315 C.3            1 S1                 0.0000
     17 ****         3.1402  -3.8449   2.4324 S.3            1 S1                 0.0000
     18 ****         2.9023  -2.4838   1.2566 C.3            1 S1                 0.0000
     19 ****        -1.4789   2.1251  -2.4053 N.2            1 S1                 0.0000
     20 ****        -2.6094   0.3255  -5.0782 H              1 S1                 0.0000
     21 ****        -1.0313   1.1007  -5.0073 H              1 S1                 0.0000
     22 ****        -2.4947   2.0798  -5.0183 H              1 S1                 0.0000
     23 ****        -3.2287  -0.7260  -2.6784 H              1 S1                 0.0000
     24 ****        -1.3427   2.4923   0.9045 H              1 S1                 0.0000
     25 ****        -2.7169   4.2600  -0.0586 H              1 S1                 0.0000
     26 ****        -1.3943   4.7636  -1.1090 H              1 S1                 0.0000
     27 ****        -1.2478   4.9341   0.6377 H              1 S1                 0.0000
     28 ****         0.8849   3.3818  -0.9539 H              1 S1                 0.0000
     29 ****         0.8931   3.4701   0.7909 H              1 S1                 0.0000
     30 ****         1.4897   1.2080  -0.8953 H              1 S1                 0.0000
     31 ****         1.9683  -0.6153  -0.2013 H              1 S1                 0.0000
     32 ****         1.8985  -1.2137   2.6610 H              1 S1                 0.0000
     33 ****        -0.4395  -1.7166   1.9140 H              1 S1                 0.0000
     34 ****         0.1719  -2.7580   0.6560 H              1 S1                 0.0000
     35 ****         0.5343  -3.1769   3.6677 H              1 S1                 0.0000
     36 ****        -0.5766  -4.0470   2.6413 H              1 S1                 0.0000
     37 ****         1.4364  -5.4205   3.0304 H              1 S1                 0.0000
     38 ****         1.3415  -4.9952   1.3316 H              1 S1                 0.0000
     39 ****         2.7545  -2.9003   0.2594 H              1 S1                 0.0000
     40 ****         3.8204  -1.8962   1.2253 H              1 S1                 0.0000
     41 ****         0.2342   1.9341   2.2773 LP             1 S1                 0.0000
     42 ****         0.6632   0.3689   2.8823 LP             1 S1                 0.0000
     43 ****        -0.9939   2.8958  -2.8185 LP             1 S1                 0.0000
@<TRIPOS>BOND
    1    1    2 1     
    2    1   20 1     
    3    1   21 1     
    4    1   22 1     
    5    2   19 1     
    6    2    3 2     
    7    3    4 1     
    8    3   23 1     
    9    4    5 1     
   10    5    6 1     
   11    5   19 2     
   12    6    7 1     
   13    6    8 1     
   14    6   24 1     
   15    7   25 1     
   16    7   26 1     
   17    7   27 1     
   18    8    9 1     
   19    8   28 1     
   20    8   29 1     
   21    9   10 am    
   22    9   30 1     
   23   10   11 2     
   24   10   12 am    
   25   12   13 1     
   26   12   31 1     
   27   13   18 1     
   28   13   14 1     
   29   13   32 1     
   30   14   15 1     
   31   14   33 1     
   32   14   34 1     
   33   15   16 1     
   34   15   35 1     
   35   15   36 1     
   36   16   17 1     
   37   16   37 1     
   38   16   38 1     
   39   17   18 1     
   40   18   39 1     
   41   18   40 1     
   42   11   41 1     
   43   11   42 1     
   44   19   43 1     
@<TRIPOS>SUBSTRUCTURE
      1 S1             1
@<TRIPOS>SET
LONE_PAIRS      STATIC     ATOMS    <user>   **** ""
3 41 42 43
DONOR_HYDROGENS      STATIC     ATOMS    <user>   **** ""
2 30 31
ATOM$BLUE        STATIC     ATOMS    COLORGROUP SYSTEM
3 41 42 43
ATOM$RED        STATIC     ATOMS    COLORGROUP SYSTEM
2 30 31
