AV-unprocessed.smi:1778|AV-procd|sdf|7179|dock7
  -GOLD-   22720 8413D 1   1.00000     0.00000
 Structure written by MMmdl.
 34 35  0  0  0  0  0  0  0  0  1 V2000
  145.0200  135.5226  150.9403 C   0  0  0  0  0  0  0  0  0  0  0  0
  144.8783  134.0427  151.1548 C   0  0  0  0  0  0  0  0  0  0  0  0
  143.6699  133.5061  151.1693 N   0  0  0  0  0  0  0  0  0  0  0  0
  143.8601  132.1360  151.3716 O   0  0  0  0  0  0  0  0  0  0  0  0
  145.1927  131.8981  151.4700 C   0  0  0  0  0  0  0  0  0  0  0  0
  145.6095  130.4817  151.6806 C   0  0  0  0  0  0  0  0  0  0  0  0
  145.8972  133.0632  151.3421 C   0  0  0  0  0  0  0  0  0  0  0  0
  147.3912  133.2599  151.3815 C   0  0  0  0  0  0  0  0  0  0  0  0
  147.9214  132.9007  152.7692 C   0  0  0  0  0  0  0  0  0  0  0  0
  147.7127  131.7825  153.2387 O   0  0  0  0  0  0  0  0  0  0  0  0
  148.6081  133.8577  153.4117 N   0  0  0  0  0  0  0  0  0  0  0  0
  149.2173  133.7144  154.7289 C   0  0  2  0  0  0  0  0  0  0  0  0
  150.2171  132.5414  154.7816 C   0  0  0  0  0  0  0  0  0  0  0  0
  150.5169  132.2173  156.2501 C   0  0  0  0  0  0  0  0  0  0  0  0
  148.9966  132.6360  157.1852 S   0  0  0  0  0  0  0  0  0  0  0  0
  148.2697  131.4032  157.5237 O   0  0  0  0  0  0  0  0  0  0  0  0
  149.3311  133.6264  158.2197 O   0  0  0  0  0  0  0  0  0  0  0  0
  148.1415  133.4703  155.7961 C   0  0  0  0  0  0  0  0  0  0  0  0
  144.9268  135.7724  149.8833 H   0  0  0  0  0  0  0  0  0  0  0  0
  145.9894  135.8847  151.2815 H   0  0  0  0  0  0  0  0  0  0  0  0
  144.2540  136.0771  151.4831 H   0  0  0  0  0  0  0  0  0  0  0  0
  146.2143  130.1312  150.8440 H   0  0  0  0  0  0  0  0  0  0  0  0
  144.7441  129.8249  151.7711 H   0  0  0  0  0  0  0  0  0  0  0  0
  146.2029  130.3851  152.5898 H   0  0  0  0  0  0  0  0  0  0  0  0
  147.8986  132.6495  150.6340 H   0  0  0  0  0  0  0  0  0  0  0  0
  147.6602  134.2927  151.1563 H   0  0  0  0  0  0  0  0  0  0  0  0
  148.7290  134.7454  152.9463 H   0  0  0  0  0  0  0  0  0  0  0  0
  149.7469  134.6328  154.9900 H   0  0  0  0  0  0  0  0  0  0  0  0
  149.7655  131.6638  154.3167 H   0  0  0  0  0  0  0  0  0  0  0  0
  151.1307  132.7598  154.2273 H   0  0  0  0  0  0  0  0  0  0  0  0
  150.7839  131.1724  156.4098 H   0  0  0  0  0  0  0  0  0  0  0  0
  151.3254  132.8448  156.6263 H   0  0  0  0  0  0  0  0  0  0  0  0
  147.6682  134.3892  156.1429 H   0  0  0  0  0  0  0  0  0  0  0  0
  147.3662  132.7950  155.4322 H   0  0  0  0  0  0  0  0  0  0  0  0
  1  2  1  0  0  0  0
  1 19  1  0  0  0  0
  1 20  1  0  0  0  0
  1 21  1  0  0  0  0
  2  7  1  0  0  0  0
  2  3  2  0  0  0  0
  3  4  1  0  0  0  0
  4  5  1  0  0  0  0
  5  6  1  0  0  0  0
  5  7  2  0  0  0  0
  6 22  1  0  0  0  0
  6 23  1  0  0  0  0
  6 24  1  0  0  0  0
  7  8  1  0  0  0  0
  8  9  1  0  0  0  0
  8 25  1  0  0  0  0
  8 26  1  0  0  0  0
  9 10  2  0  0  0  0
  9 11  1  0  0  0  0
 11 12  1  0  0  0  0
 11 27  1  0  0  0  0
 12 18  1  0  0  0  0
 12 13  1  0  0  0  0
 12 28  1  0  0  0  0
 13 14  1  0  0  0  0
 13 29  1  0  0  0  0
 13 30  1  0  0  0  0
 14 15  1  0  0  0  0
 14 31  1  0  0  0  0
 14 32  1  0  0  0  0
 15 16  2  0  0  0  0
 15 17  2  0  0  0  0
 15 18  1  0  0  0  0
 18 33  1  0  0  0  0
 18 34  1  0  0  0  0
M  END
> <s_m_source_file>
AV-unprocessed.smi

> <i_m_source_file_index>
1778

> <i_lp_mmshare_version>
43012

> <i_f3d_flags>
0

> <s_epik_input>
W0NIM11jMW5vYyhbQ0gzXSljMVtDSDJdQyg9TylbTkhdW0NAQEhdKFtDSDJdMilbQ0gyXVtDSDJdUzIoPU8pPU8=

> <s_epik_cmdline>
J2VwaWtfcHl0aG9uJywgJy1waCcsICc3LjAnLCAnLXRuJywgJzgnLCAnLW1hJywgJzIwMCcsICctbWV0YWxfYmluZGluZycsICctaW1hZScsICc8aW5maWxlLm1hZT4nLCAnLW9tYWUnLCAnPG91dGZpbGUubWFlPic=

> <r_lp_tautomer_probability>
1

> <r_epik_Ionization_Penalty>
1.26334e-07

> <r_epik_Ionization_Penalty_Charging>
0

> <r_epik_Ionization_Penalty_Neutral>
1.26334e-07

> <r_epik_State_Penalty>
-0

> <r_epik_Charging_Adjusted_Penalty>
0

> <i_epik_Tot_Q>
0

> <i_epik_Tot_abs_Q>
0

> <r_epik_Metal_State_Penalty>
-0

> <b_epik_Metal_Only>
0

> <s_lp_Force_Field>
OPLS_2005

> <r_lp_Energy>
-2.84912

> <b_lp_Chiralities_Consistent>
1

> <s_lp_Variant>
AV-unprocessed.smi:1778-1

> <Gold.Version>
5.8.1

> <Gold.Id.Protein>
6NUR|6NUR_protein|mol2

> <Gold.PLP.Fitness>
31.8789

> <Gold.PLP.PLP>
-25.9590

> <Gold.PLP.part.hbond>
-2.0000

> <Gold.PLP.part.metal>
0.0000

> <Gold.PLP.part.buried>
-4.2632

> <Gold.PLP.part.nonpolar>
-19.7180

> <Gold.PLP.part.repulsive>
0.5022

> <Gold.PLP.ligand.clash>
0.0000

> <Gold.PLP.ligand.torsion>
0.0411

> <Gold.PLP.Chemscore.Hbond>
2.0000

> <Gold.PLP.Chemscore.CHOScore>
0.0000

> <Gold.PLP.Chemscore.Metal>
0.0000

> <Gold.Chemscore.Hbonds>
donor molecule, donor type, donor heavy atom, donor atom, acceptor molecule, acceptor atom, score
      L1  H    11    27       P1  7948  0.90
      P1  H  6896  6907       L1    17  1.00

> <Gold.PLP.Chemscore.Internal.Correction>
0.0021

> <Gold.Rescore>
     Score         DG    S(hbond)    S(metal)    S(lipo)     H(rot)  DE(clash)    DE(int)     intcor
     13.42     -14.69       1.83        0.00      59.44       1.51       0.04       1.23       ----

> <Gold.Chemscore.Fitness>
13.4168

> <Gold.Chemscore.DG>
-14.6880

> <Gold.Chemscore.ZeroCoef>
-5.4800

> <Gold.Chemscore.Hbond>
1.8284

> <Gold.Chemscore.Metal>
0.0000

> <Gold.Chemscore.Lipo>
59.4391

> <Gold.Chemscore.Internal_Hbond>
0.0000

> <Gold.Chemscore.DEClash>
0.0435

> <Gold.Chemscore.DEInternal>
1.2277

> <Gold.Chemscore.Rot>
1.5051

> <Gold.Chemscore.Internal.Correction>
   9.000000E+99

> <Gold.Chemscore.Hbonds>
donor molecule, donor type, donor heavy atom, donor atom, acceptor molecule, acceptor atom, score
      L1  H    11    27       P1  7948  0.18
      P1  H  6896  6907       L1    17  1.00

> <Gold.Chemscore.Hbond.Weighted>
-6.1068

> <Gold.Chemscore.Metal.Weighted>
-0.0000

> <Gold.Chemscore.Lipo.Weighted>
-6.9544

> <Gold.Chemscore.Internal_Hbond.Weighted>
0.0000

> <Gold.Chemscore.DEClash.Weighted>
0.0435

> <Gold.Chemscore.DEInternal.Weighted>
1.2277

> <Gold.Chemscore.Rot.Weighted>
3.8531

> <Gold.Chemscore.Internal.Correction.Weighted>
   9.000000E+99

> <Gold.Protein.RotatedTorsions>
[ 6907 6896 6895 6894 ] final -110.23 input  -60.11 | X-H torsion
[ 7974 7965 7964 7962 ] final   97.71 input  175.53 | X-H torsion
[ 8008 7997 7996 7995 ] final  -33.67 input   59.86 | X-H torsion
[ 10167 10162 10161 10158 ] final -144.83 input  -65.29 | X-H torsion
[ 10718 10713 10712 10709 ] final -126.01 input   66.30 | X-H torsion
[ 10763 10752 10751 10750 ] final -152.73 input  -60.55 | X-H torsion
[ 11005 11000 10999 10996 ] final  -62.28 input  -57.11 | X-H torsion

> <Gold.Protein.ActiveResidues>
 VAL166  LYS551  ARG553  GLY616  TRP617  ASP618  TYR619  PRO620  LYS621  CYS622 
 ASP623  PHE694  ASN695  SER759  ASP760  ASP761  ALA762  ILE779  LEU786  VAL792 
 PHE793  MET794  SER795  GLU796  ALA797  LYS798  CYS799  TRP800  GLU811  SER814 

> <Gold.Protein.RotatedAtoms>
  150.7612  133.9412  159.3456 H   0  0  0  0  0  0  0  0  0  0  0  0  # atno 6907 bound_to 6896
  151.7320  135.0871  160.0311 H   0  0  0  0  0  0  0  0  0  0  0  0  # atno 6908 bound_to 6896
  152.3584  133.6228  159.6032 H   0  0  0  0  0  0  0  0  0  0  0  0  # atno 6909 bound_to 6896
  145.4219  139.2320  143.3191 H   0  0  0  0  0  0  0  0  0  0  0  0  # atno 7974 bound_to 7965
  154.4142  140.1704  156.1925 H   0  0  0  0  0  0  0  0  0  0  0  0  # atno 8008 bound_to 7997
  155.9591  140.3395  155.6451 H   0  0  0  0  0  0  0  0  0  0  0  0  # atno 8009 bound_to 7997
  155.6771  140.0718  157.2489 H   0  0  0  0  0  0  0  0  0  0  0  0  # atno 8010 bound_to 7997
  139.7862  143.8031  152.2645 H   0  0  0  0  0  0  0  0  0  0  0  0  # atno 10167 bound_to 10162
  156.1726  130.6678  151.0200 H   0  0  0  0  0  0  0  0  0  0  0  0  # atno 10718 bound_to 10713
  154.7974  135.3229  154.7632 H   0  0  0  0  0  0  0  0  0  0  0  0  # atno 10763 bound_to 10752
  153.8308  135.6879  153.4819 H   0  0  0  0  0  0  0  0  0  0  0  0  # atno 10764 bound_to 10752
  153.1673  135.4637  154.9797 H   0  0  0  0  0  0  0  0  0  0  0  0  # atno 10765 bound_to 10752
  141.1354  133.6638  156.5504 H   0  0  0  0  0  0  0  0  0  0  0  0  # atno 11005 bound_to 11000
  146.2652  140.4945  142.8837 LP  0  0  0  0  0  0  0  0  0  0  0  0  # atno 17320 bound_to 7965
  144.8239  140.6597  143.6334 LP  0  0  0  0  0  0  0  0  0  0  0  0  # atno 17321 bound_to 7965
  139.8108  144.7336  150.9699 LP  0  0  0  0  0  0  0  0  0  0  0  0  # atno 17342 bound_to 10162
  140.7819  143.4252  151.0779 LP  0  0  0  0  0  0  0  0  0  0  0  0  # atno 17343 bound_to 10162
  157.6813  131.0837  150.7361 LP  0  0  0  0  0  0  0  0  0  0  0  0  # atno 17370 bound_to 10713
  156.7419  130.4742  149.5475 LP  0  0  0  0  0  0  0  0  0  0  0  0  # atno 17371 bound_to 10713
  140.4068  134.7307  157.4812 LP  0  0  0  0  0  0  0  0  0  0  0  0  # atno 17394 bound_to 11000
  140.0456  134.6204  155.8925 LP  0  0  0  0  0  0  0  0  0  0  0  0  # atno 17395 bound_to 11000

$$$$
