#       Name:                AV-unprocessed.smi:2842
#       Creating user name   scv26
#       Creation time:       Fri Mar 27 15:38:13 2020


#       File generated by GOLD software.
#

@<TRIPOS>MOLECULE
AV-unprocessed.smi:2842
    40    42     1
SMALL
NO_CHARGES


@<TRIPOS>ATOM
      1 ****        -1.7930  -1.2375   0.7573 O.2            1 S1                 0.0000
      2 ****        -1.1465  -2.1483   0.2378 C.2            1 S1                 0.0000
      3 ****         0.3816  -2.0507   0.1119 C.3            1 S1                 0.0000
      4 ****         0.8714  -0.6625   0.0246 N.am           1 S1                 0.0000
      5 ****         1.4059  -0.1040   1.2026 C.2            1 S1                 0.0000
      6 ****         1.8639   1.1069   1.2363 N.2            1 S1                 0.0000
      7 ****         1.8286   1.8969   0.0813 C.2            1 S1                 0.0000
      8 ****         2.3509   3.3235   0.1800 C.3            1 S1                 0.0000
      9 ****         2.1608   4.0322   1.5320 C.3            1 S1                 0.0000
     10 ****         1.8511   5.3094   0.7432 C.3            1 S1                 0.0000
     11 ****         1.4458   4.4071  -0.4278 C.3            1 S1                 0.0000
     12 ****         1.3169   1.4073  -1.0728 C.2            1 S1                 0.0000
     13 ****         0.8012   0.0406  -1.1442 C.2            1 S1                 0.0000
     14 ****         0.3381  -0.4406  -2.1786 O.2            1 S1                 0.0000
     15 ****        -1.7030  -3.2749  -0.2299 N.am           1 S1                 0.0000
     16 ****        -3.0979  -3.5764  -0.2211 C.3            1 S1                 0.0000
     17 ****        -3.5052  -5.0207  -0.0254 C.3            1 S1                 0.0000
     18 ****        -3.6478  -4.3810  -1.3789 C.3            1 S1                 0.0000
     19 ****         0.8237  -2.5814   0.9571 H              1 S1                 0.0000
     20 ****         0.7077  -2.6057  -0.7701 H              1 S1                 0.0000
     21 ****         1.4029  -0.7577   2.0763 H              1 S1                 0.0000
     22 ****         3.3781   3.4038  -0.1804 H              1 S1                 0.0000
     23 ****         1.2972   3.6769   2.0973 H              1 S1                 0.0000
     24 ****         3.0568   4.0830   2.1512 H              1 S1                 0.0000
     25 ****         1.0449   5.9174   1.1544 H              1 S1                 0.0000
     26 ****         2.7414   5.9039   0.5316 H              1 S1                 0.0000
     27 ****         1.7558   4.7644  -1.4101 H              1 S1                 0.0000
     28 ****         0.3853   4.1482  -0.4075 H              1 S1                 0.0000
     29 ****         1.2856   2.0271  -1.9570 H              1 S1                 0.0000
     30 ****        -1.0916  -3.9698  -0.6335 H              1 S1                 0.0000
     31 ****        -3.7688  -2.8296   0.2015 H              1 S1                 0.0000
     32 ****        -2.7167  -5.7604   0.0998 H              1 S1                 0.0000
     33 ****        -4.4163  -5.2126   0.5377 H              1 S1                 0.0000
     34 ****        -4.6536  -4.1437  -1.7200 H              1 S1                 0.0000
     35 ****        -2.9541  -4.6927  -2.1576 H              1 S1                 0.0000
     36 ****        -1.3235  -0.4246   1.1020 LP             1 S1                 0.0000
     37 ****        -2.7873  -1.3109   0.8344 LP             1 S1                 0.0000
     38 ****         2.2417   1.4766   2.0852 LP             1 S1                 0.0000
     39 ****        -0.0046  -1.3800  -2.1833 LP             1 S1                 0.0000
     40 ****         0.3046   0.1081  -3.0140 LP             1 S1                 0.0000
@<TRIPOS>BOND
    1    1    2 2     
    2    2    3 1     
    3    2   15 am    
    4    3    4 1     
    5    3   19 1     
    6    3   20 1     
    7    4   13 am    
    8    4    5 1     
    9    5    6 2     
   10    5   21 1     
   11    6    7 1     
   12    7    8 1     
   13    7   12 2     
   14    8   11 1     
   15    8    9 1     
   16    8   22 1     
   17    9   10 1     
   18    9   23 1     
   19    9   24 1     
   20   10   11 1     
   21   10   25 1     
   22   10   26 1     
   23   11   27 1     
   24   11   28 1     
   25   12   13 1     
   26   12   29 1     
   27   13   14 2     
   28   15   16 1     
   29   15   30 1     
   30   16   18 1     
   31   16   17 1     
   32   16   31 1     
   33   17   18 1     
   34   17   32 1     
   35   17   33 1     
   36   18   34 1     
   37   18   35 1     
   38    1   36 1     
   39    1   37 1     
   40    6   38 1     
   41   14   39 1     
   42   14   40 1     
@<TRIPOS>SUBSTRUCTURE
      1 S1             1
@<TRIPOS>SET
LONE_PAIRS      STATIC     ATOMS    <user>   **** ""
5 36 37 38 39 40
DONOR_HYDROGENS      STATIC     ATOMS    <user>   **** ""
1 30
ATOM$BLUE        STATIC     ATOMS    COLORGROUP SYSTEM
5 36 37 38 39 40
ATOM$RED        STATIC     ATOMS    COLORGROUP SYSTEM
1 30
