#       Name:                AV-unprocessed.smi:3196
#       Creating user name   scv26
#       Creation time:       Fri Mar 27 18:05:34 2020


#       File generated by GOLD software.
#

@<TRIPOS>MOLECULE
AV-unprocessed.smi:3196
    36    37     1
SMALL
NO_CHARGES


@<TRIPOS>ATOM
      1 ****         4.4937   1.0496   4.2829 C.3            1 S1                 0.0000
      2 ****         3.0075   0.7690   4.5287 C.3            1 S1                 0.0000
      3 ****         2.3663  -0.0398   3.3931 C.3            1 S1                 0.0000
      4 ****         0.8929  -0.3135   3.6392 C.3            1 S1                 0.0000
      5 ****        -0.1610   0.6669   3.1982 C.3            1 S1                 0.0000
      6 ****        -0.0605  -0.6845   2.5198 C.3            1 S1                 0.0000
      7 ****         0.4191  -0.7024   1.1694 N.am           1 S1                 0.0000
      8 ****         0.3681  -1.7178   0.2888 C.2            1 S1                 0.0000
      9 ****        -0.1657  -2.7834   0.5875 O.2            1 S1                 0.0000
     10 ****         0.9052  -1.4304  -0.9140 N.am           1 S1                 0.0000
     11 ****         1.0237  -2.2371  -2.0804 C.ar           1 S1                 0.0000
     12 ****         0.6797  -3.6095  -2.1558 C.ar           1 S1                 0.0000
     13 ****         0.8551  -4.2835  -3.3813 C.ar           1 S1                 0.0000
     14 ****         1.3398  -3.6933  -4.4940 N.ar           1 S1                 0.0000
     15 ****         1.6724  -2.3876  -4.4178 C.ar           1 S1                 0.0000
     16 ****         1.5349  -1.6214  -3.2431 C.ar           1 S1                 0.0000
     17 ****         1.8896  -0.3134  -3.2364 F              1 S1                 0.0000
     18 ****         4.9216   1.6244   5.1045 H              1 S1                 0.0000
     19 ****         4.6397   1.6206   3.3657 H              1 S1                 0.0000
     20 ****         5.0602   0.1222   4.1950 H              1 S1                 0.0000
     21 ****         2.8949   0.2310   5.4708 H              1 S1                 0.0000
     22 ****         2.4777   1.7148   4.6475 H              1 S1                 0.0000
     23 ****         2.4864   0.4957   2.4506 H              1 S1                 0.0000
     24 ****         2.8796  -0.9953   3.2801 H              1 S1                 0.0000
     25 ****         0.7056  -0.8176   4.5855 H              1 S1                 0.0000
     26 ****        -1.0018   0.8318   3.8688 H              1 S1                 0.0000
     27 ****         0.1653   1.5429   2.6402 H              1 S1                 0.0000
     28 ****        -0.8614  -1.3777   2.7727 H              1 S1                 0.0000
     29 ****         0.7862   0.1728   0.8243 H              1 S1                 0.0000
     30 ****         1.2682  -0.4933  -1.0115 H              1 S1                 0.0000
     31 ****         0.2935  -4.1622  -1.3146 H              1 S1                 0.0000
     32 ****         0.6003  -5.3294  -3.4685 H              1 S1                 0.0000
     33 ****         2.0611  -1.9396  -5.3202 H              1 S1                 0.0000
     34 ****        -0.5690  -2.9036   1.4946 LP             1 S1                 0.0000
     35 ****        -0.1969  -3.5304  -0.0766 LP             1 S1                 0.0000
     36 ****         1.4488  -4.2059  -5.3457 LP             1 S1                 0.0000
@<TRIPOS>BOND
    1    1    2 1     
    2    1   18 1     
    3    1   19 1     
    4    1   20 1     
    5    2    3 1     
    6    2   21 1     
    7    2   22 1     
    8    3    4 1     
    9    3   23 1     
   10    3   24 1     
   11    4    6 1     
   12    4    5 1     
   13    4   25 1     
   14    5    6 1     
   15    5   26 1     
   16    5   27 1     
   17    6    7 1     
   18    6   28 1     
   19    7    8 am    
   20    7   29 1     
   21    8    9 2     
   22    8   10 am    
   23   10   11 1     
   24   10   30 1     
   25   11   16 ar    
   26   11   12 ar    
   27   12   13 ar    
   28   12   31 1     
   29   13   14 ar    
   30   13   32 1     
   31   14   15 ar    
   32   15   16 ar    
   33   15   33 1     
   34   16   17 1     
   35    9   34 1     
   36    9   35 1     
   37   14   36 1     
@<TRIPOS>SUBSTRUCTURE
      1 S1             1
@<TRIPOS>SET
LONE_PAIRS      STATIC     ATOMS    <user>   **** ""
3 34 35 36
DONOR_HYDROGENS      STATIC     ATOMS    <user>   **** ""
2 29 30
ATOM$BLUE        STATIC     ATOMS    COLORGROUP SYSTEM
3 34 35 36
ATOM$RED        STATIC     ATOMS    COLORGROUP SYSTEM
2 29 30
