AV-unprocessed.smi:1047|AV-procd|sdf|4563|dock4
  -GOLD-   22720 3 03D 1   1.00000     0.00000
 Structure written by MMmdl.
 57 59  0  0  0  0  0  0  0  0  3 V2000
  153.4105  130.9073  160.8544 C   0  0  0  0  0  0  0  0  0  0  0  0
  154.3081  130.3939  161.9893 C   0  0  0  0  0  0  0  0  0  0  0  0
  154.5446  131.4192  163.0366 N   0  3  2  0  0  0  0  0  0  0  0  0
  153.2964  131.8109  163.7339 C   0  0  0  0  0  0  0  0  0  0  0  0
  153.5957  132.8273  164.8487 C   0  0  0  0  0  0  0  0  0  0  0  0
  154.2540  133.9630  164.2998 O   0  0  0  0  0  0  0  0  0  0  0  0
  155.4952  133.6235  163.6907 C   0  0  2  0  0  0  0  0  0  0  0  0
  156.2055  134.9139  163.2466 C   0  0  0  0  0  0  0  0  0  0  0  0
  155.5344  135.5574  162.0974 N   0  3  0  0  0  0  0  0  0  0  0  0
  154.1560  136.0039  162.3817 C   0  0  0  0  0  0  0  0  0  0  0  0
  153.6368  136.9584  161.2886 C   0  0  2  0  0  0  0  0  0  0  0  0
  153.4991  136.2379  160.0802 O   0  0  0  0  0  0  0  0  0  0  0  0
  154.5658  138.1588  161.0139 C   0  0  0  0  0  0  0  0  0  0  0  0
  153.9759  139.1316  160.1124 N   0  0  0  0  0  0  0  0  0  0  0  0
  153.6998  138.9601  158.8053 C   0  0  0  0  0  0  0  0  0  0  0  0
  153.1465  139.9833  158.1611 N   0  0  0  0  0  0  0  0  0  0  0  0
  153.0586  140.9321  159.1652 C   0  0  0  0  0  0  0  0  0  0  0  0
  152.5532  142.2502  159.1402 C   0  0  0  0  0  0  0  0  0  0  0  0
  152.5559  143.0497  160.3054 C   0  0  0  0  0  0  0  0  0  0  0  0
  151.9988  144.4606  160.2340 C   0  0  0  0  0  0  0  0  0  0  0  0
  153.0734  142.5333  161.5205 C   0  0  0  0  0  0  0  0  0  0  0  0
  153.0859  143.3741  162.7848 C   0  0  0  0  0  0  0  0  0  0  0  0
  153.5851  141.2195  161.5624 C   0  0  0  0  0  0  0  0  0  0  0  0
  153.5732  140.4324  160.3972 C   0  0  0  0  0  0  0  0  0  0  0  0
  155.2579  132.6226  162.5401 C   0  0  0  0  0  0  0  0  0  0  0  0
  153.3316  130.1618  160.0625 H   0  0  0  0  0  0  0  0  0  0  0  0
  153.8173  131.8163  160.4104 H   0  0  0  0  0  0  0  0  0  0  0  0
  152.3983  131.1214  161.1962 H   0  0  0  0  0  0  0  0  0  0  0  0
  153.8867  129.4915  162.4348 H   0  0  0  0  0  0  0  0  0  0  0  0
  155.2648  130.1046  161.5522 H   0  0  0  0  0  0  0  0  0  0  0  0
  152.5938  132.2380  163.0164 H   0  0  0  0  0  0  0  0  0  0  0  0
  152.8189  130.9294  164.1638 H   0  0  0  0  0  0  0  0  0  0  0  0
  152.6674  133.1514  165.3198 H   0  0  0  0  0  0  0  0  0  0  0  0
  154.2091  132.3783  165.6316 H   0  0  0  0  0  0  0  0  0  0  0  0
  156.1274  133.1459  164.4419 H   0  0  0  0  0  0  0  0  0  0  0  0
  156.2371  135.6195  164.0778 H   0  0  0  0  0  0  0  0  0  0  0  0
  157.2399  134.6918  162.9809 H   0  0  0  0  0  0  0  0  0  0  0  0
  156.0723  136.3637  161.8127 H   0  0  0  0  0  0  0  0  0  0  0  0
  153.5270  135.1153  162.4372 H   0  0  0  0  0  0  0  0  0  0  0  0
  154.1166  136.4864  163.3595 H   0  0  0  0  0  0  0  0  0  0  0  0
  152.6521  137.3312  161.5740 H   0  0  0  0  0  0  0  0  0  0  0  0
  154.3583  135.9834  159.7788 H   0  0  0  0  0  0  0  0  0  0  0  0
  154.8242  138.6640  161.9455 H   0  0  0  0  0  0  0  0  0  0  0  0
  155.5053  137.8167  160.5771 H   0  0  0  0  0  0  0  0  0  0  0  0
  153.9122  138.0294  158.2997 H   0  0  0  0  0  0  0  0  0  0  0  0
  152.1592  142.6436  158.2145 H   0  0  0  0  0  0  0  0  0  0  0  0
  152.7665  145.1883  160.4979 H   0  0  0  0  0  0  0  0  0  0  0  0
  151.1603  144.5760  160.9211 H   0  0  0  0  0  0  0  0  0  0  0  0
  151.6434  144.6988  159.2310 H   0  0  0  0  0  0  0  0  0  0  0  0
  153.5015  142.8209  163.6274 H   0  0  0  0  0  0  0  0  0  0  0  0
  152.0738  143.6783  163.0521 H   0  0  0  0  0  0  0  0  0  0  0  0
  153.6905  144.2697  162.6412 H   0  0  0  0  0  0  0  0  0  0  0  0
  153.9822  140.8151  162.4817 H   0  0  0  0  0  0  0  0  0  0  0  0
  156.2166  132.3407  162.1056 H   0  0  0  0  0  0  0  0  0  0  0  0
  154.6703  133.0846  161.7453 H   0  0  0  0  0  0  0  0  0  0  0  0
  155.5067  134.9013  161.3296 H   0  0  0  0  0  0  0  0  0  0  0  0
  155.1349  130.9872  163.7335 H   0  0  0  0  0  0  0  0  0  0  0  0
  1  2  1  0  0  0  0
  1 26  1  0  0  0  0
  1 27  1  0  0  0  0
  1 28  1  0  0  0  0
  2  3  1  0  0  0  0
  2 29  1  0  0  0  0
  2 30  1  0  0  0  0
  3 25  1  0  0  0  0
  3  4  1  0  0  0  0
  3 57  1  0  0  0  0
  4  5  1  0  0  0  0
  4 31  1  0  0  0  0
  4 32  1  0  0  0  0
  5  6  1  0  0  0  0
  5 33  1  0  0  0  0
  5 34  1  0  0  0  0
  6  7  1  0  0  0  0
  7  8  1  0  0  0  0
  7 25  1  0  0  0  0
  7 35  1  0  0  0  0
  8  9  1  0  0  0  0
  8 36  1  0  0  0  0
  8 37  1  0  0  0  0
  9 10  1  0  0  0  0
  9 38  1  0  0  0  0
  9 56  1  0  0  0  0
 10 11  1  0  0  0  0
 10 39  1  0  0  0  0
 10 40  1  0  0  0  0
 11 12  1  0  0  0  0
 11 13  1  0  0  0  0
 11 41  1  0  0  0  0
 12 42  1  0  0  0  0
 13 14  1  0  0  0  0
 13 43  1  0  0  0  0
 13 44  1  0  0  0  0
 14 24  1  0  0  0  0
 14 15  1  0  0  0  0
 15 16  2  0  0  0  0
 15 45  1  0  0  0  0
 16 17  1  0  0  0  0
 17 24  2  0  0  0  0
 17 18  1  0  0  0  0
 18 19  2  0  0  0  0
 18 46  1  0  0  0  0
 19 20  1  0  0  0  0
 19 21  1  0  0  0  0
 20 47  1  0  0  0  0
 20 48  1  0  0  0  0
 20 49  1  0  0  0  0
 21 22  1  0  0  0  0
 21 23  2  0  0  0  0
 22 50  1  0  0  0  0
 22 51  1  0  0  0  0
 22 52  1  0  0  0  0
 23 24  1  0  0  0  0
 23 53  1  0  0  0  0
 25 54  1  0  0  0  0
 25 55  1  0  0  0  0
M  CHG  1   3   1
M  CHG  1   9   1
M  END
> <s_m_source_file>
AV-unprocessed.smi

> <i_m_source_file_index>
1047

> <i_lp_mmshare_version>
43012

> <i_f3d_flags>
0

> <s_epik_input>
W0NIM11bQ0gyXU4xW0NIMl1bQ0gyXU9bQ0BIXShbQ0gyXTEpW0NIMl1bTkhdW0NIMl1bQ0BIXShbT0hdKVtDSDJdbihbY0hdbjIpYyhjMjMpW2NIXWMoW0NIM10pYyhbY0hdMylbQ0gzXQ==

> <s_epik_cmdline>
J2VwaWtfcHl0aG9uJywgJy1waCcsICc3LjAnLCAnLXRuJywgJzgnLCAnLW1hJywgJzIwMCcsICctbWV0YWxfYmluZGluZycsICctaW1hZScsICc8aW5maWxlLm1hZT4nLCAnLW9tYWUnLCAnPG91dGZpbGUubWFlPic=

> <r_epik_Ionization_Penalty>
0.528991

> <r_epik_Ionization_Penalty_Charging>
0.438567

> <r_epik_Ionization_Penalty_Neutral>
0.0904237

> <r_epik_State_Penalty>
0.533036

> <r_epik_Charging_Adjusted_Penalty>
0.971603

> <i_epik_Tot_Q>
2

> <i_epik_Tot_abs_Q>
2

> <r_epik_Metal_State_Penalty>
0.448985

> <b_epik_Metal_Only>
0

> <s_lp_Force_Field>
OPLS_2005

> <r_lp_Energy>
33.7981

> <b_lp_Chiralities_Consistent>
1

> <s_lp_Variant>
AV-unprocessed.smi:1047-4

> <Gold.Version>
5.8.1

> <Gold.Id.Protein>
6NUR|6NUR_protein|mol2

> <Gold.PLP.Fitness>
53.5357

> <Gold.PLP.PLP>
-47.8239

> <Gold.PLP.part.hbond>
-1.9495

> <Gold.PLP.part.metal>
0.0000

> <Gold.PLP.part.buried>
-5.3525

> <Gold.PLP.part.nonpolar>
-40.4780

> <Gold.PLP.part.repulsive>
0.0995

> <Gold.PLP.ligand.clash>
0.0000

> <Gold.PLP.ligand.torsion>
0.2023

> <Gold.PLP.Chemscore.Hbond>
1.9750

> <Gold.PLP.Chemscore.CHOScore>
0.0000

> <Gold.PLP.Chemscore.Metal>
0.0000

> <Gold.Chemscore.Hbonds>
donor molecule, donor type, donor heavy atom, donor atom, acceptor molecule, acceptor atom, score
      P1  H  6896  6908       L1    12  1.00
      P1  H  7997  8009       L1    16  0.65

> <Gold.PLP.Chemscore.Internal.Correction>
0.1914

> <Gold.Rescore>
     Score         DG    S(hbond)    S(metal)    S(lipo)     H(rot)  DE(clash)    DE(int)     intcor
     19.17     -21.72       1.85        0.00     144.97       2.70       0.06       2.49       ----

> <Gold.Chemscore.Fitness>
19.1727

> <Gold.Chemscore.DG>
-21.7207

> <Gold.Chemscore.ZeroCoef>
-5.4800

> <Gold.Chemscore.Hbond>
1.8526

> <Gold.Chemscore.Metal>
0.0000

> <Gold.Chemscore.Lipo>
144.9675

> <Gold.Chemscore.Internal_Hbond>
0.0000

> <Gold.Chemscore.DEClash>
0.0615

> <Gold.Chemscore.DEInternal>
2.4865

> <Gold.Chemscore.Rot>
2.6985

> <Gold.Chemscore.Internal.Correction>
   9.000000E+99

> <Gold.Chemscore.Hbonds>
donor molecule, donor type, donor heavy atom, donor atom, acceptor molecule, acceptor atom, score
      P1  H  6896  6908       L1    12  0.83
      P1  H  7997  8009       L1    16  0.05

> <Gold.Chemscore.Hbond.Weighted>
-6.1876

> <Gold.Chemscore.Metal.Weighted>
-0.0000

> <Gold.Chemscore.Lipo.Weighted>
-16.9612

> <Gold.Chemscore.Internal_Hbond.Weighted>
0.0000

> <Gold.Chemscore.DEClash.Weighted>
0.0615

> <Gold.Chemscore.DEInternal.Weighted>
2.4865

> <Gold.Chemscore.Rot.Weighted>
6.9081

> <Gold.Chemscore.Internal.Correction.Weighted>
   9.000000E+99

> <Gold.Protein.RotatedTorsions>
[ 6907 6896 6895 6894 ] final  -76.72 input  -60.11 | X-H torsion
[ 7974 7965 7964 7962 ] final  158.21 input  175.53 | X-H torsion
[ 8008 7997 7996 7995 ] final  162.21 input   59.86 | X-H torsion
[ 10167 10162 10161 10158 ] final   44.75 input  -65.29 | X-H torsion
[ 10718 10713 10712 10709 ] final   30.68 input   66.30 | X-H torsion
[ 10763 10752 10751 10750 ] final   47.60 input  -60.55 | X-H torsion
[ 11005 11000 10999 10996 ] final   77.36 input  -57.11 | X-H torsion

> <Gold.Protein.ActiveResidues>
 VAL166  LYS551  ARG553  GLY616  TRP617  ASP618  TYR619  PRO620  LYS621  CYS622 
 ASP623  PHE694  ASN695  SER759  ASP760  ASP761  ALA762  ILE779  LEU786  VAL792 
 PHE793  MET794  SER795  GLU796  ALA797  LYS798  CYS799  TRP800  GLU811  SER814 

> <Gold.Protein.RotatedAtoms>
  150.7019  134.4530  159.5344 H   0  0  0  0  0  0  0  0  0  0  0  0  # atno 6907 bound_to 6896
  152.2219  134.8402  160.0494 H   0  0  0  0  0  0  0  0  0  0  0  0  # atno 6908 bound_to 6896
  151.9250  133.3560  159.3947 H   0  0  0  0  0  0  0  0  0  0  0  0  # atno 6909 bound_to 6896
  144.7858  139.7447  143.6241 H   0  0  0  0  0  0  0  0  0  0  0  0  # atno 7974 bound_to 7965
  156.2048  140.1756  156.7823 H   0  0  0  0  0  0  0  0  0  0  0  0  # atno 8008 bound_to 7997
  154.5640  140.0694  156.8893 H   0  0  0  0  0  0  0  0  0  0  0  0  # atno 8009 bound_to 7997
  155.2795  140.3348  155.4262 H   0  0  0  0  0  0  0  0  0  0  0  0  # atno 8010 bound_to 7997
  140.3311  144.2587  150.6168 H   0  0  0  0  0  0  0  0  0  0  0  0  # atno 10167 bound_to 10162
  157.2627  130.7169  149.6462 H   0  0  0  0  0  0  0  0  0  0  0  0  # atno 10718 bound_to 10713
  152.9798  135.5971  154.3788 H   0  0  0  0  0  0  0  0  0  0  0  0  # atno 10763 bound_to 10752
  154.3455  135.2767  155.2402 H   0  0  0  0  0  0  0  0  0  0  0  0  # atno 10764 bound_to 10752
  154.4464  135.6000  153.6218 H   0  0  0  0  0  0  0  0  0  0  0  0  # atno 10765 bound_to 10752
  139.9258  134.7676  156.1512 H   0  0  0  0  0  0  0  0  0  0  0  0  # atno 11005 bound_to 11000
  146.2090  139.5433  142.9694 LP  0  0  0  0  0  0  0  0  0  0  0  0  # atno 17320 bound_to 7965
  145.5925  141.0367  143.2062 LP  0  0  0  0  0  0  0  0  0  0  0  0  # atno 17321 bound_to 7965
  140.5396  143.2226  151.8106 LP  0  0  0  0  0  0  0  0  0  0  0  0  # atno 17342 bound_to 10162
  139.4856  144.4617  151.9533 LP  0  0  0  0  0  0  0  0  0  0  0  0  # atno 17343 bound_to 10162
  155.9664  130.4392  150.5250 LP  0  0  0  0  0  0  0  0  0  0  0  0  # atno 17370 bound_to 10713
  157.3158  131.0672  151.1968 LP  0  0  0  0  0  0  0  0  0  0  0  0  # atno 17371 bound_to 10713
  141.0814  133.6753  156.2344 LP  0  0  0  0  0  0  0  0  0  0  0  0  # atno 17394 bound_to 11000
  140.6341  134.5233  157.5563 LP  0  0  0  0  0  0  0  0  0  0  0  0  # atno 17395 bound_to 11000

$$$$
