AV-unprocessed.smi:3067|AV-procd|sdf|11694|dock1
  -GOLD-   2272017 93D 1   1.00000     0.00000
 Structure written by MMmdl.
 34 35  0  0  0  0  0  0  0  0  1 V2000
  143.8888  134.7973  153.3609 C   0  0  0  0  0  0  0  0  0  0  0  0
  144.9949  133.9369  153.1381 O   0  0  0  0  0  0  0  0  0  0  0  0
  145.3203  133.7431  151.7660 C   0  0  2  0  0  0  0  0  0  0  0  0
  144.1814  132.9633  151.0738 C   0  0  0  0  0  0  0  0  0  0  0  0
  144.5433  132.5887  149.6294 C   0  0  0  0  0  0  0  0  0  0  0  0
  145.8570  131.7974  149.5793 C   0  0  0  0  0  0  0  0  0  0  0  0
  146.9943  132.5790  150.2519 C   0  0  0  0  0  0  0  0  0  0  0  0
  146.6457  132.9510  151.7096 C   0  0  1  0  0  0  0  0  0  0  0  0
  147.7232  133.7284  152.3116 N   0  0  0  0  0  0  0  0  0  0  0  0
  148.4638  133.2659  153.4102 C   0  0  0  0  0  0  0  0  0  0  0  0
  148.5187  131.9095  153.8082 C   0  0  0  0  0  0  0  0  0  0  0  0
  149.2916  131.5568  154.9311 C   0  0  0  0  0  0  0  0  0  0  0  0
  149.9851  132.5720  155.6225 C   0  0  0  0  0  0  0  0  0  0  0  0
  150.7863  132.2290  156.7850 C   0  0  0  0  0  0  0  0  0  0  0  0
  151.4240  131.9560  157.7114 N   0  0  0  0  0  0  0  0  0  0  0  0
  149.9395  133.8695  155.2510 N   0  0  0  0  0  0  0  0  0  0  0  0
  149.1967  134.1994  154.1730 C   0  0  0  0  0  0  0  0  0  0  0  0
  143.7308  134.9122  154.4331 H   0  0  0  0  0  0  0  0  0  0  0  0
  142.9698  134.3986  152.9322 H   0  0  0  0  0  0  0  0  0  0  0  0
  144.0695  135.7882  152.9431 H   0  0  0  0  0  0  0  0  0  0  0  0
  145.4640  134.7049  151.2688 H   0  0  0  0  0  0  0  0  0  0  0  0
  143.9669  132.0552  151.6390 H   0  0  0  0  0  0  0  0  0  0  0  0
  143.2617  133.5476  151.0702 H   0  0  0  0  0  0  0  0  0  0  0  0
  143.7388  132.0023  149.1847 H   0  0  0  0  0  0  0  0  0  0  0  0
  144.6365  133.4940  149.0281 H   0  0  0  0  0  0  0  0  0  0  0  0
  145.7269  130.8365  150.0787 H   0  0  0  0  0  0  0  0  0  0  0  0
  146.1185  131.5766  148.5440 H   0  0  0  0  0  0  0  0  0  0  0  0
  147.9084  131.9865  150.2141 H   0  0  0  0  0  0  0  0  0  0  0  0
  147.1960  133.4855  149.6790 H   0  0  0  0  0  0  0  0  0  0  0  0
  146.5034  132.0366  152.2863 H   0  0  0  0  0  0  0  0  0  0  0  0
  147.8633  134.6747  151.9873 H   0  0  0  0  0  0  0  0  0  0  0  0
  147.9865  131.1363  153.2755 H   0  0  0  0  0  0  0  0  0  0  0  0
  149.3468  130.5262  155.2512 H   0  0  0  0  0  0  0  0  0  0  0  0
  149.1875  135.2478  153.9124 H   0  0  0  0  0  0  0  0  0  0  0  0
  1  2  1  0  0  0  0
  1 18  1  0  0  0  0
  1 19  1  0  0  0  0
  1 20  1  0  0  0  0
  2  3  1  0  0  0  0
  3  8  1  0  0  0  0
  3  4  1  0  0  0  0
  3 21  1  0  0  0  0
  4  5  1  0  0  0  0
  4 22  1  0  0  0  0
  4 23  1  0  0  0  0
  5  6  1  0  0  0  0
  5 24  1  0  0  0  0
  5 25  1  0  0  0  0
  6  7  1  0  0  0  0
  6 26  1  0  0  0  0
  6 27  1  0  0  0  0
  7  8  1  0  0  0  0
  7 28  1  0  0  0  0
  7 29  1  0  0  0  0
  8  9  1  0  0  0  0
  8 30  1  0  0  0  0
  9 10  1  0  0  0  0
  9 31  1  0  0  0  0
 10 17  1  0  0  0  0
 10 11  2  0  0  0  0
 11 12  1  0  0  0  0
 11 32  1  0  0  0  0
 12 13  2  0  0  0  0
 12 33  1  0  0  0  0
 13 14  1  0  0  0  0
 13 16  1  0  0  0  0
 14 15  3  0  0  0  0
 16 17  2  0  0  0  0
 17 34  1  0  0  0  0
M  END
> <s_m_source_file>
AV-unprocessed.smi

> <i_m_source_file_index>
3067

> <i_lp_mmshare_version>
43012

> <i_f3d_flags>
0

> <s_epik_input>
W0NIM11PW0NAQEhdMVtDSDJdW0NIMl1bQ0gyXVtDSDJdW0NASF0xW05IXWMyW2NIXVtjSF1jKEMjTiluW2NIXTI=

> <s_epik_cmdline>
J2VwaWtfcHl0aG9uJywgJy1waCcsICc3LjAnLCAnLXRuJywgJzgnLCAnLW1hJywgJzIwMCcsICctbWV0YWxfYmluZGluZycsICctaW1hZScsICc8aW5maWxlLm1hZT4nLCAnLW9tYWUnLCAnPG91dGZpbGUubWFlPic=

> <r_lp_tautomer_probability>
1

> <r_epik_Ionization_Penalty>
2.01011e-07

> <r_epik_Ionization_Penalty_Charging>
0

> <r_epik_Ionization_Penalty_Neutral>
2.01011e-07

> <r_epik_State_Penalty>
-0

> <r_epik_Charging_Adjusted_Penalty>
0

> <i_epik_Tot_Q>
0

> <i_epik_Tot_abs_Q>
0

> <r_epik_Metal_State_Penalty>
-0

> <b_epik_Metal_Only>
0

> <s_lp_Force_Field>
OPLS_2005

> <r_lp_Energy>
16.9027

> <b_lp_Chiralities_Consistent>
1

> <s_lp_Variant>
AV-unprocessed.smi:3067-1

> <Gold.Version>
5.8.1

> <Gold.Id.Protein>
6NUR|6NUR_protein|mol2

> <Gold.PLP.Fitness>
38.4396

> <Gold.PLP.PLP>
-29.7652

> <Gold.PLP.part.hbond>
-1.9910

> <Gold.PLP.part.metal>
0.0000

> <Gold.PLP.part.buried>
1.8221

> <Gold.PLP.part.nonpolar>
-28.8193

> <Gold.PLP.part.repulsive>
0.1756

> <Gold.PLP.ligand.clash>
0.0000

> <Gold.PLP.ligand.torsion>
0.1071

> <Gold.PLP.Chemscore.Hbond>
1.9920

> <Gold.PLP.Chemscore.CHOScore>
0.9686

> <Gold.PLP.Chemscore.Metal>
0.0000

> <Gold.Chemscore.Hbonds>
donor molecule, donor type, donor heavy atom, donor atom, acceptor molecule, acceptor atom, score
      L1  H     9    31       P1  7948  0.99
      P1  H  6896  6907       L1    15  0.99
      L1  C    17    34       P1  7948  0.97

> <Gold.PLP.Chemscore.Internal.Correction>
0.0068

> <Gold.Rescore>
     Score         DG    S(hbond)    S(metal)    S(lipo)     H(rot)  DE(clash)    DE(int)     intcor
     15.75     -17.35       1.56        0.00      83.20       1.20       1.53       0.07       ----

> <Gold.Chemscore.Fitness>
15.7486

> <Gold.Chemscore.DG>
-17.3461

> <Gold.Chemscore.ZeroCoef>
-5.4800

> <Gold.Chemscore.Hbond>
1.5588

> <Gold.Chemscore.Metal>
0.0000

> <Gold.Chemscore.Lipo>
83.2019

> <Gold.Chemscore.Internal_Hbond>
0.0000

> <Gold.Chemscore.DEClash>
1.5307

> <Gold.Chemscore.DEInternal>
0.0668

> <Gold.Chemscore.Rot>
1.2012

> <Gold.Chemscore.Internal.Correction>
   9.000000E+99

> <Gold.Chemscore.Hbonds>
donor molecule, donor type, donor heavy atom, donor atom, acceptor molecule, acceptor atom, score
      L1  H     9    31       P1  7948  0.33
      P1  H  6896  6907       L1    15  0.88

> <Gold.Chemscore.Hbond.Weighted>
-5.2065

> <Gold.Chemscore.Metal.Weighted>
-0.0000

> <Gold.Chemscore.Lipo.Weighted>
-9.7346

> <Gold.Chemscore.Internal_Hbond.Weighted>
0.0000

> <Gold.Chemscore.DEClash.Weighted>
1.5307

> <Gold.Chemscore.DEInternal.Weighted>
0.0668

> <Gold.Chemscore.Rot.Weighted>
3.0750

> <Gold.Chemscore.Internal.Correction.Weighted>
   9.000000E+99

> <Gold.Protein.RotatedTorsions>
[ 6907 6896 6895 6894 ] final -170.17 input  -60.11 | X-H torsion
[ 7974 7965 7964 7962 ] final  165.37 input  175.53 | X-H torsion
[ 8008 7997 7996 7995 ] final  -27.20 input   59.86 | X-H torsion
[ 10167 10162 10161 10158 ] final   36.12 input  -65.29 | X-H torsion
[ 10718 10713 10712 10709 ] final  -73.31 input   66.30 | X-H torsion
[ 10763 10752 10751 10750 ] final -157.87 input  -60.55 | X-H torsion
[ 11005 11000 10999 10996 ] final   19.44 input  -57.11 | X-H torsion

> <Gold.Protein.ActiveResidues>
 VAL166  LYS551  ARG553  GLY616  TRP617  ASP618  TYR619  PRO620  LYS621  CYS622 
 ASP623  PHE694  ASN695  SER759  ASP760  ASP761  ALA762  ILE779  LEU786  VAL792 
 PHE793  MET794  SER795  GLU796  ALA797  LYS798  CYS799  TRP800  GLU811  SER814 

> <Gold.Protein.RotatedAtoms>
  151.5033  133.3500  159.2872 H   0  0  0  0  0  0  0  0  0  0  0  0  # atno 6907 bound_to 6896
  150.8759  134.8143  159.7200 H   0  0  0  0  0  0  0  0  0  0  0  0  # atno 6908 bound_to 6896
  152.4730  134.4924  159.9751 H   0  0  0  0  0  0  0  0  0  0  0  0  # atno 6909 bound_to 6896
  144.7505  139.8460  143.6367 H   0  0  0  0  0  0  0  0  0  0  0  0  # atno 7974 bound_to 7965
  154.4388  140.1879  156.0894 H   0  0  0  0  0  0  0  0  0  0  0  0  # atno 8008 bound_to 7997
  156.0377  140.3323  155.7183 H   0  0  0  0  0  0  0  0  0  0  0  0  # atno 8009 bound_to 7997
  155.5746  140.0616  157.2789 H   0  0  0  0  0  0  0  0  0  0  0  0  # atno 8010 bound_to 7997
  140.4157  144.1530  150.6143 H   0  0  0  0  0  0  0  0  0  0  0  0  # atno 10167 bound_to 10162
  156.0285  130.4391  150.2723 H   0  0  0  0  0  0  0  0  0  0  0  0  # atno 10718 bound_to 10713
  154.7602  135.3115  154.8393 H   0  0  0  0  0  0  0  0  0  0  0  0  # atno 10763 bound_to 10752
  153.9156  135.6801  153.4753 H   0  0  0  0  0  0  0  0  0  0  0  0  # atno 10764 bound_to 10752
  153.1202  135.4826  154.9114 H   0  0  0  0  0  0  0  0  0  0  0  0  # atno 10765 bound_to 10752
  140.4137  134.1591  155.7668 H   0  0  0  0  0  0  0  0  0  0  0  0  # atno 11005 bound_to 11000
  146.1449  139.4516  143.0085 LP  0  0  0  0  0  0  0  0  0  0  0  0  # atno 17320 bound_to 7965
  145.6960  141.0150  143.1530 LP  0  0  0  0  0  0  0  0  0  0  0  0  # atno 17321 bound_to 7965
  140.4589  143.2457  151.9247 LP  0  0  0  0  0  0  0  0  0  0  0  0  # atno 17342 bound_to 10162
  139.4782  144.5488  151.8418 LP  0  0  0  0  0  0  0  0  0  0  0  0  # atno 17343 bound_to 10162
  157.0826  131.0147  151.3151 LP  0  0  0  0  0  0  0  0  0  0  0  0  # atno 17370 bound_to 10713
  157.4915  130.7825  149.7513 LP  0  0  0  0  0  0  0  0  0  0  0  0  # atno 17371 bound_to 10713
  141.1811  133.8411  157.1254 LP  0  0  0  0  0  0  0  0  0  0  0  0  # atno 17394 bound_to 11000
  140.0249  134.9928  157.0666 LP  0  0  0  0  0  0  0  0  0  0  0  0  # atno 17395 bound_to 11000

$$$$
