AV-unprocessed.smi:2531|AV-procd|sdf|9964|dock4
  -GOLD-   2272014 03D 1   1.00000     0.00000
 Structure written by MMmdl.
 46 48  0  0  0  0  0  0  0  0  1 V2000
  149.7942  142.2954  159.1092 O   0  0  0  0  0  0  0  0  0  0  0  0
  150.8075  142.1310  158.4286 C   0  0  0  0  0  0  0  0  0  0  0  0
  152.1706  142.7127  158.8685 C   0  0  0  0  0  0  0  0  0  0  0  0
  152.2947  142.9221  160.3874 C   0  0  0  0  0  0  0  0  0  0  0  0
  151.6905  144.3039  160.6716 C   0  0  0  0  0  0  0  0  0  0  0  0
  151.7351  145.0731  159.3424 C   0  0  0  0  0  0  0  0  0  0  0  0
  152.3930  144.1326  158.3245 C   0  0  0  0  0  0  0  0  0  0  0  0
  150.7815  141.3442  157.2730 N   0  0  0  0  0  0  0  0  0  0  0  0
  151.8667  140.4370  156.9312 C   0  0  0  0  0  0  0  0  0  0  0  0
  150.7938  139.6063  156.2179 C   0  0  0  0  0  0  0  0  0  0  0  0
  150.9414  137.7985  156.5700 S   0  0  0  0  0  0  0  0  0  0  0  0
  151.0774  137.0857  155.2904 O   0  0  0  0  0  0  0  0  0  0  0  0
  151.9238  137.5732  157.6415 O   0  0  0  0  0  0  0  0  0  0  0  0
  149.3872  137.4207  157.2104 N   0  0  0  0  0  0  0  0  0  0  0  0
  149.3215  136.8914  158.5711 C   0  0  0  0  0  0  0  0  0  0  0  0
  148.0074  137.3107  159.2435 C   0  0  0  0  0  0  0  0  0  0  0  0
  147.7308  136.5171  160.5065 C   0  0  0  0  0  0  0  0  0  0  0  0
  147.6925  135.1066  160.4782 C   0  0  0  0  0  0  0  0  0  0  0  0
  147.4383  134.4184  161.6805 C   0  0  0  0  0  0  0  0  0  0  0  0
  147.2348  135.1629  162.8584 C   0  0  0  0  0  0  0  0  0  0  0  0
  147.2948  136.5686  162.7814 C   0  0  0  0  0  0  0  0  0  0  0  0
  147.5372  137.2383  161.6339 N   0  0  0  0  0  0  0  0  0  0  0  0
  149.7465  140.3430  157.0647 C   0  0  0  0  0  0  0  0  0  0  0  0
  152.9583  142.0397  158.5295 H   0  0  0  0  0  0  0  0  0  0  0  0
  151.8276  142.1354  160.9816 H   0  0  0  0  0  0  0  0  0  0  0  0
  153.3515  142.9288  160.6580 H   0  0  0  0  0  0  0  0  0  0  0  0
  150.6571  144.2027  161.0055 H   0  0  0  0  0  0  0  0  0  0  0  0
  152.2383  144.8205  161.4604 H   0  0  0  0  0  0  0  0  0  0  0  0
  150.7201  145.3156  159.0254 H   0  0  0  0  0  0  0  0  0  0  0  0
  152.2821  146.0122  159.4298 H   0  0  0  0  0  0  0  0  0  0  0  0
  153.4638  144.3346  158.2804 H   0  0  0  0  0  0  0  0  0  0  0  0
  152.0011  144.2847  157.3178 H   0  0  0  0  0  0  0  0  0  0  0  0
  152.6197  140.8696  156.2717 H   0  0  0  0  0  0  0  0  0  0  0  0
  152.3017  139.9305  157.7952 H   0  0  0  0  0  0  0  0  0  0  0  0
  150.7358  139.8099  155.1474 H   0  0  0  0  0  0  0  0  0  0  0  0
  148.7506  138.2094  157.0980 H   0  0  0  0  0  0  0  0  0  0  0  0
  149.4034  135.8045  158.5386 H   0  0  0  0  0  0  0  0  0  0  0  0
  150.1747  137.2657  159.1383 H   0  0  0  0  0  0  0  0  0  0  0  0
  148.0360  138.3723  159.4939 H   0  0  0  0  0  0  0  0  0  0  0  0
  147.1755  137.1816  158.5494 H   0  0  0  0  0  0  0  0  0  0  0  0
  147.8552  134.5629  159.5592 H   0  0  0  0  0  0  0  0  0  0  0  0
  147.4012  133.3392  161.6989 H   0  0  0  0  0  0  0  0  0  0  0  0
  147.0383  134.6688  163.7984 H   0  0  0  0  0  0  0  0  0  0  0  0
  147.1442  137.1712  163.6649 H   0  0  0  0  0  0  0  0  0  0  0  0
  149.4555  139.8279  157.9817 H   0  0  0  0  0  0  0  0  0  0  0  0
  148.8874  140.7097  156.5024 H   0  0  0  0  0  0  0  0  0  0  0  0
  1  2  2  0  0  0  0
  2  3  1  0  0  0  0
  2  8  1  0  0  0  0
  3  7  1  0  0  0  0
  3  4  1  0  0  0  0
  3 24  1  0  0  0  0
  4  5  1  0  0  0  0
  4 25  1  0  0  0  0
  4 26  1  0  0  0  0
  5  6  1  0  0  0  0
  5 27  1  0  0  0  0
  5 28  1  0  0  0  0
  6  7  1  0  0  0  0
  6 29  1  0  0  0  0
  6 30  1  0  0  0  0
  7 31  1  0  0  0  0
  7 32  1  0  0  0  0
  8 23  1  0  0  0  0
  8  9  1  0  0  0  0
  9 10  1  0  0  0  0
  9 33  1  0  0  0  0
  9 34  1  0  0  0  0
 10 11  1  0  0  0  0
 10 23  1  0  0  0  0
 10 35  1  0  0  0  0
 11 12  2  0  0  0  0
 11 13  2  0  0  0  0
 11 14  1  0  0  0  0
 14 15  1  0  0  0  0
 14 36  1  0  0  0  0
 15 16  1  0  0  0  0
 15 37  1  0  0  0  0
 15 38  1  0  0  0  0
 16 17  1  0  0  0  0
 16 39  1  0  0  0  0
 16 40  1  0  0  0  0
 17 22  1  0  0  0  0
 17 18  2  0  0  0  0
 18 19  1  0  0  0  0
 18 41  1  0  0  0  0
 19 20  2  0  0  0  0
 19 42  1  0  0  0  0
 20 21  1  0  0  0  0
 20 43  1  0  0  0  0
 21 22  2  0  0  0  0
 21 44  1  0  0  0  0
 23 45  1  0  0  0  0
 23 46  1  0  0  0  0
M  END
> <s_m_source_file>
AV-unprocessed.smi

> <i_m_source_file_index>
2531

> <i_lp_mmshare_version>
43012

> <i_f3d_flags>
0

> <s_epik_input>
W0NIMl0xW0NIMl1bQ0gyXVtDSDJdW0NIXTFDKD1PKU4yW0NIMl1bQ0hdKFtDSDJdMilTKD1PKSg9TylbTkhdW0NIMl1bQ0gyXWMzW2NIXVtjSF1bY0hdW2NIXW4z

> <s_epik_cmdline>
J2VwaWtfcHl0aG9uJywgJy1waCcsICc3LjAnLCAnLXRuJywgJzgnLCAnLW1hJywgJzIwMCcsICctbWV0YWxfYmluZGluZycsICctaW1hZScsICc8aW5maWxlLm1hZT4nLCAnLW9tYWUnLCAnPG91dGZpbGUubWFlPic=

> <r_epik_Ionization_Penalty>
0.0203172

> <r_epik_Ionization_Penalty_Charging>
0

> <r_epik_Ionization_Penalty_Neutral>
0.0203172

> <r_epik_State_Penalty>
0.0162494

> <r_epik_Charging_Adjusted_Penalty>
0.0162494

> <i_epik_Tot_Q>
0

> <i_epik_Tot_abs_Q>
0

> <r_epik_Metal_State_Penalty>
0.0444853

> <b_epik_Metal_Only>
0

> <s_lp_Force_Field>
OPLS_2005

> <r_lp_Energy>
30.9959

> <b_lp_Chiralities_Consistent>
1

> <s_lp_Variant>
AV-unprocessed.smi:2531-1

> <Gold.Version>
5.8.1

> <Gold.Id.Protein>
6NUR|6NUR_protein|mol2

> <Gold.PLP.Fitness>
56.1898

> <Gold.PLP.PLP>
-50.1734

> <Gold.PLP.part.hbond>
-4.0000

> <Gold.PLP.part.metal>
0.0000

> <Gold.PLP.part.buried>
-5.0831

> <Gold.PLP.part.nonpolar>
-41.0309

> <Gold.PLP.part.repulsive>
0.1285

> <Gold.PLP.ligand.clash>
0.0000

> <Gold.PLP.ligand.torsion>
1.9710

> <Gold.PLP.Chemscore.Hbond>
2.7593

> <Gold.PLP.Chemscore.CHOScore>
0.0000

> <Gold.PLP.Chemscore.Metal>
0.0000

> <Gold.Chemscore.Hbonds>
donor molecule, donor type, donor heavy atom, donor atom, acceptor molecule, acceptor atom, score
      P1  H  6931  6943       L1    22  0.94
      P1  H  6934  6947       L1    22  0.78

> <Gold.PLP.Chemscore.Internal.Correction>
1.6807

> <Gold.Rescore>
     Score         DG    S(hbond)    S(metal)    S(lipo)     H(rot)  DE(clash)    DE(int)     intcor
     19.91     -21.55       2.12        0.00     117.25       1.85       0.07       1.58       ----

> <Gold.Chemscore.Fitness>
19.9062

> <Gold.Chemscore.DG>
-21.5515

> <Gold.Chemscore.ZeroCoef>
-5.4800

> <Gold.Chemscore.Hbond>
2.1220

> <Gold.Chemscore.Metal>
0.0000

> <Gold.Chemscore.Lipo>
117.2533

> <Gold.Chemscore.Internal_Hbond>
0.0000

> <Gold.Chemscore.DEClash>
0.0699

> <Gold.Chemscore.DEInternal>
1.5754

> <Gold.Chemscore.Rot>
1.8494

> <Gold.Chemscore.Internal.Correction>
   9.000000E+99

> <Gold.Chemscore.Hbonds>
donor molecule, donor type, donor heavy atom, donor atom, acceptor molecule, acceptor atom, score
      P1  H  6931  6943       L1    22  0.36
      P1  H  6934  6947       L1    22  0.31
      P1  H 10752 10765       L1    12  0.01

> <Gold.Chemscore.Hbond.Weighted>
-7.0874

> <Gold.Chemscore.Metal.Weighted>
-0.0000

> <Gold.Chemscore.Lipo.Weighted>
-13.7186

> <Gold.Chemscore.Internal_Hbond.Weighted>
0.0000

> <Gold.Chemscore.DEClash.Weighted>
0.0699

> <Gold.Chemscore.DEInternal.Weighted>
1.5754

> <Gold.Chemscore.Rot.Weighted>
4.7346

> <Gold.Chemscore.Internal.Correction.Weighted>
   9.000000E+99

> <Gold.Protein.RotatedTorsions>
[ 6907 6896 6895 6894 ] final   48.87 input  -60.11 | X-H torsion
[ 7974 7965 7964 7962 ] final   90.51 input  175.53 | X-H torsion
[ 8008 7997 7996 7995 ] final  -85.19 input   59.86 | X-H torsion
[ 10167 10162 10161 10158 ] final -167.72 input  -65.29 | X-H torsion
[ 10718 10713 10712 10709 ] final   76.98 input   66.30 | X-H torsion
[ 10763 10752 10751 10750 ] final -167.74 input  -60.55 | X-H torsion
[ 11005 11000 10999 10996 ] final  -38.45 input  -57.11 | X-H torsion

> <Gold.Protein.ActiveResidues>
 VAL166  LYS551  ARG553  GLY616  TRP617  ASP618  TYR619  PRO620  LYS621  CYS622 
 ASP623  PHE694  ASN695  SER759  ASP760  ASP761  ALA762  ILE779  LEU786  VAL792 
 PHE793  MET794  SER795  GLU796  ALA797  LYS798  CYS799  TRP800  GLU811  SER814 

> <Gold.Protein.RotatedAtoms>
  152.2843  134.7793  160.0390 H   0  0  0  0  0  0  0  0  0  0  0  0  # atno 6907 bound_to 6896
  151.8361  133.3411  159.3636 H   0  0  0  0  0  0  0  0  0  0  0  0  # atno 6908 bound_to 6896
  150.7203  134.5365  159.5770 H   0  0  0  0  0  0  0  0  0  0  0  0  # atno 6909 bound_to 6896
  145.5180  139.2278  143.2687 H   0  0  0  0  0  0  0  0  0  0  0  0  # atno 7974 bound_to 7965
  154.6380  140.0595  156.9811 H   0  0  0  0  0  0  0  0  0  0  0  0  # atno 8008 bound_to 7997
  155.1562  140.3278  155.4402 H   0  0  0  0  0  0  0  0  0  0  0  0  # atno 8009 bound_to 7997
  156.2516  140.1939  156.6671 H   0  0  0  0  0  0  0  0  0  0  0  0  # atno 8010 bound_to 7997
  139.6031  144.0968  152.1764 H   0  0  0  0  0  0  0  0  0  0  0  0  # atno 10167 bound_to 10162
  157.6693  130.9800  150.1574 H   0  0  0  0  0  0  0  0  0  0  0  0  # atno 10718 bound_to 10713
  154.6701  135.2938  154.9753 H   0  0  0  0  0  0  0  0  0  0  0  0  # atno 10763 bound_to 10752
  154.0783  135.6608  153.4838 H   0  0  0  0  0  0  0  0  0  0  0  0  # atno 10764 bound_to 10752
  153.0481  135.5191  154.7693 H   0  0  0  0  0  0  0  0  0  0  0  0  # atno 10765 bound_to 10752
  141.0028  133.6946  156.2055 H   0  0  0  0  0  0  0  0  0  0  0  0  # atno 11005 bound_to 11000
  146.2124  140.5990  142.9053 LP  0  0  0  0  0  0  0  0  0  0  0  0  # atno 17320 bound_to 7965
  144.7691  140.5598  143.6682 LP  0  0  0  0  0  0  0  0  0  0  0  0  # atno 17321 bound_to 7965
  140.0569  144.5887  150.7292 LP  0  0  0  0  0  0  0  0  0  0  0  0  # atno 17342 bound_to 10162
  140.7265  143.2642  151.4103 LP  0  0  0  0  0  0  0  0  0  0  0  0  # atno 17343 bound_to 10162
  156.2359  130.3686  149.8392 LP  0  0  0  0  0  0  0  0  0  0  0  0  # atno 17370 bound_to 10713
  156.6206  130.8624  151.3474 LP  0  0  0  0  0  0  0  0  0  0  0  0  # atno 17371 bound_to 10713
  140.6861  134.4716  157.5589 LP  0  0  0  0  0  0  0  0  0  0  0  0  # atno 17394 bound_to 11000
  139.9048  134.8474  156.1751 LP  0  0  0  0  0  0  0  0  0  0  0  0  # atno 17395 bound_to 11000

$$$$
