AV-unprocessed.smi:75|AV-procd|sdf|765|dock4
  -GOLD-   2262017103D 1   1.00000     0.00000
 Structure written by MMmdl.
 51 54  0  0  0  0  0  0  0  0  1 V2000
  149.6887  138.6207  153.3560 N   0  0  0  0  0  0  0  0  0  0  0  0
  150.4161  138.8051  154.4602 C   0  0  0  0  0  0  0  0  0  0  0  0
  150.8795  139.9054  154.7528 O   0  0  0  0  0  0  0  0  0  0  0  0
  150.6463  137.5650  155.3404 C   0  0  0  0  0  0  0  0  0  0  0  0
  149.5808  137.2748  156.4369 C   0  0  2  0  0  0  0  0  0  0  0  0
  149.7642  138.1846  157.6739 C   0  0  0  0  0  0  0  0  0  0  0  0
  148.7341  137.9296  158.6221 O   0  0  0  0  0  0  0  0  0  0  0  0
  148.7732  136.5890  159.0957 C   0  0  0  0  0  0  0  0  0  0  0  0
  148.5384  135.6302  157.9192 C   0  0  0  0  0  0  0  0  0  0  0  0
  149.5168  135.8707  156.8652 N   0  0  0  0  0  0  0  0  0  0  0  0
  149.4223  134.9369  155.8917 C   0  0  0  0  0  0  0  0  0  0  0  0
  150.4574  134.0703  155.7701 N   0  0  0  0  0  0  0  0  0  0  0  0
  150.4296  133.1241  154.8273 C   0  0  0  0  0  0  0  0  0  0  0  0
  149.4790  132.8718  153.9247 N   0  0  0  0  0  0  0  0  0  0  0  0
  148.4301  133.7351  154.0520 C   0  0  0  0  0  0  0  0  0  0  0  0
  148.3183  134.7874  155.0044 C   0  0  0  0  0  0  0  0  0  0  0  0
  147.1053  135.4452  154.8421 N   0  0  0  0  0  0  0  0  0  0  0  0
  146.5342  134.8207  153.8491 C   0  0  0  0  0  0  0  0  0  0  0  0
  147.2635  133.7855  153.3075 N   0  0  0  0  0  0  0  0  0  0  0  0
  146.8659  132.9302  152.2255 C   0  0  0  0  0  0  0  0  0  0  0  0
  146.4058  133.5049  150.8824 C   0  0  0  0  0  0  0  0  0  0  0  0
  145.4090  132.3304  150.7359 C   0  0  0  0  0  0  0  0  0  0  0  0
  144.0067  132.6565  150.1845 C   0  0  0  0  0  0  0  0  0  0  0  0
  143.4668  133.8385  150.7419 O   0  0  0  0  0  0  0  0  0  0  0  0
  145.9347  131.1119  149.9541 C   0  0  0  0  0  0  0  0  0  0  0  0
  146.6913  131.5034  148.8264 O   0  0  0  0  0  0  0  0  0  0  0  0
  145.5271  132.1911  152.2715 C   0  0  0  0  0  0  0  0  0  0  0  0
  149.5089  139.4006  152.7404 H   0  0  0  0  0  0  0  0  0  0  0  0
  149.3232  137.7053  153.1375 H   0  0  0  0  0  0  0  0  0  0  0  0
  150.7109  136.6947  154.6859 H   0  0  0  0  0  0  0  0  0  0  0  0
  151.6339  137.6578  155.7929 H   0  0  0  0  0  0  0  0  0  0  0  0
  148.6087  137.5287  156.0140 H   0  0  0  0  0  0  0  0  0  0  0  0
  150.7365  138.0375  158.1459 H   0  0  0  0  0  0  0  0  0  0  0  0
  149.7114  139.2332  157.3805 H   0  0  0  0  0  0  0  0  0  0  0  0
  149.7301  136.3865  159.5798 H   0  0  0  0  0  0  0  0  0  0  0  0
  147.9980  136.4548  159.8500 H   0  0  0  0  0  0  0  0  0  0  0  0
  148.6076  134.5981  158.2656 H   0  0  0  0  0  0  0  0  0  0  0  0
  147.5318  135.7699  157.5221 H   0  0  0  0  0  0  0  0  0  0  0  0
  151.2930  132.4762  154.7908 H   0  0  0  0  0  0  0  0  0  0  0  0
  145.5558  135.0992  153.4852 H   0  0  0  0  0  0  0  0  0  0  0  0
  147.6812  132.2232  152.0638 H   0  0  0  0  0  0  0  0  0  0  0  0
  145.9206  134.4767  150.9806 H   0  0  0  0  0  0  0  0  0  0  0  0
  147.1879  133.5431  150.1238 H   0  0  0  0  0  0  0  0  0  0  0  0
  144.0285  132.7851  149.1022 H   0  0  0  0  0  0  0  0  0  0  0  0
  143.3112  131.8422  150.3904 H   0  0  0  0  0  0  0  0  0  0  0  0
  142.6428  134.0216  150.3167 H   0  0  0  0  0  0  0  0  0  0  0  0
  146.5700  130.4836  150.5787 H   0  0  0  0  0  0  0  0  0  0  0  0
  145.1133  130.4768  149.6202 H   0  0  0  0  0  0  0  0  0  0  0  0
  147.6077  131.3821  149.0230 H   0  0  0  0  0  0  0  0  0  0  0  0
  145.5953  131.1649  152.6340 H   0  0  0  0  0  0  0  0  0  0  0  0
  144.7674  132.7447  152.8253 H   0  0  0  0  0  0  0  0  0  0  0  0
  1  2  1  0  0  0  0
  1 28  1  0  0  0  0
  1 29  1  0  0  0  0
  2  3  2  0  0  0  0
  2  4  1  0  0  0  0
  4  5  1  0  0  0  0
  4 30  1  0  0  0  0
  4 31  1  0  0  0  0
  5 10  1  0  0  0  0
  5  6  1  0  0  0  0
  5 32  1  0  0  0  0
  6  7  1  0  0  0  0
  6 33  1  0  0  0  0
  6 34  1  0  0  0  0
  7  8  1  0  0  0  0
  8  9  1  0  0  0  0
  8 35  1  0  0  0  0
  8 36  1  0  0  0  0
  9 10  1  0  0  0  0
  9 37  1  0  0  0  0
  9 38  1  0  0  0  0
 10 11  1  0  0  0  0
 11 16  1  0  0  0  0
 11 12  2  0  0  0  0
 12 13  1  0  0  0  0
 13 14  2  0  0  0  0
 13 39  1  0  0  0  0
 14 15  1  0  0  0  0
 15 19  1  0  0  0  0
 15 16  2  0  0  0  0
 16 17  1  0  0  0  0
 17 18  2  0  0  0  0
 18 19  1  0  0  0  0
 18 40  1  0  0  0  0
 19 20  1  0  0  0  0
 20 27  1  0  0  0  0
 20 21  1  0  0  0  0
 20 41  1  0  0  0  0
 21 22  1  0  0  0  0
 21 42  1  0  0  0  0
 21 43  1  0  0  0  0
 22 23  1  0  0  0  0
 22 25  1  0  0  0  0
 22 27  1  0  0  0  0
 23 24  1  0  0  0  0
 23 44  1  0  0  0  0
 23 45  1  0  0  0  0
 24 46  1  0  0  0  0
 25 26  1  0  0  0  0
 25 47  1  0  0  0  0
 25 48  1  0  0  0  0
 26 49  1  0  0  0  0
 27 50  1  0  0  0  0
 27 51  1  0  0  0  0
M  END
> <s_m_source_file>
AV-unprocessed.smi

> <i_m_source_file_index>
75

> <i_lp_mmshare_version>
43012

> <i_f3d_flags>
0

> <s_epik_input>
W05IMl1DKD1PKVtDSDJdW0NAQEhdMVtDSDJdT1tDSDJdW0NIMl1OMWMobltjSF1uMiljKGMyMyluW2NIXW4zW0NIXShbQ0gyXTQpW0NIMl1DNChbQ0gyXVtPSF0pW0NIMl1bT0hd

> <s_epik_cmdline>
J2VwaWtfcHl0aG9uJywgJy1waCcsICc3LjAnLCAnLXRuJywgJzgnLCAnLW1hJywgJzIwMCcsICctbWV0YWxfYmluZGluZycsICctaW1hZScsICc8aW5maWxlLm1hZT4nLCAnLW9tYWUnLCAnPG91dGZpbGUubWFlPic=

> <r_lp_tautomer_probability>
1

> <r_epik_Ionization_Penalty>
5.29078e-05

> <r_epik_Ionization_Penalty_Charging>
0

> <r_epik_Ionization_Penalty_Neutral>
5.29078e-05

> <r_epik_State_Penalty>
-0

> <r_epik_Charging_Adjusted_Penalty>
0

> <i_epik_Tot_Q>
0

> <i_epik_Tot_abs_Q>
0

> <r_epik_Metal_State_Penalty>
-0

> <b_epik_Metal_Only>
0

> <s_lp_Force_Field>
OPLS_2005

> <r_lp_Energy>
38.8238

> <b_lp_Chiralities_Consistent>
1

> <s_lp_Variant>
AV-unprocessed.smi:75-1

> <Gold.Version>
5.8.1

> <Gold.Id.Protein>
6NUR|6NUR_protein|mol2

> <Gold.PLP.Fitness>
49.1385

> <Gold.PLP.PLP>
-36.2940

> <Gold.PLP.part.hbond>
-5.3800

> <Gold.PLP.part.metal>
0.0000

> <Gold.PLP.part.buried>
-7.2246

> <Gold.PLP.part.nonpolar>
-23.7409

> <Gold.PLP.part.repulsive>
0.3753

> <Gold.PLP.ligand.clash>
0.0000

> <Gold.PLP.ligand.torsion>
1.4294

> <Gold.PLP.Chemscore.Hbond>
5.0000

> <Gold.PLP.Chemscore.CHOScore>
0.0000

> <Gold.PLP.Chemscore.Metal>
0.0000

> <Gold.Chemscore.Hbonds>
donor molecule, donor type, donor heavy atom, donor atom, acceptor molecule, acceptor atom, score
      L1  H     1    28       P1  7957  0.93
      L1  H     1    29       P1  7948  1.00
      L1  H    24    46       P1 10186  1.00
      L1  H    26    49       P1 10747  1.00
      P1  H  7989  7998       L1     3  1.00

> <Gold.PLP.Chemscore.Internal.Correction>
0.7033

> <Gold.Rescore>
     Score         DG    S(hbond)    S(metal)    S(lipo)     H(rot)  DE(clash)    DE(int)     intcor
     15.50     -17.46       4.82        0.00      65.98       4.63       0.53       1.43       ----

> <Gold.Chemscore.Fitness>
15.5011

> <Gold.Chemscore.DG>
-17.4625

> <Gold.Chemscore.ZeroCoef>
-5.4800

> <Gold.Chemscore.Hbond>
4.8219

> <Gold.Chemscore.Metal>
0.0000

> <Gold.Chemscore.Lipo>
65.9841

> <Gold.Chemscore.Internal_Hbond>
0.0000

> <Gold.Chemscore.DEClash>
0.5294

> <Gold.Chemscore.DEInternal>
1.4320

> <Gold.Chemscore.Rot>
4.6261

> <Gold.Chemscore.Internal.Correction>
   9.000000E+99

> <Gold.Chemscore.Hbonds>
donor molecule, donor type, donor heavy atom, donor atom, acceptor molecule, acceptor atom, score
      L1  H     1    28       P1  7957  0.91
      L1  H     1    29       P1  7948  0.90
      L1  H    24    46       P1 10186  0.94
      L1  H    26    49       P1 10747  0.95
      P1  H  7989  7998       L1     3  0.97

> <Gold.Chemscore.Hbond.Weighted>
-16.1053

> <Gold.Chemscore.Metal.Weighted>
-0.0000

> <Gold.Chemscore.Lipo.Weighted>
-7.7201

> <Gold.Chemscore.Internal_Hbond.Weighted>
0.0000

> <Gold.Chemscore.DEClash.Weighted>
0.5294

> <Gold.Chemscore.DEInternal.Weighted>
1.4320

> <Gold.Chemscore.Rot.Weighted>
11.8429

> <Gold.Chemscore.Internal.Correction.Weighted>
   9.000000E+99

> <Gold.Protein.RotatedTorsions>
[ 6907 6896 6895 6894 ] final -119.16 input  -60.11 | X-H torsion
[ 7974 7965 7964 7962 ] final  127.60 input  175.53 | X-H torsion
[ 8008 7997 7996 7995 ] final   70.91 input   59.86 | X-H torsion
[ 10167 10162 10161 10158 ] final  111.00 input  -65.29 | X-H torsion
[ 10718 10713 10712 10709 ] final  117.67 input   66.30 | X-H torsion
[ 10763 10752 10751 10750 ] final  156.57 input  -60.55 | X-H torsion
[ 11005 11000 10999 10996 ] final  121.72 input  -57.11 | X-H torsion

> <Gold.Protein.ActiveResidues>
 VAL166  LYS551  ARG553  GLY616  TRP617  ASP618  TYR619  PRO620  LYS621  CYS622 
 ASP623  PHE694  ASN695  SER759  ASP760  ASP761  ALA762  ILE779  LEU786  VAL792 
 PHE793  MET794  SER795  GLU796  ALA797  LYS798  CYS799  TRP800  GLU811  SER814 

> <Gold.Protein.RotatedAtoms>
  150.8281  133.8137  159.3109 H   0  0  0  0  0  0  0  0  0  0  0  0  # atno 6907 bound_to 6896
  151.5875  135.1053  160.0041 H   0  0  0  0  0  0  0  0  0  0  0  0  # atno 6908 bound_to 6896
  152.4364  133.7327  159.6653 H   0  0  0  0  0  0  0  0  0  0  0  0  # atno 6909 bound_to 6896
  145.0488  139.3900  143.5064 H   0  0  0  0  0  0  0  0  0  0  0  0  # atno 7974 bound_to 7965
  155.7459  140.3489  155.5127 H   0  0  0  0  0  0  0  0  0  0  0  0  # atno 8008 bound_to 7997
  155.9050  140.1040  157.1343 H   0  0  0  0  0  0  0  0  0  0  0  0  # atno 8009 bound_to 7997
  154.4048  140.1279  156.4471 H   0  0  0  0  0  0  0  0  0  0  0  0  # atno 8010 bound_to 7997
  139.6645  144.7128  151.1802 H   0  0  0  0  0  0  0  0  0  0  0  0  # atno 10167 bound_to 10162
  157.6081  131.1040  150.7648 H   0  0  0  0  0  0  0  0  0  0  0  0  # atno 10718 bound_to 10713
  154.1865  135.2797  155.3035 H   0  0  0  0  0  0  0  0  0  0  0  0  # atno 10763 bound_to 10752
  154.5962  135.5544  153.7331 H   0  0  0  0  0  0  0  0  0  0  0  0  # atno 10764 bound_to 10752
  153.0124  135.6380  154.2004 H   0  0  0  0  0  0  0  0  0  0  0  0  # atno 10765 bound_to 10752
  139.9238  134.9639  156.8001 H   0  0  0  0  0  0  0  0  0  0  0  0  # atno 11005 bound_to 11000
  146.3516  140.0128  142.8665 LP  0  0  0  0  0  0  0  0  0  0  0  0  # atno 17320 bound_to 7965
  145.1553  140.9644  143.4409 LP  0  0  0  0  0  0  0  0  0  0  0  0  # atno 17321 bound_to 7965
  140.7594  143.5941  150.8766 LP  0  0  0  0  0  0  0  0  0  0  0  0  # atno 17342 bound_to 10162
  139.9601  143.6173  152.3004 LP  0  0  0  0  0  0  0  0  0  0  0  0  # atno 17343 bound_to 10162
  156.8032  130.4928  149.5366 LP  0  0  0  0  0  0  0  0  0  0  0  0  # atno 17370 bound_to 10713
  156.1174  130.6085  151.0141 LP  0  0  0  0  0  0  0  0  0  0  0  0  # atno 17371 bound_to 10713
  140.6397  133.9830  155.7701 LP  0  0  0  0  0  0  0  0  0  0  0  0  # atno 17394 bound_to 11000
  141.0779  134.0106  157.3430 LP  0  0  0  0  0  0  0  0  0  0  0  0  # atno 17395 bound_to 11000

$$$$
