AV-unprocessed.smi:2410|AV-procd|sdf|9527|dock10
  -GOLD-   2272013163D 1   1.00000     0.00000
 Structure written by MMmdl.
 46 48  0  0  0  0  0  0  0  0  1 V2000
  155.3572  140.4290  162.7148 C   0  0  0  0  0  0  0  0  0  0  0  0
  154.5354  141.2749  161.7582 C   0  0  0  0  0  0  0  0  0  0  0  0
  153.7240  142.3085  162.2786 C   0  0  0  0  0  0  0  0  0  0  0  0
  152.9423  143.1157  161.4233 C   0  0  0  0  0  0  0  0  0  0  0  0
  152.0877  144.1667  161.7104 N   0  0  0  0  0  0  0  0  0  0  0  0
  151.6600  144.5034  160.4966 C   0  0  0  0  0  0  0  0  0  0  0  0
  152.1372  143.7933  159.4564 N   0  0  0  0  0  0  0  0  0  0  0  0
  151.8251  143.9696  158.0500 C   0  0  0  0  0  0  0  0  0  0  0  0
  150.7799  142.9530  157.5517 C   0  0  1  0  0  0  0  0  0  0  0  0
  149.5059  143.3649  158.0083 O   0  0  0  0  0  0  0  0  0  0  0  0
  150.7535  142.8655  156.0104 C   0  0  0  0  0  0  0  0  0  0  0  0
  149.9356  141.7375  155.5351 N   0  0  0  0  0  0  0  0  0  0  0  0
  148.6780  142.0618  155.0013 C   0  0  0  0  0  0  0  0  0  0  0  0
  147.8799  141.1533  154.5436 N   0  0  0  0  0  0  0  0  0  0  0  0
  148.2593  139.8084  154.5809 C   0  0  0  0  0  0  0  0  0  0  0  0
  147.2503  138.8263  154.0126 C   0  0  0  0  0  0  0  0  0  0  0  0
  149.4582  139.4263  155.1000 C   0  0  0  0  0  0  0  0  0  0  0  0
  149.9224  137.9770  155.1737 C   0  0  0  0  0  0  0  0  0  0  0  0
  150.3764  140.4492  155.6264 C   0  0  0  0  0  0  0  0  0  0  0  0
  151.4726  140.1746  156.1195 O   0  0  0  0  0  0  0  0  0  0  0  0
  152.9965  142.8589  160.0224 C   0  0  0  0  0  0  0  0  0  0  0  0
  153.8008  141.8348  159.4921 C   0  0  0  0  0  0  0  0  0  0  0  0
  154.5737  141.0361  160.3607 C   0  0  0  0  0  0  0  0  0  0  0  0
  155.4353  139.9294  159.7790 C   0  0  0  0  0  0  0  0  0  0  0  0
  155.2533  140.7761  163.7431 H   0  0  0  0  0  0  0  0  0  0  0  0
  156.4148  140.4732  162.4539 H   0  0  0  0  0  0  0  0  0  0  0  0
  155.0338  139.3885  162.6774 H   0  0  0  0  0  0  0  0  0  0  0  0
  153.6939  142.4900  163.3428 H   0  0  0  0  0  0  0  0  0  0  0  0
  150.9580  145.3122  160.3555 H   0  0  0  0  0  0  0  0  0  0  0  0
  151.4802  144.9919  157.8871 H   0  0  0  0  0  0  0  0  0  0  0  0
  152.7535  143.8597  157.4883 H   0  0  0  0  0  0  0  0  0  0  0  0
  151.0046  141.9768  157.9832 H   0  0  0  0  0  0  0  0  0  0  0  0
  149.3126  144.2126  157.6383 H   0  0  0  0  0  0  0  0  0  0  0  0
  150.4428  143.8179  155.5755 H   0  0  0  0  0  0  0  0  0  0  0  0
  151.7694  142.7235  155.6369 H   0  0  0  0  0  0  0  0  0  0  0  0
  148.4257  143.1237  155.0036 H   0  0  0  0  0  0  0  0  0  0  0  0
  147.6836  138.2720  153.1796 H   0  0  0  0  0  0  0  0  0  0  0  0
  146.3606  139.3389  153.6445 H   0  0  0  0  0  0  0  0  0  0  0  0
  146.9339  138.1170  154.7781 H   0  0  0  0  0  0  0  0  0  0  0  0
  150.0999  137.6918  156.2112 H   0  0  0  0  0  0  0  0  0  0  0  0
  150.8559  137.8526  154.6242 H   0  0  0  0  0  0  0  0  0  0  0  0
  149.2022  137.2736  154.7593 H   0  0  0  0  0  0  0  0  0  0  0  0
  153.8189  141.6638  158.4257 H   0  0  0  0  0  0  0  0  0  0  0  0
  155.3309  139.8716  158.6952 H   0  0  0  0  0  0  0  0  0  0  0  0
  155.1482  138.9630  160.1941 H   0  0  0  0  0  0  0  0  0  0  0  0
  156.4872  140.1056  160.0042 H   0  0  0  0  0  0  0  0  0  0  0  0
  1  2  1  0  0  0  0
  1 25  1  0  0  0  0
  1 26  1  0  0  0  0
  1 27  1  0  0  0  0
  2 23  1  0  0  0  0
  2  3  2  0  0  0  0
  3  4  1  0  0  0  0
  3 28  1  0  0  0  0
  4 21  2  0  0  0  0
  4  5  1  0  0  0  0
  5  6  2  0  0  0  0
  6  7  1  0  0  0  0
  6 29  1  0  0  0  0
  7  8  1  0  0  0  0
  7 21  1  0  0  0  0
  8  9  1  0  0  0  0
  8 30  1  0  0  0  0
  8 31  1  0  0  0  0
  9 10  1  0  0  0  0
  9 11  1  0  0  0  0
  9 32  1  0  0  0  0
 10 33  1  0  0  0  0
 11 12  1  0  0  0  0
 11 34  1  0  0  0  0
 11 35  1  0  0  0  0
 12 19  1  0  0  0  0
 12 13  1  0  0  0  0
 13 14  2  0  0  0  0
 13 36  1  0  0  0  0
 14 15  1  0  0  0  0
 15 16  1  0  0  0  0
 15 17  2  0  0  0  0
 16 37  1  0  0  0  0
 16 38  1  0  0  0  0
 16 39  1  0  0  0  0
 17 18  1  0  0  0  0
 17 19  1  0  0  0  0
 18 40  1  0  0  0  0
 18 41  1  0  0  0  0
 18 42  1  0  0  0  0
 19 20  2  0  0  0  0
 21 22  1  0  0  0  0
 22 23  2  0  0  0  0
 22 43  1  0  0  0  0
 23 24  1  0  0  0  0
 24 44  1  0  0  0  0
 24 45  1  0  0  0  0
 24 46  1  0  0  0  0
M  END
> <s_m_source_file>
AV-unprocessed.smi

> <i_m_source_file_index>
2410

> <i_lp_mmshare_version>
43012

> <i_f3d_flags>
0

> <s_epik_input>
W0NIM11jKFtjSF0xKWMoW0NIM10pW2NIXWMoYzEyKW4oW2NIXW4yKVtDSDJdW0NASF0oW09IXSlbQ0gyXW4zW2NIXW5jKFtDSDNdKWMoW0NIM10pYzM9Tw==

> <s_epik_cmdline>
J2VwaWtfcHl0aG9uJywgJy1waCcsICc3LjAnLCAnLXRuJywgJzgnLCAnLW1hJywgJzIwMCcsICctbWV0YWxfYmluZGluZycsICctaW1hZScsICc8aW5maWxlLm1hZT4nLCAnLW9tYWUnLCAnPG91dGZpbGUubWFlPic=

> <r_lp_tautomer_probability>
1

> <r_epik_Ionization_Penalty>
0.113377

> <r_epik_Ionization_Penalty_Charging>
7.56033e-08

> <r_epik_Ionization_Penalty_Neutral>
0.113377

> <r_epik_State_Penalty>
0.103025

> <r_epik_Charging_Adjusted_Penalty>
0.103025

> <i_epik_Tot_Q>
0

> <i_epik_Tot_abs_Q>
0

> <r_epik_Metal_State_Penalty>
0.0863476

> <b_epik_Metal_Only>
0

> <s_lp_Force_Field>
OPLS_2005

> <r_lp_Energy>
18.3765

> <b_lp_Chiralities_Consistent>
1

> <s_lp_Variant>
AV-unprocessed.smi:2410-2

> <Gold.Version>
5.8.1

> <Gold.Id.Protein>
6NUR|6NUR_protein|mol2

> <Gold.PLP.Fitness>
54.2402

> <Gold.PLP.PLP>
-49.5560

> <Gold.PLP.part.hbond>
-1.0000

> <Gold.PLP.part.metal>
0.0000

> <Gold.PLP.part.buried>
-4.6182

> <Gold.PLP.part.nonpolar>
-44.2540

> <Gold.PLP.part.repulsive>
0.2856

> <Gold.PLP.ligand.clash>
0.0000

> <Gold.PLP.ligand.torsion>
0.6529

> <Gold.PLP.Chemscore.Hbond>
0.9920

> <Gold.PLP.Chemscore.CHOScore>
1.0000

> <Gold.PLP.Chemscore.Metal>
0.0000

> <Gold.Chemscore.Hbonds>
donor molecule, donor type, donor heavy atom, donor atom, acceptor molecule, acceptor atom, score
      L1  H    10    33       P1  8028  0.34
      L1  C    13    36       P1  8028  0.33

> <Gold.PLP.Chemscore.Internal.Correction>
0.0140

> <Gold.Rescore>
     Score         DG    S(hbond)    S(metal)    S(lipo)     H(rot)  DE(clash)    DE(int)     intcor
     15.18     -16.56       0.90        0.00     120.45       2.35       0.86       0.52       ----

> <Gold.Chemscore.Fitness>
15.1780

> <Gold.Chemscore.DG>
-16.5603

> <Gold.Chemscore.ZeroCoef>
-5.4800

> <Gold.Chemscore.Hbond>
0.8978

> <Gold.Chemscore.Metal>
0.0000

> <Gold.Chemscore.Lipo>
120.4476

> <Gold.Chemscore.Internal_Hbond>
0.0000

> <Gold.Chemscore.DEClash>
0.8606

> <Gold.Chemscore.DEInternal>
0.5216

> <Gold.Chemscore.Rot>
2.3479

> <Gold.Chemscore.Internal.Correction>
   9.000000E+99

> <Gold.Chemscore.Hbonds>
donor molecule, donor type, donor heavy atom, donor atom, acceptor molecule, acceptor atom, score
      L1  H    10    33       P1  8028  0.02

> <Gold.Chemscore.Hbond.Weighted>
-2.9985

> <Gold.Chemscore.Metal.Weighted>
-0.0000

> <Gold.Chemscore.Lipo.Weighted>
-14.0924

> <Gold.Chemscore.Internal_Hbond.Weighted>
0.0000

> <Gold.Chemscore.DEClash.Weighted>
0.8606

> <Gold.Chemscore.DEInternal.Weighted>
0.5216

> <Gold.Chemscore.Rot.Weighted>
6.0106

> <Gold.Chemscore.Internal.Correction.Weighted>
   9.000000E+99

> <Gold.Protein.RotatedTorsions>
[ 6907 6896 6895 6894 ] final  145.78 input  -60.11 | X-H torsion
[ 7974 7965 7964 7962 ] final -179.04 input  175.53 | X-H torsion
[ 8008 7997 7996 7995 ] final   65.15 input   59.86 | X-H torsion
[ 10167 10162 10161 10158 ] final  -46.47 input  -65.29 | X-H torsion
[ 10718 10713 10712 10709 ] final  126.04 input   66.30 | X-H torsion
[ 10763 10752 10751 10750 ] final  132.72 input  -60.55 | X-H torsion
[ 11005 11000 10999 10996 ] final   86.10 input  -57.11 | X-H torsion

> <Gold.Protein.ActiveResidues>
 VAL166  LYS551  ARG553  GLY616  TRP617  ASP618  TYR619  PRO620  LYS621  CYS622 
 ASP623  PHE694  ASN695  SER759  ASP760  ASP761  ALA762  ILE779  LEU786  VAL792 
 PHE793  MET794  SER795  GLU796  ALA797  LYS798  CYS799  TRP800  GLU811  SER814 

> <Gold.Protein.RotatedAtoms>
  152.1765  133.4678  159.4935 H   0  0  0  0  0  0  0  0  0  0  0  0  # atno 6907 bound_to 6896
  150.6927  134.1888  159.4286 H   0  0  0  0  0  0  0  0  0  0  0  0  # atno 6908 bound_to 6896
  151.9797  135.0034  160.0607 H   0  0  0  0  0  0  0  0  0  0  0  0  # atno 6909 bound_to 6896
  144.7134  140.0778  143.6427 H   0  0  0  0  0  0  0  0  0  0  0  0  # atno 7974 bound_to 7965
  155.6572  140.3497  155.4769 H   0  0  0  0  0  0  0  0  0  0  0  0  # atno 8008 bound_to 7997
  155.9799  140.1172  157.0759 H   0  0  0  0  0  0  0  0  0  0  0  0  # atno 8009 bound_to 7997
  154.4188  140.1140  156.5407 H   0  0  0  0  0  0  0  0  0  0  0  0  # atno 8010 bound_to 7997
  140.6816  143.2829  151.3788 H   0  0  0  0  0  0  0  0  0  0  0  0  # atno 10167 bound_to 10162
  157.5453  131.1096  150.8792 H   0  0  0  0  0  0  0  0  0  0  0  0  # atno 10718 bound_to 10713
  153.7954  135.3149  155.3384 H   0  0  0  0  0  0  0  0  0  0  0  0  # atno 10763 bound_to 10752
  154.8109  135.4667  154.0518 H   0  0  0  0  0  0  0  0  0  0  0  0  # atno 10764 bound_to 10752
  153.1849  135.6899  153.8515 H   0  0  0  0  0  0  0  0  0  0  0  0  # atno 10765 bound_to 10752
  139.8953  134.8332  156.2674 H   0  0  0  0  0  0  0  0  0  0  0  0  # atno 11005 bound_to 11000
  145.9728  139.2883  143.1088 LP  0  0  0  0  0  0  0  0  0  0  0  0  # atno 17320 bound_to 7965
  145.9097  140.9188  143.0460 LP  0  0  0  0  0  0  0  0  0  0  0  0  # atno 17321 bound_to 7965
  139.6142  144.1036  152.2329 LP  0  0  0  0  0  0  0  0  0  0  0  0  # atno 17342 bound_to 10162
  140.0460  144.5970  150.7373 LP  0  0  0  0  0  0  0  0  0  0  0  0  # atno 17343 bound_to 10162
  156.9333  130.5357  149.5279 LP  0  0  0  0  0  0  0  0  0  0  0  0  # atno 17370 bound_to 10713
  156.0530  130.5596  150.9031 LP  0  0  0  0  0  0  0  0  0  0  0  0  # atno 17371 bound_to 10713
  141.0123  133.7089  156.1131 LP  0  0  0  0  0  0  0  0  0  0  0  0  # atno 17394 bound_to 11000
  140.7350  134.4212  157.5561 LP  0  0  0  0  0  0  0  0  0  0  0  0  # atno 17395 bound_to 11000

$$$$
