AV-unprocessed.smi:2997|AV-procd|sdf|11415|dock5
  -GOLD-   2272016333D 1   1.00000     0.00000
 Structure written by MMmdl.
 39 41  0  0  0  0  0  0  0  0  2 V2000
  152.3111  144.4748  160.8388 C   0  0  0  0  0  0  0  0  0  0  0  0
  152.1123  143.3580  159.8282 C   0  0  0  0  0  0  0  0  0  0  0  0
  151.2852  143.6013  158.7082 C   0  0  0  0  0  0  0  0  0  0  0  0
  151.1206  142.5594  157.8032 C   0  0  0  0  0  0  0  0  0  0  0  0
  150.3813  142.4810  156.6208 N   0  3  0  0  0  0  0  0  0  0  0  0
  150.5278  141.2420  156.0745 C   0  0  0  0  0  0  0  0  0  0  0  0
  151.3509  140.5293  156.8905 N   0  0  0  0  0  0  0  0  0  0  0  0
  151.8310  139.1459  156.7781 C   0  0  0  0  0  0  0  0  0  0  0  0
  152.0618  138.7150  155.3172 C   0  0  1  0  0  0  0  0  0  0  0  0
  152.9792  137.6370  155.2819 O   0  0  0  0  0  0  0  0  0  0  0  0
  150.7487  138.3124  154.6194 C   0  0  0  0  0  0  0  0  0  0  0  0
  150.1328  137.1429  155.2204 N   0  0  0  0  0  0  0  0  0  0  0  0
  148.8626  137.0136  155.7417 C   0  0  0  0  0  0  0  0  0  0  0  0
  148.7370  135.7305  156.1915 C   0  0  0  0  0  0  0  0  0  0  0  0
  149.9991  135.1435  155.8952 C   0  0  0  0  0  0  0  0  0  0  0  0
  150.8312  135.9902  155.3105 N   0  0  0  0  0  0  0  0  0  0  0  0
  151.7455  141.3102  157.9815 C   0  0  0  0  0  0  0  0  0  0  0  0
  152.5637  141.0532  159.0786 C   0  0  0  0  0  0  0  0  0  0  0  0
  152.7433  142.1000  160.0108 C   0  0  0  0  0  0  0  0  0  0  0  0
  153.6289  141.8488  161.2197 C   0  0  0  0  0  0  0  0  0  0  0  0
  151.7861  145.3823  160.5389 H   0  0  0  0  0  0  0  0  0  0  0  0
  153.3688  144.7201  160.9374 H   0  0  0  0  0  0  0  0  0  0  0  0
  151.9311  144.1766  161.8162 H   0  0  0  0  0  0  0  0  0  0  0  0
  150.8006  144.5558  158.5633 H   0  0  0  0  0  0  0  0  0  0  0  0
  150.0698  140.8876  155.1624 H   0  0  0  0  0  0  0  0  0  0  0  0
  152.7575  139.0705  157.3490 H   0  0  0  0  0  0  0  0  0  0  0  0
  151.1101  138.4913  157.2695 H   0  0  0  0  0  0  0  0  0  0  0  0
  152.5106  139.5447  154.7697 H   0  0  0  0  0  0  0  0  0  0  0  0
  153.1962  137.3971  156.1696 H   0  0  0  0  0  0  0  0  0  0  0  0
  150.0334  139.1356  154.6466 H   0  0  0  0  0  0  0  0  0  0  0  0
  150.9335  138.0958  153.5661 H   0  0  0  0  0  0  0  0  0  0  0  0
  148.1626  137.8360  155.7512 H   0  0  0  0  0  0  0  0  0  0  0  0
  147.8752  135.2797  156.6608 H   0  0  0  0  0  0  0  0  0  0  0  0
  150.3325  134.1338  156.0851 H   0  0  0  0  0  0  0  0  0  0  0  0
  153.0412  140.0945  159.2179 H   0  0  0  0  0  0  0  0  0  0  0  0
  154.0358  140.8372  161.2130 H   0  0  0  0  0  0  0  0  0  0  0  0
  153.0612  141.9728  162.1422 H   0  0  0  0  0  0  0  0  0  0  0  0
  154.4681  142.5445  161.2318 H   0  0  0  0  0  0  0  0  0  0  0  0
  149.8152  143.2157  156.2160 H   0  0  0  0  0  0  0  0  0  0  0  0
  1  2  1  0  0  0  0
  1 21  1  0  0  0  0
  1 22  1  0  0  0  0
  1 23  1  0  0  0  0
  2 19  1  0  0  0  0
  2  3  2  0  0  0  0
  3  4  1  0  0  0  0
  3 24  1  0  0  0  0
  4 17  2  0  0  0  0
  4  5  1  0  0  0  0
  5  6  2  0  0  0  0
  5 39  1  0  0  0  0
  6  7  1  0  0  0  0
  6 25  1  0  0  0  0
  7  8  1  0  0  0  0
  7 17  1  0  0  0  0
  8  9  1  0  0  0  0
  8 26  1  0  0  0  0
  8 27  1  0  0  0  0
  9 10  1  0  0  0  0
  9 11  1  0  0  0  0
  9 28  1  0  0  0  0
 10 29  1  0  0  0  0
 11 12  1  0  0  0  0
 11 30  1  0  0  0  0
 11 31  1  0  0  0  0
 12 16  1  0  0  0  0
 12 13  1  0  0  0  0
 13 14  2  0  0  0  0
 13 32  1  0  0  0  0
 14 15  1  0  0  0  0
 14 33  1  0  0  0  0
 15 16  2  0  0  0  0
 15 34  1  0  0  0  0
 17 18  1  0  0  0  0
 18 19  2  0  0  0  0
 18 35  1  0  0  0  0
 19 20  1  0  0  0  0
 20 36  1  0  0  0  0
 20 37  1  0  0  0  0
 20 38  1  0  0  0  0
M  CHG  1   5   1
M  END
> <s_m_source_file>
AV-unprocessed.smi

> <i_m_source_file_index>
2997

> <i_lp_mmshare_version>
43012

> <i_f3d_flags>
0

> <s_epik_input>
W0NIM11jKFtjSF0xKWMoW0NIM10pW2NIXWMoYzEyKW4oW2NIXW4yKVtDSDJdW0NASF0oW09IXSlbQ0gyXW4zW2NIXVtjSF1bY0hdbjM=

> <s_epik_cmdline>
J2VwaWtfcHl0aG9uJywgJy1waCcsICc3LjAnLCAnLXRuJywgJzgnLCAnLW1hJywgJzIwMCcsICctbWV0YWxfYmluZGluZycsICctaW1hZScsICc8aW5maWxlLm1hZT4nLCAnLW9tYWUnLCAnPG91dGZpbGUubWFlPic=

> <r_lp_tautomer_probability>
1

> <r_epik_Ionization_Penalty>
1.09215

> <r_epik_Ionization_Penalty_Charging>
1.09214

> <r_epik_Ionization_Penalty_Neutral>
1.42327e-05

> <r_epik_State_Penalty>
1.14852

> <r_epik_Charging_Adjusted_Penalty>
2.24066

> <i_epik_Tot_Q>
1

> <i_epik_Tot_abs_Q>
1

> <r_epik_Metal_State_Penalty>
1.23686

> <b_epik_Metal_Only>
0

> <s_lp_Force_Field>
OPLS_2005

> <r_lp_Energy>
12.1799

> <b_lp_Chiralities_Consistent>
1

> <s_lp_Variant>
AV-unprocessed.smi:2997-4

> <Gold.Version>
5.8.1

> <Gold.Id.Protein>
6NUR|6NUR_protein|mol2

> <Gold.PLP.Fitness>
54.5977

> <Gold.PLP.PLP>
-46.7565

> <Gold.PLP.part.hbond>
-3.0000

> <Gold.PLP.part.metal>
0.0000

> <Gold.PLP.part.buried>
-6.4739

> <Gold.PLP.part.nonpolar>
-36.2342

> <Gold.PLP.part.repulsive>
0.2242

> <Gold.PLP.ligand.clash>
0.0000

> <Gold.PLP.ligand.torsion>
0.5892

> <Gold.PLP.Chemscore.Hbond>
3.0000

> <Gold.PLP.Chemscore.CHOScore>
0.0000

> <Gold.PLP.Chemscore.Metal>
0.0000

> <Gold.Chemscore.Hbonds>
donor molecule, donor type, donor heavy atom, donor atom, acceptor molecule, acceptor atom, score
      L1  H     5    39       P1  8028  2.00
      P1  H 10752 10765       L1    16  0.44

> <Gold.PLP.Chemscore.Internal.Correction>
0.0196

> <Gold.Rescore>
     Score         DG    S(hbond)    S(metal)    S(lipo)     H(rot)  DE(clash)    DE(int)     intcor
     17.62     -19.62       1.97        0.00     112.87       2.21       0.04       1.96       ----

> <Gold.Chemscore.Fitness>
17.6225

> <Gold.Chemscore.DG>
-19.6176

> <Gold.Chemscore.ZeroCoef>
-5.4800

> <Gold.Chemscore.Hbond>
1.9750

> <Gold.Chemscore.Metal>
0.0000

> <Gold.Chemscore.Lipo>
112.8732

> <Gold.Chemscore.Internal_Hbond>
0.0000

> <Gold.Chemscore.DEClash>
0.0361

> <Gold.Chemscore.DEInternal>
1.9590

> <Gold.Chemscore.Rot>
2.2129

> <Gold.Chemscore.Internal.Correction>
   9.000000E+99

> <Gold.Chemscore.Hbonds>
donor molecule, donor type, donor heavy atom, donor atom, acceptor molecule, acceptor atom, score
      L1  H     5    39       P1  8028  1.00
      P1  H 10752 10765       L1    16  0.43

> <Gold.Chemscore.Hbond.Weighted>
-6.5964

> <Gold.Chemscore.Metal.Weighted>
-0.0000

> <Gold.Chemscore.Lipo.Weighted>
-13.2062

> <Gold.Chemscore.Internal_Hbond.Weighted>
0.0000

> <Gold.Chemscore.DEClash.Weighted>
0.0361

> <Gold.Chemscore.DEInternal.Weighted>
1.9590

> <Gold.Chemscore.Rot.Weighted>
5.6649

> <Gold.Chemscore.Internal.Correction.Weighted>
   9.000000E+99

> <Gold.Protein.RotatedTorsions>
[ 6907 6896 6895 6894 ] final   58.06 input  -60.11 | X-H torsion
[ 7974 7965 7964 7962 ] final   63.95 input  175.53 | X-H torsion
[ 8008 7997 7996 7995 ] final  -13.97 input   59.86 | X-H torsion
[ 10167 10162 10161 10158 ] final   55.62 input  -65.29 | X-H torsion
[ 10718 10713 10712 10709 ] final  -91.87 input   66.30 | X-H torsion
[ 10763 10752 10751 10750 ] final  179.06 input  -60.55 | X-H torsion
[ 11005 11000 10999 10996 ] final   36.03 input  -57.11 | X-H torsion

> <Gold.Protein.ActiveResidues>
 VAL166  LYS551  ARG553  GLY616  TRP617  ASP618  TYR619  PRO620  LYS621  CYS622 
 ASP623  PHE694  ASN695  SER759  ASP760  ASP761  ALA762  ILE779  LEU786  VAL792 
 PHE793  MET794  SER795  GLU796  ALA797  LYS798  CYS799  TRP800  GLU811  SER814 

> <Gold.Protein.RotatedAtoms>
  152.3789  134.6621  160.0149 H   0  0  0  0  0  0  0  0  0  0  0  0  # atno 6907 bound_to 6896
  151.6891  133.3305  159.3246 H   0  0  0  0  0  0  0  0  0  0  0  0  # atno 6908 bound_to 6896
  150.7731  134.6650  159.6405 H   0  0  0  0  0  0  0  0  0  0  0  0  # atno 6909 bound_to 6896
  145.8559  139.3283  143.0848 H   0  0  0  0  0  0  0  0  0  0  0  0  # atno 7974 bound_to 7965
  154.5248  140.2235  155.8910 H   0  0  0  0  0  0  0  0  0  0  0  0  # atno 8008 bound_to 7997
  156.1701  140.3123  155.8923 H   0  0  0  0  0  0  0  0  0  0  0  0  # atno 8009 bound_to 7997
  155.3575  140.0459  157.3037 H   0  0  0  0  0  0  0  0  0  0  0  0  # atno 8010 bound_to 7997
  140.2174  144.3824  150.6464 H   0  0  0  0  0  0  0  0  0  0  0  0  # atno 10167 bound_to 10162
  155.9997  130.4965  150.5539 H   0  0  0  0  0  0  0  0  0  0  0  0  # atno 10718 bound_to 10713
  154.5158  135.2791  155.1304 H   0  0  0  0  0  0  0  0  0  0  0  0  # atno 10763 bound_to 10752
  154.2881  135.6272  153.5378 H   0  0  0  0  0  0  0  0  0  0  0  0  # atno 10764 bound_to 10752
  152.9927  135.5667  154.5635 H   0  0  0  0  0  0  0  0  0  0  0  0  # atno 10765 bound_to 10752
  140.2366  134.3464  155.7942 H   0  0  0  0  0  0  0  0  0  0  0  0  # atno 11005 bound_to 11000
  145.9304  140.9052  143.0359 LP  0  0  0  0  0  0  0  0  0  0  0  0  # atno 17320 bound_to 7965
  144.6727  140.1411  143.7437 LP  0  0  0  0  0  0  0  0  0  0  0  0  # atno 17321 bound_to 7965
  140.6279  143.2183  151.6557 LP  0  0  0  0  0  0  0  0  0  0  0  0  # atno 17342 bound_to 10162
  139.5157  144.3371  152.0774 LP  0  0  0  0  0  0  0  0  0  0  0  0  # atno 17343 bound_to 10162
  157.3458  131.0725  151.1752 LP  0  0  0  0  0  0  0  0  0  0  0  0  # atno 17370 bound_to 10713
  157.2585  130.6648  149.5964 LP  0  0  0  0  0  0  0  0  0  0  0  0  # atno 17371 bound_to 10713
  141.2214  133.7275  156.8818 LP  0  0  0  0  0  0  0  0  0  0  0  0  # atno 17394 bound_to 11000
  140.1695  134.9109  157.2816 LP  0  0  0  0  0  0  0  0  0  0  0  0  # atno 17395 bound_to 11000

$$$$
