AV-unprocessed.smi:285|AV-procd|sdf|2166|dock7
  -GOLD-   2262021523D 1   1.00000     0.00000
 Structure written by MMmdl.
 31 33  0  0  0  0  0  0  0  0  1 V2000
  154.2311  141.8491  160.8637 N   0  0  0  0  0  0  0  0  0  0  0  0
  153.1648  142.0568  160.0786 C   0  0  0  0  0  0  0  0  0  0  0  0
  152.5820  143.2783  160.0960 N   0  0  0  0  0  0  0  0  0  0  0  0
  151.5165  143.5112  159.3225 C   0  0  0  0  0  0  0  0  0  0  0  0
  150.8961  142.6790  158.4821 N   0  0  0  0  0  0  0  0  0  0  0  0
  151.4851  141.4474  158.4628 C   0  0  0  0  0  0  0  0  0  0  0  0
  152.6206  141.0579  159.2324 C   0  0  0  0  0  0  0  0  0  0  0  0
  152.9487  139.7341  158.9686 N   0  0  0  0  0  0  0  0  0  0  0  0
  152.0489  139.3851  158.0921 C   0  0  0  0  0  0  0  0  0  0  0  0
  152.0301  137.6167  157.3844 Br  0  0  0  0  0  0  0  0  0  0  0  0
  151.1276  140.3386  157.7209 N   0  0  0  0  0  0  0  0  0  0  0  0
  150.0004  140.2270  156.7454 C   0  0  1  0  0  0  0  0  0  0  0  0
  150.1140  141.2595  155.6379 C   0  0  0  0  0  0  0  0  0  0  0  0
  149.2417  140.5958  154.5949 C   0  0  1  0  0  0  0  0  0  0  0  0
  149.4919  141.1143  153.3033 O   0  0  0  0  0  0  0  0  0  0  0  0
  149.5530  139.0918  154.7811 C   0  0  1  0  0  0  0  0  0  0  0  0
  150.6337  138.5210  153.8404 C   0  0  0  0  0  0  0  0  0  0  0  0
  150.8124  137.1439  154.0937 O   0  0  0  0  0  0  0  0  0  0  0  0
  150.0574  138.9867  156.1182 O   0  0  0  0  0  0  0  0  0  0  0  0
  154.6838  140.9463  160.8685 H   0  0  0  0  0  0  0  0  0  0  0  0
  154.5818  142.5961  161.4455 H   0  0  0  0  0  0  0  0  0  0  0  0
  151.1015  144.5064  159.3853 H   0  0  0  0  0  0  0  0  0  0  0  0
  149.0808  140.3115  157.3245 H   0  0  0  0  0  0  0  0  0  0  0  0
  149.7587  142.2375  155.9636 H   0  0  0  0  0  0  0  0  0  0  0  0
  151.1492  141.3358  155.3016 H   0  0  0  0  0  0  0  0  0  0  0  0
  148.1948  140.7775  154.8432 H   0  0  0  0  0  0  0  0  0  0  0  0
  149.3624  140.4237  152.6711 H   0  0  0  0  0  0  0  0  0  0  0  0
  148.6299  138.5193  154.6799 H   0  0  0  0  0  0  0  0  0  0  0  0
  150.3286  138.6043  152.7976 H   0  0  0  0  0  0  0  0  0  0  0  0
  151.5790  139.0531  153.9425 H   0  0  0  0  0  0  0  0  0  0  0  0
  151.2730  136.7619  153.3626 H   0  0  0  0  0  0  0  0  0  0  0  0
  1  2  1  0  0  0  0
  1 20  1  0  0  0  0
  1 21  1  0  0  0  0
  2  7  1  0  0  0  0
  2  3  2  0  0  0  0
  3  4  1  0  0  0  0
  4  5  2  0  0  0  0
  4 22  1  0  0  0  0
  5  6  1  0  0  0  0
  6 11  1  0  0  0  0
  6  7  2  0  0  0  0
  7  8  1  0  0  0  0
  8  9  2  0  0  0  0
  9 10  1  0  0  0  0
  9 11  1  0  0  0  0
 11 12  1  0  0  0  0
 12 19  1  0  0  0  0
 12 13  1  0  0  0  0
 12 23  1  0  0  0  0
 13 14  1  0  0  0  0
 13 24  1  0  0  0  0
 13 25  1  0  0  0  0
 14 15  1  0  0  0  0
 14 16  1  0  0  0  0
 14 26  1  0  0  0  0
 15 27  1  0  0  0  0
 16 17  1  0  0  0  0
 16 19  1  0  0  0  0
 16 28  1  0  0  0  0
 17 18  1  0  0  0  0
 17 29  1  0  0  0  0
 17 30  1  0  0  0  0
 18 31  1  0  0  0  0
M  END
> <s_m_source_file>
AV-unprocessed.smi

> <i_m_source_file_index>
285

> <i_lp_mmshare_version>
43012

> <i_f3d_flags>
0

> <s_epik_input>
bjFbY0hdbmMoW05IMl0pYyhjMTIpbmMoQnIpbjJbQ0BASF0zW0NIMl1bQ0BASF0oW09IXSlbQ0BIXShPMylbQ0gyXVtPSF0=

> <s_epik_cmdline>
J2VwaWtfcHl0aG9uJywgJy1waCcsICc3LjAnLCAnLXRuJywgJzgnLCAnLW1hJywgJzIwMCcsICctbWV0YWxfYmluZGluZycsICctaW1hZScsICc8aW5maWxlLm1hZT4nLCAnLW9tYWUnLCAnPG91dGZpbGUubWFlPic=

> <r_lp_tautomer_probability>
1

> <r_epik_Ionization_Penalty>
0.000103242

> <r_epik_Ionization_Penalty_Charging>
0

> <r_epik_Ionization_Penalty_Neutral>
0.000103242

> <r_epik_State_Penalty>
-0

> <r_epik_Charging_Adjusted_Penalty>
0

> <i_epik_Tot_Q>
0

> <i_epik_Tot_abs_Q>
0

> <r_epik_Metal_State_Penalty>
-0

> <b_epik_Metal_Only>
0

> <s_epik_Chemistry_Notes>
This compound contains an acetal/aminal-like group ( X-CH(R)-Y where X, Y are N, S, or O) that may be acid/base labile, releasing an aldehyde.

> <s_lp_Force_Field>
OPLS_2005

> <r_lp_Energy>
35.0354

> <b_lp_Chiralities_Consistent>
1

> <s_lp_Variant>
AV-unprocessed.smi:285-2

> <Gold.Version>
5.8.1

> <Gold.Id.Protein>
6NUR|6NUR_protein|mol2

> <Gold.PLP.Fitness>
40.9503

> <Gold.PLP.PLP>
-32.2458

> <Gold.PLP.part.hbond>
-5.1615

> <Gold.PLP.part.metal>
0.0000

> <Gold.PLP.part.buried>
-4.8916

> <Gold.PLP.part.nonpolar>
-21.7994

> <Gold.PLP.part.repulsive>
0.0791

> <Gold.PLP.ligand.clash>
0.0000

> <Gold.PLP.ligand.torsion>
0.0406

> <Gold.PLP.Chemscore.Hbond>
2.9237

> <Gold.PLP.Chemscore.CHOScore>
0.0000

> <Gold.PLP.Chemscore.Metal>
0.0000

> <Gold.Chemscore.Hbonds>
donor molecule, donor type, donor heavy atom, donor atom, acceptor molecule, acceptor atom, score
      L1  H    15    27       P1  7957  0.85
      L1  H    18    31       P1  7949  0.96
      P1  H  7989  7998       L1    15  0.07
      P1  H  8011  8017       L1    15  1.00

> <Gold.PLP.Chemscore.Internal.Correction>
0.0145

> <Gold.Rescore>
     Score         DG    S(hbond)    S(metal)    S(lipo)     H(rot)  DE(clash)    DE(int)     intcor
      7.41      -9.10       1.93        0.00      42.76       3.06       0.18       1.52       ----

> <Gold.Chemscore.Fitness>
7.4069

> <Gold.Chemscore.DG>
-9.1014

> <Gold.Chemscore.ZeroCoef>
-5.4800

> <Gold.Chemscore.Hbond>
1.9323

> <Gold.Chemscore.Metal>
0.0000

> <Gold.Chemscore.Lipo>
42.7590

> <Gold.Chemscore.Internal_Hbond>
0.0000

> <Gold.Chemscore.DEClash>
0.1791

> <Gold.Chemscore.DEInternal>
1.5154

> <Gold.Chemscore.Rot>
3.0607

> <Gold.Chemscore.Internal.Correction>
   9.000000E+99

> <Gold.Chemscore.Hbonds>
donor molecule, donor type, donor heavy atom, donor atom, acceptor molecule, acceptor atom, score
      L1  H    15    27       P1  7957  0.81
      L1  H    18    31       P1  7949  0.56
      P1  H  8011  8017       L1    15  0.34

> <Gold.Chemscore.Hbond.Weighted>
-6.4540

> <Gold.Chemscore.Metal.Weighted>
-0.0000

> <Gold.Chemscore.Lipo.Weighted>
-5.0028

> <Gold.Chemscore.Internal_Hbond.Weighted>
0.0000

> <Gold.Chemscore.DEClash.Weighted>
0.1791

> <Gold.Chemscore.DEInternal.Weighted>
1.5154

> <Gold.Chemscore.Rot.Weighted>
7.8354

> <Gold.Chemscore.Internal.Correction.Weighted>
   9.000000E+99

> <Gold.Protein.RotatedTorsions>
[ 6907 6896 6895 6894 ] final -136.55 input  -60.11 | X-H torsion
[ 7974 7965 7964 7962 ] final   44.38 input  175.53 | X-H torsion
[ 8008 7997 7996 7995 ] final  160.41 input   59.86 | X-H torsion
[ 10167 10162 10161 10158 ] final  -58.61 input  -65.29 | X-H torsion
[ 10718 10713 10712 10709 ] final  -91.71 input   66.30 | X-H torsion
[ 10763 10752 10751 10750 ] final  -84.44 input  -60.55 | X-H torsion
[ 11005 11000 10999 10996 ] final   36.46 input  -57.11 | X-H torsion

> <Gold.Protein.ActiveResidues>
 VAL166  LYS551  ARG553  GLY616  TRP617  ASP618  TYR619  PRO620  LYS621  CYS622 
 ASP623  PHE694  ASN695  SER759  ASP760  ASP761  ALA762  ILE779  LEU786  VAL792 
 PHE793  MET794  SER795  GLU796  ALA797  LYS798  CYS799  TRP800  GLU811  SER814 

> <Gold.Protein.RotatedAtoms>
  151.0115  133.5961  159.2681 H   0  0  0  0  0  0  0  0  0  0  0  0  # atno 6907 bound_to 6896
  151.3111  135.0793  159.9282 H   0  0  0  0  0  0  0  0  0  0  0  0  # atno 6908 bound_to 6896
  152.5300  133.9779  159.7847 H   0  0  0  0  0  0  0  0  0  0  0  0  # atno 6909 bound_to 6896
  146.0574  139.5081  142.9680 H   0  0  0  0  0  0  0  0  0  0  0  0  # atno 7974 bound_to 7965
  156.2174  140.1805  156.7558 H   0  0  0  0  0  0  0  0  0  0  0  0  # atno 8008 bound_to 7997
  154.5812  140.0666  156.9135 H   0  0  0  0  0  0  0  0  0  0  0  0  # atno 8009 bound_to 7997
  155.2499  140.3328  155.4286 H   0  0  0  0  0  0  0  0  0  0  0  0  # atno 8010 bound_to 7997
  140.6186  143.2411  151.5535 H   0  0  0  0  0  0  0  0  0  0  0  0  # atno 10167 bound_to 10162
  155.9996  130.4958  150.5515 H   0  0  0  0  0  0  0  0  0  0  0  0  # atno 10718 bound_to 10713
  154.5996  135.5520  153.7360 H   0  0  0  0  0  0  0  0  0  0  0  0  # atno 10763 bound_to 10752
  153.0149  135.6363  154.1734 H   0  0  0  0  0  0  0  0  0  0  0  0  # atno 10764 bound_to 10752
  154.1674  135.2894  155.3071 H   0  0  0  0  0  0  0  0  0  0  0  0  # atno 10765 bound_to 10752
  140.2323  134.3513  155.7959 H   0  0  0  0  0  0  0  0  0  0  0  0  # atno 11005 bound_to 11000
  145.6620  141.0238  143.1703 LP  0  0  0  0  0  0  0  0  0  0  0  0  # atno 17320 bound_to 7965
  144.7155  139.8212  143.7400 LP  0  0  0  0  0  0  0  0  0  0  0  0  # atno 17321 bound_to 7965
  139.5420  144.2623  152.1368 LP  0  0  0  0  0  0  0  0  0  0  0  0  # atno 17342 bound_to 10162
  140.1838  144.4818  150.6514 LP  0  0  0  0  0  0  0  0  0  0  0  0  # atno 17343 bound_to 10162
  157.3438  131.0721  151.1767 LP  0  0  0  0  0  0  0  0  0  0  0  0  # atno 17370 bound_to 10713
  157.2607  130.6657  149.5973 LP  0  0  0  0  0  0  0  0  0  0  0  0  # atno 17371 bound_to 10713
  141.2217  133.7252  156.8751 LP  0  0  0  0  0  0  0  0  0  0  0  0  # atno 17394 bound_to 11000
  140.1738  134.9081  157.2865 LP  0  0  0  0  0  0  0  0  0  0  0  0  # atno 17395 bound_to 11000

$$$$
