AV-unprocessed.smi:239|AV-procd|sdf|1823|dock5
  -GOLD-   2262020423D 1   1.00000     0.00000
 Structure written by MMmdl.
 54 58  0  0  0  0  0  0  0  0  1 V2000
  150.0325  137.8695  158.4879 C   0  0  0  0  0  0  0  0  0  0  0  0
  148.7055  137.1738  158.8064 C   0  0  1  0  0  0  0  0  0  0  0  0
  147.9463  136.7715  157.5295 C   0  0  0  0  0  0  0  0  0  0  0  0
  146.7511  136.0127  157.8813 N   0  0  0  0  0  0  0  0  0  0  0  0
  145.7999  135.8299  156.9325 C   0  0  0  0  0  0  0  0  0  0  0  0
  144.6299  135.2140  157.2503 N   0  0  0  0  0  0  0  0  0  0  0  0
  143.6863  135.0379  156.3205 C   0  0  0  0  0  0  0  0  0  0  0  0
  143.7071  135.3893  155.0334 N   0  0  0  0  0  0  0  0  0  0  0  0
  144.8830  135.9975  154.7059 C   0  0  0  0  0  0  0  0  0  0  0  0
  145.9712  136.2573  155.5858 C   0  0  0  0  0  0  0  0  0  0  0  0
  147.0011  136.8826  154.8927 N   0  0  0  0  0  0  0  0  0  0  0  0
  146.5463  136.9893  153.6741 C   0  0  0  0  0  0  0  0  0  0  0  0
  145.2851  136.4764  153.4713 N   0  0  0  0  0  0  0  0  0  0  0  0
  144.5472  136.4525  152.2176 C   0  0  0  0  0  0  0  0  0  0  0  0
  144.8821  135.2376  151.3171 C   0  0  0  0  0  0  0  0  0  0  0  0
  144.8188  135.6710  149.9688 O   0  0  0  0  0  0  0  0  0  0  0  0
  146.2943  134.6713  151.5846 C   0  0  0  0  0  0  0  0  0  0  0  0
  146.5397  133.3469  150.8405 C   0  0  0  0  0  0  0  0  0  0  0  0
  145.5275  132.4041  151.1716 O   0  0  0  0  0  0  0  0  0  0  0  0
  144.2298  132.8268  150.7709 C   0  0  0  0  0  0  0  0  0  0  0  0
  143.8424  134.1165  151.5163 C   0  0  0  0  0  0  0  0  0  0  0  0
  147.0357  134.8426  158.7039 C   0  0  0  0  0  0  0  0  0  0  0  0
  147.8415  135.2425  159.9534 C   0  0  2  0  0  0  0  0  0  0  0  0
  146.9948  135.9525  161.0004 C   0  0  0  0  0  0  0  0  0  0  0  0
  147.5031  136.1293  162.4110 C   0  0  0  0  0  0  0  0  0  0  0  0
  146.3589  135.1829  162.1340 C   0  0  0  0  0  0  0  0  0  0  0  0
  148.9899  136.0075  159.5794 O   0  0  0  0  0  0  0  0  0  0  0  0
  149.8699  138.7775  157.9066 H   0  0  0  0  0  0  0  0  0  0  0  0
  150.6915  137.2174  157.9139 H   0  0  0  0  0  0  0  0  0  0  0  0
  150.5546  138.1498  159.4031 H   0  0  0  0  0  0  0  0  0  0  0  0
  148.0948  137.8610  159.3926 H   0  0  0  0  0  0  0  0  0  0  0  0
  147.6724  137.6659  156.9679 H   0  0  0  0  0  0  0  0  0  0  0  0
  148.5843  136.1640  156.8858 H   0  0  0  0  0  0  0  0  0  0  0  0
  142.7863  134.5439  156.6556 H   0  0  0  0  0  0  0  0  0  0  0  0
  147.1254  137.4396  152.8810 H   0  0  0  0  0  0  0  0  0  0  0  0
  143.4819  136.4618  152.4522 H   0  0  0  0  0  0  0  0  0  0  0  0
  144.7481  137.3841  151.6865 H   0  0  0  0  0  0  0  0  0  0  0  0
  144.7163  136.6104  149.9597 H   0  0  0  0  0  0  0  0  0  0  0  0
  147.0638  135.3930  151.3083 H   0  0  0  0  0  0  0  0  0  0  0  0
  146.4117  134.4922  152.6542 H   0  0  0  0  0  0  0  0  0  0  0  0
  146.5697  133.5022  149.7609 H   0  0  0  0  0  0  0  0  0  0  0  0
  147.5083  132.9359  151.1256 H   0  0  0  0  0  0  0  0  0  0  0  0
  144.1994  132.9713  149.6899 H   0  0  0  0  0  0  0  0  0  0  0  0
  143.5169  132.0353  151.0027 H   0  0  0  0  0  0  0  0  0  0  0  0
  143.7592  133.8868  152.5795 H   0  0  0  0  0  0  0  0  0  0  0  0
  142.8536  134.4500  151.1986 H   0  0  0  0  0  0  0  0  0  0  0  0
  146.1252  134.3238  159.0027 H   0  0  0  0  0  0  0  0  0  0  0  0
  147.6144  134.1372  158.1063 H   0  0  0  0  0  0  0  0  0  0  0  0
  148.2216  134.3287  160.4117 H   0  0  0  0  0  0  0  0  0  0  0  0
  146.4008  136.7763  160.6091 H   0  0  0  0  0  0  0  0  0  0  0  0
  148.4685  135.6929  162.6592 H   0  0  0  0  0  0  0  0  0  0  0  0
  147.2715  137.0661  162.9135 H   0  0  0  0  0  0  0  0  0  0  0  0
  145.3640  135.4889  162.4510 H   0  0  0  0  0  0  0  0  0  0  0  0
  146.5622  134.1160  162.2024 H   0  0  0  0  0  0  0  0  0  0  0  0
  1  2  1  0  0  0  0
  1 28  1  0  0  0  0
  1 29  1  0  0  0  0
  1 30  1  0  0  0  0
  2 27  1  0  0  0  0
  2  3  1  0  0  0  0
  2 31  1  0  0  0  0
  3  4  1  0  0  0  0
  3 32  1  0  0  0  0
  3 33  1  0  0  0  0
  4  5  1  0  0  0  0
  4 22  1  0  0  0  0
  5 10  1  0  0  0  0
  5  6  2  0  0  0  0
  6  7  1  0  0  0  0
  7  8  2  0  0  0  0
  7 34  1  0  0  0  0
  8  9  1  0  0  0  0
  9 13  1  0  0  0  0
  9 10  2  0  0  0  0
 10 11  1  0  0  0  0
 11 12  2  0  0  0  0
 12 13  1  0  0  0  0
 12 35  1  0  0  0  0
 13 14  1  0  0  0  0
 14 15  1  0  0  0  0
 14 36  1  0  0  0  0
 14 37  1  0  0  0  0
 15 21  1  0  0  0  0
 15 16  1  0  0  0  0
 15 17  1  0  0  0  0
 16 38  1  0  0  0  0
 17 18  1  0  0  0  0
 17 39  1  0  0  0  0
 17 40  1  0  0  0  0
 18 19  1  0  0  0  0
 18 41  1  0  0  0  0
 18 42  1  0  0  0  0
 19 20  1  0  0  0  0
 20 21  1  0  0  0  0
 20 43  1  0  0  0  0
 20 44  1  0  0  0  0
 21 45  1  0  0  0  0
 21 46  1  0  0  0  0
 22 23  1  0  0  0  0
 22 47  1  0  0  0  0
 22 48  1  0  0  0  0
 23 24  1  0  0  0  0
 23 27  1  0  0  0  0
 23 49  1  0  0  0  0
 24 26  1  0  0  0  0
 24 25  1  0  0  0  0
 24 50  1  0  0  0  0
 25 26  1  0  0  0  0
 25 51  1  0  0  0  0
 25 52  1  0  0  0  0
 26 53  1  0  0  0  0
 26 54  1  0  0  0  0
M  END
> <s_m_source_file>
AV-unprocessed.smi

> <i_m_source_file_index>
239

> <i_lp_mmshare_version>
43012

> <i_f3d_flags>
0

> <s_epik_input>
W0NIMl0xW0NIMl1bQ0hdMVtDQEBIXShPMilbQ0gyXU4oW0NIMl1bQ0BIXTJbQ0gzXSljKG5bY0hdbjMpYyhjMzQpbltjSF1uNFtDSDJdQzUoW09IXSlbQ0gyXVtDSDJdT1tDSDJdW0NIMl01

> <s_epik_cmdline>
J2VwaWtfcHl0aG9uJywgJy1waCcsICc3LjAnLCAnLXRuJywgJzgnLCAnLW1hJywgJzIwMCcsICctbWV0YWxfYmluZGluZycsICctaW1hZScsICc8aW5maWxlLm1hZT4nLCAnLW9tYWUnLCAnPG91dGZpbGUubWFlPic=

> <r_lp_tautomer_probability>
1

> <r_epik_Ionization_Penalty>
9.13091e-05

> <r_epik_Ionization_Penalty_Charging>
0

> <r_epik_Ionization_Penalty_Neutral>
9.13091e-05

> <r_epik_State_Penalty>
-0

> <r_epik_Charging_Adjusted_Penalty>
0

> <i_epik_Tot_Q>
0

> <i_epik_Tot_abs_Q>
0

> <r_epik_Metal_State_Penalty>
-0

> <b_epik_Metal_Only>
0

> <s_lp_Force_Field>
OPLS_2005

> <r_lp_Energy>
39.3472

> <b_lp_Chiralities_Consistent>
1

> <s_lp_Variant>
AV-unprocessed.smi:239-4

> <Gold.Version>
5.8.1

> <Gold.Id.Protein>
6NUR|6NUR_protein|mol2

> <Gold.PLP.Fitness>
42.8485

> <Gold.PLP.PLP>
-33.6810

> <Gold.PLP.part.hbond>
-3.0000

> <Gold.PLP.part.metal>
0.0000

> <Gold.PLP.part.buried>
-5.0096

> <Gold.PLP.part.nonpolar>
-25.3767

> <Gold.PLP.part.repulsive>
0.2742

> <Gold.PLP.ligand.clash>
0.0000

> <Gold.PLP.ligand.torsion>
1.8277

> <Gold.PLP.Chemscore.Hbond>
2.0000

> <Gold.PLP.Chemscore.CHOScore>
1.8010

> <Gold.PLP.Chemscore.Metal>
0.0000

> <Gold.Chemscore.Hbonds>
donor molecule, donor type, donor heavy atom, donor atom, acceptor molecule, acceptor atom, score
      L1  H    16    38       P1 10171  0.73
      P1  H  6896  6909       L1    27  0.42
      L1  C     7    34       P1 11000  1.00
      L1  C    12    35       P1  7948  0.82

> <Gold.PLP.Chemscore.Internal.Correction>
1.4197

> <Gold.Rescore>
     Score         DG    S(hbond)    S(metal)    S(lipo)     H(rot)  DE(clash)    DE(int)     intcor
     11.72     -14.79       1.95        0.00      72.76       2.24       0.01       3.06       ----

> <Gold.Chemscore.Fitness>
11.7243

> <Gold.Chemscore.DG>
-14.7884

> <Gold.Chemscore.ZeroCoef>
-5.4800

> <Gold.Chemscore.Hbond>
1.9541

> <Gold.Chemscore.Metal>
0.0000

> <Gold.Chemscore.Lipo>
72.7594

> <Gold.Chemscore.Internal_Hbond>
0.0000

> <Gold.Chemscore.DEClash>
0.0073

> <Gold.Chemscore.DEInternal>
3.0568

> <Gold.Chemscore.Rot>
2.2387

> <Gold.Chemscore.Internal.Correction>
   9.000000E+99

> <Gold.Chemscore.Hbonds>
donor molecule, donor type, donor heavy atom, donor atom, acceptor molecule, acceptor atom, score
      L1  H    16    38       P1 10171  0.73
      P1  H  6896  6909       L1    27  0.16

> <Gold.Chemscore.Hbond.Weighted>
-6.5267

> <Gold.Chemscore.Metal.Weighted>
-0.0000

> <Gold.Chemscore.Lipo.Weighted>
-8.5128

> <Gold.Chemscore.Internal_Hbond.Weighted>
0.0000

> <Gold.Chemscore.DEClash.Weighted>
0.0073

> <Gold.Chemscore.DEInternal.Weighted>
3.0568

> <Gold.Chemscore.Rot.Weighted>
5.7311

> <Gold.Chemscore.Internal.Correction.Weighted>
   9.000000E+99

> <Gold.Protein.RotatedTorsions>
[ 6907 6896 6895 6894 ] final   42.00 input  -60.11 | X-H torsion
[ 7974 7965 7964 7962 ] final  -81.91 input  175.53 | X-H torsion
[ 8008 7997 7996 7995 ] final  -46.32 input   59.86 | X-H torsion
[ 10167 10162 10161 10158 ] final   71.92 input  -65.29 | X-H torsion
[ 10718 10713 10712 10709 ] final   39.27 input   66.30 | X-H torsion
[ 10763 10752 10751 10750 ] final  109.18 input  -60.55 | X-H torsion
[ 11005 11000 10999 10996 ] final  123.90 input  -57.11 | X-H torsion

> <Gold.Protein.ActiveResidues>
 VAL166  LYS551  ARG553  GLY616  TRP617  ASP618  TYR619  PRO620  LYS621  CYS622 
 ASP623  PHE694  ASN695  SER759  ASP760  ASP761  ALA762  ILE779  LEU786  VAL792 
 PHE793  MET794  SER795  GLU796  ALA797  LYS798  CYS799  TRP800  GLU811  SER814 

> <Gold.Protein.RotatedAtoms>
  152.2024  134.8576  160.0506 H   0  0  0  0  0  0  0  0  0  0  0  0  # atno 6907 bound_to 6896
  151.9424  133.3637  159.3978 H   0  0  0  0  0  0  0  0  0  0  0  0  # atno 6908 bound_to 6896
  150.6957  134.4349  159.5309 H   0  0  0  0  0  0  0  0  0  0  0  0  # atno 6909 bound_to 6896
  145.5403  140.9510  143.1554 H   0  0  0  0  0  0  0  0  0  0  0  0  # atno 7974 bound_to 7965
  154.4006  140.1374  156.3992 H   0  0  0  0  0  0  0  0  0  0  0  0  # atno 8008 bound_to 7997
  155.7840  140.3480  155.5292 H   0  0  0  0  0  0  0  0  0  0  0  0  # atno 8009 bound_to 7997
  155.8645  140.0962  157.1582 H   0  0  0  0  0  0  0  0  0  0  0  0  # atno 8010 bound_to 7997
  140.0409  144.5390  150.7435 H   0  0  0  0  0  0  0  0  0  0  0  0  # atno 10167 bound_to 10162
  157.3686  130.7688  149.7101 H   0  0  0  0  0  0  0  0  0  0  0  0  # atno 10718 bound_to 10713
  153.4311  135.3788  155.2171 H   0  0  0  0  0  0  0  0  0  0  0  0  # atno 10763 bound_to 10752
  154.8750  135.3840  154.4267 H   0  0  0  0  0  0  0  0  0  0  0  0  # atno 10764 bound_to 10752
  153.4799  135.7088  153.6007 H   0  0  0  0  0  0  0  0  0  0  0  0  # atno 10765 bound_to 10752
  139.9334  134.9640  156.8328 H   0  0  0  0  0  0  0  0  0  0  0  0  # atno 11005 bound_to 11000
  144.7580  139.7026  143.7246 LP  0  0  0  0  0  0  0  0  0  0  0  0  # atno 17320 bound_to 7965
  146.1985  139.5266  142.9759 LP  0  0  0  0  0  0  0  0  0  0  0  0  # atno 17321 bound_to 7965
  140.7260  143.2637  151.4117 LP  0  0  0  0  0  0  0  0  0  0  0  0  # atno 17342 bound_to 10162
  139.6014  144.1287  152.2202 LP  0  0  0  0  0  0  0  0  0  0  0  0  # atno 17343 bound_to 10162
  155.9751  130.4094  150.3875 LP  0  0  0  0  0  0  0  0  0  0  0  0  # atno 17370 bound_to 10713
  157.1962  131.0427  151.2674 LP  0  0  0  0  0  0  0  0  0  0  0  0  # atno 17371 bound_to 10713
  140.6141  134.0054  155.7590 LP  0  0  0  0  0  0  0  0  0  0  0  0  # atno 17394 bound_to 11000
  141.0934  133.9880  157.3199 LP  0  0  0  0  0  0  0  0  0  0  0  0  # atno 17395 bound_to 11000

$$$$
