AV-unprocessed.smi:1788|AV-procd|sdf|7210|dock4
  -GOLD-   22720 8453D 1   1.00000     0.00000
 Structure written by MMmdl.
 55 57  0  0  0  0  0  0  0  0  2 V2000
  145.8023  132.1502  150.7788 C   0  0  0  0  0  0  0  0  0  0  0  0
  146.1961  133.3914  151.5918 C   0  0  2  0  0  0  0  0  0  0  0  0
  145.4788  133.4223  152.9518 C   0  0  0  0  0  0  0  0  0  0  0  0
  145.8720  134.6834  153.7309 C   0  0  0  0  0  0  0  0  0  0  0  0
  145.6040  135.9486  152.9006 C   0  0  0  0  0  0  0  0  0  0  0  0
  146.3118  135.8926  151.5955 N   0  3  2  0  0  0  0  0  0  0  0  0
  146.1809  137.1595  150.8328 C   0  0  0  0  0  0  0  0  0  0  0  0
  146.2902  138.4030  151.7363 C   0  0  0  0  0  0  0  0  0  0  0  0
  147.6030  138.4954  152.3646 N   0  0  0  0  0  0  0  0  0  0  0  0
  147.9140  139.3128  153.3808 C   0  0  0  0  0  0  0  0  0  0  0  0
  147.1032  140.0773  153.9025 O   0  0  0  0  0  0  0  0  0  0  0  0
  149.2065  139.1831  153.7272 N   0  0  0  0  0  0  0  0  0  0  0  0
  149.9392  139.8588  154.7416 C   0  0  0  0  0  0  0  0  0  0  0  0
  151.1453  139.3937  155.3164 C   0  0  0  0  0  0  0  0  0  0  0  0
  151.7751  140.1731  156.3058 C   0  0  0  0  0  0  0  0  0  0  0  0
  151.1946  141.4033  156.6958 C   0  0  0  0  0  0  0  0  0  0  0  0
  151.8110  142.2027  157.6839 N   0  0  0  0  0  0  0  0  0  0  0  0
  151.3971  143.6036  157.7174 C   0  0  0  0  0  0  0  0  0  0  0  0
  152.3453  144.4224  158.6106 C   0  0  0  0  0  0  0  0  0  0  0  0
  152.4126  143.8372  159.9064 O   0  0  0  0  0  0  0  0  0  0  0  0
  152.9278  142.5111  159.8605 C   0  0  0  0  0  0  0  0  0  0  0  0
  152.0004  141.6236  159.0134 C   0  0  0  0  0  0  0  0  0  0  0  0
  150.0394  141.8454  156.1413 N   0  0  0  0  0  0  0  0  0  0  0  0
  149.4395  141.0963  155.1934 C   0  0  0  0  0  0  0  0  0  0  0  0
  145.9161  134.6915  150.8108 C   0  0  0  0  0  0  0  0  0  0  0  0
  144.7344  132.1430  150.5581 H   0  0  0  0  0  0  0  0  0  0  0  0
  146.0363  131.2343  151.3223 H   0  0  0  0  0  0  0  0  0  0  0  0
  146.3382  132.1153  149.8298 H   0  0  0  0  0  0  0  0  0  0  0  0
  147.2701  133.3342  151.7768 H   0  0  0  0  0  0  0  0  0  0  0  0
  144.3979  133.4049  152.8042 H   0  0  0  0  0  0  0  0  0  0  0  0
  145.7287  132.5341  153.5333 H   0  0  0  0  0  0  0  0  0  0  0  0
  145.3179  134.7289  154.6690 H   0  0  0  0  0  0  0  0  0  0  0  0
  146.9286  134.6363  153.9977 H   0  0  0  0  0  0  0  0  0  0  0  0
  144.5328  136.0697  152.7307 H   0  0  0  0  0  0  0  0  0  0  0  0
  145.9369  136.8203  153.4653 H   0  0  0  0  0  0  0  0  0  0  0  0
  146.9249  137.1835  150.0350 H   0  0  0  0  0  0  0  0  0  0  0  0
  145.2061  137.1863  150.3434 H   0  0  0  0  0  0  0  0  0  0  0  0
  146.1354  139.3057  151.1448 H   0  0  0  0  0  0  0  0  0  0  0  0
  145.5229  138.4055  152.5112 H   0  0  0  0  0  0  0  0  0  0  0  0
  148.3305  137.9024  151.9919 H   0  0  0  0  0  0  0  0  0  0  0  0
  149.7502  138.5455  153.1642 H   0  0  0  0  0  0  0  0  0  0  0  0
  151.6076  138.4656  155.0210 H   0  0  0  0  0  0  0  0  0  0  0  0
  152.6861  139.8121  156.7592 H   0  0  0  0  0  0  0  0  0  0  0  0
  151.3815  144.0459  156.7228 H   0  0  0  0  0  0  0  0  0  0  0  0
  150.3790  143.6598  158.1052 H   0  0  0  0  0  0  0  0  0  0  0  0
  153.3429  144.4768  158.1716 H   0  0  0  0  0  0  0  0  0  0  0  0
  151.9825  145.4463  158.7025 H   0  0  0  0  0  0  0  0  0  0  0  0
  153.9404  142.5159  159.4539 H   0  0  0  0  0  0  0  0  0  0  0  0
  152.9949  142.1208  160.8761 H   0  0  0  0  0  0  0  0  0  0  0  0
  151.0310  141.5222  159.5036 H   0  0  0  0  0  0  0  0  0  0  0  0
  152.4327  140.6254  158.9335 H   0  0  0  0  0  0  0  0  0  0  0  0
  148.5253  141.5009  154.7839 H   0  0  0  0  0  0  0  0  0  0  0  0
  146.4639  134.6625  149.8695 H   0  0  0  0  0  0  0  0  0  0  0  0
  144.8571  134.7577  150.5552 H   0  0  0  0  0  0  0  0  0  0  0  0
  147.2926  135.7912  151.8143 H   0  0  0  0  0  0  0  0  0  0  0  0
  1  2  1  0  0  0  0
  1 26  1  0  0  0  0
  1 27  1  0  0  0  0
  1 28  1  0  0  0  0
  2 25  1  0  0  0  0
  2  3  1  0  0  0  0
  2 29  1  0  0  0  0
  3  4  1  0  0  0  0
  3 30  1  0  0  0  0
  3 31  1  0  0  0  0
  4  5  1  0  0  0  0
  4 32  1  0  0  0  0
  4 33  1  0  0  0  0
  5  6  1  0  0  0  0
  5 34  1  0  0  0  0
  5 35  1  0  0  0  0
  6  7  1  0  0  0  0
  6 25  1  0  0  0  0
  6 55  1  0  0  0  0
  7  8  1  0  0  0  0
  7 36  1  0  0  0  0
  7 37  1  0  0  0  0
  8  9  1  0  0  0  0
  8 38  1  0  0  0  0
  8 39  1  0  0  0  0
  9 10  1  0  0  0  0
  9 40  1  0  0  0  0
 10 11  2  0  0  0  0
 10 12  1  0  0  0  0
 12 13  1  0  0  0  0
 12 41  1  0  0  0  0
 13 24  1  0  0  0  0
 13 14  2  0  0  0  0
 14 15  1  0  0  0  0
 14 42  1  0  0  0  0
 15 16  2  0  0  0  0
 15 43  1  0  0  0  0
 16 17  1  0  0  0  0
 16 23  1  0  0  0  0
 17 22  1  0  0  0  0
 17 18  1  0  0  0  0
 18 19  1  0  0  0  0
 18 44  1  0  0  0  0
 18 45  1  0  0  0  0
 19 20  1  0  0  0  0
 19 46  1  0  0  0  0
 19 47  1  0  0  0  0
 20 21  1  0  0  0  0
 21 22  1  0  0  0  0
 21 48  1  0  0  0  0
 21 49  1  0  0  0  0
 22 50  1  0  0  0  0
 22 51  1  0  0  0  0
 23 24  2  0  0  0  0
 24 52  1  0  0  0  0
 25 53  1  0  0  0  0
 25 54  1  0  0  0  0
M  CHG  1   6   1
M  END
> <s_m_source_file>
AV-unprocessed.smi

> <i_m_source_file_index>
1788

> <i_lp_mmshare_version>
43012

> <i_f3d_flags>
0

> <s_epik_input>
W0NIM11bQ0BASF0xW0NIMl1bQ0gyXVtDSDJdTihbQ0gyXTEpW0NIMl1bQ0gyXVtOSF1DKD1PKVtOSF1jMltjSF1bY0hdYyhuW2NIXTIpTjNbQ0gyXVtDSDJdT1tDSDJdW0NIMl0z

> <s_epik_cmdline>
J2VwaWtfcHl0aG9uJywgJy1waCcsICc3LjAnLCAnLXRuJywgJzgnLCAnLW1hJywgJzIwMCcsICctbWV0YWxfYmluZGluZycsICctaW1hZScsICc8aW5maWxlLm1hZT4nLCAnLW9tYWUnLCAnPG91dGZpbGUubWFlPic=

> <r_lp_tautomer_probability>
1

> <r_epik_Ionization_Penalty>
0.00340126

> <r_epik_Ionization_Penalty_Charging>
0.00171832

> <r_epik_Ionization_Penalty_Neutral>
0.00168294

> <r_epik_State_Penalty>
-0

> <r_epik_Charging_Adjusted_Penalty>
0.00171832

> <i_epik_Tot_Q>
1

> <i_epik_Tot_abs_Q>
1

> <r_epik_Metal_State_Penalty>
-0

> <b_epik_Metal_Only>
0

> <s_lp_Force_Field>
OPLS_2005

> <r_lp_Energy>
34.1059

> <b_lp_Chiralities_Consistent>
1

> <s_lp_Variant>
AV-unprocessed.smi:1788-1

> <Gold.Version>
5.8.1

> <Gold.Id.Protein>
6NUR|6NUR_protein|mol2

> <Gold.PLP.Fitness>
54.0595

> <Gold.PLP.PLP>
-45.9035

> <Gold.PLP.part.hbond>
-4.0000

> <Gold.PLP.part.metal>
0.0000

> <Gold.PLP.part.buried>
2.0631

> <Gold.PLP.part.nonpolar>
-43.8087

> <Gold.PLP.part.repulsive>
0.5967

> <Gold.PLP.ligand.clash>
0.0000

> <Gold.PLP.ligand.torsion>
0.5697

> <Gold.PLP.Chemscore.Hbond>
2.9600

> <Gold.PLP.Chemscore.CHOScore>
0.0000

> <Gold.PLP.Chemscore.Metal>
0.0000

> <Gold.Chemscore.Hbonds>
donor molecule, donor type, donor heavy atom, donor atom, acceptor molecule, acceptor atom, score
      L1  H     6    55       P1  7948  2.00
      L1  H     9    40       P1  7948  0.94

> <Gold.PLP.Chemscore.Internal.Correction>
0.4154

> <Gold.Rescore>
     Score         DG    S(hbond)    S(metal)    S(lipo)     H(rot)  DE(clash)    DE(int)     intcor
     18.74     -21.45       1.98        0.00     115.01       1.60       1.00       1.72       ----

> <Gold.Chemscore.Fitness>
18.7365

> <Gold.Chemscore.DG>
-21.4528

> <Gold.Chemscore.ZeroCoef>
-5.4800

> <Gold.Chemscore.Hbond>
1.9781

> <Gold.Chemscore.Metal>
0.0000

> <Gold.Chemscore.Lipo>
115.0085

> <Gold.Chemscore.Internal_Hbond>
0.0000

> <Gold.Chemscore.DEClash>
1.0001

> <Gold.Chemscore.DEInternal>
1.7163

> <Gold.Chemscore.Rot>
1.5976

> <Gold.Chemscore.Internal.Correction>
   9.000000E+99

> <Gold.Chemscore.Hbonds>
donor molecule, donor type, donor heavy atom, donor atom, acceptor molecule, acceptor atom, score
      L1  H     6    55       P1  7948  0.99
      L1  H     9    40       P1  7948  0.92

> <Gold.Chemscore.Hbond.Weighted>
-6.6068

> <Gold.Chemscore.Metal.Weighted>
-0.0000

> <Gold.Chemscore.Lipo.Weighted>
-13.4560

> <Gold.Chemscore.Internal_Hbond.Weighted>
0.0000

> <Gold.Chemscore.DEClash.Weighted>
1.0001

> <Gold.Chemscore.DEInternal.Weighted>
1.7163

> <Gold.Chemscore.Rot.Weighted>
4.0899

> <Gold.Chemscore.Internal.Correction.Weighted>
   9.000000E+99

> <Gold.Protein.RotatedTorsions>
[ 6907 6896 6895 6894 ] final   40.74 input  -60.11 | X-H torsion
[ 7974 7965 7964 7962 ] final  -59.49 input  175.53 | X-H torsion
[ 8008 7997 7996 7995 ] final   99.31 input   59.86 | X-H torsion
[ 10167 10162 10161 10158 ] final  -91.89 input  -65.29 | X-H torsion
[ 10718 10713 10712 10709 ] final   26.79 input   66.30 | X-H torsion
[ 10763 10752 10751 10750 ] final  -77.56 input  -60.55 | X-H torsion
[ 11005 11000 10999 10996 ] final   27.58 input  -57.11 | X-H torsion

> <Gold.Protein.ActiveResidues>
 VAL166  LYS551  ARG553  GLY616  TRP617  ASP618  TYR619  PRO620  LYS621  CYS622 
 ASP623  PHE694  ASN695  SER759  ASP760  ASP761  ALA762  ILE779  LEU786  VAL792 
 PHE793  MET794  SER795  GLU796  ALA797  LYS798  CYS799  TRP800  GLU811  SER814 

> <Gold.Protein.RotatedAtoms>
  152.1864  134.8710  160.0521 H   0  0  0  0  0  0  0  0  0  0  0  0  # atno 6907 bound_to 6896
  151.9615  133.3692  159.4045 H   0  0  0  0  0  0  0  0  0  0  0  0  # atno 6908 bound_to 6896
  150.6927  134.4159  159.5227 H   0  0  0  0  0  0  0  0  0  0  0  0  # atno 6909 bound_to 6896
  145.8269  140.8505  143.0104 H   0  0  0  0  0  0  0  0  0  0  0  0  # atno 7974 bound_to 7965
  156.1092  140.3230  155.8048 H   0  0  0  0  0  0  0  0  0  0  0  0  # atno 8008 bound_to 7997
  155.4703  140.0546  157.2997 H   0  0  0  0  0  0  0  0  0  0  0  0  # atno 8009 bound_to 7997
  154.4748  140.2027  155.9919 H   0  0  0  0  0  0  0  0  0  0  0  0  # atno 8010 bound_to 7997
  140.3403  143.2946  151.9842 H   0  0  0  0  0  0  0  0  0  0  0  0  # atno 10167 bound_to 10162
  157.2116  130.6937  149.6231 H   0  0  0  0  0  0  0  0  0  0  0  0  # atno 10718 bound_to 10713
  154.5146  135.5759  153.6631 H   0  0  0  0  0  0  0  0  0  0  0  0  # atno 10763 bound_to 10752
  152.9904  135.6167  154.2835 H   0  0  0  0  0  0  0  0  0  0  0  0  # atno 10764 bound_to 10752
  154.2752  135.2852  155.2701 H   0  0  0  0  0  0  0  0  0  0  0  0  # atno 10765 bound_to 10752
  140.3248  134.2503  155.7711 H   0  0  0  0  0  0  0  0  0  0  0  0  # atno 11005 bound_to 11000
  144.6743  140.0615  143.7476 LP  0  0  0  0  0  0  0  0  0  0  0  0  # atno 17320 bound_to 7965
  145.9614  139.2803  143.1153 LP  0  0  0  0  0  0  0  0  0  0  0  0  # atno 17321 bound_to 7965
  139.4841  144.6162  151.7342 LP  0  0  0  0  0  0  0  0  0  0  0  0  # atno 17342 bound_to 10162
  140.5315  144.0723  150.6055 LP  0  0  0  0  0  0  0  0  0  0  0  0  # atno 17343 bound_to 10162
  155.9690  130.4549  150.5868 LP  0  0  0  0  0  0  0  0  0  0  0  0  # atno 17370 bound_to 10713
  157.3666  131.0759  151.1592 LP  0  0  0  0  0  0  0  0  0  0  0  0  # atno 17371 bound_to 10713
  141.2078  133.7796  157.0098 LP  0  0  0  0  0  0  0  0  0  0  0  0  # atno 17394 bound_to 11000
  140.0911  134.9592  157.1777 LP  0  0  0  0  0  0  0  0  0  0  0  0  # atno 17395 bound_to 11000

$$$$
