AV-unprocessed.smi:3303|AV-procd|sdf|12690|dock3
  -GOLD-   2272019 23D 1   1.00000     0.00000
 Structure written by MMmdl.
 44 45  0  0  0  0  0  0  0  0  2 V2000
  146.0632  142.8805  154.0765 C   0  0  0  0  0  0  0  0  0  0  0  0
  146.9795  141.8846  154.8087 C   0  0  1  0  0  0  0  0  0  0  0  0
  146.1752  140.7208  155.4204 C   0  0  0  0  0  0  0  0  0  0  0  0
  145.6565  139.7848  154.3895 N   0  3  2  0  0  0  0  0  0  0  0  0
  144.7482  138.7817  154.9968 C   0  0  0  0  0  0  0  0  0  0  0  0
  146.7561  139.1944  153.5704 C   0  0  1  0  0  0  0  0  0  0  0  0
  146.2392  138.2242  152.4899 C   0  0  0  0  0  0  0  0  0  0  0  0
  147.5925  140.3079  152.9022 C   0  0  0  0  0  0  0  0  0  0  0  0
  148.1133  141.3658  153.8920 C   0  0  2  0  0  0  0  0  0  0  0  0
  149.2314  140.8061  154.6463 N   0  0  0  0  0  0  0  0  0  0  0  0
  149.5381  141.5867  155.8373 C   0  0  0  0  0  0  0  0  0  0  0  0
  150.9966  141.3452  156.2489 C   0  0  0  0  0  0  0  0  0  0  0  0
  151.4302  142.2711  157.3692 C   0  0  0  0  0  0  0  0  0  0  0  0
  151.9111  141.7495  158.5893 C   0  0  0  0  0  0  0  0  0  0  0  0
  152.2887  142.6522  159.6022 C   0  0  0  0  0  0  0  0  0  0  0  0
  152.1694  144.0340  159.3582 C   0  0  0  0  0  0  0  0  0  0  0  0
  151.6755  144.4537  158.1068 C   0  0  0  0  0  0  0  0  0  0  0  0
  151.3109  143.5965  157.1287 N   0  0  0  0  0  0  0  0  0  0  0  0
  145.5454  142.4170  153.2368 H   0  0  0  0  0  0  0  0  0  0  0  0
  146.6344  143.7244  153.6882 H   0  0  0  0  0  0  0  0  0  0  0  0
  145.3051  143.2827  154.7491 H   0  0  0  0  0  0  0  0  0  0  0  0
  147.4128  142.4463  155.6357 H   0  0  0  0  0  0  0  0  0  0  0  0
  146.8023  140.1658  156.1200 H   0  0  0  0  0  0  0  0  0  0  0  0
  145.3470  141.1239  156.0050 H   0  0  0  0  0  0  0  0  0  0  0  0
  145.3037  138.0711  155.6101 H   0  0  0  0  0  0  0  0  0  0  0  0
  144.1958  138.2289  154.2378 H   0  0  0  0  0  0  0  0  0  0  0  0
  144.0044  139.2664  155.6300 H   0  0  0  0  0  0  0  0  0  0  0  0
  147.4065  138.6299  154.2409 H   0  0  0  0  0  0  0  0  0  0  0  0
  147.0544  137.8887  151.8479 H   0  0  0  0  0  0  0  0  0  0  0  0
  145.4926  138.6985  151.8520 H   0  0  0  0  0  0  0  0  0  0  0  0
  145.7967  137.3264  152.9212 H   0  0  0  0  0  0  0  0  0  0  0  0
  148.4273  139.8721  152.3510 H   0  0  0  0  0  0  0  0  0  0  0  0
  146.9781  140.8073  152.1519 H   0  0  0  0  0  0  0  0  0  0  0  0
  148.5073  142.1948  153.3020 H   0  0  0  0  0  0  0  0  0  0  0  0
  150.0531  140.7942  154.0582 H   0  0  0  0  0  0  0  0  0  0  0  0
  149.3823  142.6467  155.6318 H   0  0  0  0  0  0  0  0  0  0  0  0
  148.8775  141.3128  156.6590 H   0  0  0  0  0  0  0  0  0  0  0  0
  151.1306  140.3106  156.5681 H   0  0  0  0  0  0  0  0  0  0  0  0
  151.6589  141.4912  155.3940 H   0  0  0  0  0  0  0  0  0  0  0  0
  151.9869  140.6838  158.7488 H   0  0  0  0  0  0  0  0  0  0  0  0
  152.6615  142.2912  160.5493 H   0  0  0  0  0  0  0  0  0  0  0  0
  152.4485  144.7550  160.1122 H   0  0  0  0  0  0  0  0  0  0  0  0
  151.5693  145.5056  157.8853 H   0  0  0  0  0  0  0  0  0  0  0  0
  145.0906  140.3377  153.7616 H   0  0  0  0  0  0  0  0  0  0  0  0
  1  2  1  0  0  0  0
  1 19  1  0  0  0  0
  1 20  1  0  0  0  0
  1 21  1  0  0  0  0
  2  9  1  0  0  0  0
  2  3  1  0  0  0  0
  2 22  1  0  0  0  0
  3  4  1  0  0  0  0
  3 23  1  0  0  0  0
  3 24  1  0  0  0  0
  4  5  1  0  0  0  0
  4  6  1  0  0  0  0
  4 44  1  0  0  0  0
  5 25  1  0  0  0  0
  5 26  1  0  0  0  0
  5 27  1  0  0  0  0
  6  7  1  0  0  0  0
  6  8  1  0  0  0  0
  6 28  1  0  0  0  0
  7 29  1  0  0  0  0
  7 30  1  0  0  0  0
  7 31  1  0  0  0  0
  8  9  1  0  0  0  0
  8 32  1  0  0  0  0
  8 33  1  0  0  0  0
  9 10  1  0  0  0  0
  9 34  1  0  0  0  0
 10 11  1  0  0  0  0
 10 35  1  0  0  0  0
 11 12  1  0  0  0  0
 11 36  1  0  0  0  0
 11 37  1  0  0  0  0
 12 13  1  0  0  0  0
 12 38  1  0  0  0  0
 12 39  1  0  0  0  0
 13 18  1  0  0  0  0
 13 14  2  0  0  0  0
 14 15  1  0  0  0  0
 14 40  1  0  0  0  0
 15 16  2  0  0  0  0
 15 41  1  0  0  0  0
 16 17  1  0  0  0  0
 16 42  1  0  0  0  0
 17 18  2  0  0  0  0
 17 43  1  0  0  0  0
M  CHG  1   4   1
M  END
> <s_m_source_file>
AV-unprocessed.smi

> <i_m_source_file_index>
3303

> <i_lp_mmshare_version>
43012

> <i_f3d_flags>
0

> <s_epik_input>
W0NIM11bQ0BASF0xW0NIMl1OKFtDSDNdKVtDQEBIXShbQ0gzXSlbQ0gyXVtDQEhdMVtOSF1bQ0gyXVtDSDJdYzJbY0hdW2NIXVtjSF1bY0hdbjI=

> <s_epik_cmdline>
J2VwaWtfcHl0aG9uJywgJy1waCcsICc3LjAnLCAnLXRuJywgJzgnLCAnLW1hJywgJzIwMCcsICctbWV0YWxfYmluZGluZycsICctaW1hZScsICc8aW5maWxlLm1hZT4nLCAnLW9tYWUnLCAnPG91dGZpbGUubWFlPic=

> <r_epik_Ionization_Penalty>
2.31085

> <r_epik_Ionization_Penalty_Charging>
0.000313057

> <r_epik_Ionization_Penalty_Neutral>
2.31054

> <r_epik_State_Penalty>
2.4087

> <r_epik_Charging_Adjusted_Penalty>
2.40902

> <i_epik_Tot_Q>
1

> <i_epik_Tot_abs_Q>
1

> <r_epik_Metal_State_Penalty>
2.30979

> <b_epik_Metal_Only>
0

> <s_lp_Force_Field>
OPLS_2005

> <r_lp_Energy>
25.2606

> <b_lp_Chiralities_Consistent>
1

> <s_lp_Variant>
AV-unprocessed.smi:3303-34

> <Gold.Version>
5.8.1

> <Gold.Id.Protein>
6NUR|6NUR_protein|mol2

> <Gold.PLP.Fitness>
41.9200

> <Gold.PLP.PLP>
-36.4971

> <Gold.PLP.part.hbond>
-1.0000

> <Gold.PLP.part.metal>
0.0000

> <Gold.PLP.part.buried>
-1.4758

> <Gold.PLP.part.nonpolar>
-35.5247

> <Gold.PLP.part.repulsive>
0.6445

> <Gold.PLP.ligand.clash>
0.0000

> <Gold.PLP.ligand.torsion>
0.2991

> <Gold.PLP.Chemscore.Hbond>
2.0000

> <Gold.PLP.Chemscore.CHOScore>
0.0000

> <Gold.PLP.Chemscore.Metal>
0.0000

> <Gold.Chemscore.Hbonds>
donor molecule, donor type, donor heavy atom, donor atom, acceptor molecule, acceptor atom, score
      L1  H     4    44       P1 10175  2.00

> <Gold.PLP.Chemscore.Internal.Correction>
0.0212

> <Gold.Rescore>
     Score         DG    S(hbond)    S(metal)    S(lipo)     H(rot)  DE(clash)    DE(int)     intcor
     16.76     -18.52       0.96        0.00     113.18       1.33       1.47       0.29       ----

> <Gold.Chemscore.Fitness>
16.7644

> <Gold.Chemscore.DG>
-18.5175

> <Gold.Chemscore.ZeroCoef>
-5.4800

> <Gold.Chemscore.Hbond>
0.9560

> <Gold.Chemscore.Metal>
0.0000

> <Gold.Chemscore.Lipo>
113.1814

> <Gold.Chemscore.Internal_Hbond>
0.0000

> <Gold.Chemscore.DEClash>
1.4675

> <Gold.Chemscore.DEInternal>
0.2857

> <Gold.Chemscore.Rot>
1.3272

> <Gold.Chemscore.Internal.Correction>
   9.000000E+99

> <Gold.Chemscore.Hbonds>
donor molecule, donor type, donor heavy atom, donor atom, acceptor molecule, acceptor atom, score
      L1  H     4    44       P1 10175  0.95

> <Gold.Chemscore.Hbond.Weighted>
-3.1929

> <Gold.Chemscore.Metal.Weighted>
-0.0000

> <Gold.Chemscore.Lipo.Weighted>
-13.2422

> <Gold.Chemscore.Internal_Hbond.Weighted>
0.0000

> <Gold.Chemscore.DEClash.Weighted>
1.4675

> <Gold.Chemscore.DEInternal.Weighted>
0.2857

> <Gold.Chemscore.Rot.Weighted>
3.3976

> <Gold.Chemscore.Internal.Correction.Weighted>
   9.000000E+99

> <Gold.Protein.RotatedTorsions>
[ 6907 6896 6895 6894 ] final   10.13 input  -60.11 | X-H torsion
[ 7974 7965 7964 7962 ] final    4.14 input  175.53 | X-H torsion
[ 8008 7997 7996 7995 ] final   71.75 input   59.86 | X-H torsion
[ 10167 10162 10161 10158 ] final   16.64 input  -65.29 | X-H torsion
[ 10718 10713 10712 10709 ] final   59.71 input   66.30 | X-H torsion
[ 10763 10752 10751 10750 ] final  174.11 input  -60.55 | X-H torsion
[ 11005 11000 10999 10996 ] final  169.79 input  -57.11 | X-H torsion

> <Gold.Protein.ActiveResidues>
 VAL166  LYS551  ARG553  GLY616  TRP617  ASP618  TYR619  PRO620  LYS621  CYS622 
 ASP623  PHE694  ASN695  SER759  ASP760  ASP761  ALA762  ILE779  LEU786  VAL792 
 PHE793  MET794  SER795  GLU796  ALA797  LYS798  CYS799  TRP800  GLU811  SER814 

> <Gold.Protein.RotatedAtoms>
  151.7334  135.0870  160.0303 H   0  0  0  0  0  0  0  0  0  0  0  0  # atno 6907 bound_to 6896
  152.3526  133.6194  159.5964 H   0  0  0  0  0  0  0  0  0  0  0  0  # atno 6908 bound_to 6896
  150.7550  133.9466  159.3514 H   0  0  0  0  0  0  0  0  0  0  0  0  # atno 6909 bound_to 6896
  146.2444  140.0579  142.8370 H   0  0  0  0  0  0  0  0  0  0  0  0  # atno 7974 bound_to 7965
  155.7586  140.3487  155.5186 H   0  0  0  0  0  0  0  0  0  0  0  0  # atno 8008 bound_to 7997
  155.8935  140.1022  157.1422 H   0  0  0  0  0  0  0  0  0  0  0  0  # atno 8009 bound_to 7997
  154.4036  140.1299  156.4333 H   0  0  0  0  0  0  0  0  0  0  0  0  # atno 8010 bound_to 7997
  140.5783  143.9030  150.6768 H   0  0  0  0  0  0  0  0  0  0  0  0  # atno 10167 bound_to 10162
  157.5697  130.8898  149.9245 H   0  0  0  0  0  0  0  0  0  0  0  0  # atno 10718 bound_to 10713
  154.4494  135.2764  155.1792 H   0  0  0  0  0  0  0  0  0  0  0  0  # atno 10763 bound_to 10752
  154.3625  135.6126  153.5702 H   0  0  0  0  0  0  0  0  0  0  0  0  # atno 10764 bound_to 10752
  152.9846  135.5838  154.4836 H   0  0  0  0  0  0  0  0  0  0  0  0  # atno 10765 bound_to 10752
  140.3014  134.7592  157.3919 H   0  0  0  0  0  0  0  0  0  0  0  0  # atno 11005 bound_to 11000
  145.0926  140.9294  143.4760 LP  0  0  0  0  0  0  0  0  0  0  0  0  # atno 17320 bound_to 7965
  145.0755  139.2999  143.5810 LP  0  0  0  0  0  0  0  0  0  0  0  0  # atno 17321 bound_to 7965
  140.2523  143.3584  152.1395 LP  0  0  0  0  0  0  0  0  0  0  0  0  # atno 17342 bound_to 10162
  139.5155  144.6964  151.5619 LP  0  0  0  0  0  0  0  0  0  0  0  0  # atno 17343 bound_to 10162
  156.0743  130.3681  150.0711 LP  0  0  0  0  0  0  0  0  0  0  0  0  # atno 17370 bound_to 10713
  156.8865  130.9574  151.3593 LP  0  0  0  0  0  0  0  0  0  0  0  0  # atno 17371 bound_to 10713
  140.1105  134.5351  155.8270 LP  0  0  0  0  0  0  0  0  0  0  0  0  # atno 17394 bound_to 11000
  141.2127  133.6723  156.6681 LP  0  0  0  0  0  0  0  0  0  0  0  0  # atno 17395 bound_to 11000

$$$$
