AV-unprocessed.smi:2442|AV-procd|sdf|9624|dock5
  -GOLD-   2272013253D 1   1.00000     0.00000
 Structure written by MMmdl.
 46 47  0  0  0  0  0  0  0  0  1 V2000
  151.4912  138.6179  154.2717 C   0  0  0  0  0  0  0  0  0  0  0  0
  150.2784  139.0402  153.6682 O   0  0  0  0  0  0  0  0  0  0  0  0
  149.2817  139.4669  154.5925 C   0  0  1  0  0  0  0  0  0  0  0  0
  149.7346  140.7433  155.3334 C   0  0  0  0  0  0  0  0  0  0  0  0
  149.8637  141.9436  154.3812 C   0  0  0  0  0  0  0  0  0  0  0  0
  148.5542  142.1911  153.6171 C   0  0  0  0  0  0  0  0  0  0  0  0
  148.1023  140.9296  152.8650 C   0  0  0  0  0  0  0  0  0  0  0  0
  147.9678  139.7242  153.8159 C   0  0  1  0  0  0  0  0  0  0  0  0
  147.5560  138.5422  153.0628 N   0  0  0  0  0  0  0  0  0  0  0  0
  146.2940  138.1131  152.9266 C   0  0  0  0  0  0  0  0  0  0  0  0
  145.3155  138.6779  153.4167 O   0  0  0  0  0  0  0  0  0  0  0  0
  146.2253  136.9883  152.2012 N   0  0  0  0  0  0  0  0  0  0  0  0
  144.9927  136.2668  151.9088 C   0  0  0  0  0  0  0  0  0  0  0  0
  144.8553  135.0136  152.7891 C   0  0  0  0  0  0  0  0  0  0  0  0
  144.6911  133.7481  151.9629 C   0  0  0  0  0  0  0  0  0  0  0  0
  143.4627  133.4932  151.3177 C   0  0  0  0  0  0  0  0  0  0  0  0
  143.3272  132.3131  150.5606 C   0  0  0  0  0  0  0  0  0  0  0  0
  144.3161  131.4066  150.4181 N   0  0  0  0  0  0  0  0  0  0  0  0
  145.4897  131.6518  151.0378 C   0  0  0  0  0  0  0  0  0  0  0  0
  145.7347  132.7999  151.8222 C   0  0  0  0  0  0  0  0  0  0  0  0
  147.0891  132.9875  152.4831 C   0  0  0  0  0  0  0  0  0  0  0  0
  152.1874  138.2958  153.4975 H   0  0  0  0  0  0  0  0  0  0  0  0
  151.3246  137.7732  154.9413 H   0  0  0  0  0  0  0  0  0  0  0  0
  151.9675  139.4216  154.8327 H   0  0  0  0  0  0  0  0  0  0  0  0
  149.1025  138.6780  155.3251 H   0  0  0  0  0  0  0  0  0  0  0  0
  149.0042  140.9813  156.1076 H   0  0  0  0  0  0  0  0  0  0  0  0
  150.6768  140.5784  155.8547 H   0  0  0  0  0  0  0  0  0  0  0  0
  150.1386  142.8356  154.9446 H   0  0  0  0  0  0  0  0  0  0  0  0
  150.6736  141.7645  153.6727 H   0  0  0  0  0  0  0  0  0  0  0  0
  147.7754  142.4983  154.3163 H   0  0  0  0  0  0  0  0  0  0  0  0
  148.6835  143.0161  152.9158 H   0  0  0  0  0  0  0  0  0  0  0  0
  147.1506  141.1229  152.3689 H   0  0  0  0  0  0  0  0  0  0  0  0
  148.8206  140.7026  152.0758 H   0  0  0  0  0  0  0  0  0  0  0  0
  147.1819  139.9583  154.5368 H   0  0  0  0  0  0  0  0  0  0  0  0
  148.2912  138.0043  152.6278 H   0  0  0  0  0  0  0  0  0  0  0  0
  147.0832  136.5968  151.8406 H   0  0  0  0  0  0  0  0  0  0  0  0
  144.1354  136.9283  152.0437 H   0  0  0  0  0  0  0  0  0  0  0  0
  145.0000  135.9840  150.8559 H   0  0  0  0  0  0  0  0  0  0  0  0
  145.7393  134.9101  153.4199 H   0  0  0  0  0  0  0  0  0  0  0  0
  144.0156  135.1172  153.4761 H   0  0  0  0  0  0  0  0  0  0  0  0
  142.6379  134.1855  151.4011 H   0  0  0  0  0  0  0  0  0  0  0  0
  142.3985  132.0911  150.0559 H   0  0  0  0  0  0  0  0  0  0  0  0
  146.2580  130.9048  150.9024 H   0  0  0  0  0  0  0  0  0  0  0  0
  147.7084  132.0968  152.3735 H   0  0  0  0  0  0  0  0  0  0  0  0
  146.9773  133.1859  153.5489 H   0  0  0  0  0  0  0  0  0  0  0  0
  147.6199  133.8243  152.0285 H   0  0  0  0  0  0  0  0  0  0  0  0
  1  2  1  0  0  0  0
  1 22  1  0  0  0  0
  1 23  1  0  0  0  0
  1 24  1  0  0  0  0
  2  3  1  0  0  0  0
  3  8  1  0  0  0  0
  3  4  1  0  0  0  0
  3 25  1  0  0  0  0
  4  5  1  0  0  0  0
  4 26  1  0  0  0  0
  4 27  1  0  0  0  0
  5  6  1  0  0  0  0
  5 28  1  0  0  0  0
  5 29  1  0  0  0  0
  6  7  1  0  0  0  0
  6 30  1  0  0  0  0
  6 31  1  0  0  0  0
  7  8  1  0  0  0  0
  7 32  1  0  0  0  0
  7 33  1  0  0  0  0
  8  9  1  0  0  0  0
  8 34  1  0  0  0  0
  9 10  1  0  0  0  0
  9 35  1  0  0  0  0
 10 11  2  0  0  0  0
 10 12  1  0  0  0  0
 12 13  1  0  0  0  0
 12 36  1  0  0  0  0
 13 14  1  0  0  0  0
 13 37  1  0  0  0  0
 13 38  1  0  0  0  0
 14 15  1  0  0  0  0
 14 39  1  0  0  0  0
 14 40  1  0  0  0  0
 15 20  1  0  0  0  0
 15 16  2  0  0  0  0
 16 17  1  0  0  0  0
 16 41  1  0  0  0  0
 17 18  2  0  0  0  0
 17 42  1  0  0  0  0
 18 19  1  0  0  0  0
 19 20  2  0  0  0  0
 19 43  1  0  0  0  0
 20 21  1  0  0  0  0
 21 44  1  0  0  0  0
 21 45  1  0  0  0  0
 21 46  1  0  0  0  0
M  END
> <s_m_source_file>
AV-unprocessed.smi

> <i_m_source_file_index>
2442

> <i_lp_mmshare_version>
43012

> <i_f3d_flags>
0

> <s_epik_input>
W0NIM11PW0NAQEhdMVtDSDJdW0NIMl1bQ0gyXVtDSDJdW0NASF0xW05IXUMoPU8pW05IXVtDSDJdW0NIMl1jMltjSF1bY0hdbltjSF1jMltDSDNd

> <s_epik_cmdline>
J2VwaWtfcHl0aG9uJywgJy1waCcsICc3LjAnLCAnLXRuJywgJzgnLCAnLW1hJywgJzIwMCcsICctbWV0YWxfYmluZGluZycsICctaW1hZScsICc8aW5maWxlLm1hZT4nLCAnLW9tYWUnLCAnPG91dGZpbGUubWFlPic=

> <r_epik_Ionization_Penalty>
0.106136

> <r_epik_Ionization_Penalty_Charging>
0

> <r_epik_Ionization_Penalty_Neutral>
0.106136

> <r_epik_State_Penalty>
0.0959393

> <r_epik_Charging_Adjusted_Penalty>
0.0959393

> <i_epik_Tot_Q>
0

> <i_epik_Tot_abs_Q>
0

> <r_epik_Metal_State_Penalty>
0.0812517

> <b_epik_Metal_Only>
0

> <s_lp_Force_Field>
OPLS_2005

> <r_lp_Energy>
9.97505

> <b_lp_Chiralities_Consistent>
1

> <s_lp_Variant>
AV-unprocessed.smi:2442-2

> <Gold.Version>
5.8.1

> <Gold.Id.Protein>
6NUR|6NUR_protein|mol2

> <Gold.PLP.Fitness>
45.3838

> <Gold.PLP.PLP>
-33.1488

> <Gold.PLP.part.hbond>
-3.0000

> <Gold.PLP.part.metal>
0.0000

> <Gold.PLP.part.buried>
-1.2094

> <Gold.PLP.part.nonpolar>
-29.7840

> <Gold.PLP.part.repulsive>
0.5541

> <Gold.PLP.ligand.clash>
0.0000

> <Gold.PLP.ligand.torsion>
0.9863

> <Gold.PLP.Chemscore.Hbond>
2.2051

> <Gold.PLP.Chemscore.CHOScore>
2.5119

> <Gold.PLP.Chemscore.Metal>
0.0000

> <Gold.Chemscore.Hbonds>
donor molecule, donor type, donor heavy atom, donor atom, acceptor molecule, acceptor atom, score
      L1  H     9    35       P1  7948  1.00
      L1  H    12    36       P1  7948  1.00
      P1  H 10785 10796       L1    18  0.07
      L1  C    17    42       P1 10186  0.28
      L1  C    17    42       P1 10952  1.00
      L1  C    19    43       P1 10747  0.37

> <Gold.PLP.Chemscore.Internal.Correction>
0.0564

> <Gold.Rescore>
     Score         DG    S(hbond)    S(metal)    S(lipo)     H(rot)  DE(clash)    DE(int)     intcor
     17.58     -19.35       2.03        0.00      96.48       1.64       0.54       1.23       ----

> <Gold.Chemscore.Fitness>
17.5795

> <Gold.Chemscore.DG>
-19.3451

> <Gold.Chemscore.ZeroCoef>
-5.4800

> <Gold.Chemscore.Hbond>
2.0269

> <Gold.Chemscore.Metal>
0.0000

> <Gold.Chemscore.Lipo>
96.4839

> <Gold.Chemscore.Internal_Hbond>
0.0000

> <Gold.Chemscore.DEClash>
0.5363

> <Gold.Chemscore.DEInternal>
1.2293

> <Gold.Chemscore.Rot>
1.6380

> <Gold.Chemscore.Internal.Correction>
   9.000000E+99

> <Gold.Chemscore.Hbonds>
donor molecule, donor type, donor heavy atom, donor atom, acceptor molecule, acceptor atom, score
      L1  H     9    35       P1  7948  0.90
      L1  H    12    36       P1  7948  0.98
      P1  H 10785 10796       L1    18  0.01

> <Gold.Chemscore.Hbond.Weighted>
-6.7699

> <Gold.Chemscore.Metal.Weighted>
-0.0000

> <Gold.Chemscore.Lipo.Weighted>
-11.2886

> <Gold.Chemscore.Internal_Hbond.Weighted>
0.0000

> <Gold.Chemscore.DEClash.Weighted>
0.5363

> <Gold.Chemscore.DEInternal.Weighted>
1.2293

> <Gold.Chemscore.Rot.Weighted>
4.1934

> <Gold.Chemscore.Internal.Correction.Weighted>
   9.000000E+99

> <Gold.Protein.RotatedTorsions>
[ 6907 6896 6895 6894 ] final    5.17 input  -60.11 | X-H torsion
[ 7974 7965 7964 7962 ] final  -78.43 input  175.53 | X-H torsion
[ 8008 7997 7996 7995 ] final  -29.74 input   59.86 | X-H torsion
[ 10167 10162 10161 10158 ] final  -41.75 input  -65.29 | X-H torsion
[ 10718 10713 10712 10709 ] final  106.03 input   66.30 | X-H torsion
[ 10763 10752 10751 10750 ] final   75.46 input  -60.55 | X-H torsion
[ 11005 11000 10999 10996 ] final  -77.44 input  -57.11 | X-H torsion

> <Gold.Protein.ActiveResidues>
 VAL166  LYS551  ARG553  GLY616  TRP617  ASP618  TYR619  PRO620  LYS621  CYS622 
 ASP623  PHE694  ASN695  SER759  ASP760  ASP761  ALA762  ILE779  LEU786  VAL792 
 PHE793  MET794  SER795  GLU796  ALA797  LYS798  CYS799  TRP800  GLU811  SER814 

> <Gold.Protein.RotatedAtoms>
  151.6532  135.0999  160.0164 H   0  0  0  0  0  0  0  0  0  0  0  0  # atno 6907 bound_to 6896
  152.3989  133.6783  159.6308 H   0  0  0  0  0  0  0  0  0  0  0  0  # atno 6908 bound_to 6896
  150.7891  133.8743  159.3308 H   0  0  0  0  0  0  0  0  0  0  0  0  # atno 6909 bound_to 6896
  145.5865  140.9438  143.1315 H   0  0  0  0  0  0  0  0  0  0  0  0  # atno 7974 bound_to 7965
  154.4277  140.1810  156.1297 H   0  0  0  0  0  0  0  0  0  0  0  0  # atno 8008 bound_to 7997
  156.0078  140.3353  155.6885 H   0  0  0  0  0  0  0  0  0  0  0  0  # atno 8009 bound_to 7997
  155.6153  140.0654  157.2685 H   0  0  0  0  0  0  0  0  0  0  0  0  # atno 8010 bound_to 7997
  140.6992  143.3076  151.3112 H   0  0  0  0  0  0  0  0  0  0  0  0  # atno 10167 bound_to 10162
  157.6684  131.0841  150.5945 H   0  0  0  0  0  0  0  0  0  0  0  0  # atno 10718 bound_to 10713
  153.0656  135.4988  154.8192 H   0  0  0  0  0  0  0  0  0  0  0  0  # atno 10763 bound_to 10752
  154.6948  135.2991  154.9429 H   0  0  0  0  0  0  0  0  0  0  0  0  # atno 10764 bound_to 10752
  154.0172  135.6747  153.4822 H   0  0  0  0  0  0  0  0  0  0  0  0  # atno 10765 bound_to 10752
  141.1660  133.7022  156.7820 H   0  0  0  0  0  0  0  0  0  0  0  0  # atno 11005 bound_to 11000
  144.7370  139.7557  143.7325 LP  0  0  0  0  0  0  0  0  0  0  0  0  # atno 17320 bound_to 7965
  146.1678  139.4816  142.9947 LP  0  0  0  0  0  0  0  0  0  0  0  0  # atno 17321 bound_to 7965
  139.6488  144.0401  152.2611 LP  0  0  0  0  0  0  0  0  0  0  0  0  # atno 17342 bound_to 10162
  139.9931  144.6347  150.7796 LP  0  0  0  0  0  0  0  0  0  0  0  0  # atno 17343 bound_to 10162
  156.6245  130.4415  149.5809 LP  0  0  0  0  0  0  0  0  0  0  0  0  # atno 17370 bound_to 10713
  156.2329  130.6805  151.1481 LP  0  0  0  0  0  0  0  0  0  0  0  0  # atno 17371 bound_to 10713
  140.2387  134.8630  157.3551 LP  0  0  0  0  0  0  0  0  0  0  0  0  # atno 17394 bound_to 11000
  140.1817  134.4481  155.7768 LP  0  0  0  0  0  0  0  0  0  0  0  0  # atno 17395 bound_to 11000

$$$$
