AV-unprocessed.smi:1547|AV-procd|sdf|6220|dock4
  -GOLD-   22720 6393D 1   1.00000     0.00000
 Structure written by MMmdl.
 40 41  0  0  0  0  0  0  0  0  2 V2000
  149.7844  142.1575  155.8152 C   0  0  0  0  0  0  0  0  0  0  0  0
  149.6709  140.8172  155.1508 C   0  0  0  0  0  0  0  0  0  0  0  0
  148.5126  140.2189  154.5750 C   0  0  0  0  0  0  0  0  0  0  0  0
  148.9869  139.0174  154.1239 C   0  0  0  0  0  0  0  0  0  0  0  0
  148.3210  138.0230  153.4784 N   0  0  0  0  0  0  0  0  0  0  0  0
  146.9985  137.7826  153.4457 C   0  0  0  0  0  0  0  0  0  0  0  0
  146.1378  138.4324  154.0399 O   0  0  0  0  0  0  0  0  0  0  0  0
  146.7144  136.7257  152.6708 N   0  0  0  0  0  0  0  0  0  0  0  0
  145.3720  136.2075  152.4338 C   0  0  0  0  0  0  0  0  0  0  0  0
  145.0608  136.1042  150.9288 C   0  0  0  0  0  0  0  0  0  0  0  0
  145.3522  134.7543  150.3932 N   0  3  0  0  0  0  0  0  0  0  0  0
  146.5440  134.0892  150.9759 C   0  0  0  0  0  0  0  0  0  0  0  0
  146.1470  132.6365  151.2690 C   0  0  0  0  0  0  0  0  0  0  0  0
  144.8606  132.4243  150.4780 C   0  0  0  0  0  0  0  0  0  0  0  0
  144.2220  133.8089  150.4971 C   0  0  0  0  0  0  0  0  0  0  0  0
  150.3295  138.9306  154.4180 N   0  0  0  0  0  0  0  0  0  0  0  0
  151.2655  137.8575  154.1440 C   0  0  0  0  0  0  0  0  0  0  0  0
  150.7477  140.0456  155.0551 N   0  0  0  0  0  0  0  0  0  0  0  0
  148.8345  142.6918  155.7893 H   0  0  0  0  0  0  0  0  0  0  0  0
  150.5286  142.7807  155.3187 H   0  0  0  0  0  0  0  0  0  0  0  0
  150.0778  142.0537  156.8600 H   0  0  0  0  0  0  0  0  0  0  0  0
  147.5132  140.6226  154.5135 H   0  0  0  0  0  0  0  0  0  0  0  0
  148.9031  137.3886  152.9515 H   0  0  0  0  0  0  0  0  0  0  0  0
  147.4787  136.2436  152.2199 H   0  0  0  0  0  0  0  0  0  0  0  0
  145.3015  135.2226  152.8962 H   0  0  0  0  0  0  0  0  0  0  0  0
  144.6450  136.8416  152.9440 H   0  0  0  0  0  0  0  0  0  0  0  0
  144.0190  136.3558  150.7237 H   0  0  0  0  0  0  0  0  0  0  0  0
  145.6697  136.8323  150.3909 H   0  0  0  0  0  0  0  0  0  0  0  0
  147.3572  134.1343  150.2509 H   0  0  0  0  0  0  0  0  0  0  0  0
  146.8880  134.5803  151.8877 H   0  0  0  0  0  0  0  0  0  0  0  0
  146.9279  131.9237  151.0021 H   0  0  0  0  0  0  0  0  0  0  0  0
  145.9428  132.5212  152.3344 H   0  0  0  0  0  0  0  0  0  0  0  0
  145.0963  132.1360  149.4526 H   0  0  0  0  0  0  0  0  0  0  0  0
  144.2190  131.6543  150.9077 H   0  0  0  0  0  0  0  0  0  0  0  0
  143.7015  133.9575  151.4451 H   0  0  0  0  0  0  0  0  0  0  0  0
  143.5021  133.9512  149.6906 H   0  0  0  0  0  0  0  0  0  0  0  0
  151.2170  137.5880  153.0888 H   0  0  0  0  0  0  0  0  0  0  0  0
  151.0092  136.9866  154.7473 H   0  0  0  0  0  0  0  0  0  0  0  0
  152.2845  138.1662  154.3816 H   0  0  0  0  0  0  0  0  0  0  0  0
  145.5382  134.8556  149.4058 H   0  0  0  0  0  0  0  0  0  0  0  0
  1  2  1  0  0  0  0
  1 19  1  0  0  0  0
  1 20  1  0  0  0  0
  1 21  1  0  0  0  0
  2 18  2  0  0  0  0
  2  3  1  0  0  0  0
  3  4  2  0  0  0  0
  3 22  1  0  0  0  0
  4  5  1  0  0  0  0
  4 16  1  0  0  0  0
  5  6  1  0  0  0  0
  5 23  1  0  0  0  0
  6  7  2  0  0  0  0
  6  8  1  0  0  0  0
  8  9  1  0  0  0  0
  8 24  1  0  0  0  0
  9 10  1  0  0  0  0
  9 25  1  0  0  0  0
  9 26  1  0  0  0  0
 10 11  1  0  0  0  0
 10 27  1  0  0  0  0
 10 28  1  0  0  0  0
 11 15  1  0  0  0  0
 11 12  1  0  0  0  0
 11 40  1  0  0  0  0
 12 13  1  0  0  0  0
 12 29  1  0  0  0  0
 12 30  1  0  0  0  0
 13 14  1  0  0  0  0
 13 31  1  0  0  0  0
 13 32  1  0  0  0  0
 14 15  1  0  0  0  0
 14 33  1  0  0  0  0
 14 34  1  0  0  0  0
 15 35  1  0  0  0  0
 15 36  1  0  0  0  0
 16 17  1  0  0  0  0
 16 18  1  0  0  0  0
 17 37  1  0  0  0  0
 17 38  1  0  0  0  0
 17 39  1  0  0  0  0
M  CHG  1  11   1
M  END
> <s_m_source_file>
AV-unprocessed.smi

> <i_m_source_file_index>
1547

> <i_lp_mmshare_version>
43012

> <i_f3d_flags>
0

> <s_epik_input>
W0NIM11jMVtjSF1jKG4objEpW0NIM10pW05IXUMoPU8pW05IXVtDSDJdW0NIMl1OMltDSDJdW0NIMl1bQ0gyXVtDSDJdMg==

> <s_epik_cmdline>
J2VwaWtfcHl0aG9uJywgJy1waCcsICc3LjAnLCAnLXRuJywgJzgnLCAnLW1hJywgJzIwMCcsICctbWV0YWxfYmluZGluZycsICctaW1hZScsICc8aW5maWxlLm1hZT4nLCAnLW9tYWUnLCAnPG91dGZpbGUubWFlPic=

> <r_lp_tautomer_probability>
1

> <r_epik_Ionization_Penalty>
0.00226577

> <r_epik_Ionization_Penalty_Charging>
0.00218899

> <r_epik_Ionization_Penalty_Neutral>
7.67743e-05

> <r_epik_State_Penalty>
0.00150446

> <r_epik_Charging_Adjusted_Penalty>
0.00369345

> <i_epik_Tot_Q>
1

> <i_epik_Tot_abs_Q>
1

> <r_epik_Metal_State_Penalty>
-0

> <b_epik_Metal_Only>
0

> <s_lp_Force_Field>
OPLS_2005

> <r_lp_Energy>
27.1917

> <b_lp_Chiralities_Consistent>
1

> <s_lp_Variant>
AV-unprocessed.smi:1547-1

> <Gold.Version>
5.8.1

> <Gold.Id.Protein>
6NUR|6NUR_protein|mol2

> <Gold.PLP.Fitness>
40.0823

> <Gold.PLP.PLP>
-29.5971

> <Gold.PLP.part.hbond>
-3.6226

> <Gold.PLP.part.metal>
0.0000

> <Gold.PLP.part.buried>
1.4641

> <Gold.PLP.part.nonpolar>
-27.3371

> <Gold.PLP.part.repulsive>
0.3037

> <Gold.PLP.ligand.clash>
0.0000

> <Gold.PLP.ligand.torsion>
0.6338

> <Gold.PLP.Chemscore.Hbond>
3.9040

> <Gold.PLP.Chemscore.CHOScore>
0.0000

> <Gold.PLP.Chemscore.Metal>
0.0000

> <Gold.Chemscore.Hbonds>
donor molecule, donor type, donor heavy atom, donor atom, acceptor molecule, acceptor atom, score
      L1  H     5    23       P1  7948  0.96
      L1  H     8    24       P1  7948  0.90
      L1  H    11    40       P1  7921  1.00
      P1  H  7989  7998       L1    18  0.85

> <Gold.PLP.Chemscore.Internal.Correction>
0.0408

> <Gold.Rescore>
     Score         DG    S(hbond)    S(metal)    S(lipo)     H(rot)  DE(clash)    DE(int)     intcor
     15.89     -19.40       2.92        0.00      68.83       1.52       1.90       1.60       ----

> <Gold.Chemscore.Fitness>
15.8918

> <Gold.Chemscore.DG>
-19.3969

> <Gold.Chemscore.ZeroCoef>
-5.4800

> <Gold.Chemscore.Hbond>
2.9175

> <Gold.Chemscore.Metal>
0.0000

> <Gold.Chemscore.Lipo>
68.8332

> <Gold.Chemscore.Internal_Hbond>
0.0000

> <Gold.Chemscore.DEClash>
1.9025

> <Gold.Chemscore.DEInternal>
1.6026

> <Gold.Chemscore.Rot>
1.5160

> <Gold.Chemscore.Internal.Correction>
   9.000000E+99

> <Gold.Chemscore.Hbonds>
donor molecule, donor type, donor heavy atom, donor atom, acceptor molecule, acceptor atom, score
      L1  H     5    23       P1  7948  0.89
      L1  H     8    24       P1  7948  0.83
      L1  H    11    40       P1  7921  0.99
      P1  H  7989  7998       L1    18  0.04

> <Gold.Chemscore.Hbond.Weighted>
-9.7443

> <Gold.Chemscore.Metal.Weighted>
-0.0000

> <Gold.Chemscore.Lipo.Weighted>
-8.0535

> <Gold.Chemscore.Internal_Hbond.Weighted>
0.0000

> <Gold.Chemscore.DEClash.Weighted>
1.9025

> <Gold.Chemscore.DEInternal.Weighted>
1.6026

> <Gold.Chemscore.Rot.Weighted>
3.8809

> <Gold.Chemscore.Internal.Correction.Weighted>
   9.000000E+99

> <Gold.Protein.RotatedTorsions>
[ 6907 6896 6895 6894 ] final -131.81 input  -60.11 | X-H torsion
[ 7974 7965 7964 7962 ] final   28.78 input  175.53 | X-H torsion
[ 8008 7997 7996 7995 ] final   54.48 input   59.86 | X-H torsion
[ 10167 10162 10161 10158 ] final  174.26 input  -65.29 | X-H torsion
[ 10718 10713 10712 10709 ] final  129.20 input   66.30 | X-H torsion
[ 10763 10752 10751 10750 ] final  137.82 input  -60.55 | X-H torsion
[ 11005 11000 10999 10996 ] final    1.89 input  -57.11 | X-H torsion

> <Gold.Protein.ActiveResidues>
 VAL166  LYS551  ARG553  GLY616  TRP617  ASP618  TYR619  PRO620  LYS621  CYS622 
 ASP623  PHE694  ASN695  SER759  ASP760  ASP761  ALA762  ILE779  LEU786  VAL792 
 PHE793  MET794  SER795  GLU796  ALA797  LYS798  CYS799  TRP800  GLU811  SER814 

> <Gold.Protein.RotatedAtoms>
  150.9552  133.6505  159.2764 H   0  0  0  0  0  0  0  0  0  0  0  0  # atno 6907 bound_to 6896
  151.3847  135.0944  159.9517 H   0  0  0  0  0  0  0  0  0  0  0  0  # atno 6908 bound_to 6896
  152.5126  133.9079  159.7528 H   0  0  0  0  0  0  0  0  0  0  0  0  # atno 6909 bound_to 6896
  146.1709  139.7010  142.8968 H   0  0  0  0  0  0  0  0  0  0  0  0  # atno 7974 bound_to 7965
  155.4853  140.3470  155.4346 H   0  0  0  0  0  0  0  0  0  0  0  0  # atno 8008 bound_to 7997
  156.1012  140.1436  156.9493 H   0  0  0  0  0  0  0  0  0  0  0  0  # atno 8009 bound_to 7997
  154.4695  140.0906  156.7086 H   0  0  0  0  0  0  0  0  0  0  0  0  # atno 8010 bound_to 7997
  139.5136  144.3166  152.0242 H   0  0  0  0  0  0  0  0  0  0  0  0  # atno 10167 bound_to 10162
  157.5176  131.1098  150.9201 H   0  0  0  0  0  0  0  0  0  0  0  0  # atno 10718 bound_to 10713
  153.8793  135.3046  155.3445 H   0  0  0  0  0  0  0  0  0  0  0  0  # atno 10763 bound_to 10752
  154.7769  135.4856  153.9766 H   0  0  0  0  0  0  0  0  0  0  0  0  # atno 10764 bound_to 10752
  153.1361  135.6814  153.9198 H   0  0  0  0  0  0  0  0  0  0  0  0  # atno 10765 bound_to 10752
  140.6104  133.9754  155.8174 H   0  0  0  0  0  0  0  0  0  0  0  0  # atno 11005 bound_to 11000
  145.4342  141.0417  143.2894 LP  0  0  0  0  0  0  0  0  0  0  0  0  # atno 17320 bound_to 7965
  144.8162  139.5873  143.7007 LP  0  0  0  0  0  0  0  0  0  0  0  0  # atno 17321 bound_to 7965
  140.2609  144.4068  150.6186 LP  0  0  0  0  0  0  0  0  0  0  0  0  # atno 17342 bound_to 10162
  140.6158  143.2172  151.6795 LP  0  0  0  0  0  0  0  0  0  0  0  0  # atno 17343 bound_to 10162
  156.9822  130.5531  149.5297 LP  0  0  0  0  0  0  0  0  0  0  0  0  # atno 17370 bound_to 10713
  156.0331  130.5421  150.8585 LP  0  0  0  0  0  0  0  0  0  0  0  0  # atno 17371 bound_to 10713
  141.0812  134.0059  157.3383 LP  0  0  0  0  0  0  0  0  0  0  0  0  # atno 17394 bound_to 11000
  139.9195  135.0199  156.8009 LP  0  0  0  0  0  0  0  0  0  0  0  0  # atno 17395 bound_to 11000

$$$$
