AV-unprocessed.smi:232|AV-procd|sdf|1780|dock1
  -GOLD-   2262020323D 1   1.00000     0.00000
 Structure written by MMmdl.
 52 55  0  0  0  0  0  0  0  0  1 V2000
  148.7537  140.9507  157.5693 C   0  0  0  0  0  0  0  0  0  0  0  0
  149.8091  141.5627  156.6398 C   0  0  0  0  0  0  0  0  0  0  0  0
  151.2333  141.5298  157.2336 C   0  0  1  0  0  0  0  0  0  0  0  0
  151.4363  142.4894  158.4171 C   0  0  0  0  0  0  0  0  0  0  0  0
  152.4138  141.7665  159.3516 C   0  0  0  0  0  0  0  0  0  0  0  0
  152.7582  140.4677  158.6163 C   0  0  1  0  0  0  0  0  0  0  0  0
  153.0702  139.2933  159.5579 C   0  0  0  0  0  0  0  0  0  0  0  0
  151.6092  140.2195  157.7533 N   0  0  0  0  0  0  0  0  0  0  0  0
  151.7658  139.2572  156.8135 C   0  0  0  0  0  0  0  0  0  0  0  0
  152.5419  139.4787  155.7191 N   0  0  0  0  0  0  0  0  0  0  0  0
  152.6804  138.5235  154.7944 C   0  0  0  0  0  0  0  0  0  0  0  0
  152.1400  137.3028  154.7666 N   0  0  0  0  0  0  0  0  0  0  0  0
  151.3593  137.0827  155.8632 C   0  0  0  0  0  0  0  0  0  0  0  0
  151.1209  137.9981  156.9253 C   0  0  0  0  0  0  0  0  0  0  0  0
  150.2750  137.4274  157.8679 N   0  0  0  0  0  0  0  0  0  0  0  0
  150.0259  136.2385  157.3892 C   0  0  0  0  0  0  0  0  0  0  0  0
  150.6391  135.9484  156.1907 N   0  0  0  0  0  0  0  0  0  0  0  0
  150.5416  134.7110  155.4374 C   0  0  0  0  0  0  0  0  0  0  0  0
  149.0843  134.3522  155.0876 C   0  0  1  0  0  0  0  0  0  0  0  0
  148.4062  135.4782  154.5615 O   0  0  0  0  0  0  0  0  0  0  0  0
  148.9770  133.1535  154.1235 C   0  0  1  0  0  0  0  0  0  0  0  0
  149.6909  131.8638  154.5636 C   0  0  0  0  0  0  0  0  0  0  0  0
  148.6259  130.7890  154.4169 C   0  0  0  0  0  0  0  0  0  0  0  0
  147.6013  131.4340  153.4910 C   0  0  0  0  0  0  0  0  0  0  0  0
  147.6195  132.7932  153.8931 O   0  0  0  0  0  0  0  0  0  0  0  0
  147.7597  141.0268  157.1281 H   0  0  0  0  0  0  0  0  0  0  0  0
  148.7310  141.4653  158.5302 H   0  0  0  0  0  0  0  0  0  0  0  0
  148.9506  139.8952  157.7579 H   0  0  0  0  0  0  0  0  0  0  0  0
  149.7959  141.0451  155.6800 H   0  0  0  0  0  0  0  0  0  0  0  0
  149.5187  142.5930  156.4325 H   0  0  0  0  0  0  0  0  0  0  0  0
  151.9455  141.7975  156.4505 H   0  0  0  0  0  0  0  0  0  0  0  0
  151.8221  143.4534  158.0837 H   0  0  0  0  0  0  0  0  0  0  0  0
  150.4982  142.6728  158.9427 H   0  0  0  0  0  0  0  0  0  0  0  0
  153.3040  142.3592  159.5644 H   0  0  0  0  0  0  0  0  0  0  0  0
  151.9206  141.5560  160.3017 H   0  0  0  0  0  0  0  0  0  0  0  0
  153.6333  140.6593  157.9930 H   0  0  0  0  0  0  0  0  0  0  0  0
  153.9060  139.5342  160.2148 H   0  0  0  0  0  0  0  0  0  0  0  0
  153.3405  138.3964  158.9999 H   0  0  0  0  0  0  0  0  0  0  0  0
  152.2119  139.0493  160.1846 H   0  0  0  0  0  0  0  0  0  0  0  0
  153.3143  138.7736  153.9564 H   0  0  0  0  0  0  0  0  0  0  0  0
  149.3869  135.5344  157.9023 H   0  0  0  0  0  0  0  0  0  0  0  0
  151.1422  134.8067  154.5316 H   0  0  0  0  0  0  0  0  0  0  0  0
  150.9947  133.9153  156.0297 H   0  0  0  0  0  0  0  0  0  0  0  0
  148.5647  134.0823  156.0080 H   0  0  0  0  0  0  0  0  0  0  0  0
  148.7681  135.6739  153.7109 H   0  0  0  0  0  0  0  0  0  0  0  0
  149.3850  133.4515  153.1561 H   0  0  0  0  0  0  0  0  0  0  0  0
  150.5393  131.6628  153.9081 H   0  0  0  0  0  0  0  0  0  0  0  0
  150.0707  131.9033  155.5848 H   0  0  0  0  0  0  0  0  0  0  0  0
  149.0175  129.8489  154.0274 H   0  0  0  0  0  0  0  0  0  0  0  0
  148.1686  130.5902  155.3870 H   0  0  0  0  0  0  0  0  0  0  0  0
  147.9119  131.3554  152.4480 H   0  0  0  0  0  0  0  0  0  0  0  0
  146.6076  130.9969  153.5904 H   0  0  0  0  0  0  0  0  0  0  0  0
  1  2  1  0  0  0  0
  1 26  1  0  0  0  0
  1 27  1  0  0  0  0
  1 28  1  0  0  0  0
  2  3  1  0  0  0  0
  2 29  1  0  0  0  0
  2 30  1  0  0  0  0
  3  8  1  0  0  0  0
  3  4  1  0  0  0  0
  3 31  1  0  0  0  0
  4  5  1  0  0  0  0
  4 32  1  0  0  0  0
  4 33  1  0  0  0  0
  5  6  1  0  0  0  0
  5 34  1  0  0  0  0
  5 35  1  0  0  0  0
  6  7  1  0  0  0  0
  6  8  1  0  0  0  0
  6 36  1  0  0  0  0
  7 37  1  0  0  0  0
  7 38  1  0  0  0  0
  7 39  1  0  0  0  0
  8  9  1  0  0  0  0
  9 14  1  0  0  0  0
  9 10  2  0  0  0  0
 10 11  1  0  0  0  0
 11 12  2  0  0  0  0
 11 40  1  0  0  0  0
 12 13  1  0  0  0  0
 13 17  1  0  0  0  0
 13 14  2  0  0  0  0
 14 15  1  0  0  0  0
 15 16  2  0  0  0  0
 16 17  1  0  0  0  0
 16 41  1  0  0  0  0
 17 18  1  0  0  0  0
 18 19  1  0  0  0  0
 18 42  1  0  0  0  0
 18 43  1  0  0  0  0
 19 20  1  0  0  0  0
 19 21  1  0  0  0  0
 19 44  1  0  0  0  0
 20 45  1  0  0  0  0
 21 25  1  0  0  0  0
 21 22  1  0  0  0  0
 21 46  1  0  0  0  0
 22 23  1  0  0  0  0
 22 47  1  0  0  0  0
 22 48  1  0  0  0  0
 23 24  1  0  0  0  0
 23 49  1  0  0  0  0
 23 50  1  0  0  0  0
 24 25  1  0  0  0  0
 24 51  1  0  0  0  0
 24 52  1  0  0  0  0
M  END
> <s_m_source_file>
AV-unprocessed.smi

> <i_m_source_file_index>
232

> <i_lp_mmshare_version>
43012

> <i_f3d_flags>
0

> <s_epik_input>
W0NIM11bQ0gyXVtDQEBIXTFbQ0gyXVtDSDJdW0NAQEhdKFtDSDNdKU4xYyhuW2NIXW4yKWMoYzIzKW5bY0hdbjNbQ0gyXVtDQEhdKFtPSF0pW0NAQEhdNFtDSDJdW0NIMl1bQ0gyXU80

> <s_epik_cmdline>
J2VwaWtfcHl0aG9uJywgJy1waCcsICc3LjAnLCAnLXRuJywgJzgnLCAnLW1hJywgJzIwMCcsICctbWV0YWxfYmluZGluZycsICctaW1hZScsICc8aW5maWxlLm1hZT4nLCAnLW9tYWUnLCAnPG91dGZpbGUubWFlPic=

> <r_lp_tautomer_probability>
1

> <r_epik_Ionization_Penalty>
0.00258048

> <r_epik_Ionization_Penalty_Charging>
0

> <r_epik_Ionization_Penalty_Neutral>
0.00258048

> <r_epik_State_Penalty>
0.00168551

> <r_epik_Charging_Adjusted_Penalty>
0.00168551

> <i_epik_Tot_Q>
0

> <i_epik_Tot_abs_Q>
0

> <r_epik_Metal_State_Penalty>
-0

> <b_epik_Metal_Only>
0

> <s_lp_Force_Field>
OPLS_2005

> <r_lp_Energy>
53.8555

> <b_lp_Chiralities_Consistent>
1

> <s_lp_Variant>
AV-unprocessed.smi:232-14

> <Gold.Version>
5.8.1

> <Gold.Id.Protein>
6NUR|6NUR_protein|mol2

> <Gold.PLP.Fitness>
46.3221

> <Gold.PLP.PLP>
-38.4997

> <Gold.PLP.part.hbond>
-2.8502

> <Gold.PLP.part.metal>
0.0000

> <Gold.PLP.part.buried>
-6.7803

> <Gold.PLP.part.nonpolar>
-29.9484

> <Gold.PLP.part.repulsive>
0.2184

> <Gold.PLP.ligand.clash>
0.0000

> <Gold.PLP.ligand.torsion>
0.3586

> <Gold.PLP.Chemscore.Hbond>
2.8000

> <Gold.PLP.Chemscore.CHOScore>
0.0000

> <Gold.PLP.Chemscore.Metal>
0.0000

> <Gold.Chemscore.Hbonds>
donor molecule, donor type, donor heavy atom, donor atom, acceptor molecule, acceptor atom, score
      L1  H    20    45       P1  7948  1.00
      P1  H  7997  8008       L1    10  1.00
      P1  H 10752 10764       L1    12  0.82

> <Gold.PLP.Chemscore.Internal.Correction>
0.1396

> <Gold.Rescore>
     Score         DG    S(hbond)    S(metal)    S(lipo)     H(rot)  DE(clash)    DE(int)     intcor
     16.96     -17.36       2.60        0.00      80.46       2.43       0.01       0.40       ----

> <Gold.Chemscore.Fitness>
16.9553

> <Gold.Chemscore.DG>
-17.3601

> <Gold.Chemscore.ZeroCoef>
-5.4800

> <Gold.Chemscore.Hbond>
2.5979

> <Gold.Chemscore.Metal>
0.0000

> <Gold.Chemscore.Lipo>
80.4609

> <Gold.Chemscore.Internal_Hbond>
0.0000

> <Gold.Chemscore.DEClash>
0.0077

> <Gold.Chemscore.DEInternal>
0.3971

> <Gold.Chemscore.Rot>
2.4260

> <Gold.Chemscore.Internal.Correction>
   9.000000E+99

> <Gold.Chemscore.Hbonds>
donor molecule, donor type, donor heavy atom, donor atom, acceptor molecule, acceptor atom, score
      L1  H    20    45       P1  7948  0.96
      P1  H  7997  8008       L1    10  0.54
      P1  H 10752 10764       L1    12  0.32

> <Gold.Chemscore.Hbond.Weighted>
-8.6769

> <Gold.Chemscore.Metal.Weighted>
-0.0000

> <Gold.Chemscore.Lipo.Weighted>
-9.4139

> <Gold.Chemscore.Internal_Hbond.Weighted>
0.0000

> <Gold.Chemscore.DEClash.Weighted>
0.0077

> <Gold.Chemscore.DEInternal.Weighted>
0.3971

> <Gold.Chemscore.Rot.Weighted>
6.2107

> <Gold.Chemscore.Internal.Correction.Weighted>
   9.000000E+99

> <Gold.Protein.RotatedTorsions>
[ 6907 6896 6895 6894 ] final  -81.46 input  -60.11 | X-H torsion
[ 7974 7965 7964 7962 ] final   83.36 input  175.53 | X-H torsion
[ 8008 7997 7996 7995 ] final  -41.01 input   59.86 | X-H torsion
[ 10167 10162 10161 10158 ] final -155.33 input  -65.29 | X-H torsion
[ 10718 10713 10712 10709 ] final -112.39 input   66.30 | X-H torsion
[ 10763 10752 10751 10750 ] final  -65.85 input  -60.55 | X-H torsion
[ 11005 11000 10999 10996 ] final   89.79 input  -57.11 | X-H torsion

> <Gold.Protein.ActiveResidues>
 VAL166  LYS551  ARG553  GLY616  TRP617  ASP618  TYR619  PRO620  LYS621  CYS622 
 ASP623  PHE694  ASN695  SER759  ASP760  ASP761  ALA762  ILE779  LEU786  VAL792 
 PHE793  MET794  SER795  GLU796  ALA797  LYS798  CYS799  TRP800  GLU811  SER814 

> <Gold.Protein.RotatedAtoms>
  150.6912  134.3814  159.5035 H   0  0  0  0  0  0  0  0  0  0  0  0  # atno 6907 bound_to 6896
  152.1615  134.8905  160.0550 H   0  0  0  0  0  0  0  0  0  0  0  0  # atno 6908 bound_to 6896
  151.9965  133.3775  159.4202 H   0  0  0  0  0  0  0  0  0  0  0  0  # atno 6909 bound_to 6896
  145.6130  139.2371  143.2182 H   0  0  0  0  0  0  0  0  0  0  0  0  # atno 7974 bound_to 7965
  154.4007  140.1510  156.3120 H   0  0  0  0  0  0  0  0  0  0  0  0  # atno 8008 bound_to 7997
  155.8607  140.3453  155.5733 H   0  0  0  0  0  0  0  0  0  0  0  0  # atno 8009 bound_to 7997
  155.7883  140.0853  157.2013 H   0  0  0  0  0  0  0  0  0  0  0  0  # atno 8010 bound_to 7997
  139.6940  143.9373  152.2398 H   0  0  0  0  0  0  0  0  0  0  0  0  # atno 10167 bound_to 10162
  156.0703  130.5917  150.8502 H   0  0  0  0  0  0  0  0  0  0  0  0  # atno 10718 bound_to 10713
  154.3511  135.6136  153.5643 H   0  0  0  0  0  0  0  0  0  0  0  0  # atno 10763 bound_to 10752
  152.9798  135.5792  154.4742 H   0  0  0  0  0  0  0  0  0  0  0  0  # atno 10764 bound_to 10752
  154.4463  135.2851  155.1790 H   0  0  0  0  0  0  0  0  0  0  0  0  # atno 10765 bound_to 10752
  139.8868  134.8573  156.3192 H   0  0  0  0  0  0  0  0  0  0  0  0  # atno 11005 bound_to 11000
  146.1490  140.6952  142.9331 LP  0  0  0  0  0  0  0  0  0  0  0  0  # atno 17320 bound_to 7965
  144.7262  140.4532  143.6971 LP  0  0  0  0  0  0  0  0  0  0  0  0  # atno 17321 bound_to 7965
  139.9197  144.6807  150.8474 LP  0  0  0  0  0  0  0  0  0  0  0  0  # atno 17342 bound_to 10162
  140.7691  143.3384  151.2260 LP  0  0  0  0  0  0  0  0  0  0  0  0  # atno 17343 bound_to 10162
  157.5770  131.0946  150.9331 LP  0  0  0  0  0  0  0  0  0  0  0  0  # atno 17370 bound_to 10713
  156.9535  130.5428  149.5283 LP  0  0  0  0  0  0  0  0  0  0  0  0  # atno 17371 bound_to 10713
  140.9798  133.7274  156.0655 LP  0  0  0  0  0  0  0  0  0  0  0  0  # atno 17394 bound_to 11000
  140.7764  134.3775  157.5497 LP  0  0  0  0  0  0  0  0  0  0  0  0  # atno 17395 bound_to 11000

$$$$
