#       Name:                AV-unprocessed.smi:474
#       Creating user name   scv26
#       Creation time:       Thu Mar 26 23:08:03 2020


#       File generated by GOLD software.
#

@<TRIPOS>MOLECULE
AV-unprocessed.smi:474
    42    43     1
SMALL
NO_CHARGES


@<TRIPOS>ATOM
      1 ****        -6.1694   3.8277  -0.5435 C.3            1 S1                 0.0000
      2 ****        -5.4977   2.4976  -0.5663 C.2            1 S1                 0.0000
      3 ****        -4.1860   2.1191  -0.6209 C.2            1 S1                 0.0000
      4 ****        -4.2636   0.6958  -0.6089 C.2            1 S1                 0.0000
      5 ****        -3.1697  -0.2069  -0.6460 N.am           1 S1                 0.0000
      6 ****        -1.8561   0.0726  -0.6882 C.2            1 S1                 0.0000
      7 ****        -1.3674   1.2019  -0.7248 O.2            1 S1                 0.0000
      8 ****        -1.1221  -1.0495  -0.6840 N.am           1 S1                 0.0000
      9 ****         0.3351  -1.0991  -0.7119 C.3            1 S1                 0.0000
     10 ****         0.9348  -0.8623   0.6852 C.3            1 S1                 0.0000
     11 ****         2.4535  -0.9128   0.6896 C.2            1 S1                 0.0000
     12 ****         3.2024   0.1798   0.9356 C.2            1 S1                 0.0000
     13 ****         4.7210   0.1910   0.9380 C.3            1 S1                 0.0000
     14 ****         5.3184  -1.0763   0.3038 C.3            1 S1                 0.0000
     15 ****         4.5743  -2.3331   0.7712 C.3            1 S1                 0.0000
     16 ****         3.0820  -2.2712   0.3990 C.3            1 S1                 0.0000
     17 ****        -5.5069   0.2548  -0.5546 N.2            1 S1                 0.0000
     18 ****        -6.3056   1.4040  -0.5275 O.3            1 S1                 0.0000
     19 ****        -5.4567   4.6196  -0.3125 H              1 S1                 0.0000
     20 ****        -6.9563   3.8522   0.2106 H              1 S1                 0.0000
     21 ****        -6.6197   4.0490  -1.5111 H              1 S1                 0.0000
     22 ****        -3.3248   2.7686  -0.6605 H              1 S1                 0.0000
     23 ****        -3.4188  -1.1848  -0.6253 H              1 S1                 0.0000
     24 ****        -1.6058  -1.9352  -0.6542 H              1 S1                 0.0000
     25 ****         0.6240  -2.0808  -1.0869 H              1 S1                 0.0000
     26 ****         0.7224  -0.3678  -1.4235 H              1 S1                 0.0000
     27 ****         0.6088   0.1072   1.0649 H              1 S1                 0.0000
     28 ****         0.5593  -1.6072   1.3877 H              1 S1                 0.0000
     29 ****         2.7220   1.1221   1.1562 H              1 S1                 0.0000
     30 ****         5.0753   1.0740   0.4053 H              1 S1                 0.0000
     31 ****         5.0545   0.2880   1.9714 H              1 S1                 0.0000
     32 ****         5.2523  -1.0061  -0.7828 H              1 S1                 0.0000
     33 ****         6.3793  -1.1495   0.5447 H              1 S1                 0.0000
     34 ****         5.0282  -3.2258   0.3401 H              1 S1                 0.0000
     35 ****         4.6763  -2.4273   1.8533 H              1 S1                 0.0000
     36 ****         2.5404  -3.0478   0.9401 H              1 S1                 0.0000
     37 ****         2.9605  -2.4825  -0.6637 H              1 S1                 0.0000
     38 ****        -1.9634   2.0049  -0.7246 LP             1 S1                 0.0000
     39 ****        -0.3744   1.3163  -0.7547 LP             1 S1                 0.0000
     40 ****        -5.8127  -0.6971  -0.5367 LP             1 S1                 0.0000
     41 ****        -6.9160   1.4083  -1.3196 LP             1 S1                 0.0000
     42 ****        -6.8488   1.4166   0.3120 LP             1 S1                 0.0000
@<TRIPOS>BOND
    1    1    2 1     
    2    1   19 1     
    3    1   20 1     
    4    1   21 1     
    5    2   18 1     
    6    2    3 2     
    7    3    4 1     
    8    3   22 1     
    9    4    5 1     
   10    4   17 2     
   11    5    6 am    
   12    5   23 1     
   13    6    7 2     
   14    6    8 am    
   15    8    9 1     
   16    8   24 1     
   17    9   10 1     
   18    9   25 1     
   19    9   26 1     
   20   10   11 1     
   21   10   27 1     
   22   10   28 1     
   23   11   16 1     
   24   11   12 2     
   25   12   13 1     
   26   12   29 1     
   27   13   14 1     
   28   13   30 1     
   29   13   31 1     
   30   14   15 1     
   31   14   32 1     
   32   14   33 1     
   33   15   16 1     
   34   15   34 1     
   35   15   35 1     
   36   16   36 1     
   37   16   37 1     
   38   17   18 1     
   39    7   38 1     
   40    7   39 1     
   41   17   40 1     
   42   18   41 1     
   43   18   42 1     
@<TRIPOS>SUBSTRUCTURE
      1 S1             1
@<TRIPOS>SET
LONE_PAIRS      STATIC     ATOMS    <user>   **** ""
5 38 39 40 41 42
DONOR_HYDROGENS      STATIC     ATOMS    <user>   **** ""
2 23 24
ATOM$BLUE        STATIC     ATOMS    COLORGROUP SYSTEM
5 38 39 40 41 42
ATOM$RED        STATIC     ATOMS    COLORGROUP SYSTEM
2 23 24
