AV-unprocessed.smi:1196|AV-procd|sdf|5003|dock9
  -GOLD-   22720 4 13D 1   1.00000     0.00000
 Structure written by MMmdl.
 36 37  0  0  0  0  0  0  0  0  2 V2000
  145.3691  137.2633  152.5055 C   0  0  0  0  0  0  0  0  0  0  0  0
  145.4739  135.7384  152.3439 C   0  0  1  0  0  0  0  0  0  0  0  0
  145.2895  135.3130  150.8744 C   0  0  0  0  0  0  0  0  0  0  0  0
  145.2050  133.8707  150.7238 N   0  0  0  0  0  0  0  0  0  0  0  0
  144.1242  133.1153  150.3208 C   0  0  0  0  0  0  0  0  0  0  0  0
  144.5147  131.8070  150.3365 C   0  0  0  0  0  0  0  0  0  0  0  0
  145.8686  131.8634  150.7713 C   0  0  0  0  0  0  0  0  0  0  0  0
  146.2799  133.1001  150.9995 N   0  0  0  0  0  0  0  0  0  0  0  0
  146.7647  135.2706  152.8443 N   0  0  0  0  0  0  0  0  0  0  0  0
  146.9589  134.5776  153.9763 C   0  0  0  0  0  0  0  0  0  0  0  0
  146.0466  134.2740  154.7461 O   0  0  0  0  0  0  0  0  0  0  0  0
  148.4073  134.1765  154.2717 C   0  0  0  0  0  0  0  0  0  0  0  0
  148.6210  132.6521  154.3484 C   0  0  0  0  0  0  0  0  0  0  0  0
  150.0852  132.2664  154.6466 C   0  0  1  0  0  0  0  0  0  0  0  0
  150.5799  132.9298  155.8408 N   0  5  0  0  0  0  0  0  0  0  0  0
  150.9732  131.9836  156.7255 C   0  0  0  0  0  0  0  0  0  0  0  0
  151.4571  132.1531  157.8424 O   0  0  0  0  0  0  0  0  0  0  0  0
  150.7667  130.7584  156.2315 N   0  0  0  0  0  0  0  0  0  0  0  0
  150.2325  130.8026  155.0154 C   0  0  0  0  0  0  0  0  0  0  0  0
  149.9131  129.8512  154.3036 O   0  0  0  0  0  0  0  0  0  0  0  0
  144.4068  137.6298  152.1472 H   0  0  0  0  0  0  0  0  0  0  0  0
  146.1502  137.7768  151.9440 H   0  0  0  0  0  0  0  0  0  0  0  0
  145.4619  137.5575  153.5516 H   0  0  0  0  0  0  0  0  0  0  0  0
  144.6740  135.2803  152.9290 H   0  0  0  0  0  0  0  0  0  0  0  0
  144.3699  135.7419  150.4744 H   0  0  0  0  0  0  0  0  0  0  0  0
  146.1039  135.6936  150.2555 H   0  0  0  0  0  0  0  0  0  0  0  0
  143.1781  133.5672  150.0617 H   0  0  0  0  0  0  0  0  0  0  0  0
  143.9228  130.9414  150.0788 H   0  0  0  0  0  0  0  0  0  0  0  0
  146.5600  131.0481  150.9252 H   0  0  0  0  0  0  0  0  0  0  0  0
  147.5726  135.4695  152.2717 H   0  0  0  0  0  0  0  0  0  0  0  0
  149.0506  134.5929  153.4952 H   0  0  0  0  0  0  0  0  0  0  0  0
  148.7068  134.6439  155.2102 H   0  0  0  0  0  0  0  0  0  0  0  0
  147.9612  132.2203  155.1037 H   0  0  0  0  0  0  0  0  0  0  0  0
  148.3228  132.2083  153.3969 H   0  0  0  0  0  0  0  0  0  0  0  0
  150.7085  132.4626  153.7731 H   0  0  0  0  0  0  0  0  0  0  0  0
  150.9819  129.9059  156.7263 H   0  0  0  0  0  0  0  0  0  0  0  0
  1  2  1  0  0  0  0
  1 21  1  0  0  0  0
  1 22  1  0  0  0  0
  1 23  1  0  0  0  0
  2  3  1  0  0  0  0
  2  9  1  0  0  0  0
  2 24  1  0  0  0  0
  3  4  1  0  0  0  0
  3 25  1  0  0  0  0
  3 26  1  0  0  0  0
  4  8  1  0  0  0  0
  4  5  1  0  0  0  0
  5  6  2  0  0  0  0
  5 27  1  0  0  0  0
  6  7  1  0  0  0  0
  6 28  1  0  0  0  0
  7  8  2  0  0  0  0
  7 29  1  0  0  0  0
  9 10  1  0  0  0  0
  9 30  1  0  0  0  0
 10 11  2  0  0  0  0
 10 12  1  0  0  0  0
 12 13  1  0  0  0  0
 12 31  1  0  0  0  0
 12 32  1  0  0  0  0
 13 14  1  0  0  0  0
 13 33  1  0  0  0  0
 13 34  1  0  0  0  0
 14 19  1  0  0  0  0
 14 15  1  0  0  0  0
 14 35  1  0  0  0  0
 15 16  1  0  0  0  0
 16 17  2  0  0  0  0
 16 18  1  0  0  0  0
 18 19  1  0  0  0  0
 18 36  1  0  0  0  0
 19 20  2  0  0  0  0
M  CHG  1  15  -1
M  END
> <s_m_source_file>
AV-unprocessed.smi

> <i_m_source_file_index>
1196

> <i_lp_mmshare_version>
43012

> <i_f3d_flags>
0

> <s_epik_input>
bjFbY0hdW2NIXVtjSF1uMVtDSDJdW0NAQEhdKFtDSDNdKVtOSF1DKD1PKVtDSDJdW0NIMl1bQ0BASF0yW05IXUMoPU8pW05IXUMyPU8=

> <s_epik_cmdline>
J2VwaWtfcHl0aG9uJywgJy1waCcsICc3LjAnLCAnLXRuJywgJzgnLCAnLW1hJywgJzIwMCcsICctbWV0YWxfYmluZGluZycsICctaW1hZScsICc8aW5maWxlLm1hZT4nLCAnLW9tYWUnLCAnPG91dGZpbGUubWFlPic=

> <r_lp_tautomer_probability>
1

> <r_epik_Ionization_Penalty>
5.79547

> <r_epik_Ionization_Penalty_Charging>
5.79516

> <r_epik_Ionization_Penalty_Neutral>
0.000313087

> <r_epik_State_Penalty>
5.80096

> <r_epik_Charging_Adjusted_Penalty>
11.5961

> <i_epik_Tot_Q>
-1

> <i_epik_Tot_abs_Q>
1

> <r_epik_Metal_State_Penalty>
2.14443

> <b_epik_Metal_Only>
1

> <s_lp_Force_Field>
OPLS_2005

> <r_lp_Energy>
12.8227

> <b_lp_Chiralities_Consistent>
1

> <s_lp_Variant>
AV-unprocessed.smi:1196-8

> <Gold.Version>
5.8.1

> <Gold.Id.Protein>
6NUR|6NUR_protein|mol2

> <Gold.PLP.Fitness>
42.2542

> <Gold.PLP.PLP>
-30.6529

> <Gold.PLP.part.hbond>
-2.0000

> <Gold.PLP.part.metal>
0.0000

> <Gold.PLP.part.buried>
-5.3293

> <Gold.PLP.part.nonpolar>
-24.1791

> <Gold.PLP.part.repulsive>
0.3467

> <Gold.PLP.ligand.clash>
0.0000

> <Gold.PLP.ligand.torsion>
0.2164

> <Gold.PLP.Chemscore.Hbond>
2.0000

> <Gold.PLP.Chemscore.CHOScore>
2.0000

> <Gold.PLP.Chemscore.Metal>
0.0000

> <Gold.Chemscore.Hbonds>
donor molecule, donor type, donor heavy atom, donor atom, acceptor molecule, acceptor atom, score
      L1  H     9    30       P1  7948  1.00
      P1  H  6896  6908       L1    17  1.00
      L1  C     5    27       P1 10186  1.00
      L1  C     7    29       P1 10747  1.00

> <Gold.PLP.Chemscore.Internal.Correction>
0.0340

> <Gold.Rescore>
     Score         DG    S(hbond)    S(metal)    S(lipo)     H(rot)  DE(clash)    DE(int)     intcor
     11.70     -11.92       1.99        0.00      61.69       2.89       0.04       0.18       ----

> <Gold.Chemscore.Fitness>
11.6995

> <Gold.Chemscore.DG>
-11.9213

> <Gold.Chemscore.ZeroCoef>
-5.4800

> <Gold.Chemscore.Hbond>
1.9862

> <Gold.Chemscore.Metal>
0.0000

> <Gold.Chemscore.Lipo>
61.6883

> <Gold.Chemscore.Internal_Hbond>
0.0000

> <Gold.Chemscore.DEClash>
0.0392

> <Gold.Chemscore.DEInternal>
0.1826

> <Gold.Chemscore.Rot>
2.8946

> <Gold.Chemscore.Internal.Correction>
   9.000000E+99

> <Gold.Chemscore.Hbonds>
donor molecule, donor type, donor heavy atom, donor atom, acceptor molecule, acceptor atom, score
      L1  H     9    30       P1  7948  0.98
      P1  H  6896  6908       L1    17  0.98

> <Gold.Chemscore.Hbond.Weighted>
-6.6339

> <Gold.Chemscore.Metal.Weighted>
-0.0000

> <Gold.Chemscore.Lipo.Weighted>
-7.2175

> <Gold.Chemscore.Internal_Hbond.Weighted>
0.0000

> <Gold.Chemscore.DEClash.Weighted>
0.0392

> <Gold.Chemscore.DEInternal.Weighted>
0.1826

> <Gold.Chemscore.Rot.Weighted>
7.4101

> <Gold.Chemscore.Internal.Correction.Weighted>
   9.000000E+99

> <Gold.Protein.RotatedTorsions>
[ 6907 6896 6895 6894 ] final   53.67 input  -60.11 | X-H torsion
[ 7974 7965 7964 7962 ] final -156.99 input  175.53 | X-H torsion
[ 8008 7997 7996 7995 ] final  156.00 input   59.86 | X-H torsion
[ 10167 10162 10161 10158 ] final  -73.89 input  -65.29 | X-H torsion
[ 10718 10713 10712 10709 ] final   68.90 input   66.30 | X-H torsion
[ 10763 10752 10751 10750 ] final   56.09 input  -60.55 | X-H torsion
[ 11005 11000 10999 10996 ] final   29.60 input  -57.11 | X-H torsion

> <Gold.Protein.ActiveResidues>
 VAL166  LYS551  ARG553  GLY616  TRP617  ASP618  TYR619  PRO620  LYS621  CYS622 
 ASP623  PHE694  ASN695  SER759  ASP760  ASP761  ALA762  ILE779  LEU786  VAL792 
 PHE793  MET794  SER795  GLU796  ALA797  LYS798  CYS799  TRP800  GLU811  SER814 

> <Gold.Protein.RotatedAtoms>
  152.3361  134.7196  160.0276 H   0  0  0  0  0  0  0  0  0  0  0  0  # atno 6907 bound_to 6896
  151.7596  133.3327  159.3422 H   0  0  0  0  0  0  0  0  0  0  0  0  # atno 6908 bound_to 6896
  150.7451  134.6050  159.6100 H   0  0  0  0  0  0  0  0  0  0  0  0  # atno 6909 bound_to 6896
  144.7568  140.4032  143.6006 H   0  0  0  0  0  0  0  0  0  0  0  0  # atno 7974 bound_to 7965
  156.2447  140.1924  156.6888 H   0  0  0  0  0  0  0  0  0  0  0  0  # atno 8008 bound_to 7997
  154.6267  140.0601  156.9708 H   0  0  0  0  0  0  0  0  0  0  0  0  # atno 8009 bound_to 7997
  155.1775  140.3273  155.4384 H   0  0  0  0  0  0  0  0  0  0  0  0  # atno 8010 bound_to 7997
  140.5073  143.2351  151.7653 H   0  0  0  0  0  0  0  0  0  0  0  0  # atno 10167 bound_to 10162
  157.6315  130.9398  150.0440 H   0  0  0  0  0  0  0  0  0  0  0  0  # atno 10718 bound_to 10713
  152.9826  135.5688  154.5172 H   0  0  0  0  0  0  0  0  0  0  0  0  # atno 10763 bound_to 10752
  154.4666  135.2783  155.1675 H   0  0  0  0  0  0  0  0  0  0  0  0  # atno 10764 bound_to 10752
  154.3241  135.6263  153.5574 H   0  0  0  0  0  0  0  0  0  0  0  0  # atno 10765 bound_to 10752
  140.3033  134.2732  155.7749 H   0  0  0  0  0  0  0  0  0  0  0  0  # atno 11005 bound_to 11000
  145.6752  139.1607  143.2732 LP  0  0  0  0  0  0  0  0  0  0  0  0  # atno 17320 bound_to 7965
  146.1587  140.6819  142.9287 LP  0  0  0  0  0  0  0  0  0  0  0  0  # atno 17321 bound_to 7965
  139.4887  144.4440  151.9731 LP  0  0  0  0  0  0  0  0  0  0  0  0  # atno 17342 bound_to 10162
  140.3531  144.3065  150.5946 LP  0  0  0  0  0  0  0  0  0  0  0  0  # atno 17343 bound_to 10162
  156.1523  130.3642  149.9420 LP  0  0  0  0  0  0  0  0  0  0  0  0  # atno 17370 bound_to 10713
  156.7437  130.9089  151.3633 LP  0  0  0  0  0  0  0  0  0  0  0  0  # atno 17371 bound_to 10713
  141.2123  133.7660  156.9799 LP  0  0  0  0  0  0  0  0  0  0  0  0  # atno 17394 bound_to 11000
  140.1090  134.9489  157.2037 LP  0  0  0  0  0  0  0  0  0  0  0  0  # atno 17395 bound_to 11000

$$$$
