#       Name:                AV-unprocessed.smi:2124
#       Creating user name   scv26
#       Creation time:       Fri Mar 27 11:40:24 2020


#       File generated by GOLD software.
#

@<TRIPOS>MOLECULE
AV-unprocessed.smi:2124
    52    54     1
SMALL
NO_CHARGES


@<TRIPOS>ATOM
      1 ****        -4.1996   5.2139  -0.7941 C.3            1 S1                 0.0000
      2 ****        -3.6284   3.8117  -0.7778 C.2            1 S1                 0.0000
      3 ****        -3.2553   3.1969   0.2961 N.2            1 S1                 0.0000
      4 ****        -2.7386   1.8984   0.1839 C.2            1 S1                 0.0000
      5 ****        -2.3147   1.2448   1.4882 C.3            1 S1                 0.0000
      6 ****        -2.6277   1.2745  -1.0255 C.2            1 S1                 0.0000
      7 ****        -2.0647  -0.1375  -1.1825 C.3            1 S1                 0.0000
      8 ****        -0.5389  -0.2546  -1.2235 C.2            1 S1                 0.0000
      9 ****         0.1625   0.7537  -1.3090 O.2            1 S1                 0.0000
     10 ****        -0.0463  -1.5028  -1.1533 N.am           1 S1                 0.0000
     11 ****         1.3628  -1.9054  -1.1383 C.3            1 S1                 0.0000
     12 ****         2.0475  -1.5518  -2.4736 C.3            1 S1                 0.0000
     13 ****         2.1246  -1.3534   0.0972 C.3            1 S1                 0.0000
     14 ****         3.5385  -1.9588   0.2723 C.3            1 S1                 0.0000
     15 ****         3.5274  -2.4717   1.7229 C.3            1 S1                 0.0000
     16 ****         3.5024  -1.2761   2.6928 C.3            1 S1                 0.0000
     17 ****         2.0645  -0.7464   2.5388 C.3            1 S1                 0.0000
     18 ****         1.4721  -1.6799   1.4661 C.3            1 S1                 0.0000
     19 ****         2.1093  -3.0133   1.8430 C.3            1 S1                 0.0000
     20 ****        -3.0548   1.9867  -2.2451 C.2            1 S1                 0.0000
     21 ****        -2.9896   1.5230  -3.3826 O.2            1 S1                 0.0000
     22 ****        -3.5381   3.2327  -2.0425 N.am           1 S1                 0.0000
     23 ****        -3.8423   3.7621  -2.8464 H              1 S1                 0.0000
     24 ****        -3.4797   5.9170  -0.3743 H              1 S1                 0.0000
     25 ****        -5.1100   5.2555  -0.1957 H              1 S1                 0.0000
     26 ****        -4.4419   5.5385  -1.8072 H              1 S1                 0.0000
     27 ****        -2.9433   0.3808   1.7040 H              1 S1                 0.0000
     28 ****        -2.4022   1.9387   2.3250 H              1 S1                 0.0000
     29 ****        -1.2767   0.9155   1.4370 H              1 S1                 0.0000
     30 ****        -2.4275  -0.7492  -0.3560 H              1 S1                 0.0000
     31 ****        -2.4703  -0.6106  -2.0776 H              1 S1                 0.0000
     32 ****        -0.7175  -2.2543  -1.0889 H              1 S1                 0.0000
     33 ****         1.3436  -2.9932  -1.0652 H              1 S1                 0.0000
     34 ****         3.0437  -1.9884  -2.5386 H              1 S1                 0.0000
     35 ****         2.1567  -0.4747  -2.6007 H              1 S1                 0.0000
     36 ****         1.4742  -1.9299  -3.3207 H              1 S1                 0.0000
     37 ****         2.2126  -0.2714  -0.0089 H              1 S1                 0.0000
     38 ****         3.7052  -2.7933  -0.4099 H              1 S1                 0.0000
     39 ****         4.3275  -1.2269   0.0959 H              1 S1                 0.0000
     40 ****         4.3163  -3.1933   1.9365 H              1 S1                 0.0000
     41 ****         3.6842  -1.6006   3.7181 H              1 S1                 0.0000
     42 ****         4.2516  -0.5251   2.4398 H              1 S1                 0.0000
     43 ****         1.5192  -0.8444   3.4784 H              1 S1                 0.0000
     44 ****         2.0328   0.3035   2.2452 H              1 S1                 0.0000
     45 ****         0.3820  -1.6792   1.4654 H              1 S1                 0.0000
     46 ****         1.8900  -3.8171   1.1387 H              1 S1                 0.0000
     47 ****         1.8569  -3.3443   2.8519 H              1 S1                 0.0000
     48 ****        -3.3336   3.6388   1.1897 LP             1 S1                 0.0000
     49 ****        -0.2639   1.6572  -1.3522 LP             1 S1                 0.0000
     50 ****         1.1586   0.6691  -1.3352 LP             1 S1                 0.0000
     51 ****        -2.6272   0.6023  -3.5272 LP             1 S1                 0.0000
     52 ****        -3.2990   2.0668  -4.1627 LP             1 S1                 0.0000
@<TRIPOS>BOND
    1    1    2 1     
    2    1   24 1     
    3    1   25 1     
    4    1   26 1     
    5    2   22 1     
    6    2    3 2     
    7    3    4 1     
    8    4    5 1     
    9    4    6 2     
   10    5   27 1     
   11    5   28 1     
   12    5   29 1     
   13    6    7 1     
   14    6   20 1     
   15    7    8 1     
   16    7   30 1     
   17    7   31 1     
   18    8    9 2     
   19    8   10 am    
   20   10   11 1     
   21   10   32 1     
   22   11   12 1     
   23   11   13 1     
   24   11   33 1     
   25   12   34 1     
   26   12   35 1     
   27   12   36 1     
   28   13   18 1     
   29   13   14 1     
   30   13   37 1     
   31   14   15 1     
   32   14   38 1     
   33   14   39 1     
   34   15   19 1     
   35   15   16 1     
   36   15   40 1     
   37   16   17 1     
   38   16   41 1     
   39   16   42 1     
   40   17   18 1     
   41   17   43 1     
   42   17   44 1     
   43   18   19 1     
   44   18   45 1     
   45   19   46 1     
   46   19   47 1     
   47   20   21 2     
   48   20   22 am    
   49   22   23 1     
   50    3   48 1     
   51    9   49 1     
   52    9   50 1     
   53   21   51 1     
   54   21   52 1     
@<TRIPOS>SUBSTRUCTURE
      1 S1             1
@<TRIPOS>SET
LONE_PAIRS      STATIC     ATOMS    <user>   **** ""
5 48 49 50 51 52
DONOR_HYDROGENS      STATIC     ATOMS    <user>   **** ""
2 32 23
ATOM$BLUE        STATIC     ATOMS    COLORGROUP SYSTEM
5 48 49 50 51 52
ATOM$RED        STATIC     ATOMS    COLORGROUP SYSTEM
2 32 23
