AV-unprocessed.smi:303|AV-procd|sdf|2275|dock4
  -GOLD-   2262022173D 1   1.00000     0.00000
 Structure written by MMmdl.
 46 47  0  0  0  0  0  0  0  0  2 V2000
  149.6600  138.8013  158.5568 C   0  0  0  0  0  0  0  0  0  0  0  0
  150.3287  137.4628  158.2219 C   0  0  0  0  0  0  0  0  0  0  0  0
  152.0882  137.6792  157.6959 S   0  0  0  0  0  0  0  0  0  0  0  0
  152.7761  138.4868  158.7149 O   0  0  0  0  0  0  0  0  0  0  0  0
  152.6349  136.3681  157.3122 O   0  0  0  0  0  0  0  0  0  0  0  0
  151.9851  138.6461  156.2509 N   0  0  0  0  0  0  0  0  0  0  0  0
  151.6619  138.0071  154.9613 C   0  0  0  0  0  0  0  0  0  0  0  0
  150.1965  138.2558  154.5651 C   0  0  0  0  0  0  0  0  0  0  0  0
  149.8697  139.7596  154.5419 C   0  0  0  0  0  0  0  0  0  0  0  0
  148.4005  139.9933  154.1665 C   0  0  0  0  0  0  0  0  0  0  0  0
  147.6511  139.0371  153.9628 O   0  0  0  0  0  0  0  0  0  0  0  0
  148.0014  141.2709  154.0677 N   0  0  0  0  0  0  0  0  0  0  0  0
  146.6579  141.6987  153.6954 C   0  0  0  0  0  0  0  0  0  0  0  0
  145.9321  142.3665  154.8759 C   0  0  0  0  0  0  0  0  0  0  0  0
  145.1677  143.6069  154.4569 C   0  0  0  0  0  0  0  0  0  0  0  0
  145.4537  144.2940  153.2571 C   0  0  0  0  0  0  0  0  0  0  0  0
  144.7046  145.4425  152.9255 C   0  0  0  0  0  0  0  0  0  0  0  0
  143.6860  145.8779  153.7983 C   0  0  0  0  0  0  0  0  0  0  0  0
  143.4410  145.1522  154.9820 C   0  0  0  0  0  0  0  0  0  0  0  0
  144.1804  144.0569  155.2649 N   0  3  0  0  0  0  0  0  0  0  0  0
  150.1972  140.3660  155.9190 C   0  0  0  0  0  0  0  0  0  0  0  0
  151.6538  140.0845  156.3293 C   0  0  0  0  0  0  0  0  0  0  0  0
  148.6345  138.6476  158.8926 H   0  0  0  0  0  0  0  0  0  0  0  0
  149.6278  139.4538  157.6840 H   0  0  0  0  0  0  0  0  0  0  0  0
  150.1944  139.3273  159.3473 H   0  0  0  0  0  0  0  0  0  0  0  0
  150.2826  136.7721  159.0598 H   0  0  0  0  0  0  0  0  0  0  0  0
  149.7961  136.9945  157.3944 H   0  0  0  0  0  0  0  0  0  0  0  0
  152.3238  138.4155  154.1968 H   0  0  0  0  0  0  0  0  0  0  0  0
  151.8669  136.9378  155.0069 H   0  0  0  0  0  0  0  0  0  0  0  0
  150.0108  137.8177  153.5835 H   0  0  0  0  0  0  0  0  0  0  0  0
  149.5352  137.7367  155.2590 H   0  0  0  0  0  0  0  0  0  0  0  0
  150.5035  140.2396  153.7939 H   0  0  0  0  0  0  0  0  0  0  0  0
  148.6788  141.9963  154.2553 H   0  0  0  0  0  0  0  0  0  0  0  0
  146.7065  142.3777  152.8421 H   0  0  0  0  0  0  0  0  0  0  0  0
  146.1031  140.8210  153.3625 H   0  0  0  0  0  0  0  0  0  0  0  0
  145.2378  141.6611  155.3351 H   0  0  0  0  0  0  0  0  0  0  0  0
  146.6467  142.6417  155.6529 H   0  0  0  0  0  0  0  0  0  0  0  0
  146.2366  143.9472  152.5981 H   0  0  0  0  0  0  0  0  0  0  0  0
  144.9095  145.9830  152.0126 H   0  0  0  0  0  0  0  0  0  0  0  0
  143.1018  146.7558  153.5630 H   0  0  0  0  0  0  0  0  0  0  0  0
  142.6829  145.4131  155.7059 H   0  0  0  0  0  0  0  0  0  0  0  0
  150.0364  141.4446  155.8956 H   0  0  0  0  0  0  0  0  0  0  0  0
  149.5184  139.9822  156.6795 H   0  0  0  0  0  0  0  0  0  0  0  0
  151.8447  140.4674  157.3311 H   0  0  0  0  0  0  0  0  0  0  0  0
  152.3273  140.6251  155.6632 H   0  0  0  0  0  0  0  0  0  0  0  0
  143.9863  143.5481  156.1276 H   0  0  0  0  0  0  0  0  0  0  0  0
  1  2  1  0  0  0  0
  1 23  1  0  0  0  0
  1 24  1  0  0  0  0
  1 25  1  0  0  0  0
  2  3  1  0  0  0  0
  2 26  1  0  0  0  0
  2 27  1  0  0  0  0
  3  4  2  0  0  0  0
  3  5  2  0  0  0  0
  3  6  1  0  0  0  0
  6 22  1  0  0  0  0
  6  7  1  0  0  0  0
  7  8  1  0  0  0  0
  7 28  1  0  0  0  0
  7 29  1  0  0  0  0
  8  9  1  0  0  0  0
  8 30  1  0  0  0  0
  8 31  1  0  0  0  0
  9 10  1  0  0  0  0
  9 21  1  0  0  0  0
  9 32  1  0  0  0  0
 10 11  2  0  0  0  0
 10 12  1  0  0  0  0
 12 13  1  0  0  0  0
 12 33  1  0  0  0  0
 13 14  1  0  0  0  0
 13 34  1  0  0  0  0
 13 35  1  0  0  0  0
 14 15  1  0  0  0  0
 14 36  1  0  0  0  0
 14 37  1  0  0  0  0
 15 20  1  0  0  0  0
 15 16  2  0  0  0  0
 16 17  1  0  0  0  0
 16 38  1  0  0  0  0
 17 18  2  0  0  0  0
 17 39  1  0  0  0  0
 18 19  1  0  0  0  0
 18 40  1  0  0  0  0
 19 20  2  0  0  0  0
 19 41  1  0  0  0  0
 20 46  1  0  0  0  0
 21 22  1  0  0  0  0
 21 42  1  0  0  0  0
 21 43  1  0  0  0  0
 22 44  1  0  0  0  0
 22 45  1  0  0  0  0
M  CHG  1  20   1
M  END
> <s_m_source_file>
AV-unprocessed.smi

> <i_m_source_file_index>
303

> <i_lp_mmshare_version>
43012

> <i_f3d_flags>
0

> <s_epik_input>
W0NIM11bQ0gyXVMoPU8pKD1PKU4xW0NIMl1bQ0gyXVtDSF0oW0NIMl1bQ0gyXTEpQyg9TylbTkhdW0NIMl1bQ0gyXWMyW2NIXVtjSF1bY0hdW2NIXW4y

> <s_epik_cmdline>
J2VwaWtfcHl0aG9uJywgJy1waCcsICc3LjAnLCAnLXRuJywgJzgnLCAnLW1hJywgJzIwMCcsICctbWV0YWxfYmluZGluZycsICctaW1hZScsICc8aW5maWxlLm1hZT4nLCAnLW9tYWUnLCAnPG91dGZpbGUubWFlPic=

> <r_epik_Ionization_Penalty>
1.82741

> <r_epik_Ionization_Penalty_Charging>
1.82741

> <r_epik_Ionization_Penalty_Neutral>
1.89562e-08

> <r_epik_State_Penalty>
1.94311

> <r_epik_Charging_Adjusted_Penalty>
3.77052

> <i_epik_Tot_Q>
1

> <i_epik_Tot_abs_Q>
1

> <r_epik_Metal_State_Penalty>
1.96983

> <b_epik_Metal_Only>
0

> <s_lp_Force_Field>
OPLS_2005

> <r_lp_Energy>
6.79825

> <b_lp_Chiralities_Consistent>
1

> <s_lp_Variant>
AV-unprocessed.smi:303-2

> <Gold.Version>
5.8.1

> <Gold.Id.Protein>
6NUR|6NUR_protein|mol2

> <Gold.PLP.Fitness>
46.6966

> <Gold.PLP.PLP>
-41.8737

> <Gold.PLP.part.hbond>
-2.3029

> <Gold.PLP.part.metal>
0.0000

> <Gold.PLP.part.buried>
-0.4151

> <Gold.PLP.part.nonpolar>
-38.2622

> <Gold.PLP.part.repulsive>
0.3111

> <Gold.PLP.ligand.clash>
0.0000

> <Gold.PLP.ligand.torsion>
1.6789

> <Gold.PLP.Chemscore.Hbond>
2.0000

> <Gold.PLP.Chemscore.CHOScore>
0.0000

> <Gold.PLP.Chemscore.Metal>
0.0000

> <Gold.PLP.Chemscore.Internal.Correction>
2.1806

> <Gold.Rescore>
     Score         DG    S(hbond)    S(metal)    S(lipo)     H(rot)  DE(clash)    DE(int)     intcor
     14.71     -16.64       1.58        0.00      88.84       1.76       0.51       1.43       ----

> <Gold.Chemscore.Fitness>
14.7052

> <Gold.Chemscore.DG>
-16.6435

> <Gold.Chemscore.ZeroCoef>
-5.4800

> <Gold.Chemscore.Hbond>
1.5790

> <Gold.Chemscore.Metal>
0.0000

> <Gold.Chemscore.Lipo>
88.8382

> <Gold.Chemscore.Internal_Hbond>
0.0000

> <Gold.Chemscore.DEClash>
0.5111

> <Gold.Chemscore.DEInternal>
1.4271

> <Gold.Chemscore.Rot>
1.7596

> <Gold.Chemscore.Internal.Correction>
   9.000000E+99

> <Gold.Chemscore.Hbonds>
donor molecule, donor type, donor heavy atom, donor atom, acceptor molecule, acceptor atom, score
      P1  H 10752 10763       L1     5  0.05

> <Gold.Chemscore.Hbond.Weighted>
-5.2739

> <Gold.Chemscore.Metal.Weighted>
-0.0000

> <Gold.Chemscore.Lipo.Weighted>
-10.3941

> <Gold.Chemscore.Internal_Hbond.Weighted>
0.0000

> <Gold.Chemscore.DEClash.Weighted>
0.5111

> <Gold.Chemscore.DEInternal.Weighted>
1.4271

> <Gold.Chemscore.Rot.Weighted>
4.5045

> <Gold.Chemscore.Internal.Correction.Weighted>
   9.000000E+99

> <Gold.Protein.RotatedTorsions>
[ 6907 6896 6895 6894 ] final -118.88 input  -60.11 | X-H torsion
[ 7974 7965 7964 7962 ] final   55.66 input  175.53 | X-H torsion
[ 8008 7997 7996 7995 ] final  160.55 input   59.86 | X-H torsion
[ 10167 10162 10161 10158 ] final   50.13 input  -65.29 | X-H torsion
[ 10718 10713 10712 10709 ] final   23.95 input   66.30 | X-H torsion
[ 10763 10752 10751 10750 ] final  131.64 input  -60.55 | X-H torsion
[ 11005 11000 10999 10996 ] final -100.85 input  -57.11 | X-H torsion

> <Gold.Protein.ActiveResidues>
 VAL166  LYS551  ARG553  GLY616  TRP617  ASP618  TYR619  PRO620  LYS621  CYS622 
 ASP623  PHE694  ASN695  SER759  ASP760  ASP761  ALA762  ILE779  LEU786  VAL792 
 PHE793  MET794  SER795  GLU796  ALA797  LYS798  CYS799  TRP800  GLU811  SER814 

> <Gold.Protein.RotatedAtoms>
  150.8257  133.8175  159.3119 H   0  0  0  0  0  0  0  0  0  0  0  0  # atno 6907 bound_to 6896
  151.5920  135.1051  160.0050 H   0  0  0  0  0  0  0  0  0  0  0  0  # atno 6908 bound_to 6896
  152.4342  133.7291  159.6633 H   0  0  0  0  0  0  0  0  0  0  0  0  # atno 6909 bound_to 6896
  145.9480  139.3947  143.0323 H   0  0  0  0  0  0  0  0  0  0  0  0  # atno 7974 bound_to 7965
  156.2165  140.1801  156.7578 H   0  0  0  0  0  0  0  0  0  0  0  0  # atno 8008 bound_to 7997
  154.5799  140.0668  156.9117 H   0  0  0  0  0  0  0  0  0  0  0  0  # atno 8009 bound_to 7997
  155.2522  140.3330  155.4283 H   0  0  0  0  0  0  0  0  0  0  0  0  # atno 8010 bound_to 7997
  140.2756  144.3215  150.6278 H   0  0  0  0  0  0  0  0  0  0  0  0  # atno 10167 bound_to 10162
  157.1731  130.6769  149.6085 H   0  0  0  0  0  0  0  0  0  0  0  0  # atno 10718 bound_to 10713
  153.7776  135.3173  155.3361 H   0  0  0  0  0  0  0  0  0  0  0  0  # atno 10763 bound_to 10752
  154.8173  135.4627  154.0682 H   0  0  0  0  0  0  0  0  0  0  0  0  # atno 10764 bound_to 10752
  153.1961  135.6915  153.8375 H   0  0  0  0  0  0  0  0  0  0  0  0  # atno 10765 bound_to 10752
  141.1254  133.8431  157.1155 H   0  0  0  0  0  0  0  0  0  0  0  0  # atno 11005 bound_to 11000
  145.8209  140.9679  143.0899 LP  0  0  0  0  0  0  0  0  0  0  0  0  # atno 17320 bound_to 7965
  144.6790  140.0041  143.7484 LP  0  0  0  0  0  0  0  0  0  0  0  0  # atno 17321 bound_to 7965
  140.5854  143.2170  151.7352 LP  0  0  0  0  0  0  0  0  0  0  0  0  # atno 17342 bound_to 10162
  139.4976  144.4019  152.0172 LP  0  0  0  0  0  0  0  0  0  0  0  0  # atno 17343 bound_to 10162
  155.9735  130.4672  150.6316 LP  0  0  0  0  0  0  0  0  0  0  0  0  # atno 17370 bound_to 10713
  157.4024  131.0812  151.1296 LP  0  0  0  0  0  0  0  0  0  0  0  0  # atno 17371 bound_to 10713
  140.0249  134.9929  157.0665 LP  0  0  0  0  0  0  0  0  0  0  0  0  # atno 17394 bound_to 11000
  140.4380  134.1711  155.7172 LP  0  0  0  0  0  0  0  0  0  0  0  0  # atno 17395 bound_to 11000

$$$$
