AV-unprocessed.smi:1703|AV-procd|sdf|6862|dock3
  -GOLD-   22720 8 53D 1   1.00000     0.00000
 Structure written by MMmdl.
 49 51  0  0  0  0  0  0  0  0  2 V2000
  143.7548  135.1713  155.4274 C   0  0  0  0  0  0  0  0  0  0  0  0
  144.2253  135.4956  154.0053 C   0  0  1  0  0  0  0  0  0  0  0  0
  145.7417  135.7829  153.9504 C   0  0  0  0  0  0  0  0  0  0  0  0
  146.2183  135.9646  152.5551 N   0  3  2  0  0  0  0  0  0  0  0  0
  145.9237  137.2971  151.9623 C   0  0  0  0  0  0  0  0  0  0  0  0
  147.0476  138.3191  152.2210 C   0  0  1  0  0  0  0  0  0  0  0  0
  146.9771  139.3321  151.2357 O   0  0  0  0  0  0  0  0  0  0  0  0
  146.9268  138.9483  153.6234 C   0  0  0  0  0  0  0  0  0  0  0  0
  148.1189  139.6852  154.0215 N   0  0  0  0  0  0  0  0  0  0  0  0
  148.2786  141.0287  154.1298 C   0  0  0  0  0  0  0  0  0  0  0  0
  147.1735  141.9950  153.8299 C   0  0  0  0  0  0  0  0  0  0  0  0
  146.8947  142.8593  154.9104 O   0  0  0  0  0  0  0  0  0  0  0  0
  149.4866  141.4400  154.5161 N   0  0  0  0  0  0  0  0  0  0  0  0
  150.1782  140.2542  154.6674 C   0  0  0  0  0  0  0  0  0  0  0  0
  151.5152  140.0142  155.0577 C   0  0  0  0  0  0  0  0  0  0  0  0
  152.0084  138.6957  155.1422 C   0  0  0  0  0  0  0  0  0  0  0  0
  151.1739  137.6006  154.8388 C   0  0  0  0  0  0  0  0  0  0  0  0
  149.8387  137.8174  154.4476 C   0  0  0  0  0  0  0  0  0  0  0  0
  149.3510  139.1357  154.3644 C   0  0  0  0  0  0  0  0  0  0  0  0
  145.7869  134.8269  151.7073 C   0  0  0  0  0  0  0  0  0  0  0  0
  144.2656  134.5983  151.8096 C   0  0  1  0  0  0  0  0  0  0  0  0
  143.8112  133.3781  151.0017 C   0  0  0  0  0  0  0  0  0  0  0  0
  143.9264  134.3787  153.1746 O   0  0  0  0  0  0  0  0  0  0  0  0
  143.9516  136.0025  156.1051 H   0  0  0  0  0  0  0  0  0  0  0  0
  144.2629  134.2905  155.8214 H   0  0  0  0  0  0  0  0  0  0  0  0
  142.6828  134.9738  155.4481 H   0  0  0  0  0  0  0  0  0  0  0  0
  143.6630  136.3614  153.6536 H   0  0  0  0  0  0  0  0  0  0  0  0
  145.9906  136.6467  154.5659 H   0  0  0  0  0  0  0  0  0  0  0  0
  146.2839  134.9394  154.3803 H   0  0  0  0  0  0  0  0  0  0  0  0
  145.7911  137.1995  150.8836 H   0  0  0  0  0  0  0  0  0  0  0  0
  144.9755  137.6735  152.3455 H   0  0  0  0  0  0  0  0  0  0  0  0
  148.0213  137.8390  152.1354 H   0  0  0  0  0  0  0  0  0  0  0  0
  147.7536  139.8678  151.2936 H   0  0  0  0  0  0  0  0  0  0  0  0
  146.0735  139.6267  153.6605 H   0  0  0  0  0  0  0  0  0  0  0  0
  146.7252  138.1770  154.3668 H   0  0  0  0  0  0  0  0  0  0  0  0
  147.4243  142.5849  152.9490 H   0  0  0  0  0  0  0  0  0  0  0  0
  146.2665  141.4402  153.5875 H   0  0  0  0  0  0  0  0  0  0  0  0
  147.6418  143.4217  155.0457 H   0  0  0  0  0  0  0  0  0  0  0  0
  152.1626  140.8462  155.2923 H   0  0  0  0  0  0  0  0  0  0  0  0
  153.0321  138.5240  155.4413 H   0  0  0  0  0  0  0  0  0  0  0  0
  151.5596  136.5940  154.9064 H   0  0  0  0  0  0  0  0  0  0  0  0
  149.1989  136.9794  154.2158 H   0  0  0  0  0  0  0  0  0  0  0  0
  146.0904  134.9849  150.6717 H   0  0  0  0  0  0  0  0  0  0  0  0
  146.3127  133.9326  152.0449 H   0  0  0  0  0  0  0  0  0  0  0  0
  143.7287  135.4738  151.4403 H   0  0  0  0  0  0  0  0  0  0  0  0
  144.0425  133.4996  149.9432 H   0  0  0  0  0  0  0  0  0  0  0  0
  142.7348  133.2306  151.0911 H   0  0  0  0  0  0  0  0  0  0  0  0
  144.3019  132.4684  151.3492 H   0  0  0  0  0  0  0  0  0  0  0  0
  147.2273  135.9157  152.5861 H   0  0  0  0  0  0  0  0  0  0  0  0
  1  2  1  0  0  0  0
  1 24  1  0  0  0  0
  1 25  1  0  0  0  0
  1 26  1  0  0  0  0
  2 23  1  0  0  0  0
  2  3  1  0  0  0  0
  2 27  1  0  0  0  0
  3  4  1  0  0  0  0
  3 28  1  0  0  0  0
  3 29  1  0  0  0  0
  4  5  1  0  0  0  0
  4 20  1  0  0  0  0
  4 49  1  0  0  0  0
  5  6  1  0  0  0  0
  5 30  1  0  0  0  0
  5 31  1  0  0  0  0
  6  7  1  0  0  0  0
  6  8  1  0  0  0  0
  6 32  1  0  0  0  0
  7 33  1  0  0  0  0
  8  9  1  0  0  0  0
  8 34  1  0  0  0  0
  8 35  1  0  0  0  0
  9 19  1  0  0  0  0
  9 10  1  0  0  0  0
 10 11  1  0  0  0  0
 10 13  2  0  0  0  0
 11 12  1  0  0  0  0
 11 36  1  0  0  0  0
 11 37  1  0  0  0  0
 12 38  1  0  0  0  0
 13 14  1  0  0  0  0
 14 19  2  0  0  0  0
 14 15  1  0  0  0  0
 15 16  2  0  0  0  0
 15 39  1  0  0  0  0
 16 17  1  0  0  0  0
 16 40  1  0  0  0  0
 17 18  2  0  0  0  0
 17 41  1  0  0  0  0
 18 19  1  0  0  0  0
 18 42  1  0  0  0  0
 20 21  1  0  0  0  0
 20 43  1  0  0  0  0
 20 44  1  0  0  0  0
 21 22  1  0  0  0  0
 21 23  1  0  0  0  0
 21 45  1  0  0  0  0
 22 46  1  0  0  0  0
 22 47  1  0  0  0  0
 22 48  1  0  0  0  0
M  CHG  1   4   1
M  END
> <s_m_source_file>
AV-unprocessed.smi

> <i_m_source_file_index>
1703

> <i_lp_mmshare_version>
43012

> <i_f3d_flags>
0

> <s_epik_input>
W0NIM11bQ0BASF0xW0NIMl1OKFtDSDJdW0NASF0oTzEpW0NIM10pW0NIMl1bQ0BIXShbT0hdKVtDSDJdbihjKG4yKVtDSDJdW09IXSljKGMyMylbY0hdW2NIXVtjSF1bY0hdMw==

> <s_epik_cmdline>
J2VwaWtfcHl0aG9uJywgJy1waCcsICc3LjAnLCAnLXRuJywgJzgnLCAnLW1hJywgJzIwMCcsICctbWV0YWxfYmluZGluZycsICctaW1hZScsICc8aW5maWxlLm1hZT4nLCAnLW9tYWUnLCAnPG91dGZpbGUubWFlPic=

> <r_epik_Ionization_Penalty>
0.655661

> <r_epik_Ionization_Penalty_Charging>
0.608065

> <r_epik_Ionization_Penalty_Neutral>
0.0475963

> <r_epik_State_Penalty>
0.695267

> <r_epik_Charging_Adjusted_Penalty>
1.30333

> <i_epik_Tot_Q>
1

> <i_epik_Tot_abs_Q>
1

> <r_epik_Metal_State_Penalty>
0.653591

> <b_epik_Metal_Only>
0

> <s_lp_Force_Field>
OPLS_2005

> <r_lp_Energy>
23.9002

> <b_lp_Chiralities_Consistent>
1

> <s_lp_Variant>
AV-unprocessed.smi:1703-10

> <Gold.Version>
5.8.1

> <Gold.Id.Protein>
6NUR|6NUR_protein|mol2

> <Gold.PLP.Fitness>
47.1588

> <Gold.PLP.PLP>
-36.6503

> <Gold.PLP.part.hbond>
-5.4866

> <Gold.PLP.part.metal>
0.0000

> <Gold.PLP.part.buried>
5.5148

> <Gold.PLP.part.nonpolar>
-35.7060

> <Gold.PLP.part.repulsive>
0.2828

> <Gold.PLP.ligand.clash>
0.0000

> <Gold.PLP.ligand.torsion>
0.8993

> <Gold.PLP.Chemscore.Hbond>
4.0713

> <Gold.PLP.Chemscore.CHOScore>
0.0000

> <Gold.PLP.Chemscore.Metal>
0.0000

> <Gold.Chemscore.Hbonds>
donor molecule, donor type, donor heavy atom, donor atom, acceptor molecule, acceptor atom, score
      L1  H     4    49       P1  7948  2.00
      L1  H     7    33       P1  7957  0.98
      L1  H    12    38       P1  8028  1.00
      P1  H  7954  7966       L1     7  0.03
      P1  H  8011  8017       L1    13  0.02

> <Gold.PLP.Chemscore.Internal.Correction>
0.0930

> <Gold.Rescore>
     Score         DG    S(hbond)    S(metal)    S(lipo)     H(rot)  DE(clash)    DE(int)     intcor
     14.79     -17.76       2.78        0.00      90.26       2.96       1.91       1.07       ----

> <Gold.Chemscore.Fitness>
14.7865

> <Gold.Chemscore.DG>
-17.7597

> <Gold.Chemscore.ZeroCoef>
-5.4800

> <Gold.Chemscore.Hbond>
2.7844

> <Gold.Chemscore.Metal>
0.0000

> <Gold.Chemscore.Lipo>
90.2583

> <Gold.Chemscore.Internal_Hbond>
0.0000

> <Gold.Chemscore.DEClash>
1.9079

> <Gold.Chemscore.DEInternal>
1.0653

> <Gold.Chemscore.Rot>
2.9611

> <Gold.Chemscore.Internal.Correction>
   9.000000E+99

> <Gold.Chemscore.Hbonds>
donor molecule, donor type, donor heavy atom, donor atom, acceptor molecule, acceptor atom, score
      L1  H     4    49       P1  7948  0.96
      L1  H     7    33       P1  7957  0.93
      L1  H    12    38       P1  8028  0.30

> <Gold.Chemscore.Hbond.Weighted>
-9.2998

> <Gold.Chemscore.Metal.Weighted>
-0.0000

> <Gold.Chemscore.Lipo.Weighted>
-10.5602

> <Gold.Chemscore.Internal_Hbond.Weighted>
0.0000

> <Gold.Chemscore.DEClash.Weighted>
1.9079

> <Gold.Chemscore.DEInternal.Weighted>
1.0653

> <Gold.Chemscore.Rot.Weighted>
7.5803

> <Gold.Chemscore.Internal.Correction.Weighted>
   9.000000E+99

> <Gold.Protein.RotatedTorsions>
[ 6907 6896 6895 6894 ] final  125.15 input  -60.11 | X-H torsion
[ 7974 7965 7964 7962 ] final   34.66 input  175.53 | X-H torsion
[ 8008 7997 7996 7995 ] final  171.67 input   59.86 | X-H torsion
[ 10167 10162 10161 10158 ] final   92.52 input  -65.29 | X-H torsion
[ 10718 10713 10712 10709 ] final  -99.99 input   66.30 | X-H torsion
[ 10763 10752 10751 10750 ] final  -21.30 input  -60.55 | X-H torsion
[ 11005 11000 10999 10996 ] final -170.07 input  -57.11 | X-H torsion

> <Gold.Protein.ActiveResidues>
 VAL166  LYS551  ARG553  GLY616  TRP617  ASP618  TYR619  PRO620  LYS621  CYS622 
 ASP623  PHE694  ASN695  SER759  ASP760  ASP761  ALA762  ILE779  LEU786  VAL792 
 PHE793  MET794  SER795  GLU796  ALA797  LYS798  CYS799  TRP800  GLU811  SER814 

> <Gold.Protein.RotatedAtoms>
  152.4017  133.6827  159.6321 H   0  0  0  0  0  0  0  0  0  0  0  0  # atno 6907 bound_to 6896
  150.7907  133.8780  159.3286 H   0  0  0  0  0  0  0  0  0  0  0  0  # atno 6908 bound_to 6896
  151.6544  135.0999  160.0218 H   0  0  0  0  0  0  0  0  0  0  0  0  # atno 6909 bound_to 6896
  146.1337  139.6241  142.9209 H   0  0  0  0  0  0  0  0  0  0  0  0  # atno 7974 bound_to 7965
  156.1248  140.1506  156.9152 H   0  0  0  0  0  0  0  0  0  0  0  0  # atno 8008 bound_to 7997
  154.4863  140.0864  156.7535 H   0  0  0  0  0  0  0  0  0  0  0  0  # atno 8009 bound_to 7997
  155.4363  140.3429  155.4287 H   0  0  0  0  0  0  0  0  0  0  0  0  # atno 8010 bound_to 7997
  139.8268  144.6705  150.9449 H   0  0  0  0  0  0  0  0  0  0  0  0  # atno 10167 bound_to 10162
  156.0150  130.5307  150.6752 H   0  0  0  0  0  0  0  0  0  0  0  0  # atno 10718 bound_to 10713
  153.6339  135.6988  153.5265 H   0  0  0  0  0  0  0  0  0  0  0  0  # atno 10763 bound_to 10752
  153.2837  135.4178  155.1102 H   0  0  0  0  0  0  0  0  0  0  0  0  # atno 10764 bound_to 10752
  154.8515  135.3608  154.5882 H   0  0  0  0  0  0  0  0  0  0  0  0  # atno 10765 bound_to 10752
  140.5236  134.5685  157.5055 H   0  0  0  0  0  0  0  0  0  0  0  0  # atno 11005 bound_to 11000
  145.5203  141.0432  143.2439 LP  0  0  0  0  0  0  0  0  0  0  0  0  # atno 17320 bound_to 7965
  144.7718  139.6719  143.7192 LP  0  0  0  0  0  0  0  0  0  0  0  0  # atno 17321 bound_to 7965
  140.7809  143.4038  151.1104 LP  0  0  0  0  0  0  0  0  0  0  0  0  # atno 17342 bound_to 10162
  139.7695  143.8516  152.3117 LP  0  0  0  0  0  0  0  0  0  0  0  0  # atno 17343 bound_to 10162
  157.4466  131.0867  151.0889 LP  0  0  0  0  0  0  0  0  0  0  0  0  # atno 17370 bound_to 10713
  157.1417  130.6146  149.5557 LP  0  0  0  0  0  0  0  0  0  0  0  0  # atno 17371 bound_to 10713
  139.9592  134.7481  156.0273 LP  0  0  0  0  0  0  0  0  0  0  0  0  # atno 17394 bound_to 11000
  141.1321  133.6584  156.3492 LP  0  0  0  0  0  0  0  0  0  0  0  0  # atno 17395 bound_to 11000

$$$$
