#       Name:                AV-unprocessed.smi:62
#       Creating user name   scv26
#       Creation time:       Thu Mar 26 16:49:39 2020


#       File generated by GOLD software.
#

@<TRIPOS>MOLECULE
AV-unprocessed.smi:62
    38    39     1
SMALL
NO_CHARGES


@<TRIPOS>ATOM
      1 ****        -4.2602   0.2796  -1.7444 C.3            1 S1                 0.0000
      2 ****        -2.9981  -0.2868  -1.3198 N.pl3          1 S1                 0.0000
      3 ****        -1.7228   0.1331  -1.6159 C.2            1 S1                 0.0000
      4 ****        -0.8406  -0.7053  -0.9910 C.2            1 S1                 0.0000
      5 ****         0.6657  -0.5747  -1.0518 C.3            1 S1                 0.0000
      6 ****         1.1499   0.4996  -0.1529 N.4            1 S1                 1.0000
      7 ****         2.5696   0.8584  -0.3451 C.3            1 S1                 0.0000
      8 ****         2.9828   1.5292   0.9605 C.3            1 S1                 0.0000
      9 ****         2.2334   0.7049   2.0036 C.3            1 S1                 0.0000
     10 ****         1.9919   1.4438   3.1823 O.3            1 S1                 0.0000
     11 ****         0.9354   0.2823   1.2991 C.3            1 S1                 0.0000
     12 ****        -1.7063  -1.6459  -0.3296 C.2            1 S1                 0.0000
     13 ****        -1.1995  -2.7997   0.4958 C.2            1 S1                 0.0000
     14 ****         0.0261  -3.0317   0.5719 O.co2          1 S1                 0.0000
     15 ****        -2.0435  -3.5046   1.0913 O.co2          1 S1                -1.0000
     16 ****        -2.9894  -1.3751  -0.5303 N.2            1 S1                 0.0000
     17 ****        -4.1025   1.2779  -2.1540 H              1 S1                 0.0000
     18 ****        -4.9420   0.3500  -0.8961 H              1 S1                 0.0000
     19 ****        -4.7067  -0.3536  -2.5116 H              1 S1                 0.0000
     20 ****        -1.5455   0.9957  -2.2413 H              1 S1                 0.0000
     21 ****         1.1988  -1.4998  -0.8453 H              1 S1                 0.0000
     22 ****         0.9629  -0.3079  -2.0667 H              1 S1                 0.0000
     23 ****         3.1626  -0.0453  -0.4972 H              1 S1                 0.0000
     24 ****         2.7081   1.5055  -1.2118 H              1 S1                 0.0000
     25 ****         4.0621   1.5338   1.1158 H              1 S1                 0.0000
     26 ****         2.6346   2.5635   0.9664 H              1 S1                 0.0000
     27 ****         2.8186  -0.1825   2.2497 H              1 S1                 0.0000
     28 ****         1.5419   0.8875   3.8003 H              1 S1                 0.0000
     29 ****         0.0854   0.8905   1.6112 H              1 S1                 0.0000
     30 ****         0.7027  -0.7531   1.5399 H              1 S1                 0.0000
     31 ****         0.6244   1.3305  -0.3826 H              1 S1                 0.0000
     32 ****         1.4249   2.2398   2.9706 LP             1 S1                 0.0000
     33 ****         2.8607   1.7479   3.5732 LP             1 S1                 0.0000
     34 ****         0.3565  -3.7995   1.1208 LP             1 S1                 0.0000
     35 ****         0.6764  -2.4496   0.0838 LP             1 S1                 0.0000
     36 ****        -1.7443  -4.2795   1.6481 LP             1 S1                 0.0000
     37 ****        -3.0176  -3.2934   1.0107 LP             1 S1                 0.0000
     38 ****        -3.7793  -1.8728  -0.1719 LP             1 S1                 0.0000
@<TRIPOS>BOND
    1    1    2 1     
    2    1   17 1     
    3    1   18 1     
    4    1   19 1     
    5    2   16 1     
    6    2    3 1     
    7    3    4 2     
    8    3   20 1     
    9    4    5 1     
   10    4   12 1     
   11    5    6 1     
   12    5   21 1     
   13    5   22 1     
   14    6   11 1     
   15    6    7 1     
   16    6   31 1     
   17    7    8 1     
   18    7   23 1     
   19    7   24 1     
   20    8    9 1     
   21    8   25 1     
   22    8   26 1     
   23    9   10 1     
   24    9   11 1     
   25    9   27 1     
   26   10   28 1     
   27   11   29 1     
   28   11   30 1     
   29   12   13 1     
   30   12   16 2     
   31   13   14 ar    
   32   13   15 ar    
   33   10   32 1     
   34   10   33 1     
   35   14   34 1     
   36   14   35 1     
   37   15   36 1     
   38   15   37 1     
   39   16   38 1     
@<TRIPOS>SUBSTRUCTURE
      1 S1             1
@<TRIPOS>SET
LONE_PAIRS      STATIC     ATOMS    <user>   **** ""
7 32 33 34 35 36 37 38
DONOR_HYDROGENS      STATIC     ATOMS    <user>   **** ""
2 31 28
ATOM$BLUE        STATIC     ATOMS    COLORGROUP SYSTEM
7 32 33 34 35 36 37 38
ATOM$RED        STATIC     ATOMS    COLORGROUP SYSTEM
2 31 28
