#       Name:                AV-unprocessed.smi:557
#       Creating user name   scv26
#       Creation time:       Thu Mar 26 23:40:49 2020


#       File generated by GOLD software.
#

@<TRIPOS>MOLECULE
AV-unprocessed.smi:557
    50    52     1
SMALL
NO_CHARGES


@<TRIPOS>ATOM
      1 ****        -8.3215  -4.7722   0.3816 C.3            1 S1                 0.0000
      2 ****        -7.2071  -3.9067   0.7024 N.pl3          1 S1                 0.0000
      3 ****        -6.3088  -3.3063  -0.1534 C.2            1 S1                 0.0000
      4 ****        -5.4368  -2.5824   0.6102 C.2            1 S1                 0.0000
      5 ****        -4.2686  -1.7457   0.1693 C.3            1 S1                 0.0000
      6 ****        -2.9539  -2.5335   0.2422 C.3            1 S1                 0.0000
      7 ****        -1.8310  -1.6992  -0.1772 N.am           1 S1                 0.0000
      8 ****        -0.5373  -2.0545  -0.2523 C.2            1 S1                 0.0000
      9 ****        -0.1535  -3.1833   0.0475 O.2            1 S1                 0.0000
     10 ****         0.2863  -1.0794  -0.6725 N.am           1 S1                 0.0000
     11 ****         1.7307  -1.2101  -0.8375 C.3            1 S1                 0.0000
     12 ****         2.3000  -0.2512  -1.8980 C.3            1 S1                 0.0000
     13 ****         3.6615   0.2112  -1.3430 C.3            1 S1                 0.0000
     14 ****         3.8527  -0.5484  -0.0930 N.4            1 S1                 1.0000
     15 ****         4.7529   0.0405   0.9222 C.3            1 S1                 0.0000
     16 ****         4.8903  -0.9364   2.1072 C.3            1 S1                 0.0000
     17 ****         3.5148  -1.3511   2.6684 C.3            1 S1                 0.0000
     18 ****         2.5889  -1.8667   1.5499 C.3            1 S1                 0.0000
     19 ****         2.5033  -0.8201   0.4257 C.3            1 S1                 0.0000
     20 ****        -5.8959  -2.8078   1.9393 C.2            1 S1                 0.0000
     21 ****        -6.9533  -3.6011   1.9912 N.2            1 S1                 0.0000
     22 ****        -8.3771  -4.9275  -0.6961 H              1 S1                 0.0000
     23 ****        -9.2517  -4.3165   0.7225 H              1 S1                 0.0000
     24 ****        -8.1937  -5.7371   0.8732 H              1 S1                 0.0000
     25 ****        -6.3627  -3.4424  -1.2234 H              1 S1                 0.0000
     26 ****        -4.4192  -1.3874  -0.8499 H              1 S1                 0.0000
     27 ****        -4.1886  -0.8517   0.7888 H              1 S1                 0.0000
     28 ****        -2.7853  -2.8813   1.2629 H              1 S1                 0.0000
     29 ****        -3.0143  -3.4150  -0.3984 H              1 S1                 0.0000
     30 ****        -2.0569  -0.7478  -0.4306 H              1 S1                 0.0000
     31 ****        -0.1207  -0.1832  -0.8980 H              1 S1                 0.0000
     32 ****         1.9920  -2.2314  -1.1234 H              1 S1                 0.0000
     33 ****         2.4030  -0.7495  -2.8626 H              1 S1                 0.0000
     34 ****         1.6507   0.6132  -2.0445 H              1 S1                 0.0000
     35 ****         4.4804   0.0234  -2.0380 H              1 S1                 0.0000
     36 ****         3.6347   1.2813  -1.1313 H              1 S1                 0.0000
     37 ****         5.7299   0.2340   0.4779 H              1 S1                 0.0000
     38 ****         4.3559   0.9989   1.2604 H              1 S1                 0.0000
     39 ****         5.4268  -1.8278   1.7788 H              1 S1                 0.0000
     40 ****         5.4955  -0.4868   2.8950 H              1 S1                 0.0000
     41 ****         3.6373  -2.1151   3.4366 H              1 S1                 0.0000
     42 ****         3.0500  -0.4934   3.1567 H              1 S1                 0.0000
     43 ****         2.9690  -2.8106   1.1569 H              1 S1                 0.0000
     44 ****         1.5983  -2.0720   1.9561 H              1 S1                 0.0000
     45 ****         2.0907   0.1093   0.8252 H              1 S1                 0.0000
     46 ****        -5.4918  -2.4210   2.8631 H              1 S1                 0.0000
     47 ****         4.2406  -1.4430  -0.3569 H              1 S1                 0.0000
     48 ****        -0.8116  -3.8690   0.3584 LP             1 S1                 0.0000
     49 ****         0.8168  -3.4157  -0.0195 LP             1 S1                 0.0000
     50 ****        -7.4518  -3.9054   2.8029 LP             1 S1                 0.0000
@<TRIPOS>BOND
    1    1    2 1     
    2    1   22 1     
    3    1   23 1     
    4    1   24 1     
    5    2   21 1     
    6    2    3 1     
    7    3    4 2     
    8    3   25 1     
    9    4    5 1     
   10    4   20 1     
   11    5    6 1     
   12    5   26 1     
   13    5   27 1     
   14    6    7 1     
   15    6   28 1     
   16    6   29 1     
   17    7    8 am    
   18    7   30 1     
   19    8    9 2     
   20    8   10 am    
   21   10   11 1     
   22   10   31 1     
   23   11   19 1     
   24   11   12 1     
   25   11   32 1     
   26   12   13 1     
   27   12   33 1     
   28   12   34 1     
   29   13   14 1     
   30   13   35 1     
   31   13   36 1     
   32   14   19 1     
   33   14   15 1     
   34   14   47 1     
   35   15   16 1     
   36   15   37 1     
   37   15   38 1     
   38   16   17 1     
   39   16   39 1     
   40   16   40 1     
   41   17   18 1     
   42   17   41 1     
   43   17   42 1     
   44   18   19 1     
   45   18   43 1     
   46   18   44 1     
   47   19   45 1     
   48   20   21 2     
   49   20   46 1     
   50    9   48 1     
   51    9   49 1     
   52   21   50 1     
@<TRIPOS>SUBSTRUCTURE
      1 S1             1
@<TRIPOS>SET
LONE_PAIRS      STATIC     ATOMS    <user>   **** ""
3 48 49 50
DONOR_HYDROGENS      STATIC     ATOMS    <user>   **** ""
3 30 31 47
ATOM$BLUE        STATIC     ATOMS    COLORGROUP SYSTEM
3 48 49 50
ATOM$RED        STATIC     ATOMS    COLORGROUP SYSTEM
3 30 31 47
