AV-unprocessed.smi:2758|AV-procd|sdf|10622|dock1
  -GOLD-   2272015 63D 1   1.00000     0.00000
 Structure written by MMmdl.
 32 33  0  0  0  0  0  0  0  0  1 V2000
  149.1972  141.3829  154.4836 C   0  0  0  0  0  0  0  0  0  0  0  0
  150.1727  141.4062  155.5110 O   0  0  0  0  0  0  0  0  0  0  0  0
  149.5962  141.4684  156.8054 C   0  0  0  0  0  0  0  0  0  0  0  0
  150.7142  141.4338  157.8589 C   0  0  1  0  0  0  0  0  0  0  0  0
  151.6382  140.4276  157.4938 O   0  0  0  0  0  0  0  0  0  0  0  0
  151.4509  142.7848  157.9577 C   0  0  0  0  0  0  0  0  0  0  0  0
  151.8117  143.1297  159.3267 N   0  0  0  0  0  0  0  0  0  0  0  0
  151.4545  144.2256  160.0418 C   0  0  0  0  0  0  0  0  0  0  0  0
  150.5787  145.2948  159.4702 C   0  0  0  0  0  0  0  0  0  0  0  0
  151.9290  144.2882  161.2862 N   0  0  0  0  0  0  0  0  0  0  0  0
  152.6608  143.1211  161.3903 C   0  0  0  0  0  0  0  0  0  0  0  0
  153.4090  142.5994  162.4699 C   0  0  0  0  0  0  0  0  0  0  0  0
  154.0801  141.3654  162.3427 C   0  0  0  0  0  0  0  0  0  0  0  0
  154.0140  140.6376  161.1368 C   0  0  0  0  0  0  0  0  0  0  0  0
  153.2749  141.1399  160.0484 C   0  0  0  0  0  0  0  0  0  0  0  0
  152.6063  142.3717  160.1809 C   0  0  0  0  0  0  0  0  0  0  0  0
  150.2904  141.1868  158.8333 H   0  0  0  0  0  0  0  0  0  0  0  0
  149.6887  141.3226  153.5128 H   0  0  0  0  0  0  0  0  0  0  0  0
  148.5900  142.2889  154.4973 H   0  0  0  0  0  0  0  0  0  0  0  0
  148.5392  140.5186  154.5816 H   0  0  0  0  0  0  0  0  0  0  0  0
  148.9726  142.3567  156.9231 H   0  0  0  0  0  0  0  0  0  0  0  0
  148.9471  140.6000  156.9301 H   0  0  0  0  0  0  0  0  0  0  0  0
  151.2353  139.5857  157.6433 H   0  0  0  0  0  0  0  0  0  0  0  0
  152.3436  142.7793  157.3322 H   0  0  0  0  0  0  0  0  0  0  0  0
  150.8162  143.5826  157.5698 H   0  0  0  0  0  0  0  0  0  0  0  0
  150.4687  146.1180  160.1770 H   0  0  0  0  0  0  0  0  0  0  0  0
  149.5882  144.8939  159.2545 H   0  0  0  0  0  0  0  0  0  0  0  0
  151.0101  145.6892  158.5503 H   0  0  0  0  0  0  0  0  0  0  0  0
  153.4648  143.1490  163.3977 H   0  0  0  0  0  0  0  0  0  0  0  0
  154.6481  140.9754  163.1748 H   0  0  0  0  0  0  0  0  0  0  0  0
  154.5307  139.6930  161.0481 H   0  0  0  0  0  0  0  0  0  0  0  0
  153.2217  140.5853  159.1234 H   0  0  0  0  0  0  0  0  0  0  0  0
  1  2  1  0  0  0  0
  1 18  1  0  0  0  0
  1 19  1  0  0  0  0
  1 20  1  0  0  0  0
  2  3  1  0  0  0  0
  3  4  1  0  0  0  0
  3 21  1  0  0  0  0
  3 22  1  0  0  0  0
  4 17  1  0  0  0  0
  4  5  1  0  0  0  0
  4  6  1  0  0  0  0
  5 23  1  0  0  0  0
  6  7  1  0  0  0  0
  6 24  1  0  0  0  0
  6 25  1  0  0  0  0
  7 16  1  0  0  0  0
  7  8  1  0  0  0  0
  8  9  1  0  0  0  0
  8 10  2  0  0  0  0
  9 26  1  0  0  0  0
  9 27  1  0  0  0  0
  9 28  1  0  0  0  0
 10 11  1  0  0  0  0
 11 16  2  0  0  0  0
 11 12  1  0  0  0  0
 12 13  2  0  0  0  0
 12 29  1  0  0  0  0
 13 14  1  0  0  0  0
 13 30  1  0  0  0  0
 14 15  2  0  0  0  0
 14 31  1  0  0  0  0
 15 16  1  0  0  0  0
 15 32  1  0  0  0  0
M  END
> <s_m_source_file>
AV-unprocessed.smi

> <i_m_source_file_index>
2758

> <i_lp_mmshare_version>
43012

> <i_f3d_flags>
0

> <s_epik_input>
W0NIM11PW0NIMl1bQ0BASF0oW09IXSlbQ0gyXW4oYyhuMSlbQ0gzXSljKGMxMilbY0hdW2NIXVtjSF1bY0hdMg==

> <s_epik_cmdline>
J2VwaWtfcHl0aG9uJywgJy1waCcsICc3LjAnLCAnLXRuJywgJzgnLCAnLW1hJywgJzIwMCcsICctbWV0YWxfYmluZGluZycsICctaW1hZScsICc8aW5maWxlLm1hZT4nLCAnLW9tYWUnLCAnPG91dGZpbGUubWFlPic=

> <r_epik_Ionization_Penalty>
0.126985

> <r_epik_Ionization_Penalty_Charging>
0

> <r_epik_Ionization_Penalty_Neutral>
0.126985

> <r_epik_State_Penalty>
0.116428

> <r_epik_Charging_Adjusted_Penalty>
0.116428

> <i_epik_Tot_Q>
0

> <i_epik_Tot_abs_Q>
0

> <r_epik_Metal_State_Penalty>
0.000128642

> <b_epik_Metal_Only>
0

> <s_lp_Force_Field>
OPLS_2005

> <r_lp_Energy>
8.80871

> <b_lp_Chiralities_Consistent>
1

> <s_lp_Variant>
AV-unprocessed.smi:2758-1

> <Gold.Version>
5.8.1

> <Gold.Id.Protein>
6NUR|6NUR_protein|mol2

> <Gold.PLP.Fitness>
39.0180

> <Gold.PLP.PLP>
-40.3056

> <Gold.PLP.part.hbond>
-0.3058

> <Gold.PLP.part.metal>
0.0000

> <Gold.PLP.part.buried>
-4.8473

> <Gold.PLP.part.nonpolar>
-35.0126

> <Gold.PLP.part.repulsive>
0.2621

> <Gold.PLP.ligand.clash>
0.0000

> <Gold.PLP.ligand.torsion>
0.6463

> <Gold.PLP.Chemscore.Hbond>
0.0000

> <Gold.PLP.Chemscore.CHOScore>
0.0000

> <Gold.PLP.Chemscore.Metal>
0.0000

> <Gold.PLP.Chemscore.Internal.Correction>
0.0050

> <Gold.Rescore>
     Score         DG    S(hbond)    S(metal)    S(lipo)     H(rot)  DE(clash)    DE(int)     intcor
     11.50     -12.09       0.00        0.00     101.37       2.05       0.03       0.57       ----

> <Gold.Chemscore.Fitness>
11.4982

> <Gold.Chemscore.DG>
-12.0890

> <Gold.Chemscore.ZeroCoef>
-5.4800

> <Gold.Chemscore.Hbond>
0.0000

> <Gold.Chemscore.Metal>
0.0000

> <Gold.Chemscore.Lipo>
101.3709

> <Gold.Chemscore.Internal_Hbond>
0.0000

> <Gold.Chemscore.DEClash>
0.0251

> <Gold.Chemscore.DEInternal>
0.5657

> <Gold.Chemscore.Rot>
2.0513

> <Gold.Chemscore.Internal.Correction>
   9.000000E+99

> <Gold.Chemscore.Hbond.Weighted>
-0.0000

> <Gold.Chemscore.Metal.Weighted>
-0.0000

> <Gold.Chemscore.Lipo.Weighted>
-11.8604

> <Gold.Chemscore.Internal_Hbond.Weighted>
0.0000

> <Gold.Chemscore.DEClash.Weighted>
0.0251

> <Gold.Chemscore.DEInternal.Weighted>
0.5657

> <Gold.Chemscore.Rot.Weighted>
5.2514

> <Gold.Chemscore.Internal.Correction.Weighted>
   9.000000E+99

> <Gold.Protein.RotatedTorsions>
[ 6907 6896 6895 6894 ] final   83.55 input  -60.11 | X-H torsion
[ 7974 7965 7964 7962 ] final  -41.13 input  175.53 | X-H torsion
[ 8008 7997 7996 7995 ] final -169.53 input   59.86 | X-H torsion
[ 10167 10162 10161 10158 ] final  -86.03 input  -65.29 | X-H torsion
[ 10718 10713 10712 10709 ] final  150.25 input   66.30 | X-H torsion
[ 10763 10752 10751 10750 ] final   23.55 input  -60.55 | X-H torsion
[ 11005 11000 10999 10996 ] final -114.02 input  -57.11 | X-H torsion

> <Gold.Protein.ActiveResidues>
 VAL166  LYS551  ARG553  GLY616  TRP617  ASP618  TYR619  PRO620  LYS621  CYS622 
 ASP623  PHE694  ASN695  SER759  ASP760  ASP761  ALA762  ILE779  LEU786  VAL792 
 PHE793  MET794  SER795  GLU796  ALA797  LYS798  CYS799  TRP800  GLU811  SER814 

> <Gold.Protein.RotatedAtoms>
  152.5330  134.2877  159.9031 H   0  0  0  0  0  0  0  0  0  0  0  0  # atno 6907 bound_to 6896
  151.2830  133.4194  159.2636 H   0  0  0  0  0  0  0  0  0  0  0  0  # atno 6908 bound_to 6896
  151.0267  134.9525  159.8146 H   0  0  0  0  0  0  0  0  0  0  0  0  # atno 6909 bound_to 6896
  146.0240  140.6815  142.9165 H   0  0  0  0  0  0  0  0  0  0  0  0  # atno 7974 bound_to 7965
  155.9062  140.1049  157.1313 H   0  0  0  0  0  0  0  0  0  0  0  0  # atno 8008 bound_to 7997
  154.4033  140.1283  156.4563 H   0  0  0  0  0  0  0  0  0  0  0  0  # atno 8009 bound_to 7997
  155.7364  140.3467  155.5086 H   0  0  0  0  0  0  0  0  0  0  0  0  # atno 8010 bound_to 7997
  140.3980  143.2675  151.9179 H   0  0  0  0  0  0  0  0  0  0  0  0  # atno 10167 bound_to 10162
  157.2859  131.0844  151.1498 H   0  0  0  0  0  0  0  0  0  0  0  0  # atno 10718 bound_to 10713
  153.0830  135.6624  154.0007 H   0  0  0  0  0  0  0  0  0  0  0  0  # atno 10763 bound_to 10752
  153.9624  135.2973  155.3434 H   0  0  0  0  0  0  0  0  0  0  0  0  # atno 10764 bound_to 10752
  154.7232  135.5155  153.8917 H   0  0  0  0  0  0  0  0  0  0  0  0  # atno 10765 bound_to 10752
  141.0578  133.9584  157.2722 H   0  0  0  0  0  0  0  0  0  0  0  0  # atno 11005 bound_to 11000
  144.7001  140.3616  143.7163 LP  0  0  0  0  0  0  0  0  0  0  0  0  # atno 17320 bound_to 7965
  145.7148  139.1694  143.2518 LP  0  0  0  0  0  0  0  0  0  0  0  0  # atno 17321 bound_to 7965
  139.4786  144.5661  151.8162 LP  0  0  0  0  0  0  0  0  0  0  0  0  # atno 17342 bound_to 10162
  140.4769  144.1505  150.5926 LP  0  0  0  0  0  0  0  0  0  0  0  0  # atno 17343 bound_to 10162
  157.2913  130.6797  149.6116 LP  0  0  0  0  0  0  0  0  0  0  0  0  # atno 17370 bound_to 10713
  155.9665  130.4420  150.5362 LP  0  0  0  0  0  0  0  0  0  0  0  0  # atno 17371 bound_to 10713
  139.9405  135.0191  156.8694 LP  0  0  0  0  0  0  0  0  0  0  0  0  # atno 17394 bound_to 11000
  140.5929  134.0244  155.7507 LP  0  0  0  0  0  0  0  0  0  0  0  0  # atno 17395 bound_to 11000

$$$$
