AV-unprocessed.smi:213|AV-procd|sdf|1638|dock6
  -GOLD-   2262020 03D 1   1.00000     0.00000
 Structure written by MMmdl.
 59 62  0  0  0  0  0  0  0  0  2 V2000
  147.4886  135.7770  155.4954 C   0  0  0  0  0  0  0  0  0  0  0  0
  148.6587  136.0393  156.4613 C   0  0  1  0  0  0  0  0  0  0  0  0
  148.6754  135.0525  157.6504 C   0  0  0  0  0  0  0  0  0  0  0  0
  147.7918  135.4775  158.7662 N   0  3  0  0  0  0  0  0  0  0  0  0
  146.3827  135.6512  158.3389 C   0  0  0  0  0  0  0  0  0  0  0  0
  145.5213  136.1496  159.5118 C   0  0  0  0  0  0  0  0  0  0  0  0
  145.6221  135.2382  160.5986 O   0  0  0  0  0  0  0  0  0  0  0  0
  146.9565  135.1266  161.0770 C   0  0  0  0  0  0  0  0  0  0  0  0
  147.8650  134.5933  159.9562 C   0  0  0  0  0  0  0  0  0  0  0  0
  149.9387  136.0287  155.7420 N   0  0  0  0  0  0  0  0  0  0  0  0
  150.2999  134.9076  154.8787 C   0  0  0  0  0  0  0  0  0  0  0  0
  150.5522  137.2215  155.5268 C   0  0  0  0  0  0  0  0  0  0  0  0
  151.5736  137.2559  154.6310 N   0  0  0  0  0  0  0  0  0  0  0  0
  152.2085  138.4023  154.3707 C   0  0  0  0  0  0  0  0  0  0  0  0
  151.9896  139.6125  154.8868 N   0  0  0  0  0  0  0  0  0  0  0  0
  150.9692  139.5865  155.7906 C   0  0  0  0  0  0  0  0  0  0  0  0
  150.2009  138.4474  156.1669 C   0  0  0  0  0  0  0  0  0  0  0  0
  149.2599  138.8161  157.1232 N   0  0  0  0  0  0  0  0  0  0  0  0
  149.4559  140.0948  157.2952 C   0  0  0  0  0  0  0  0  0  0  0  0
  150.4665  140.6375  156.5358 N   0  0  0  0  0  0  0  0  0  0  0  0
  150.9069  142.0214  156.5275 C   0  0  0  0  0  0  0  0  0  0  0  0
  150.5097  142.7704  157.8149 C   0  0  2  0  0  0  0  0  0  0  0  0
  150.5830  144.1645  157.5824 O   0  0  0  0  0  0  0  0  0  0  0  0
  151.4210  142.4155  159.0042 C   0  0  1  0  0  0  0  0  0  0  0  0
  152.9191  142.5380  158.7141 C   0  0  0  0  0  0  0  0  0  0  0  0
  153.5340  142.8309  160.0750 C   0  0  0  0  0  0  0  0  0  0  0  0
  152.3333  143.1628  160.9639 C   0  0  0  0  0  0  0  0  0  0  0  0
  151.2522  143.3467  160.0619 O   0  0  0  0  0  0  0  0  0  0  0  0
  146.5275  135.8906  155.9969 H   0  0  0  0  0  0  0  0  0  0  0  0
  147.5268  134.7699  155.0799 H   0  0  0  0  0  0  0  0  0  0  0  0
  147.5040  136.4816  154.6630 H   0  0  0  0  0  0  0  0  0  0  0  0
  148.5009  137.0377  156.8650 H   0  0  0  0  0  0  0  0  0  0  0  0
  148.3499  134.0726  157.3001 H   0  0  0  0  0  0  0  0  0  0  0  0
  149.6917  134.9221  158.0263 H   0  0  0  0  0  0  0  0  0  0  0  0
  146.3284  136.3666  157.5175 H   0  0  0  0  0  0  0  0  0  0  0  0
  145.9936  134.7026  157.9656 H   0  0  0  0  0  0  0  0  0  0  0  0
  145.8314  137.1474  159.8271 H   0  0  0  0  0  0  0  0  0  0  0  0
  144.4771  136.2222  159.2071 H   0  0  0  0  0  0  0  0  0  0  0  0
  147.3093  136.0942  161.4379 H   0  0  0  0  0  0  0  0  0  0  0  0
  146.9704  134.4454  161.9280 H   0  0  0  0  0  0  0  0  0  0  0  0
  147.5607  133.5822  159.6812 H   0  0  0  0  0  0  0  0  0  0  0  0
  148.8873  134.5289  160.3263 H   0  0  0  0  0  0  0  0  0  0  0  0
  151.3603  134.9353  154.6253 H   0  0  0  0  0  0  0  0  0  0  0  0
  149.7236  134.9303  153.9536 H   0  0  0  0  0  0  0  0  0  0  0  0
  150.1118  133.9542  155.3701 H   0  0  0  0  0  0  0  0  0  0  0  0
  153.0054  138.3417  153.6442 H   0  0  0  0  0  0  0  0  0  0  0  0
  148.8698  140.6786  157.9902 H   0  0  0  0  0  0  0  0  0  0  0  0
  151.9905  142.0284  156.4031 H   0  0  0  0  0  0  0  0  0  0  0  0
  150.4895  142.5177  155.6502 H   0  0  0  0  0  0  0  0  0  0  0  0
  149.4774  142.5262  158.0693 H   0  0  0  0  0  0  0  0  0  0  0  0
  150.2917  144.3370  156.7003 H   0  0  0  0  0  0  0  0  0  0  0  0
  151.1935  141.4146  159.3770 H   0  0  0  0  0  0  0  0  0  0  0  0
  153.3291  141.6409  158.2494 H   0  0  0  0  0  0  0  0  0  0  0  0
  153.1076  143.3773  158.0431 H   0  0  0  0  0  0  0  0  0  0  0  0
  154.0806  141.9723  160.4663 H   0  0  0  0  0  0  0  0  0  0  0  0
  154.2274  143.6700  160.0102 H   0  0  0  0  0  0  0  0  0  0  0  0
  152.1066  142.3285  161.6294 H   0  0  0  0  0  0  0  0  0  0  0  0
  152.4950  144.0511  161.5748 H   0  0  0  0  0  0  0  0  0  0  0  0
  148.1138  136.3904  159.0546 H   0  0  0  0  0  0  0  0  0  0  0  0
  1  2  1  0  0  0  0
  1 29  1  0  0  0  0
  1 30  1  0  0  0  0
  1 31  1  0  0  0  0
  2  3  1  0  0  0  0
  2 10  1  0  0  0  0
  2 32  1  0  0  0  0
  3  4  1  0  0  0  0
  3 33  1  0  0  0  0
  3 34  1  0  0  0  0
  4  9  1  0  0  0  0
  4  5  1  0  0  0  0
  4 59  1  0  0  0  0
  5  6  1  0  0  0  0
  5 35  1  0  0  0  0
  5 36  1  0  0  0  0
  6  7  1  0  0  0  0
  6 37  1  0  0  0  0
  6 38  1  0  0  0  0
  7  8  1  0  0  0  0
  8  9  1  0  0  0  0
  8 39  1  0  0  0  0
  8 40  1  0  0  0  0
  9 41  1  0  0  0  0
  9 42  1  0  0  0  0
 10 11  1  0  0  0  0
 10 12  1  0  0  0  0
 11 43  1  0  0  0  0
 11 44  1  0  0  0  0
 11 45  1  0  0  0  0
 12 17  1  0  0  0  0
 12 13  2  0  0  0  0
 13 14  1  0  0  0  0
 14 15  2  0  0  0  0
 14 46  1  0  0  0  0
 15 16  1  0  0  0  0
 16 20  1  0  0  0  0
 16 17  2  0  0  0  0
 17 18  1  0  0  0  0
 18 19  2  0  0  0  0
 19 20  1  0  0  0  0
 19 47  1  0  0  0  0
 20 21  1  0  0  0  0
 21 22  1  0  0  0  0
 21 48  1  0  0  0  0
 21 49  1  0  0  0  0
 22 23  1  0  0  0  0
 22 24  1  0  0  0  0
 22 50  1  0  0  0  0
 23 51  1  0  0  0  0
 24 28  1  0  0  0  0
 24 25  1  0  0  0  0
 24 52  1  0  0  0  0
 25 26  1  0  0  0  0
 25 53  1  0  0  0  0
 25 54  1  0  0  0  0
 26 27  1  0  0  0  0
 26 55  1  0  0  0  0
 26 56  1  0  0  0  0
 27 28  1  0  0  0  0
 27 57  1  0  0  0  0
 27 58  1  0  0  0  0
M  CHG  1   4   1
M  END
> <s_m_source_file>
AV-unprocessed.smi

> <i_m_source_file_index>
213

> <i_lp_mmshare_version>
43012

> <i_f3d_flags>
0

> <s_epik_input>
W0NIMl0xW0NIMl1PW0NIMl1bQ0gyXU4xW0NIMl1bQ0BASF0oW0NIM10pTihbQ0gzXSljKG5bY0hdbjIpYyhjMjMpbltjSF1uM1tDSDJdW0NASF0oW09IXSlbQ0BASF00W0NIMl1bQ0gyXVtDSDJdTzQ=

> <s_epik_cmdline>
J2VwaWtfcHl0aG9uJywgJy1waCcsICc3LjAnLCAnLXRuJywgJzgnLCAnLW1hJywgJzIwMCcsICctbWV0YWxfYmluZGluZycsICctaW1hZScsICc8aW5maWxlLm1hZT4nLCAnLW9tYWUnLCAnPG91dGZpbGUubWFlPic=

> <r_lp_tautomer_probability>
1

> <r_epik_Ionization_Penalty>
0.399679

> <r_epik_Ionization_Penalty_Charging>
0.399433

> <r_epik_Ionization_Penalty_Neutral>
0.000246213

> <r_epik_State_Penalty>
0.286032

> <r_epik_Charging_Adjusted_Penalty>
0.685465

> <i_epik_Tot_Q>
1

> <i_epik_Tot_abs_Q>
1

> <r_epik_Metal_State_Penalty>
0.286072

> <b_epik_Metal_Only>
0

> <s_lp_Force_Field>
OPLS_2005

> <r_lp_Energy>
45.5564

> <b_lp_Chiralities_Consistent>
1

> <s_lp_Variant>
AV-unprocessed.smi:213-6

> <Gold.Version>
5.8.1

> <Gold.Id.Protein>
6NUR|6NUR_protein|mol2

> <Gold.PLP.Fitness>
44.4909

> <Gold.PLP.PLP>
-37.3748

> <Gold.PLP.part.hbond>
-4.0777

> <Gold.PLP.part.metal>
0.0000

> <Gold.PLP.part.buried>
-7.8203

> <Gold.PLP.part.nonpolar>
-26.7813

> <Gold.PLP.part.repulsive>
0.2863

> <Gold.PLP.ligand.clash>
0.0000

> <Gold.PLP.ligand.torsion>
1.2172

> <Gold.PLP.Chemscore.Hbond>
2.8865

> <Gold.PLP.Chemscore.CHOScore>
0.0000

> <Gold.PLP.Chemscore.Metal>
0.0000

> <Gold.Chemscore.Hbonds>
donor molecule, donor type, donor heavy atom, donor atom, acceptor molecule, acceptor atom, score
      L1  H    23    51       P1  8028  0.91
      P1  H  7989  7998       L1    15  0.93
      P1  H 10752 10765       L1    13  0.71

> <Gold.PLP.Chemscore.Internal.Correction>
0.8909

> <Gold.Rescore>
     Score         DG    S(hbond)    S(metal)    S(lipo)     H(rot)  DE(clash)    DE(int)     intcor
     13.48     -15.98       2.39        0.00      83.45       2.83       0.05       2.45       ----

> <Gold.Chemscore.Fitness>
13.4800

> <Gold.Chemscore.DG>
-15.9789

> <Gold.Chemscore.ZeroCoef>
-5.4800

> <Gold.Chemscore.Hbond>
2.3856

> <Gold.Chemscore.Metal>
0.0000

> <Gold.Chemscore.Lipo>
83.4513

> <Gold.Chemscore.Internal_Hbond>
0.0000

> <Gold.Chemscore.DEClash>
0.0474

> <Gold.Chemscore.DEInternal>
2.4515

> <Gold.Chemscore.Rot>
2.8254

> <Gold.Chemscore.Internal.Correction>
   9.000000E+99

> <Gold.Chemscore.Hbonds>
donor molecule, donor type, donor heavy atom, donor atom, acceptor molecule, acceptor atom, score
      L1  H    23    51       P1  8028  0.86
      P1  H  7989  7998       L1    15  0.55
      P1  H 10752 10765       L1    13  0.37

> <Gold.Chemscore.Hbond.Weighted>
-7.9680

> <Gold.Chemscore.Metal.Weighted>
-0.0000

> <Gold.Chemscore.Lipo.Weighted>
-9.7638

> <Gold.Chemscore.Internal_Hbond.Weighted>
0.0000

> <Gold.Chemscore.DEClash.Weighted>
0.0474

> <Gold.Chemscore.DEInternal.Weighted>
2.4515

> <Gold.Chemscore.Rot.Weighted>
7.2330

> <Gold.Chemscore.Internal.Correction.Weighted>
   9.000000E+99

> <Gold.Protein.RotatedTorsions>
[ 6907 6896 6895 6894 ] final  -24.82 input  -60.11 | X-H torsion
[ 7974 7965 7964 7962 ] final -174.06 input  175.53 | X-H torsion
[ 8008 7997 7996 7995 ] final   61.33 input   59.86 | X-H torsion
[ 10167 10162 10161 10158 ] final -165.40 input  -65.29 | X-H torsion
[ 10718 10713 10712 10709 ] final  132.11 input   66.30 | X-H torsion
[ 10763 10752 10751 10750 ] final  155.35 input  -60.55 | X-H torsion
[ 11005 11000 10999 10996 ] final  -91.49 input  -57.11 | X-H torsion

> <Gold.Protein.ActiveResidues>
 VAL166  LYS551  ARG553  GLY616  TRP617  ASP618  TYR619  PRO620  LYS621  CYS622 
 ASP623  PHE694  ASN695  SER759  ASP760  ASP761  ALA762  ILE779  LEU786  VAL792 
 PHE793  MET794  SER795  GLU796  ALA797  LYS798  CYS799  TRP800  GLU811  SER814 

> <Gold.Protein.RotatedAtoms>
  151.1840  135.0373  159.8804 H   0  0  0  0  0  0  0  0  0  0  0  0  # atno 6907 bound_to 6896
  152.5443  134.1030  159.8336 H   0  0  0  0  0  0  0  0  0  0  0  0  # atno 6908 bound_to 6896
  151.1151  133.5098  159.2636 H   0  0  0  0  0  0  0  0  0  0  0  0  # atno 6909 bound_to 6896
  144.7134  140.1528  143.6383 H   0  0  0  0  0  0  0  0  0  0  0  0  # atno 7974 bound_to 7965
  155.5966  140.3493  155.4581 H   0  0  0  0  0  0  0  0  0  0  0  0  # atno 8008 bound_to 7997
  156.0261  140.1264  157.0332 H   0  0  0  0  0  0  0  0  0  0  0  0  # atno 8009 bound_to 7997
  154.4333  140.1053  156.6018 H   0  0  0  0  0  0  0  0  0  0  0  0  # atno 8010 bound_to 7997
  139.6184  144.0673  152.1910 H   0  0  0  0  0  0  0  0  0  0  0  0  # atno 10167 bound_to 10162
  157.4903  131.1090  150.9566 H   0  0  0  0  0  0  0  0  0  0  0  0  # atno 10718 bound_to 10713
  154.1670  135.2806  155.3092 H   0  0  0  0  0  0  0  0  0  0  0  0  # atno 10763 bound_to 10752
  154.6104  135.5501  153.7470 H   0  0  0  0  0  0  0  0  0  0  0  0  # atno 10764 bound_to 10752
  153.0175  135.6414  154.1811 H   0  0  0  0  0  0  0  0  0  0  0  0  # atno 10765 bound_to 10752
  141.1543  133.7759  156.9887 H   0  0  0  0  0  0  0  0  0  0  0  0  # atno 11005 bound_to 11000
  145.9101  139.2482  143.1442 LP  0  0  0  0  0  0  0  0  0  0  0  0  # atno 17320 bound_to 7965
  145.9725  140.8749  143.0155 LP  0  0  0  0  0  0  0  0  0  0  0  0  # atno 17321 bound_to 7965
  140.0309  144.6082  150.7489 LP  0  0  0  0  0  0  0  0  0  0  0  0  # atno 17342 bound_to 10162
  140.7366  143.2755  151.3755 LP  0  0  0  0  0  0  0  0  0  0  0  0  # atno 17343 bound_to 10162
  157.0270  130.5696  149.5338 LP  0  0  0  0  0  0  0  0  0  0  0  0  # atno 17370 bound_to 10713
  156.0169  130.5264  150.8162 LP  0  0  0  0  0  0  0  0  0  0  0  0  # atno 17371 bound_to 10713
  140.1017  134.9531  157.1933 LP  0  0  0  0  0  0  0  0  0  0  0  0  # atno 17394 bound_to 11000
  140.3309  134.2810  155.7228 LP  0  0  0  0  0  0  0  0  0  0  0  0  # atno 17395 bound_to 11000

$$$$
