#       Name:                AV-unprocessed.smi:1343
#       Creating user name   scv26
#       Creation time:       Fri Mar 27 05:09:09 2020


#       File generated by GOLD software.
#

@<TRIPOS>MOLECULE
AV-unprocessed.smi:1343
    43    45     1
SMALL
NO_CHARGES


@<TRIPOS>ATOM
      1 ****        -0.7958   1.6412   0.0119 O.2            1 S1                 0.0000
      2 ****        -1.3264   0.5740   0.3278 C.2            1 S1                 0.0000
      3 ****        -0.4419  -0.6635   0.5773 C.3            1 S1                 0.0000
      4 ****         1.0256  -0.3604   0.4492 C.2            1 S1                 0.0000
      5 ****         1.8380   0.2093   1.3996 C.2            1 S1                 0.0000
      6 ****         3.4788   0.3808   0.8391 S.3            1 S1                 0.0000
      7 ****         2.9972  -0.3512  -0.6901 C.2            1 S1                 0.0000
      8 ****         3.9006  -0.5765  -1.7710 N.am           1 S1                 0.0000
      9 ****         5.3069  -0.2076  -1.6688 C.3            1 S1                 0.0000
     10 ****         5.8960  -0.6327  -3.0105 C.3            1 S1                 0.0000
     11 ****         4.7437  -1.1759  -3.6901 N.am           1 S1                 0.0000
     12 ****         3.6216  -1.1327  -2.9684 C.2            1 S1                 0.0000
     13 ****         2.5321  -1.5434  -3.3649 O.2            1 S1                 0.0000
     14 ****         1.7006  -0.6790  -0.7333 N.2            1 S1                 0.0000
     15 ****        -2.6694   0.4562   0.4741 N.am           1 S1                 0.0000
     16 ****        -3.3808  -0.7619   0.8878 C.3            1 S1                 0.0000
     17 ****        -3.9260  -0.5591   2.3128 C.3            1 S1                 0.0000
     18 ****        -4.8297   0.6862   2.3813 C.3            1 S1                 0.0000
     19 ****        -4.1446   1.9216   1.7665 C.3            1 S1                 0.0000
     20 ****        -3.5822   1.6028   0.3684 C.3            1 S1                 0.0000
     21 ****        -0.6470  -1.0490   1.5767 H              1 S1                 0.0000
     22 ****        -0.7232  -1.4458  -0.1287 H              1 S1                 0.0000
     23 ****         1.5686   0.5435   2.3904 H              1 S1                 0.0000
     24 ****         5.4122   0.8665  -1.5109 H              1 S1                 0.0000
     25 ****         5.7854  -0.7314  -0.8403 H              1 S1                 0.0000
     26 ****         6.3081   0.2116  -3.5641 H              1 S1                 0.0000
     27 ****         6.6675  -1.3947  -2.8965 H              1 S1                 0.0000
     28 ****         4.7944  -1.5536  -4.6251 H              1 S1                 0.0000
     29 ****        -4.2064  -0.9437   0.1982 H              1 S1                 0.0000
     30 ****        -2.7720  -1.6635   0.8481 H              1 S1                 0.0000
     31 ****        -4.4819  -1.4409   2.6321 H              1 S1                 0.0000
     32 ****        -3.0937  -0.4478   3.0092 H              1 S1                 0.0000
     33 ****        -5.7534   0.4848   1.8375 H              1 S1                 0.0000
     34 ****        -5.1174   0.8877   3.4133 H              1 S1                 0.0000
     35 ****        -4.8516   2.7494   1.7074 H              1 S1                 0.0000
     36 ****        -3.3340   2.2523   2.4174 H              1 S1                 0.0000
     37 ****        -3.1048   2.4905  -0.0486 H              1 S1                 0.0000
     38 ****        -4.3951   1.3557  -0.3157 H              1 S1                 0.0000
     39 ****         0.1984   1.6974  -0.0800 LP             1 S1                 0.0000
     40 ****        -1.3596   2.4506  -0.1524 LP             1 S1                 0.0000
     41 ****         1.7289  -1.4820  -2.7724 LP             1 S1                 0.0000
     42 ****         2.4496  -1.9387  -4.2797 LP             1 S1                 0.0000
     43 ****         1.2623  -1.1052  -1.5246 LP             1 S1                 0.0000
@<TRIPOS>BOND
    1    1    2 2     
    2    2    3 1     
    3    2   15 am    
    4    3    4 1     
    5    3   21 1     
    6    3   22 1     
    7    4   14 1     
    8    4    5 2     
    9    5    6 1     
   10    5   23 1     
   11    6    7 1     
   12    7    8 1     
   13    7   14 2     
   14    8   12 am    
   15    8    9 1     
   16    9   10 1     
   17    9   24 1     
   18    9   25 1     
   19   10   11 1     
   20   10   26 1     
   21   10   27 1     
   22   11   12 am    
   23   11   28 1     
   24   12   13 2     
   25   15   20 1     
   26   15   16 1     
   27   16   17 1     
   28   16   29 1     
   29   16   30 1     
   30   17   18 1     
   31   17   31 1     
   32   17   32 1     
   33   18   19 1     
   34   18   33 1     
   35   18   34 1     
   36   19   20 1     
   37   19   35 1     
   38   19   36 1     
   39   20   37 1     
   40   20   38 1     
   41    1   39 1     
   42    1   40 1     
   43   13   41 1     
   44   13   42 1     
   45   14   43 1     
@<TRIPOS>SUBSTRUCTURE
      1 S1             1
@<TRIPOS>SET
LONE_PAIRS      STATIC     ATOMS    <user>   **** ""
5 39 40 41 42 43
DONOR_HYDROGENS      STATIC     ATOMS    <user>   **** ""
1 28
ATOM$BLUE        STATIC     ATOMS    COLORGROUP SYSTEM
5 39 40 41 42 43
ATOM$RED        STATIC     ATOMS    COLORGROUP SYSTEM
1 28
