AV-unprocessed.smi:2891|AV-procd|sdf|11117|dock9
  -GOLD-   2272015583D 1   1.00000     0.00000
 Structure written by MMmdl.
 35 36  0  0  0  0  0  0  0  0  1 V2000
  154.5728  129.7834  154.4812 C   0  0  0  0  0  0  0  0  0  0  0  0
  153.4789  130.2979  155.2206 O   0  0  0  0  0  0  0  0  0  0  0  0
  152.2693  129.6118  154.9465 C   0  0  0  0  0  0  0  0  0  0  0  0
  151.2182  130.0194  155.9899 C   0  0  0  0  0  0  0  0  0  0  0  0
  150.5774  131.2931  155.6364 N   0  0  0  0  0  0  0  0  0  0  0  0
  149.8208  131.3200  154.4495 C   0  0  0  0  0  0  0  0  0  0  0  0
  149.1785  132.4208  154.0187 C   0  0  0  0  0  0  0  0  0  0  0  0
  148.4506  132.3260  152.8239 N   0  0  0  0  0  0  0  0  0  0  0  0
  147.3789  133.0337  152.4208 C   0  0  0  0  0  0  0  0  0  0  0  0
  146.8170  133.9218  153.0608 O   0  0  0  0  0  0  0  0  0  0  0  0
  146.9804  132.6401  151.2034 N   0  0  0  0  0  0  0  0  0  0  0  0
  145.8691  133.1717  150.4820 C   0  0  0  0  0  0  0  0  0  0  0  0
  145.4726  134.6056  150.7612 C   0  0  0  0  0  0  0  0  0  0  0  0
  144.6084  133.4807  151.2603 C   0  0  0  0  0  0  0  0  0  0  0  0
  149.3023  133.6158  154.8409 C   0  0  0  0  0  0  0  0  0  0  0  0
  150.0169  133.5966  155.9831 C   0  0  0  0  0  0  0  0  0  0  0  0
  150.6988  132.3858  156.4467 C   0  0  0  0  0  0  0  0  0  0  0  0
  151.3384  132.3568  157.4984 O   0  0  0  0  0  0  0  0  0  0  0  0
  155.4760  130.3426  154.7248 H   0  0  0  0  0  0  0  0  0  0  0  0
  154.4006  129.8735  153.4078 H   0  0  0  0  0  0  0  0  0  0  0  0
  154.7514  128.7343  154.7206 H   0  0  0  0  0  0  0  0  0  0  0  0
  151.9197  129.8611  153.9433 H   0  0  0  0  0  0  0  0  0  0  0  0
  152.4383  128.5342  154.9789 H   0  0  0  0  0  0  0  0  0  0  0  0
  150.4725  129.2292  156.0949 H   0  0  0  0  0  0  0  0  0  0  0  0
  151.6889  130.0953  156.9712 H   0  0  0  0  0  0  0  0  0  0  0  0
  149.7905  130.3804  153.9156 H   0  0  0  0  0  0  0  0  0  0  0  0
  148.7844  131.6211  152.1830 H   0  0  0  0  0  0  0  0  0  0  0  0
  147.5013  131.9035  150.7507 H   0  0  0  0  0  0  0  0  0  0  0  0
  145.7269  132.8295  149.4578 H   0  0  0  0  0  0  0  0  0  0  0  0
  146.0511  135.1602  151.4980 H   0  0  0  0  0  0  0  0  0  0  0  0
  145.0974  135.1943  149.9265 H   0  0  0  0  0  0  0  0  0  0  0  0
  143.6570  133.3171  150.7579 H   0  0  0  0  0  0  0  0  0  0  0  0
  144.6086  133.2860  152.3312 H   0  0  0  0  0  0  0  0  0  0  0  0
  148.8365  134.5474  154.5648 H   0  0  0  0  0  0  0  0  0  0  0  0
  150.0930  134.4985  156.5724 H   0  0  0  0  0  0  0  0  0  0  0  0
  1  2  1  0  0  0  0
  1 19  1  0  0  0  0
  1 20  1  0  0  0  0
  1 21  1  0  0  0  0
  2  3  1  0  0  0  0
  3  4  1  0  0  0  0
  3 22  1  0  0  0  0
  3 23  1  0  0  0  0
  4  5  1  0  0  0  0
  4 24  1  0  0  0  0
  4 25  1  0  0  0  0
  5 17  1  0  0  0  0
  5  6  1  0  0  0  0
  6  7  2  0  0  0  0
  6 26  1  0  0  0  0
  7  8  1  0  0  0  0
  7 15  1  0  0  0  0
  8  9  1  0  0  0  0
  8 27  1  0  0  0  0
  9 10  2  0  0  0  0
  9 11  1  0  0  0  0
 11 12  1  0  0  0  0
 11 28  1  0  0  0  0
 12 14  1  0  0  0  0
 12 13  1  0  0  0  0
 12 29  1  0  0  0  0
 13 14  1  0  0  0  0
 13 30  1  0  0  0  0
 13 31  1  0  0  0  0
 14 32  1  0  0  0  0
 14 33  1  0  0  0  0
 15 16  2  0  0  0  0
 15 34  1  0  0  0  0
 16 17  1  0  0  0  0
 16 35  1  0  0  0  0
 17 18  2  0  0  0  0
M  END
> <s_m_source_file>
AV-unprocessed.smi

> <i_m_source_file_index>
2891

> <i_lp_mmshare_version>
43012

> <i_f3d_flags>
0

> <s_epik_input>
W0NIM11PW0NIMl1bQ0gyXW4xW2NIXWMoW2NIXVtjSF1jMT1PKVtOSF1DKD1PKVtOSF1bQ0hdMltDSDJdW0NIMl0y

> <s_epik_cmdline>
J2VwaWtfcHl0aG9uJywgJy1waCcsICc3LjAnLCAnLXRuJywgJzgnLCAnLW1hJywgJzIwMCcsICctbWV0YWxfYmluZGluZycsICctaW1hZScsICc8aW5maWxlLm1hZT4nLCAnLW9tYWUnLCAnPG91dGZpbGUubWFlPic=

> <r_lp_tautomer_probability>
1

> <r_epik_Ionization_Penalty>
2.77726e-05

> <r_epik_Ionization_Penalty_Charging>
5.82689e-06

> <r_epik_Ionization_Penalty_Neutral>
2.19457e-05

> <r_epik_State_Penalty>
-0

> <r_epik_Charging_Adjusted_Penalty>
5.82689e-06

> <i_epik_Tot_Q>
0

> <i_epik_Tot_abs_Q>
0

> <r_epik_Metal_State_Penalty>
-0

> <b_epik_Metal_Only>
0

> <s_lp_Force_Field>
OPLS_2005

> <r_lp_Energy>
28.443

> <b_lp_Chiralities_Consistent>
1

> <s_lp_Variant>
AV-unprocessed.smi:2891-1

> <Gold.Version>
5.8.1

> <Gold.Id.Protein>
6NUR|6NUR_protein|mol2

> <Gold.PLP.Fitness>
41.9289

> <Gold.PLP.PLP>
-34.1540

> <Gold.PLP.part.hbond>
-3.0000

> <Gold.PLP.part.metal>
0.0000

> <Gold.PLP.part.buried>
-5.0380

> <Gold.PLP.part.nonpolar>
-26.8176

> <Gold.PLP.part.repulsive>
0.1814

> <Gold.PLP.ligand.clash>
0.0000

> <Gold.PLP.ligand.torsion>
0.6363

> <Gold.PLP.Chemscore.Hbond>
3.0000

> <Gold.PLP.Chemscore.CHOScore>
0.0000

> <Gold.PLP.Chemscore.Metal>
0.0000

> <Gold.Chemscore.Hbonds>
donor molecule, donor type, donor heavy atom, donor atom, acceptor molecule, acceptor atom, score
      L1  H     8    27       P1 10747  0.98
      L1  H    11    28       P1 10747  1.00
      P1  H  6896  6908       L1    18  1.00

> <Gold.PLP.Chemscore.Internal.Correction>
0.0475

> <Gold.Rescore>
     Score         DG    S(hbond)    S(metal)    S(lipo)     H(rot)  DE(clash)    DE(int)     intcor
     13.77     -17.27       2.70        0.00      60.28       1.67       0.10       3.40       ----

> <Gold.Chemscore.Fitness>
13.7722

> <Gold.Chemscore.DG>
-17.2680

> <Gold.Chemscore.ZeroCoef>
-5.4800

> <Gold.Chemscore.Hbond>
2.7002

> <Gold.Chemscore.Metal>
0.0000

> <Gold.Chemscore.Lipo>
60.2752

> <Gold.Chemscore.Internal_Hbond>
0.0000

> <Gold.Chemscore.DEClash>
0.0962

> <Gold.Chemscore.DEInternal>
3.3996

> <Gold.Chemscore.Rot>
1.6730

> <Gold.Chemscore.Internal.Correction>
   9.000000E+99

> <Gold.Chemscore.Hbonds>
donor molecule, donor type, donor heavy atom, donor atom, acceptor molecule, acceptor atom, score
      L1  H     8    27       P1 10747  0.81
      L1  H    11    28       P1 10747  0.99
      P1  H  6896  6908       L1    18  0.94

> <Gold.Chemscore.Hbond.Weighted>
-9.0186

> <Gold.Chemscore.Metal.Weighted>
-0.0000

> <Gold.Chemscore.Lipo.Weighted>
-7.0522

> <Gold.Chemscore.Internal_Hbond.Weighted>
0.0000

> <Gold.Chemscore.DEClash.Weighted>
0.0962

> <Gold.Chemscore.DEInternal.Weighted>
3.3996

> <Gold.Chemscore.Rot.Weighted>
4.2828

> <Gold.Chemscore.Internal.Correction.Weighted>
   9.000000E+99

> <Gold.Protein.RotatedTorsions>
[ 6907 6896 6895 6894 ] final   62.00 input  -60.11 | X-H torsion
[ 7974 7965 7964 7962 ] final  140.93 input  175.53 | X-H torsion
[ 8008 7997 7996 7995 ] final -149.68 input   59.86 | X-H torsion
[ 10167 10162 10161 10158 ] final -169.19 input  -65.29 | X-H torsion
[ 10718 10713 10712 10709 ] final  -79.25 input   66.30 | X-H torsion
[ 10763 10752 10751 10750 ] final    2.61 input  -60.55 | X-H torsion
[ 11005 11000 10999 10996 ] final -165.74 input  -57.11 | X-H torsion

> <Gold.Protein.ActiveResidues>
 VAL166  LYS551  ARG553  GLY616  TRP617  ASP618  TYR619  PRO620  LYS621  CYS622 
 ASP623  PHE694  ASN695  SER759  ASP760  ASP761  ALA762  ILE779  LEU786  VAL792 
 PHE793  MET794  SER795  GLU796  ALA797  LYS798  CYS799  TRP800  GLU811  SER814 

> <Gold.Protein.RotatedAtoms>
  152.4135  134.6082  160.0018 H   0  0  0  0  0  0  0  0  0  0  0  0  # atno 6907 bound_to 6896
  151.6252  133.3330  159.3105 H   0  0  0  0  0  0  0  0  0  0  0  0  # atno 6908 bound_to 6896
  150.8025  134.7168  159.6680 H   0  0  0  0  0  0  0  0  0  0  0  0  # atno 6909 bound_to 6896
  144.9142  139.5252  143.5694 H   0  0  0  0  0  0  0  0  0  0  0  0  # atno 7974 bound_to 7965
  155.6115  140.0672  157.2705 H   0  0  0  0  0  0  0  0  0  0  0  0  # atno 8008 bound_to 7997
  154.4252  140.1800  156.1325 H   0  0  0  0  0  0  0  0  0  0  0  0  # atno 8009 bound_to 7997
  156.0081  140.3329  155.6916 H   0  0  0  0  0  0  0  0  0  0  0  0  # atno 8010 bound_to 7997
  139.5938  144.1156  152.1665 H   0  0  0  0  0  0  0  0  0  0  0  0  # atno 10167 bound_to 10162
  156.0097  130.4540  150.3620 H   0  0  0  0  0  0  0  0  0  0  0  0  # atno 10718 bound_to 10713
  153.2934  135.6950  153.7271 H   0  0  0  0  0  0  0  0  0  0  0  0  # atno 10763 bound_to 10752
  153.6213  135.3426  155.3012 H   0  0  0  0  0  0  0  0  0  0  0  0  # atno 10764 bound_to 10752
  154.8530  135.4387  154.2024 H   0  0  0  0  0  0  0  0  0  0  0  0  # atno 10765 bound_to 10752
  140.5723  134.5225  157.5164 H   0  0  0  0  0  0  0  0  0  0  0  0  # atno 11005 bound_to 11000
  146.3173  139.7972  142.8973 LP  0  0  0  0  0  0  0  0  0  0  0  0  # atno 17320 bound_to 7965
  145.3403  141.0286  143.3396 LP  0  0  0  0  0  0  0  0  0  0  0  0  # atno 17321 bound_to 7965
  140.0737  144.5758  150.7173 LP  0  0  0  0  0  0  0  0  0  0  0  0  # atno 17342 bound_to 10162
  140.7195  143.2575  151.4326 LP  0  0  0  0  0  0  0  0  0  0  0  0  # atno 17343 bound_to 10162
  157.1708  131.0368  151.2796 LP  0  0  0  0  0  0  0  0  0  0  0  0  # atno 17370 bound_to 10713
  157.4230  130.7448  149.6929 LP  0  0  0  0  0  0  0  0  0  0  0  0  # atno 17371 bound_to 10713
  139.9356  134.7882  156.0813 LP  0  0  0  0  0  0  0  0  0  0  0  0  # atno 17394 bound_to 11000
  141.1048  133.6664  156.2838 LP  0  0  0  0  0  0  0  0  0  0  0  0  # atno 17395 bound_to 11000

$$$$
