AV-unprocessed.smi:2579|AV-procd|sdf|10126|dock1
  -GOLD-   2272014143D 1   1.00000     0.00000
 Structure written by MMmdl.
 38 40  0  0  0  0  0  0  0  0  1 V2000
  151.5561  136.4558  154.1865 O   0  0  0  0  0  0  0  0  0  0  0  0
  151.7399  137.8520  154.0893 C   0  0  0  0  0  0  0  0  0  0  0  0
  152.2104  138.4183  155.4351 C   0  0  0  0  0  0  0  0  0  0  0  0
  151.6663  139.7410  155.6753 N   0  0  0  0  0  0  0  0  0  0  0  0
  151.8412  140.6544  156.7067 C   0  0  0  0  0  0  0  0  0  0  0  0
  152.6169  140.4392  157.7677 N   0  0  0  0  0  0  0  0  0  0  0  0
  152.4472  141.6026  158.4949 C   0  0  0  0  0  0  0  0  0  0  0  0
  153.0026  142.0002  159.7323 C   0  0  0  0  0  0  0  0  0  0  0  0
  152.6764  143.2530  160.2919 C   0  0  0  0  0  0  0  0  0  0  0  0
  151.7912  144.1246  159.6247 C   0  0  0  0  0  0  0  0  0  0  0  0
  151.2274  143.7497  158.3901 C   0  0  0  0  0  0  0  0  0  0  0  0
  151.5572  142.4991  157.8342 C   0  0  0  0  0  0  0  0  0  0  0  0
  151.1893  141.8409  156.6645 N   0  0  0  0  0  0  0  0  0  0  0  0
  150.2893  142.3433  155.6362 C   0  0  0  0  0  0  0  0  0  0  0  0
  149.1611  141.3483  155.3205 C   0  0  1  0  0  0  0  0  0  0  0  0
  147.9681  141.9705  154.5950 C   0  0  0  0  0  0  0  0  0  0  0  0
  147.4015  140.8253  153.7666 C   0  0  0  0  0  0  0  0  0  0  0  0
  148.4251  139.6993  153.9272 C   0  0  0  0  0  0  0  0  0  0  0  0
  149.5909  140.3431  154.4160 O   0  0  0  0  0  0  0  0  0  0  0  0
  151.1392  136.1525  153.3945 H   0  0  0  0  0  0  0  0  0  0  0  0
  152.4369  138.0918  153.2851 H   0  0  0  0  0  0  0  0  0  0  0  0
  150.7790  138.2926  153.8228 H   0  0  0  0  0  0  0  0  0  0  0  0
  151.8634  137.7672  156.2378 H   0  0  0  0  0  0  0  0  0  0  0  0
  153.2988  138.4433  155.4964 H   0  0  0  0  0  0  0  0  0  0  0  0
  151.0210  140.0413  154.9588 H   0  0  0  0  0  0  0  0  0  0  0  0
  153.6808  141.3397  160.2523 H   0  0  0  0  0  0  0  0  0  0  0  0
  153.1068  143.5464  161.2381 H   0  0  0  0  0  0  0  0  0  0  0  0
  151.5457  145.0815  160.0615 H   0  0  0  0  0  0  0  0  0  0  0  0
  150.5491  144.4153  157.8772 H   0  0  0  0  0  0  0  0  0  0  0  0
  149.8669  143.2888  155.9777 H   0  0  0  0  0  0  0  0  0  0  0  0
  150.8648  142.5736  154.7390 H   0  0  0  0  0  0  0  0  0  0  0  0
  148.8209  140.8652  156.2387 H   0  0  0  0  0  0  0  0  0  0  0  0
  147.2391  142.3923  155.2876 H   0  0  0  0  0  0  0  0  0  0  0  0
  148.2986  142.7701  153.9305 H   0  0  0  0  0  0  0  0  0  0  0  0
  146.4162  140.5141  154.1151 H   0  0  0  0  0  0  0  0  0  0  0  0
  147.3084  141.1246  152.7219 H   0  0  0  0  0  0  0  0  0  0  0  0
  148.0830  138.9712  154.6642 H   0  0  0  0  0  0  0  0  0  0  0  0
  148.6229  139.1726  152.9933 H   0  0  0  0  0  0  0  0  0  0  0  0
  1  2  1  0  0  0  0
  1 20  1  0  0  0  0
  2  3  1  0  0  0  0
  2 21  1  0  0  0  0
  2 22  1  0  0  0  0
  3  4  1  0  0  0  0
  3 23  1  0  0  0  0
  3 24  1  0  0  0  0
  4  5  1  0  0  0  0
  4 25  1  0  0  0  0
  5 13  1  0  0  0  0
  5  6  2  0  0  0  0
  6  7  1  0  0  0  0
  7 12  2  0  0  0  0
  7  8  1  0  0  0  0
  8  9  2  0  0  0  0
  8 26  1  0  0  0  0
  9 10  1  0  0  0  0
  9 27  1  0  0  0  0
 10 11  2  0  0  0  0
 10 28  1  0  0  0  0
 11 12  1  0  0  0  0
 11 29  1  0  0  0  0
 12 13  1  0  0  0  0
 13 14  1  0  0  0  0
 14 15  1  0  0  0  0
 14 30  1  0  0  0  0
 14 31  1  0  0  0  0
 15 19  1  0  0  0  0
 15 16  1  0  0  0  0
 15 32  1  0  0  0  0
 16 17  1  0  0  0  0
 16 33  1  0  0  0  0
 16 34  1  0  0  0  0
 17 18  1  0  0  0  0
 17 35  1  0  0  0  0
 17 36  1  0  0  0  0
 18 19  1  0  0  0  0
 18 37  1  0  0  0  0
 18 38  1  0  0  0  0
M  END
> <s_m_source_file>
AV-unprocessed.smi

> <i_m_source_file_index>
2579

> <i_lp_mmshare_version>
43012

> <i_f3d_flags>
0

> <s_epik_input>
W09IXVtDSDJdW0NIMl1bTkhdYyhuMSluKGMoYzEyKVtjSF1bY0hdW2NIXVtjSF0yKVtDSDJdW0NAQEhdM1tDSDJdW0NIMl1bQ0gyXU8z

> <s_epik_cmdline>
J2VwaWtfcHl0aG9uJywgJy1waCcsICc3LjAnLCAnLXRuJywgJzgnLCAnLW1hJywgJzIwMCcsICctbWV0YWxfYmluZGluZycsICctaW1hZScsICc8aW5maWxlLm1hZT4nLCAnLW9tYWUnLCAnPG91dGZpbGUubWFlPic=

> <r_epik_Ionization_Penalty>
1.27244

> <r_epik_Ionization_Penalty_Charging>
0

> <r_epik_Ionization_Penalty_Neutral>
1.27244

> <r_epik_State_Penalty>
1.34401

> <r_epik_Charging_Adjusted_Penalty>
1.34401

> <i_epik_Tot_Q>
0

> <i_epik_Tot_abs_Q>
0

> <r_epik_Metal_State_Penalty>
0.00511131

> <b_epik_Metal_Only>
0

> <s_lp_Force_Field>
OPLS_2005

> <r_lp_Energy>
20.6152

> <b_lp_Chiralities_Consistent>
1

> <s_lp_Variant>
AV-unprocessed.smi:2579-4

> <Gold.Version>
5.8.1

> <Gold.Id.Protein>
6NUR|6NUR_protein|mol2

> <Gold.PLP.Fitness>
45.7475

> <Gold.PLP.PLP>
-37.4556

> <Gold.PLP.part.hbond>
-3.6868

> <Gold.PLP.part.metal>
0.0000

> <Gold.PLP.part.buried>
0.2199

> <Gold.PLP.part.nonpolar>
-33.0253

> <Gold.PLP.part.repulsive>
0.2688

> <Gold.PLP.ligand.clash>
0.0827

> <Gold.PLP.ligand.torsion>
0.4832

> <Gold.PLP.Chemscore.Hbond>
3.0819

> <Gold.PLP.Chemscore.CHOScore>
0.0000

> <Gold.PLP.Chemscore.Metal>
0.0000

> <Gold.Chemscore.Hbonds>
donor molecule, donor type, donor heavy atom, donor atom, acceptor molecule, acceptor atom, score
      L1  H     1    20       P1  7949  0.99
      P1  H  7989  7998       L1    19  0.29
      P1  H  7997  8008       L1     6  0.76
      P1  H 10752 10763       L1     1  1.00

> <Gold.PLP.Chemscore.Internal.Correction>
0.0952

> <Gold.Rescore>
     Score         DG    S(hbond)    S(metal)    S(lipo)     H(rot)  DE(clash)    DE(int)     intcor
     13.77     -19.68       1.81        0.00     117.28       2.17       2.66       3.25       ----

> <Gold.Chemscore.Fitness>
13.7704

> <Gold.Chemscore.DG>
-19.6810

> <Gold.Chemscore.ZeroCoef>
-5.4800

> <Gold.Chemscore.Hbond>
1.8058

> <Gold.Chemscore.Metal>
0.0000

> <Gold.Chemscore.Lipo>
117.2800

> <Gold.Chemscore.Internal_Hbond>
0.0000

> <Gold.Chemscore.DEClash>
2.6599

> <Gold.Chemscore.DEInternal>
3.2507

> <Gold.Chemscore.Rot>
2.1688

> <Gold.Chemscore.Internal.Correction>
   9.000000E+99

> <Gold.Chemscore.Hbonds>
donor molecule, donor type, donor heavy atom, donor atom, acceptor molecule, acceptor atom, score
      L1  H     1    20       P1  7949  0.32
      P1  H  7989  7998       L1    19  0.22
      P1  H  7997  8008       L1     6  0.18
      P1  H 10752 10763       L1     1  0.19

> <Gold.Chemscore.Hbond.Weighted>
-6.0314

> <Gold.Chemscore.Metal.Weighted>
-0.0000

> <Gold.Chemscore.Lipo.Weighted>
-13.7218

> <Gold.Chemscore.Internal_Hbond.Weighted>
0.0000

> <Gold.Chemscore.DEClash.Weighted>
2.6599

> <Gold.Chemscore.DEInternal.Weighted>
3.2507

> <Gold.Chemscore.Rot.Weighted>
5.5522

> <Gold.Chemscore.Internal.Correction.Weighted>
   9.000000E+99

> <Gold.Protein.RotatedTorsions>
[ 6907 6896 6895 6894 ] final   83.75 input  -60.11 | X-H torsion
[ 7974 7965 7964 7962 ] final -150.95 input  175.53 | X-H torsion
[ 8008 7997 7996 7995 ] final  -70.75 input   59.86 | X-H torsion
[ 10167 10162 10161 10158 ] final  -78.98 input  -65.29 | X-H torsion
[ 10718 10713 10712 10709 ] final  -96.74 input   66.30 | X-H torsion
[ 10763 10752 10751 10750 ] final   28.03 input  -60.55 | X-H torsion
[ 11005 11000 10999 10996 ] final -102.93 input  -57.11 | X-H torsion

> <Gold.Protein.ActiveResidues>
 VAL166  LYS551  ARG553  GLY616  TRP617  ASP618  TYR619  PRO620  LYS621  CYS622 
 ASP623  PHE694  ASN695  SER759  ASP760  ASP761  ALA762  ILE779  LEU786  VAL792 
 PHE793  MET794  SER795  GLU796  ALA797  LYS798  CYS799  TRP800  GLU811  SER814 

> <Gold.Protein.RotatedAtoms>
  152.5335  134.2848  159.9020 H   0  0  0  0  0  0  0  0  0  0  0  0  # atno 6907 bound_to 6896
  151.2801  133.4207  159.2634 H   0  0  0  0  0  0  0  0  0  0  0  0  # atno 6908 bound_to 6896
  151.0291  134.9541  159.8158 H   0  0  0  0  0  0  0  0  0  0  0  0  # atno 6909 bound_to 6896
  144.7878  140.4863  143.5794 H   0  0  0  0  0  0  0  0  0  0  0  0  # atno 7974 bound_to 7965
  154.5035  140.0828  156.7847 H   0  0  0  0  0  0  0  0  0  0  0  0  # atno 8008 bound_to 7997
  155.3947  140.3434  155.4235 H   0  0  0  0  0  0  0  0  0  0  0  0  # atno 8009 bound_to 7997
  156.1487  140.1551  156.8793 H   0  0  0  0  0  0  0  0  0  0  0  0  # atno 8010 bound_to 7997
  140.4634  143.2447  151.8314 H   0  0  0  0  0  0  0  0  0  0  0  0  # atno 10167 bound_to 10162
  156.0068  130.5164  150.6270 H   0  0  0  0  0  0  0  0  0  0  0  0  # atno 10718 bound_to 10713
  153.0518  135.6523  154.0675 H   0  0  0  0  0  0  0  0  0  0  0  0  # atno 10763 bound_to 10752
  154.0362  135.2907  155.3363 H   0  0  0  0  0  0  0  0  0  0  0  0  # atno 10764 bound_to 10752
  154.6811  135.5320  153.8330 H   0  0  0  0  0  0  0  0  0  0  0  0  # atno 10765 bound_to 10752
  141.1168  133.8598  157.1422 H   0  0  0  0  0  0  0  0  0  0  0  0  # atno 11005 bound_to 11000
  145.5876  139.1493  143.3200 LP  0  0  0  0  0  0  0  0  0  0  0  0  # atno 17320 bound_to 7965
  146.2117  140.6003  142.9056 LP  0  0  0  0  0  0  0  0  0  0  0  0  # atno 17321 bound_to 7965
  139.4809  144.4980  151.9098 LP  0  0  0  0  0  0  0  0  0  0  0  0  # atno 17342 bound_to 10162
  140.4066  144.2424  150.5890 LP  0  0  0  0  0  0  0  0  0  0  0  0  # atno 17343 bound_to 10162
  157.4075  131.0819  151.1252 LP  0  0  0  0  0  0  0  0  0  0  0  0  # atno 17370 bound_to 10713
  157.1894  130.6345  149.5699 LP  0  0  0  0  0  0  0  0  0  0  0  0  # atno 17371 bound_to 10713
  140.0096  134.9994  157.0366 LP  0  0  0  0  0  0  0  0  0  0  0  0  # atno 17394 bound_to 11000
  140.4623  134.1471  155.7193 LP  0  0  0  0  0  0  0  0  0  0  0  0  # atno 17395 bound_to 11000

$$$$
