AV-unprocessed.smi:170|AV-procd|sdf|1409|dock4
  -GOLD-   2262019163D 1   1.00000     0.00000
 Structure written by MMmdl.
 57 61  0  0  0  0  0  0  0  0  1 V2000
  150.9983  143.2552  156.5305 O   0  0  0  0  0  0  0  0  0  0  0  0
  151.2153  142.9122  157.8864 C   0  0  1  0  0  0  0  0  0  0  0  0
  151.9302  141.5517  157.9963 C   0  0  0  0  0  0  0  0  0  0  0  0
  151.0105  140.4331  157.8937 N   0  0  0  0  0  0  0  0  0  0  0  0
  149.6802  140.4869  157.5474 C   0  0  0  0  0  0  0  0  0  0  0  0
  149.0660  139.3357  157.5277 N   0  0  0  0  0  0  0  0  0  0  0  0
  150.0484  138.4166  157.8795 C   0  0  0  0  0  0  0  0  0  0  0  0
  150.0838  137.0003  158.0415 C   0  0  0  0  0  0  0  0  0  0  0  0
  149.0368  136.1615  157.8565 N   0  0  0  0  0  0  0  0  0  0  0  0
  149.2244  135.3688  156.6466 C   0  0  0  0  0  0  0  0  0  0  0  0
  147.9471  134.5843  156.3184 C   0  0  0  0  0  0  0  0  0  0  0  0
  147.5987  133.7793  157.4361 O   0  0  0  0  0  0  0  0  0  0  0  0
  147.3182  134.5646  158.5892 C   0  0  0  0  0  0  0  0  0  0  0  0
  148.5639  135.3807  159.0076 C   0  0  2  0  0  0  0  0  0  0  0  0
  148.2643  136.2666  160.2454 C   0  0  0  0  0  0  0  0  0  0  0  0
  147.8823  135.4748  161.4941 C   0  0  0  0  0  0  0  0  0  0  0  0
  146.5302  134.7479  161.5501 C   0  0  0  0  0  0  0  0  0  0  0  0
  146.4665  135.0782  163.0441 C   0  0  0  0  0  0  0  0  0  0  0  0
  147.4476  136.2196  162.7659 C   0  0  0  0  0  0  0  0  0  0  0  0
  151.2552  136.4374  158.4299 N   0  0  0  0  0  0  0  0  0  0  0  0
  152.3338  137.2012  158.6280 C   0  0  0  0  0  0  0  0  0  0  0  0
  152.4559  138.5241  158.4993 N   0  0  0  0  0  0  0  0  0  0  0  0
  151.2762  139.0953  158.1222 C   0  0  0  0  0  0  0  0  0  0  0  0
  151.9731  144.0435  158.6093 C   0  0  2  0  0  0  0  0  0  0  0  0
  152.6706  143.6641  159.9269 C   0  0  0  0  0  0  0  0  0  0  0  0
  152.2195  144.7405  160.9021 C   0  0  0  0  0  0  0  0  0  0  0  0
  151.6984  145.8461  159.9915 C   0  0  0  0  0  0  0  0  0  0  0  0
  151.1045  145.1254  158.9252 O   0  0  0  0  0  0  0  0  0  0  0  0
  150.1335  143.6285  156.4538 H   0  0  0  0  0  0  0  0  0  0  0  0
  150.2301  142.8227  158.3463 H   0  0  0  0  0  0  0  0  0  0  0  0
  152.6882  141.4500  157.2185 H   0  0  0  0  0  0  0  0  0  0  0  0
  152.4522  141.4768  158.9510 H   0  0  0  0  0  0  0  0  0  0  0  0
  149.1754  141.4128  157.3125 H   0  0  0  0  0  0  0  0  0  0  0  0
  149.4824  136.0140  155.8056 H   0  0  0  0  0  0  0  0  0  0  0  0
  150.0582  134.6799  156.7907 H   0  0  0  0  0  0  0  0  0  0  0  0
  147.1266  135.2578  156.0655 H   0  0  0  0  0  0  0  0  0  0  0  0
  148.1119  133.9413  155.4540 H   0  0  0  0  0  0  0  0  0  0  0  0
  146.4675  135.2198  158.3943 H   0  0  0  0  0  0  0  0  0  0  0  0
  147.0177  133.8833  159.3846 H   0  0  0  0  0  0  0  0  0  0  0  0
  149.3424  134.6643  159.2678 H   0  0  0  0  0  0  0  0  0  0  0  0
  149.1303  136.8810  160.4889 H   0  0  0  0  0  0  0  0  0  0  0  0
  147.4708  136.9734  159.9996 H   0  0  0  0  0  0  0  0  0  0  0  0
  148.6624  134.7583  161.7578 H   0  0  0  0  0  0  0  0  0  0  0  0
  145.7509  135.2512  160.9754 H   0  0  0  0  0  0  0  0  0  0  0  0
  146.5751  133.6832  161.3193 H   0  0  0  0  0  0  0  0  0  0  0  0
  145.4863  135.3944  163.4017 H   0  0  0  0  0  0  0  0  0  0  0  0
  146.8959  134.2948  163.6708 H   0  0  0  0  0  0  0  0  0  0  0  0
  148.2324  136.3423  163.5129 H   0  0  0  0  0  0  0  0  0  0  0  0
  146.9448  137.1645  162.5520 H   0  0  0  0  0  0  0  0  0  0  0  0
  153.2278  136.6770  158.9326 H   0  0  0  0  0  0  0  0  0  0  0  0
  152.7293  144.4414  157.9301 H   0  0  0  0  0  0  0  0  0  0  0  0
  152.4043  142.6713  160.2902 H   0  0  0  0  0  0  0  0  0  0  0  0
  153.7532  143.6842  159.7972 H   0  0  0  0  0  0  0  0  0  0  0  0
  151.4042  144.3595  161.5184 H   0  0  0  0  0  0  0  0  0  0  0  0
  153.0161  145.0781  161.5655 H   0  0  0  0  0  0  0  0  0  0  0  0
  150.9805  146.4996  160.4872 H   0  0  0  0  0  0  0  0  0  0  0  0
  152.5177  146.4574  159.6096 H   0  0  0  0  0  0  0  0  0  0  0  0
  1  2  1  0  0  0  0
  1 29  1  0  0  0  0
  2  3  1  0  0  0  0
  2 24  1  0  0  0  0
  2 30  1  0  0  0  0
  3  4  1  0  0  0  0
  3 31  1  0  0  0  0
  3 32  1  0  0  0  0
  4 23  1  0  0  0  0
  4  5  1  0  0  0  0
  5  6  2  0  0  0  0
  5 33  1  0  0  0  0
  6  7  1  0  0  0  0
  7 23  2  0  0  0  0
  7  8  1  0  0  0  0
  8  9  1  0  0  0  0
  8 20  2  0  0  0  0
  9 14  1  0  0  0  0
  9 10  1  0  0  0  0
 10 11  1  0  0  0  0
 10 34  1  0  0  0  0
 10 35  1  0  0  0  0
 11 12  1  0  0  0  0
 11 36  1  0  0  0  0
 11 37  1  0  0  0  0
 12 13  1  0  0  0  0
 13 14  1  0  0  0  0
 13 38  1  0  0  0  0
 13 39  1  0  0  0  0
 14 15  1  0  0  0  0
 14 40  1  0  0  0  0
 15 16  1  0  0  0  0
 15 41  1  0  0  0  0
 15 42  1  0  0  0  0
 16 19  1  0  0  0  0
 16 17  1  0  0  0  0
 16 43  1  0  0  0  0
 17 18  1  0  0  0  0
 17 44  1  0  0  0  0
 17 45  1  0  0  0  0
 18 19  1  0  0  0  0
 18 46  1  0  0  0  0
 18 47  1  0  0  0  0
 19 48  1  0  0  0  0
 19 49  1  0  0  0  0
 20 21  1  0  0  0  0
 21 22  2  0  0  0  0
 21 50  1  0  0  0  0
 22 23  1  0  0  0  0
 24 28  1  0  0  0  0
 24 25  1  0  0  0  0
 24 51  1  0  0  0  0
 25 26  1  0  0  0  0
 25 52  1  0  0  0  0
 25 53  1  0  0  0  0
 26 27  1  0  0  0  0
 26 54  1  0  0  0  0
 26 55  1  0  0  0  0
 27 28  1  0  0  0  0
 27 56  1  0  0  0  0
 27 57  1  0  0  0  0
M  END
> <s_m_source_file>
AV-unprocessed.smi

> <i_m_source_file_index>
170

> <i_lp_mmshare_version>
43012

> <i_f3d_flags>
0

> <s_epik_input>
TzFbQ0gyXVtDSDJdW0NIMl1bQ0BIXTFbQ0BIXShbT0hdKVtDSDJdbihbY0hdbjIpYyhjMjMpbltjSF1uYzNONFtDSDJdW0NIMl1PW0NIMl1bQ0BIXTRbQ0gyXVtDSF01W0NIMl1bQ0gyXVtDSDJdNQ==

> <s_epik_cmdline>
J2VwaWtfcHl0aG9uJywgJy1waCcsICc3LjAnLCAnLXRuJywgJzgnLCAnLW1hJywgJzIwMCcsICctbWV0YWxfYmluZGluZycsICctaW1hZScsICc8aW5maWxlLm1hZT4nLCAnLW9tYWUnLCAnPG91dGZpbGUubWFlPic=

> <r_lp_tautomer_probability>
1

> <r_epik_Ionization_Penalty>
4.98275e-05

> <r_epik_Ionization_Penalty_Charging>
0

> <r_epik_Ionization_Penalty_Neutral>
4.98275e-05

> <r_epik_State_Penalty>
-0

> <r_epik_Charging_Adjusted_Penalty>
0

> <i_epik_Tot_Q>
0

> <i_epik_Tot_abs_Q>
0

> <r_epik_Metal_State_Penalty>
-0

> <b_epik_Metal_Only>
0

> <s_lp_Force_Field>
OPLS_2005

> <r_lp_Energy>
52.3548

> <b_lp_Chiralities_Consistent>
1

> <s_lp_Variant>
AV-unprocessed.smi:170-4

> <Gold.Version>
5.8.1

> <Gold.Id.Protein>
6NUR|6NUR_protein|mol2

> <Gold.PLP.Fitness>
48.5748

> <Gold.PLP.PLP>
-45.3514

> <Gold.PLP.part.hbond>
-2.0000

> <Gold.PLP.part.metal>
0.0000

> <Gold.PLP.part.buried>
-7.4888

> <Gold.PLP.part.nonpolar>
-36.5911

> <Gold.PLP.part.repulsive>
0.1424

> <Gold.PLP.ligand.clash>
0.0000

> <Gold.PLP.ligand.torsion>
0.9001

> <Gold.PLP.Chemscore.Hbond>
1.5242

> <Gold.PLP.Chemscore.CHOScore>
0.0000

> <Gold.PLP.Chemscore.Metal>
0.0000

> <Gold.Chemscore.Hbonds>
donor molecule, donor type, donor heavy atom, donor atom, acceptor molecule, acceptor atom, score
      L1  H     1    29       P1  8028  1.00
      P1  H  6896  6909       L1    20  0.61

> <Gold.PLP.Chemscore.Internal.Correction>
0.4511

> <Gold.Rescore>
     Score         DG    S(hbond)    S(metal)    S(lipo)     H(rot)  DE(clash)    DE(int)     intcor
     16.91     -18.13       1.54        0.00     121.45       2.61       0.20       1.02       ----

> <Gold.Chemscore.Fitness>
16.9056

> <Gold.Chemscore.DG>
-18.1304

> <Gold.Chemscore.ZeroCoef>
-5.4800

> <Gold.Chemscore.Hbond>
1.5369

> <Gold.Chemscore.Metal>
0.0000

> <Gold.Chemscore.Lipo>
121.4542

> <Gold.Chemscore.Internal_Hbond>
0.0000

> <Gold.Chemscore.DEClash>
0.2009

> <Gold.Chemscore.DEInternal>
1.0239

> <Gold.Chemscore.Rot>
2.6144

> <Gold.Chemscore.Internal.Correction>
   9.000000E+99

> <Gold.Chemscore.Hbonds>
donor molecule, donor type, donor heavy atom, donor atom, acceptor molecule, acceptor atom, score
      L1  H     1    29       P1  8028  0.97
      P1  H  6896  6909       L1    20  0.47

> <Gold.Chemscore.Hbond.Weighted>
-5.1332

> <Gold.Chemscore.Metal.Weighted>
-0.0000

> <Gold.Chemscore.Lipo.Weighted>
-14.2101

> <Gold.Chemscore.Internal_Hbond.Weighted>
0.0000

> <Gold.Chemscore.DEClash.Weighted>
0.2009

> <Gold.Chemscore.DEInternal.Weighted>
1.0239

> <Gold.Chemscore.Rot.Weighted>
6.6929

> <Gold.Chemscore.Internal.Correction.Weighted>
   9.000000E+99

> <Gold.Protein.RotatedTorsions>
[ 6907 6896 6895 6894 ] final   81.51 input  -60.11 | X-H torsion
[ 7974 7965 7964 7962 ] final   -0.48 input  175.53 | X-H torsion
[ 8008 7997 7996 7995 ] final   64.84 input   59.86 | X-H torsion
[ 10167 10162 10161 10158 ] final  152.41 input  -65.29 | X-H torsion
[ 10718 10713 10712 10709 ] final  171.28 input   66.30 | X-H torsion
[ 10763 10752 10751 10750 ] final    8.03 input  -60.55 | X-H torsion
[ 11005 11000 10999 10996 ] final  -41.59 input  -57.11 | X-H torsion

> <Gold.Protein.ActiveResidues>
 VAL166  LYS551  ARG553  GLY616  TRP617  ASP618  TYR619  PRO620  LYS621  CYS622 
 ASP623  PHE694  ASN695  SER759  ASP760  ASP761  ALA762  ILE779  LEU786  VAL792 
 PHE793  MET794  SER795  GLU796  ALA797  LYS798  CYS799  TRP800  GLU811  SER814 

> <Gold.Protein.RotatedAtoms>
  152.5270  134.3193  159.9142 H   0  0  0  0  0  0  0  0  0  0  0  0  # atno 6907 bound_to 6896
  151.3142  133.4061  159.2657 H   0  0  0  0  0  0  0  0  0  0  0  0  # atno 6908 bound_to 6896
  151.0013  134.9341  159.8012 H   0  0  0  0  0  0  0  0  0  0  0  0  # atno 6909 bound_to 6896
  146.2427  140.1276  142.8338 H   0  0  0  0  0  0  0  0  0  0  0  0  # atno 7974 bound_to 7965
  155.6523  140.3497  155.4753 H   0  0  0  0  0  0  0  0  0  0  0  0  # atno 8008 bound_to 7997
  155.9837  140.1179  157.0726 H   0  0  0  0  0  0  0  0  0  0  0  0  # atno 8009 bound_to 7997
  154.4199  140.1133  156.5457 H   0  0  0  0  0  0  0  0  0  0  0  0  # atno 8010 bound_to 7997
  139.4833  144.5360  151.7644 H   0  0  0  0  0  0  0  0  0  0  0  0  # atno 10167 bound_to 10162
  156.9958  131.0161  151.2844 H   0  0  0  0  0  0  0  0  0  0  0  0  # atno 10718 bound_to 10713
  153.2296  135.6891  153.7905 H   0  0  0  0  0  0  0  0  0  0  0  0  # atno 10763 bound_to 10752
  153.7074  135.3287  155.3239 H   0  0  0  0  0  0  0  0  0  0  0  0  # atno 10764 bound_to 10752
  154.8308  135.4582  154.1176 H   0  0  0  0  0  0  0  0  0  0  0  0  # atno 10765 bound_to 10752
  141.0257  133.6842  156.2478 H   0  0  0  0  0  0  0  0  0  0  0  0  # atno 11005 bound_to 11000
  145.0354  140.8903  143.5084 LP  0  0  0  0  0  0  0  0  0  0  0  0  # atno 17320 bound_to 7965
  145.1347  139.2610  143.5521 LP  0  0  0  0  0  0  0  0  0  0  0  0  # atno 17321 bound_to 7965
  140.4893  144.1335  150.5947 LP  0  0  0  0  0  0  0  0  0  0  0  0  # atno 17342 bound_to 10162
  140.4190  143.2621  151.9739 LP  0  0  0  0  0  0  0  0  0  0  0  0  # atno 17343 bound_to 10162
  157.5426  130.8130  149.8047 LP  0  0  0  0  0  0  0  0  0  0  0  0  # atno 17370 bound_to 10713
  156.0190  130.3803  150.2021 LP  0  0  0  0  0  0  0  0  0  0  0  0  # atno 17371 bound_to 10713
  140.6496  134.5081  157.5576 LP  0  0  0  0  0  0  0  0  0  0  0  0  # atno 17394 bound_to 11000
  139.9174  134.8218  156.1321 LP  0  0  0  0  0  0  0  0  0  0  0  0  # atno 17395 bound_to 11000

$$$$
