AV-unprocessed.smi:72|AV-procd|sdf|682|dock6
  -GOLD-   2262016593D 1   1.00000     0.00000
 Structure written by MMmdl.
 29 30  0  0  0  0  0  0  0  0  1 V2000
  149.4546  133.6644  157.7877 N   0  0  0  0  0  0  0  0  0  0  0  0
  149.6160  134.7017  157.0473 C   0  0  0  0  0  0  0  0  0  0  0  0
  149.3958  134.7531  155.6627 N   0  0  0  0  0  0  0  0  0  0  0  0
  149.5998  135.8752  155.0436 C   0  0  0  0  0  0  0  0  0  0  0  0
  150.0544  137.0716  155.7351 N   0  0  0  0  0  0  0  0  0  0  0  0
  150.2776  138.3681  154.9847 C   0  0  1  0  0  0  0  0  0  0  0  0
  149.7308  139.4190  155.7251 O   0  0  0  0  0  0  0  0  0  0  0  0
  150.6024  140.5413  155.6639 C   0  0  1  0  0  0  0  0  0  0  0  0
  150.3195  141.5224  156.8155 C   0  0  0  0  0  0  0  0  0  0  0  0
  150.8461  142.7973  156.5142 O   0  0  0  0  0  0  0  0  0  0  0  0
  152.0058  139.9194  155.6042 C   0  0  1  0  0  0  0  0  0  0  0  0
  152.4807  139.5995  156.9012 O   0  0  0  0  0  0  0  0  0  0  0  0
  151.7702  138.6829  154.7405 C   0  0  1  0  0  0  0  0  0  0  0  0
  152.6777  137.6258  155.0049 O   0  0  0  0  0  0  0  0  0  0  0  0
  150.2713  137.0384  157.1347 C   0  0  0  0  0  0  0  0  0  0  0  0
  150.6339  138.0253  157.7746 O   0  0  0  0  0  0  0  0  0  0  0  0
  150.0472  135.8467  157.7293 N   0  0  0  0  0  0  0  0  0  0  0  0
  149.7140  138.2913  154.0541 H   0  0  0  0  0  0  0  0  0  0  0  0
  150.4042  141.0424  154.7143 H   0  0  0  0  0  0  0  0  0  0  0  0
  152.7244  140.5977  155.1427 H   0  0  0  0  0  0  0  0  0  0  0  0
  151.8679  138.9622  153.6906 H   0  0  0  0  0  0  0  0  0  0  0  0
  149.1445  132.8836  157.2270 H   0  0  0  0  0  0  0  0  0  0  0  0
  149.4437  135.9939  153.9709 H   0  0  0  0  0  0  0  0  0  0  0  0
  149.2436  141.6217  156.9614 H   0  0  0  0  0  0  0  0  0  0  0  0
  150.7338  141.1655  157.7587 H   0  0  0  0  0  0  0  0  0  0  0  0
  150.1269  143.3987  156.3948 H   0  0  0  0  0  0  0  0  0  0  0  0
  151.7372  139.4050  157.4513 H   0  0  0  0  0  0  0  0  0  0  0  0
  153.5434  137.9915  155.1036 H   0  0  0  0  0  0  0  0  0  0  0  0
  150.1920  135.7860  158.7266 H   0  0  0  0  0  0  0  0  0  0  0  0
  1  2  2  0  0  0  0
  1 22  1  0  0  0  0
  2 17  1  0  0  0  0
  2  3  1  0  0  0  0
  3  4  2  0  0  0  0
  4  5  1  0  0  0  0
  4 23  1  0  0  0  0
  5  6  1  0  0  0  0
  5 15  1  0  0  0  0
  6 18  1  0  0  0  0
  6 13  1  0  0  0  0
  6  7  1  0  0  0  0
  7  8  1  0  0  0  0
  8 19  1  0  0  0  0
  8  9  1  0  0  0  0
  8 11  1  0  0  0  0
  9 10  1  0  0  0  0
  9 24  1  0  0  0  0
  9 25  1  0  0  0  0
 10 26  1  0  0  0  0
 11 20  1  0  0  0  0
 11 12  1  0  0  0  0
 11 13  1  0  0  0  0
 12 27  1  0  0  0  0
 13 21  1  0  0  0  0
 13 14  1  0  0  0  0
 14 28  1  0  0  0  0
 15 16  2  0  0  0  0
 15 17  1  0  0  0  0
 17 29  1  0  0  0  0
M  END
> <s_m_source_file>
AV-unprocessed.smi

> <i_m_source_file_index>
72

> <i_lp_mmshare_version>
43012

> <i_f3d_flags>
0

> <s_epik_input>
W05IMl1jMW5bY0hdbihjKD1PKW4xKVtDQEBIXTJPW0NASF0oW0NIMl1bT0hdKVtDQEBIXShbT0hdKVtDQEhdMltPSF0=

> <s_epik_cmdline>
J2VwaWtfcHl0aG9uJywgJy1waCcsICc3LjAnLCAnLXRuJywgJzgnLCAnLW1hJywgJzIwMCcsICctbWV0YWxfYmluZGluZycsICctaW1hZScsICc8aW5maWxlLm1hZT4nLCAnLW9tYWUnLCAnPG91dGZpbGUubWFlPic=

> <r_lp_tautomer_probability>
7.17554e-07

> <r_epik_Ionization_Penalty>
0.0066451

> <r_epik_Ionization_Penalty_Charging>
0.00663793

> <r_epik_Ionization_Penalty_Neutral>
7.17052e-06

> <r_epik_State_Penalty>
0.419231

> <r_epik_Charging_Adjusted_Penalty>
0.425868

> <i_epik_Tot_Q>
0

> <i_epik_Tot_abs_Q>
0

> <r_epik_Metal_State_Penalty>
1.44144

> <b_epik_Metal_Only>
0

> <s_epik_Chemistry_Notes>
This compound contains an acetal/aminal-like group ( X-CH(R)-Y where X, Y are N, S, or O) that may be acid/base labile, releasing an aldehyde.

> <s_lp_Force_Field>
OPLS_2005

> <r_lp_Energy>
48.5612

> <b_lp_Chiralities_Consistent>
1

> <s_lp_Variant>
AV-unprocessed.smi:72-20

> <Gold.Version>
5.8.1

> <Gold.Id.Protein>
6NUR|6NUR_protein|mol2

> <Gold.PLP.Fitness>
33.3883

> <Gold.PLP.PLP>
-21.2773

> <Gold.PLP.part.hbond>
-4.0000

> <Gold.PLP.part.metal>
0.0000

> <Gold.PLP.part.buried>
-2.2551

> <Gold.PLP.part.nonpolar>
-15.0733

> <Gold.PLP.part.repulsive>
0.2602

> <Gold.PLP.ligand.clash>
0.0000

> <Gold.PLP.ligand.torsion>
0.6172

> <Gold.PLP.Chemscore.Hbond>
3.4480

> <Gold.PLP.Chemscore.CHOScore>
1.0000

> <Gold.PLP.Chemscore.Metal>
0.0000

> <Gold.Chemscore.Hbonds>
donor molecule, donor type, donor heavy atom, donor atom, acceptor molecule, acceptor atom, score
      L1  H    10    26       P1  8028  1.00
      P1  H  6896  6908       L1     1  0.96
      P1  H  7997  8008       L1    12  0.90
      P1  H 10752 10765       L1    14  0.44
      L1  C     4    23       P1  7948  1.00

> <Gold.PLP.Chemscore.Internal.Correction>
0.0015

> <Gold.Rescore>
     Score         DG    S(hbond)    S(metal)    S(lipo)     H(rot)  DE(clash)    DE(int)     intcor
      3.70      -8.95       3.11        0.00      29.67       4.06       1.46       3.79       ----

> <Gold.Chemscore.Fitness>
3.7040

> <Gold.Chemscore.DG>
-8.9548

> <Gold.Chemscore.ZeroCoef>
-5.4800

> <Gold.Chemscore.Hbond>
3.1130

> <Gold.Chemscore.Metal>
0.0000

> <Gold.Chemscore.Lipo>
29.6682

> <Gold.Chemscore.Internal_Hbond>
0.0000

> <Gold.Chemscore.DEClash>
1.4617

> <Gold.Chemscore.DEInternal>
3.7891

> <Gold.Chemscore.Rot>
4.0600

> <Gold.Chemscore.Internal.Correction>
   9.000000E+99

> <Gold.Chemscore.Hbonds>
donor molecule, donor type, donor heavy atom, donor atom, acceptor molecule, acceptor atom, score
      L1  H    10    26       P1  8028  0.99
      P1  H  6896  6908       L1     1  0.62
      P1  H  7997  8008       L1    12  0.18
      P1  H 10752 10765       L1    14  0.21

> <Gold.Chemscore.Hbond.Weighted>
-10.3973

> <Gold.Chemscore.Metal.Weighted>
-0.0000

> <Gold.Chemscore.Lipo.Weighted>
-3.4712

> <Gold.Chemscore.Internal_Hbond.Weighted>
0.0000

> <Gold.Chemscore.DEClash.Weighted>
1.4617

> <Gold.Chemscore.DEInternal.Weighted>
3.7891

> <Gold.Chemscore.Rot.Weighted>
10.3936

> <Gold.Chemscore.Internal.Correction.Weighted>
   9.000000E+99

> <Gold.Protein.RotatedTorsions>
[ 6907 6896 6895 6894 ] final  107.55 input  -60.11 | X-H torsion
[ 7974 7965 7964 7962 ] final   -3.91 input  175.53 | X-H torsion
[ 8008 7997 7996 7995 ] final  -59.98 input   59.86 | X-H torsion
[ 10167 10162 10161 10158 ] final  -60.38 input  -65.29 | X-H torsion
[ 10718 10713 10712 10709 ] final   10.26 input   66.30 | X-H torsion
[ 10763 10752 10751 10750 ] final  174.19 input  -60.55 | X-H torsion
[ 11005 11000 10999 10996 ] final   40.10 input  -57.11 | X-H torsion

> <Gold.Protein.ActiveResidues>
 VAL166  LYS551  ARG553  GLY616  TRP617  ASP618  TYR619  PRO620  LYS621  CYS622 
 ASP623  PHE694  ASN695  SER759  ASP760  ASP761  ALA762  ILE779  LEU786  VAL792 
 PHE793  MET794  SER795  GLU796  ALA797  LYS798  CYS799  TRP800  GLU811  SER814 

> <Gold.Protein.RotatedAtoms>
  152.5149  133.9218  159.7537 H   0  0  0  0  0  0  0  0  0  0  0  0  # atno 6907 bound_to 6896
  150.9588  133.6460  159.2765 H   0  0  0  0  0  0  0  0  0  0  0  0  # atno 6908 bound_to 6896
  151.3712  135.0928  159.9519 H   0  0  0  0  0  0  0  0  0  0  0  0  # atno 6909 bound_to 6896
  146.2381  140.1792  142.8332 H   0  0  0  0  0  0  0  0  0  0  0  0  # atno 7974 bound_to 7965
  154.4377  140.1049  156.6201 H   0  0  0  0  0  0  0  0  0  0  0  0  # atno 8008 bound_to 7997
  155.5716  140.3489  155.4498 H   0  0  0  0  0  0  0  0  0  0  0  0  # atno 8009 bound_to 7997
  156.0385  140.1276  157.0170 H   0  0  0  0  0  0  0  0  0  0  0  0  # atno 8010 bound_to 7997
  140.6075  143.2377  151.5788 H   0  0  0  0  0  0  0  0  0  0  0  0  # atno 10167 bound_to 10162
  156.9784  130.5996  149.5674 H   0  0  0  0  0  0  0  0  0  0  0  0  # atno 10718 bound_to 10713
  154.4504  135.2764  155.1785 H   0  0  0  0  0  0  0  0  0  0  0  0  # atno 10763 bound_to 10752
  154.3614  135.6128  153.5696 H   0  0  0  0  0  0  0  0  0  0  0  0  # atno 10764 bound_to 10752
  152.9847  135.5835  154.4848 H   0  0  0  0  0  0  0  0  0  0  0  0  # atno 10765 bound_to 10752
  140.1963  134.3925  155.8119 H   0  0  0  0  0  0  0  0  0  0  0  0  # atno 11005 bound_to 11000
  144.9949  140.8580  143.5317 LP  0  0  0  0  0  0  0  0  0  0  0  0  # atno 17320 bound_to 7965
  145.1803  139.2356  143.5296 LP  0  0  0  0  0  0  0  0  0  0  0  0  # atno 17321 bound_to 7965
  139.5336  144.2846  152.1201 LP  0  0  0  0  0  0  0  0  0  0  0  0  # atno 17342 bound_to 10162
  140.2039  144.4631  150.6418 LP  0  0  0  0  0  0  0  0  0  0  0  0  # atno 17343 bound_to 10162
  156.0254  130.5348  150.8392 LP  0  0  0  0  0  0  0  0  0  0  0  0  # atno 17370 bound_to 10713
  157.5543  131.0944  150.9650 LP  0  0  0  0  0  0  0  0  0  0  0  0  # atno 17371 bound_to 10713
  141.2227  133.7071  156.8182 LP  0  0  0  0  0  0  0  0  0  0  0  0  # atno 17394 bound_to 11000
  140.2103  134.8832  157.3267 LP  0  0  0  0  0  0  0  0  0  0  0  0  # atno 17395 bound_to 11000

$$$$
