#       Name:                AV-unprocessed.smi:1487
#       Creating user name   scv26
#       Creation time:       Fri Mar 27 06:12:04 2020


#       File generated by GOLD software.
#

@<TRIPOS>MOLECULE
AV-unprocessed.smi:1487
    53    55     1
SMALL
NO_CHARGES


@<TRIPOS>ATOM
      1 ****        -3.3369   4.7195  -2.5713 C.3            1 S1                 0.0000
      2 ****        -3.0214   3.5763  -1.6216 C.ar           1 S1                 0.0000
      3 ****        -3.3130   3.7409  -0.2487 C.ar           1 S1                 0.0000
      4 ****        -3.0162   2.6769   0.5944 C.ar           1 S1                 0.0000
      5 ****        -3.1833   2.5277   1.9728 N.pl3          1 S1                 1.0000
      6 ****        -2.7429   1.2967   2.3531 C.2            1 S1                 0.0000
      7 ****        -2.2948   0.6585   1.2376 N.pl3          1 S1                 0.0000
      8 ****        -1.7151  -0.6832   1.0884 C.3            1 S1                 0.0000
      9 ****        -0.1732  -0.6739   1.0801 C.3            1 S1                 0.0000
     10 ****         0.2876  -0.0743   2.2769 O.3            1 S1                 0.0000
     11 ****         0.3985  -2.1028   0.9810 C.3            1 S1                 0.0000
     12 ****         1.8777  -2.1232   0.8442 N.4            1 S1                 1.0000
     13 ****         2.3479  -1.8235  -0.5340 C.3            1 S1                 0.0000
     14 ****         3.8779  -1.6846  -0.5727 C.3            1 S1                 0.0000
     15 ****         4.5599  -2.9507  -0.0344 C.3            1 S1                 0.0000
     16 ****         4.0180  -3.3210   1.3563 C.3            1 S1                 0.0000
     17 ****         4.4661  -2.3936   2.3253 O.3            1 S1                 0.0000
     18 ****         2.4780  -3.3777   1.3703 C.3            1 S1                 0.0000
     19 ****        -2.4465   1.4808   0.1162 C.ar           1 S1                 0.0000
     20 ****        -2.1500   1.3026  -1.2329 C.ar           1 S1                 0.0000
     21 ****        -2.4474   2.3726  -2.1074 C.ar           1 S1                 0.0000
     22 ****        -2.1417   2.2064  -3.5864 C.3            1 S1                 0.0000
     23 ****        -3.7921   5.5599  -2.0463 H              1 S1                 0.0000
     24 ****        -4.0325   4.3944  -3.3452 H              1 S1                 0.0000
     25 ****        -2.4272   5.0802  -3.0518 H              1 S1                 0.0000
     26 ****        -3.7498   4.6544   0.1280 H              1 S1                 0.0000
     27 ****        -2.7438   0.9001   3.3584 H              1 S1                 0.0000
     28 ****        -2.0852  -1.2895   1.9165 H              1 S1                 0.0000
     29 ****        -2.1103  -1.1333   0.1769 H              1 S1                 0.0000
     30 ****         0.1665  -0.0656   0.2424 H              1 S1                 0.0000
     31 ****         1.2217   0.0550   2.2177 H              1 S1                 0.0000
     32 ****         0.1008  -2.6529   1.8752 H              1 S1                 0.0000
     33 ****        -0.0453  -2.6356   0.1387 H              1 S1                 0.0000
     34 ****         2.0251  -2.6157  -1.2114 H              1 S1                 0.0000
     35 ****         1.9006  -0.8990  -0.8972 H              1 S1                 0.0000
     36 ****         4.2089  -1.4907  -1.5934 H              1 S1                 0.0000
     37 ****         4.1821  -0.8200   0.0188 H              1 S1                 0.0000
     38 ****         4.3715  -3.7762  -0.7221 H              1 S1                 0.0000
     39 ****         5.6421  -2.8183  -0.0040 H              1 S1                 0.0000
     40 ****         4.4126  -4.2956   1.6459 H              1 S1                 0.0000
     41 ****         5.4105  -2.4264   2.3603 H              1 S1                 0.0000
     42 ****         2.1306  -3.5631   2.3878 H              1 S1                 0.0000
     43 ****         2.1331  -4.2171   0.7640 H              1 S1                 0.0000
     44 ****        -1.7143   0.3864  -1.6025 H              1 S1                 0.0000
     45 ****        -1.6768   1.2421  -3.7929 H              1 S1                 0.0000
     46 ****        -1.4582   2.9843  -3.9276 H              1 S1                 0.0000
     47 ****        -3.0577   2.2672  -4.1747 H              1 S1                 0.0000
     48 ****         2.2280  -1.3875   1.4409 H              1 S1                 0.0000
     49 ****        -3.5692   3.2134   2.6095 H              1 S1                 0.0000
     50 ****         0.0805  -0.6713   3.0520 LP             1 S1                 0.0000
     51 ****        -0.1652   0.8080   2.4055 LP             1 S1                 0.0000
     52 ****         4.0874  -2.6315   3.2197 LP             1 S1                 0.0000
     53 ****         4.1701  -1.4725   2.0723 LP             1 S1                 0.0000
@<TRIPOS>BOND
    1    1    2 1     
    2    1   23 1     
    3    1   24 1     
    4    1   25 1     
    5    2   21 ar    
    6    2    3 ar    
    7    3    4 ar    
    8    3   26 1     
    9    4   19 ar    
   10    4    5 1     
   11    5    6 2     
   12    5   49 1     
   13    6    7 1     
   14    6   27 1     
   15    7    8 1     
   16    7   19 1     
   17    8    9 1     
   18    8   28 1     
   19    8   29 1     
   20    9   10 1     
   21    9   11 1     
   22    9   30 1     
   23   10   31 1     
   24   11   12 1     
   25   11   32 1     
   26   11   33 1     
   27   12   18 1     
   28   12   13 1     
   29   12   48 1     
   30   13   14 1     
   31   13   34 1     
   32   13   35 1     
   33   14   15 1     
   34   14   36 1     
   35   14   37 1     
   36   15   16 1     
   37   15   38 1     
   38   15   39 1     
   39   16   17 1     
   40   16   18 1     
   41   16   40 1     
   42   17   41 1     
   43   18   42 1     
   44   18   43 1     
   45   19   20 ar    
   46   20   21 ar    
   47   20   44 1     
   48   21   22 1     
   49   22   45 1     
   50   22   46 1     
   51   22   47 1     
   52   10   50 1     
   53   10   51 1     
   54   17   52 1     
   55   17   53 1     
@<TRIPOS>SUBSTRUCTURE
      1 S1             1
@<TRIPOS>SET
LONE_PAIRS      STATIC     ATOMS    <user>   **** ""
4 50 51 52 53
DONOR_HYDROGENS      STATIC     ATOMS    <user>   **** ""
4 49 31 48 41
ATOM$BLUE        STATIC     ATOMS    COLORGROUP SYSTEM
4 50 51 52 53
ATOM$RED        STATIC     ATOMS    COLORGROUP SYSTEM
4 49 31 48 41
