#       Name:                AV-unprocessed.smi:2035
#       Creating user name   scv26
#       Creation time:       Fri Mar 27 10:54:12 2020


#       File generated by GOLD software.
#

@<TRIPOS>MOLECULE
AV-unprocessed.smi:2035
    39    40     1
SMALL
NO_CHARGES


@<TRIPOS>ATOM
      1 ****         1.2085   0.9105   0.3467 O.2            1 S1                 0.0000
      2 ****         0.8824  -0.1726  -0.1389 C.2            1 S1                 0.0000
      3 ****         1.7182  -1.1988  -0.3740 N.am           1 S1                 0.0000
      4 ****         3.1145  -1.2692  -0.1201 C.ar           1 S1                 0.0000
      5 ****         3.6830  -2.5472   0.0763 C.ar           1 S1                 0.0000
      6 ****         5.0669  -2.6624   0.3197 C.ar           1 S1                 0.0000
      7 ****         5.8386  -1.5547   0.3514 N.pl3          1 S1                 1.0000
      8 ****         5.3438  -0.3141   0.1520 C.ar           1 S1                 0.0000
      9 ****         3.9671  -0.1364  -0.0951 C.ar           1 S1                 0.0000
     10 ****        -0.3767  -0.4835  -0.4791 N.am           1 S1                 0.0000
     11 ****        -1.5398   0.3927  -0.3383 C.3            1 S1                 0.0000
     12 ****        -2.0593   0.3777   1.1228 C.3            1 S1                 0.0000
     13 ****        -3.5473   0.7359   1.3181 C.3            1 S1                 0.0000
     14 ****        -3.9951   2.0737   0.6953 C.3            1 S1                 0.0000
     15 ****        -3.7198   2.2634  -0.8156 C.3            1 S1                 0.0000
     16 ****        -3.5914   1.0159  -1.5680 N.am           1 S1                 0.0000
     17 ****        -2.6021   0.1178  -1.4202 C.2            1 S1                 0.0000
     18 ****        -2.5520  -0.9016  -2.1073 O.2            1 S1                 0.0000
     19 ****         1.2897  -2.0545  -0.6956 H              1 S1                 0.0000
     20 ****         3.0653  -3.4335   0.0501 H              1 S1                 0.0000
     21 ****         5.5757  -3.6004   0.4877 H              1 S1                 0.0000
     22 ****         6.0598   0.4939   0.1900 H              1 S1                 0.0000
     23 ****         3.5936   0.8610  -0.2714 H              1 S1                 0.0000
     24 ****        -0.5533  -1.3955  -0.8750 H              1 S1                 0.0000
     25 ****        -1.1819   1.4019  -0.5463 H              1 S1                 0.0000
     26 ****        -1.9044  -0.6139   1.5506 H              1 S1                 0.0000
     27 ****        -1.4468   1.0530   1.7215 H              1 S1                 0.0000
     28 ****        -4.1682  -0.0701   0.9250 H              1 S1                 0.0000
     29 ****        -3.7615   0.7598   2.3869 H              1 S1                 0.0000
     30 ****        -5.0684   2.1700   0.8631 H              1 S1                 0.0000
     31 ****        -3.5411   2.9004   1.2425 H              1 S1                 0.0000
     32 ****        -4.5229   2.8518  -1.2599 H              1 S1                 0.0000
     33 ****        -2.8176   2.8591  -0.9584 H              1 S1                 0.0000
     34 ****        -4.2971   0.8291  -2.2659 H              1 S1                 0.0000
     35 ****         6.8382  -1.6595   0.5282 H              1 S1                 0.0000
     36 ****         2.1614   1.0786   0.5994 LP             1 S1                 0.0000
     37 ****         0.5206   1.6223   0.4885 LP             1 S1                 0.0000
     38 ****        -1.8157  -1.5635  -1.9669 LP             1 S1                 0.0000
     39 ****        -3.2475  -1.0682  -2.8061 LP             1 S1                 0.0000
@<TRIPOS>BOND
    1    1    2 2     
    2    2    3 am    
    3    2   10 am    
    4    3    4 1     
    5    3   19 1     
    6    4    9 ar    
    7    4    5 ar    
    8    5    6 ar    
    9    5   20 1     
   10    6    7 ar    
   11    6   21 1     
   12    7    8 ar    
   13    7   35 1     
   14    8    9 ar    
   15    8   22 1     
   16    9   23 1     
   17   10   11 1     
   18   10   24 1     
   19   11   17 1     
   20   11   12 1     
   21   11   25 1     
   22   12   13 1     
   23   12   26 1     
   24   12   27 1     
   25   13   14 1     
   26   13   28 1     
   27   13   29 1     
   28   14   15 1     
   29   14   30 1     
   30   14   31 1     
   31   15   16 1     
   32   15   32 1     
   33   15   33 1     
   34   16   17 am    
   35   16   34 1     
   36   17   18 2     
   37    1   36 1     
   38    1   37 1     
   39   18   38 1     
   40   18   39 1     
@<TRIPOS>SUBSTRUCTURE
      1 S1             1
@<TRIPOS>SET
LONE_PAIRS      STATIC     ATOMS    <user>   **** ""
4 36 37 38 39
DONOR_HYDROGENS      STATIC     ATOMS    <user>   **** ""
4 19 35 24 34
ATOM$BLUE        STATIC     ATOMS    COLORGROUP SYSTEM
4 36 37 38 39
ATOM$RED        STATIC     ATOMS    COLORGROUP SYSTEM
4 19 35 24 34
