AV-unprocessed.smi:3091|AV-procd|sdf|11778|dock9
  -GOLD-   2272017163D 1   1.00000     0.00000
 Structure written by MMmdl.
 29 30  0  0  0  0  0  0  0  0  2 V2000
  149.3484  138.3269  153.5059 N   0  3  0  0  0  0  0  0  0  0  0  0
  150.6388  138.3384  154.2131 C   0  0  0  0  0  0  0  0  0  0  0  0
  150.7285  139.5301  155.1438 C   0  0  0  0  0  0  0  0  0  0  0  0
  149.7605  140.5532  155.0964 C   0  0  0  0  0  0  0  0  0  0  0  0
  149.8934  141.6421  155.9800 C   0  0  0  0  0  0  0  0  0  0  0  0
  150.9036  141.7551  156.8679 N   0  0  0  0  0  0  0  0  0  0  0  0
  151.8359  140.7712  156.9129 C   0  0  0  0  0  0  0  0  0  0  0  0
  152.8748  140.8698  157.8176 O   0  0  0  0  0  0  0  0  0  0  0  0
  152.5976  141.2217  159.1749 C   0  0  2  0  0  0  0  0  0  0  0  0
  152.1776  142.6818  159.2860 C   0  0  0  0  0  0  0  0  0  0  0  0
  153.5117  143.3973  159.4381 C   0  0  0  0  0  0  0  0  0  0  0  0
  154.2393  142.5307  160.2913 O   0  0  0  0  0  0  0  0  0  0  0  0
  153.9199  141.1837  159.9563 C   0  0  0  0  0  0  0  0  0  0  0  0
  151.7865  139.6425  156.0690 C   0  0  0  0  0  0  0  0  0  0  0  0
  149.0804  137.3741  153.3052 H   0  0  0  0  0  0  0  0  0  0  0  0
  149.4353  138.8430  152.6420 H   0  0  0  0  0  0  0  0  0  0  0  0
  150.7487  137.4131  154.7797 H   0  0  0  0  0  0  0  0  0  0  0  0
  151.4500  138.3703  153.4850 H   0  0  0  0  0  0  0  0  0  0  0  0
  148.9333  140.5089  154.4029 H   0  0  0  0  0  0  0  0  0  0  0  0
  149.1698  142.4437  155.9726 H   0  0  0  0  0  0  0  0  0  0  0  0
  151.8723  140.5436  159.6274 H   0  0  0  0  0  0  0  0  0  0  0  0
  151.5971  143.0428  158.4368 H   0  0  0  0  0  0  0  0  0  0  0  0
  151.5804  142.8264  160.1871 H   0  0  0  0  0  0  0  0  0  0  0  0
  154.0219  143.4804  158.4772 H   0  0  0  0  0  0  0  0  0  0  0  0
  153.4124  144.3949  159.8662 H   0  0  0  0  0  0  0  0  0  0  0  0
  153.8277  140.5991  160.8721 H   0  0  0  0  0  0  0  0  0  0  0  0
  154.7241  140.7464  159.3632 H   0  0  0  0  0  0  0  0  0  0  0  0
  152.5485  138.8794  156.1355 H   0  0  0  0  0  0  0  0  0  0  0  0
  148.6452  138.7609  154.0865 H   0  0  0  0  0  0  0  0  0  0  0  0
  1  2  1  0  0  0  0
  1 15  1  0  0  0  0
  1 16  1  0  0  0  0
  1 29  1  0  0  0  0
  2  3  1  0  0  0  0
  2 17  1  0  0  0  0
  2 18  1  0  0  0  0
  3 14  1  0  0  0  0
  3  4  2  0  0  0  0
  4  5  1  0  0  0  0
  4 19  1  0  0  0  0
  5  6  2  0  0  0  0
  5 20  1  0  0  0  0
  6  7  1  0  0  0  0
  7  8  1  0  0  0  0
  7 14  2  0  0  0  0
  8  9  1  0  0  0  0
  9 13  1  0  0  0  0
  9 10  1  0  0  0  0
  9 21  1  0  0  0  0
 10 11  1  0  0  0  0
 10 22  1  0  0  0  0
 10 23  1  0  0  0  0
 11 12  1  0  0  0  0
 11 24  1  0  0  0  0
 11 25  1  0  0  0  0
 12 13  1  0  0  0  0
 13 26  1  0  0  0  0
 13 27  1  0  0  0  0
 14 28  1  0  0  0  0
M  CHG  1   1   1
M  END
> <s_m_source_file>
AV-unprocessed.smi

> <i_m_source_file_index>
3091

> <i_lp_mmshare_version>
43012

> <i_f3d_flags>
0

> <s_epik_input>
W05IMl1bQ0gyXWMxW2NIXVtjSF1uYyhbY0hdMSlPW0NAQEhdMltDSDJdW0NIMl1PW0NIMl0y

> <s_epik_cmdline>
J2VwaWtfcHl0aG9uJywgJy1waCcsICc3LjAnLCAnLXRuJywgJzgnLCAnLW1hJywgJzIwMCcsICctbWV0YWxfYmluZGluZycsICctaW1hZScsICc8aW5maWxlLm1hZT4nLCAnLW9tYWUnLCAnPG91dGZpbGUubWFlPic=

> <r_lp_tautomer_probability>
1

> <r_epik_Ionization_Penalty>
0.0773124

> <r_epik_Ionization_Penalty_Charging>
0.0773118

> <r_epik_Ionization_Penalty_Neutral>
5.92883e-07

> <r_epik_State_Penalty>
0.0682686

> <r_epik_Charging_Adjusted_Penalty>
0.14558

> <i_epik_Tot_Q>
1

> <i_epik_Tot_abs_Q>
1

> <r_epik_Metal_State_Penalty>
0.0682821

> <b_epik_Metal_Only>
0

> <s_lp_Force_Field>
OPLS_2005

> <r_lp_Energy>
12.9222

> <b_lp_Chiralities_Consistent>
1

> <s_lp_Variant>
AV-unprocessed.smi:3091-1

> <Gold.Version>
5.8.1

> <Gold.Id.Protein>
6NUR|6NUR_protein|mol2

> <Gold.PLP.Fitness>
41.5948

> <Gold.PLP.PLP>
-30.1247

> <Gold.PLP.part.hbond>
-3.0000

> <Gold.PLP.part.metal>
0.0000

> <Gold.PLP.part.buried>
-0.9629

> <Gold.PLP.part.nonpolar>
-24.5839

> <Gold.PLP.part.repulsive>
0.1516

> <Gold.PLP.ligand.clash>
0.0000

> <Gold.PLP.ligand.torsion>
0.2734

> <Gold.PLP.Chemscore.Hbond>
3.0000

> <Gold.PLP.Chemscore.CHOScore>
1.0000

> <Gold.PLP.Chemscore.Metal>
0.0000

> <Gold.Chemscore.Hbonds>
donor molecule, donor type, donor heavy atom, donor atom, acceptor molecule, acceptor atom, score
      L1  H     1    15       P1  7948  1.54
      L1  H     1    16       P1  7957  1.00
      L1  C     5    20       P1  8028  1.00

> <Gold.PLP.Chemscore.Internal.Correction>
0.0168

> <Gold.Rescore>
     Score         DG    S(hbond)    S(metal)    S(lipo)     H(rot)  DE(clash)    DE(int)     intcor
     14.61     -16.76       1.96        0.00      75.21       1.59       0.08       2.07       ----

> <Gold.Chemscore.Fitness>
14.6100

> <Gold.Chemscore.DG>
-16.7623

> <Gold.Chemscore.ZeroCoef>
-5.4800

> <Gold.Chemscore.Hbond>
1.9637

> <Gold.Chemscore.Metal>
0.0000

> <Gold.Chemscore.Lipo>
75.2145

> <Gold.Chemscore.Internal_Hbond>
0.0000

> <Gold.Chemscore.DEClash>
0.0806

> <Gold.Chemscore.DEInternal>
2.0717

> <Gold.Chemscore.Rot>
1.5924

> <Gold.Chemscore.Internal.Correction>
   9.000000E+99

> <Gold.Chemscore.Hbonds>
donor molecule, donor type, donor heavy atom, donor atom, acceptor molecule, acceptor atom, score
      L1  H     1    15       P1  7948  0.76
      L1  H     1    16       P1  7957  0.90

> <Gold.Chemscore.Hbond.Weighted>
-6.5588

> <Gold.Chemscore.Metal.Weighted>
-0.0000

> <Gold.Chemscore.Lipo.Weighted>
-8.8001

> <Gold.Chemscore.Internal_Hbond.Weighted>
0.0000

> <Gold.Chemscore.DEClash.Weighted>
0.0806

> <Gold.Chemscore.DEInternal.Weighted>
2.0717

> <Gold.Chemscore.Rot.Weighted>
4.0765

> <Gold.Chemscore.Internal.Correction.Weighted>
   9.000000E+99

> <Gold.Protein.RotatedTorsions>
[ 6907 6896 6895 6894 ] final  -54.15 input  -60.11 | X-H torsion
[ 7974 7965 7964 7962 ] final  -14.87 input  175.53 | X-H torsion
[ 8008 7997 7996 7995 ] final  -20.84 input   59.86 | X-H torsion
[ 10167 10162 10161 10158 ] final -162.93 input  -65.29 | X-H torsion
[ 10718 10713 10712 10709 ] final -165.13 input   66.30 | X-H torsion
[ 10763 10752 10751 10750 ] final   55.04 input  -60.55 | X-H torsion
[ 11005 11000 10999 10996 ] final   57.16 input  -57.11 | X-H torsion

> <Gold.Protein.ActiveResidues>
 VAL166  LYS551  ARG553  GLY616  TRP617  ASP618  TYR619  PRO620  LYS621  CYS622 
 ASP623  PHE694  ASN695  SER759  ASP760  ASP761  ALA762  ILE779  LEU786  VAL792 
 PHE793  MET794  SER795  GLU796  ALA797  LYS798  CYS799  TRP800  GLU811  SER814 

> <Gold.Protein.RotatedAtoms>
  150.8363  134.7638  159.6895 H   0  0  0  0  0  0  0  0  0  0  0  0  # atno 6907 bound_to 6896
  152.4459  134.5491  159.9871 H   0  0  0  0  0  0  0  0  0  0  0  0  # atno 6908 bound_to 6896
  151.5641  133.3361  159.3012 H   0  0  0  0  0  0  0  0  0  0  0  0  # atno 6909 bound_to 6896
  146.2056  140.3411  142.8408 H   0  0  0  0  0  0  0  0  0  0  0  0  # atno 7974 bound_to 7965
  154.4743  140.2051  155.9916 H   0  0  0  0  0  0  0  0  0  0  0  0  # atno 8008 bound_to 7997
  156.1064  140.3236  155.7982 H   0  0  0  0  0  0  0  0  0  0  0  0  # atno 8009 bound_to 7997
  155.4710  140.0531  157.2970 H   0  0  0  0  0  0  0  0  0  0  0  0  # atno 8010 bound_to 7997
  139.6357  144.0355  152.2052 H   0  0  0  0  0  0  0  0  0  0  0  0  # atno 10167 bound_to 10162
  156.6489  130.8999  151.3010 H   0  0  0  0  0  0  0  0  0  0  0  0  # atno 10718 bound_to 10713
  152.9812  135.5724  154.5002 H   0  0  0  0  0  0  0  0  0  0  0  0  # atno 10763 bound_to 10752
  154.4522  135.2779  155.1775 H   0  0  0  0  0  0  0  0  0  0  0  0  # atno 10764 bound_to 10752
  154.3397  135.6232  153.5644 H   0  0  0  0  0  0  0  0  0  0  0  0  # atno 10765 bound_to 10752
  140.0473  134.5787  155.9306 H   0  0  0  0  0  0  0  0  0  0  0  0  # atno 11005 bound_to 11000
  144.8785  140.7368  143.6002 LP  0  0  0  0  0  0  0  0  0  0  0  0  # atno 17320 bound_to 7965
  145.3331  139.1754  143.4526 LP  0  0  0  0  0  0  0  0  0  0  0  0  # atno 17321 bound_to 7965
  140.0032  144.6278  150.7712 LP  0  0  0  0  0  0  0  0  0  0  0  0  # atno 17342 bound_to 10162
  140.7464  143.2890  151.3384 LP  0  0  0  0  0  0  0  0  0  0  0  0  # atno 17343 bound_to 10162
  157.7147  130.9483  150.1213 LP  0  0  0  0  0  0  0  0  0  0  0  0  # atno 17370 bound_to 10713
  156.2100  130.3666  149.8682 LP  0  0  0  0  0  0  0  0  0  0  0  0  # atno 17371 bound_to 10713
  141.1913  133.6571  156.5452 LP  0  0  0  0  0  0  0  0  0  0  0  0  # atno 17394 bound_to 11000
  140.3973  134.7388  157.4758 LP  0  0  0  0  0  0  0  0  0  0  0  0  # atno 17395 bound_to 11000

$$$$
