AV-unprocessed.smi:967|AV-procd|sdf|4285|dock2
  -GOLD-   22720 2193D 1   1.00000     0.00000
 Structure written by MMmdl.
 43 44  0  0  0  0  0  0  0  0  2 V2000
  151.0591  131.0942  158.8113 C   0  0  0  0  0  0  0  0  0  0  0  0
  151.7940  131.8737  157.8263 N   0  0  0  0  0  0  0  0  0  0  0  0
  152.9947  131.2534  157.2872 C   0  0  0  0  0  0  0  0  0  0  0  0
  150.9688  132.4177  156.8325 C   0  0  0  0  0  0  0  0  0  0  0  0
  150.2929  131.5925  155.9104 C   0  0  0  0  0  0  0  0  0  0  0  0
  149.4724  132.1823  154.9273 C   0  0  0  0  0  0  0  0  0  0  0  0
  149.3284  133.5860  154.8833 C   0  0  0  0  0  0  0  0  0  0  0  0
  148.5004  134.1335  153.8664 N   0  0  0  0  0  0  0  0  0  0  0  0
  147.3566  133.6404  153.3613 C   0  0  0  0  0  0  0  0  0  0  0  0
  146.8301  132.5806  153.6995 O   0  0  0  0  0  0  0  0  0  0  0  0
  146.8624  134.4492  152.4127 N   0  0  0  0  0  0  0  0  0  0  0  0
  145.6514  134.2160  151.6301 C   0  0  2  0  0  0  0  0  0  0  0  0
  145.7955  132.9034  150.8359 C   0  0  0  0  0  0  0  0  0  0  0  0
  144.5868  132.6622  149.9173 C   0  0  0  0  0  0  0  0  0  0  0  0
  144.3603  133.8566  148.9748 C   0  0  1  0  0  0  0  0  0  0  0  0
  143.2064  133.6295  148.1940 O   0  0  0  0  0  0  0  0  0  0  0  0
  144.1957  135.1634  149.7695 C   0  0  0  0  0  0  0  0  0  0  0  0
  145.4049  135.4094  150.6866 C   0  0  0  0  0  0  0  0  0  0  0  0
  150.0401  134.3657  155.8279 C   0  0  0  0  0  0  0  0  0  0  0  0
  150.8179  133.7610  156.7523 N   0  3  0  0  0  0  0  0  0  0  0  0
  150.1914  131.6463  159.1745 H   0  0  0  0  0  0  0  0  0  0  0  0
  151.6971  130.8701  159.6665 H   0  0  0  0  0  0  0  0  0  0  0  0
  150.7148  130.1508  158.3859 H   0  0  0  0  0  0  0  0  0  0  0  0
  153.4787  131.9086  156.5619 H   0  0  0  0  0  0  0  0  0  0  0  0
  152.7594  130.3088  156.7955 H   0  0  0  0  0  0  0  0  0  0  0  0
  153.7073  131.0535  158.0878 H   0  0  0  0  0  0  0  0  0  0  0  0
  150.4010  130.5183  155.9534 H   0  0  0  0  0  0  0  0  0  0  0  0
  148.9533  131.5560  154.2162 H   0  0  0  0  0  0  0  0  0  0  0  0
  148.8467  134.9772  153.4332 H   0  0  0  0  0  0  0  0  0  0  0  0
  147.3722  135.2953  152.2042 H   0  0  0  0  0  0  0  0  0  0  0  0
  144.7846  134.1216  152.2870 H   0  0  0  0  0  0  0  0  0  0  0  0
  146.7037  132.9348  150.2322 H   0  0  0  0  0  0  0  0  0  0  0  0
  145.9091  132.0625  151.5211 H   0  0  0  0  0  0  0  0  0  0  0  0
  144.7410  131.7507  149.3382 H   0  0  0  0  0  0  0  0  0  0  0  0
  143.6975  132.4958  150.5271 H   0  0  0  0  0  0  0  0  0  0  0  0
  145.2104  133.9495  148.2975 H   0  0  0  0  0  0  0  0  0  0  0  0
  142.4827  133.4476  148.7738 H   0  0  0  0  0  0  0  0  0  0  0  0
  144.0737  136.0051  149.0868 H   0  0  0  0  0  0  0  0  0  0  0  0
  143.2878  135.1195  150.3729 H   0  0  0  0  0  0  0  0  0  0  0  0
  145.2454  136.3187  151.2675 H   0  0  0  0  0  0  0  0  0  0  0  0
  146.2901  135.5859  150.0737 H   0  0  0  0  0  0  0  0  0  0  0  0
  150.0320  135.4441  155.8786 H   0  0  0  0  0  0  0  0  0  0  0  0
  151.3172  134.3471  157.4214 H   0  0  0  0  0  0  0  0  0  0  0  0
  1  2  1  0  0  0  0
  1 21  1  0  0  0  0
  1 22  1  0  0  0  0
  1 23  1  0  0  0  0
  2  3  1  0  0  0  0
  2  4  1  0  0  0  0
  3 24  1  0  0  0  0
  3 25  1  0  0  0  0
  3 26  1  0  0  0  0
  4 20  1  0  0  0  0
  4  5  2  0  0  0  0
  5  6  1  0  0  0  0
  5 27  1  0  0  0  0
  6  7  2  0  0  0  0
  6 28  1  0  0  0  0
  7  8  1  0  0  0  0
  7 19  1  0  0  0  0
  8  9  1  0  0  0  0
  8 29  1  0  0  0  0
  9 10  2  0  0  0  0
  9 11  1  0  0  0  0
 11 12  1  0  0  0  0
 11 30  1  0  0  0  0
 12 18  1  0  0  0  0
 12 13  1  0  0  0  0
 12 31  1  0  0  0  0
 13 14  1  0  0  0  0
 13 32  1  0  0  0  0
 13 33  1  0  0  0  0
 14 15  1  0  0  0  0
 14 34  1  0  0  0  0
 14 35  1  0  0  0  0
 15 16  1  0  0  0  0
 15 17  1  0  0  0  0
 15 36  1  0  0  0  0
 16 37  1  0  0  0  0
 17 18  1  0  0  0  0
 17 38  1  0  0  0  0
 17 39  1  0  0  0  0
 18 40  1  0  0  0  0
 18 41  1  0  0  0  0
 19 20  2  0  0  0  0
 19 42  1  0  0  0  0
 20 43  1  0  0  0  0
M  CHG  1  20   1
M  END
> <s_m_source_file>
AV-unprocessed.smi

> <i_m_source_file_index>
967

> <i_lp_mmshare_version>
43012

> <i_f3d_flags>
0

> <s_epik_input>
W0NIM11OKFtDSDNdKWMxW2NIXVtjSF1jKFtjSF1uMSlbTkhdQyg9TylbTkhdW0NAQEhdMltDSDJdW0NIMl1bQ0BASF0oW09IXSlbQ0gyXVtDSDJdMg==

> <s_epik_cmdline>
J2VwaWtfcHl0aG9uJywgJy1waCcsICc3LjAnLCAnLXRuJywgJzgnLCAnLW1hJywgJzIwMCcsICctbWV0YWxfYmluZGluZycsICctaW1hZScsICc8aW5maWxlLm1hZT4nLCAnLW9tYWUnLCAnPG91dGZpbGUubWFlPic=

> <r_lp_tautomer_probability>
0.999994

> <r_epik_Ionization_Penalty>
0.251848

> <r_epik_Ionization_Penalty_Charging>
0.251826

> <r_epik_Ionization_Penalty_Neutral>
2.16844e-05

> <r_epik_State_Penalty>
0.243201

> <r_epik_Charging_Adjusted_Penalty>
0.495027

> <i_epik_Tot_Q>
1

> <i_epik_Tot_abs_Q>
1

> <r_epik_Metal_State_Penalty>
0.534113

> <b_epik_Metal_Only>
0

> <s_lp_Force_Field>
OPLS_2005

> <r_lp_Energy>
22.3095

> <b_lp_Chiralities_Consistent>
1

> <s_lp_Variant>
AV-unprocessed.smi:967-1

> <Gold.Version>
5.8.1

> <Gold.Id.Protein>
6NUR|6NUR_protein|mol2

> <Gold.PLP.Fitness>
41.0845

> <Gold.PLP.PLP>
-31.0017

> <Gold.PLP.part.hbond>
-5.0946

> <Gold.PLP.part.metal>
0.0000

> <Gold.PLP.part.buried>
0.5681

> <Gold.PLP.part.nonpolar>
-27.5271

> <Gold.PLP.part.repulsive>
0.2513

> <Gold.PLP.ligand.clash>
0.0000

> <Gold.PLP.ligand.torsion>
0.3579

> <Gold.PLP.Chemscore.Hbond>
3.5320

> <Gold.PLP.Chemscore.CHOScore>
0.0000

> <Gold.PLP.Chemscore.Metal>
0.0000

> <Gold.Chemscore.Hbonds>
donor molecule, donor type, donor heavy atom, donor atom, acceptor molecule, acceptor atom, score
      L1  H     8    29       P1  7948  1.00
      L1  H    11    30       P1  7948  1.00
      L1  H    16    37       P1 10186  0.74
      P1  H  6896  6907       L1     2  0.11
      P1  H 10192 10197       L1    16  0.28

> <Gold.PLP.Chemscore.Internal.Correction>
0.2026

> <Gold.Rescore>
     Score         DG    S(hbond)    S(metal)    S(lipo)     H(rot)  DE(clash)    DE(int)     intcor
     13.77     -17.92       2.35        0.00      76.98       1.73       1.85       2.29       ----

> <Gold.Chemscore.Fitness>
13.7718

> <Gold.Chemscore.DG>
-17.9182

> <Gold.Chemscore.ZeroCoef>
-5.4800

> <Gold.Chemscore.Hbond>
2.3531

> <Gold.Chemscore.Metal>
0.0000

> <Gold.Chemscore.Lipo>
76.9849

> <Gold.Chemscore.Internal_Hbond>
0.0000

> <Gold.Chemscore.DEClash>
1.8515

> <Gold.Chemscore.DEInternal>
2.2949

> <Gold.Chemscore.Rot>
1.7299

> <Gold.Chemscore.Internal.Correction>
   9.000000E+99

> <Gold.Chemscore.Hbonds>
donor molecule, donor type, donor heavy atom, donor atom, acceptor molecule, acceptor atom, score
      L1  H     8    29       P1  7948  0.42
      L1  H    11    30       P1  7948  0.95
      L1  H    16    37       P1 10186  0.74
      P1  H 10192 10197       L1    16  0.01

> <Gold.Chemscore.Hbond.Weighted>
-7.8595

> <Gold.Chemscore.Metal.Weighted>
-0.0000

> <Gold.Chemscore.Lipo.Weighted>
-9.0072

> <Gold.Chemscore.Internal_Hbond.Weighted>
0.0000

> <Gold.Chemscore.DEClash.Weighted>
1.8515

> <Gold.Chemscore.DEInternal.Weighted>
2.2949

> <Gold.Chemscore.Rot.Weighted>
4.4285

> <Gold.Chemscore.Internal.Correction.Weighted>
   9.000000E+99

> <Gold.Protein.RotatedTorsions>
[ 6907 6896 6895 6894 ] final  146.60 input  -60.11 | X-H torsion
[ 7974 7965 7964 7962 ] final -137.02 input  175.53 | X-H torsion
[ 8008 7997 7996 7995 ] final  157.64 input   59.86 | X-H torsion
[ 10167 10162 10161 10158 ] final    5.01 input  -65.29 | X-H torsion
[ 10718 10713 10712 10709 ] final   10.81 input   66.30 | X-H torsion
[ 10763 10752 10751 10750 ] final   76.80 input  -60.55 | X-H torsion
[ 11005 11000 10999 10996 ] final  -29.54 input  -57.11 | X-H torsion

> <Gold.Protein.ActiveResidues>
 VAL166  LYS551  ARG553  GLY616  TRP617  ASP618  TYR619  PRO620  LYS621  CYS622 
 ASP623  PHE694  ASN695  SER759  ASP760  ASP761  ALA762  ILE779  LEU786  VAL792 
 PHE793  MET794  SER795  GLU796  ALA797  LYS798  CYS799  TRP800  GLU811  SER814 

> <Gold.Protein.RotatedAtoms>
  152.1658  133.4611  159.4883 H   0  0  0  0  0  0  0  0  0  0  0  0  # atno 6907 bound_to 6896
  150.6913  134.2015  159.4333 H   0  0  0  0  0  0  0  0  0  0  0  0  # atno 6908 bound_to 6896
  151.9919  134.9974  160.0612 H   0  0  0  0  0  0  0  0  0  0  0  0  # atno 6909 bound_to 6896
  144.8877  140.6599  143.5165 H   0  0  0  0  0  0  0  0  0  0  0  0  # atno 7974 bound_to 7965
  156.2351  140.1880  156.7140 H   0  0  0  0  0  0  0  0  0  0  0  0  # atno 8008 bound_to 7997
  154.6092  140.0624  156.9499 H   0  0  0  0  0  0  0  0  0  0  0  0  # atno 8009 bound_to 7997
  155.2044  140.3295  155.4341 H   0  0  0  0  0  0  0  0  0  0  0  0  # atno 8010 bound_to 7997
  140.6505  143.7557  150.7567 H   0  0  0  0  0  0  0  0  0  0  0  0  # atno 10167 bound_to 10162
  156.9863  130.6025  149.5681 H   0  0  0  0  0  0  0  0  0  0  0  0  # atno 10718 bound_to 10713
  153.0751  135.4938  154.8388 H   0  0  0  0  0  0  0  0  0  0  0  0  # atno 10763 bound_to 10752
  154.7077  135.3014  154.9248 H   0  0  0  0  0  0  0  0  0  0  0  0  # atno 10764 bound_to 10752
  153.9951  135.6773  153.4809 H   0  0  0  0  0  0  0  0  0  0  0  0  # atno 10765 bound_to 10752
  140.9305  133.7341  156.0929 H   0  0  0  0  0  0  0  0  0  0  0  0  # atno 11005 bound_to 11000
  145.3838  139.1631  143.4266 LP  0  0  0  0  0  0  0  0  0  0  0  0  # atno 17320 bound_to 7965
  146.3035  140.3921  142.8695 LP  0  0  0  0  0  0  0  0  0  0  0  0  # atno 17321 bound_to 7965
  140.1207  143.4615  152.2315 LP  0  0  0  0  0  0  0  0  0  0  0  0  # atno 17342 bound_to 10162
  139.5719  144.7467  151.3867 LP  0  0  0  0  0  0  0  0  0  0  0  0  # atno 17343 bound_to 10162
  156.0224  130.5319  150.8313 LP  0  0  0  0  0  0  0  0  0  0  0  0  # atno 17370 bound_to 10713
  157.5490  131.0943  150.9722 LP  0  0  0  0  0  0  0  0  0  0  0  0  # atno 17371 bound_to 10713
  140.7869  134.3662  157.5474 LP  0  0  0  0  0  0  0  0  0  0  0  0  # atno 17394 bound_to 11000
  139.8795  134.9116  156.3041 LP  0  0  0  0  0  0  0  0  0  0  0  0  # atno 17395 bound_to 11000

$$$$
