AV-unprocessed.smi:781|AV-procd|sdf|3710|dock3
  -GOLD-   22720 1133D 1   1.00000     0.00000
 Structure written by MMmdl.
 38 40  0  0  0  0  0  0  0  0  1 V2000
  146.8236  142.2244  153.9195 C   0  0  0  0  0  0  0  0  0  0  0  0
  146.9352  140.7392  153.8663 C   0  0  0  0  0  0  0  0  0  0  0  0
  146.7396  139.8265  152.8682 C   0  0  0  0  0  0  0  0  0  0  0  0
  147.0199  138.5891  153.5065 C   0  0  0  0  0  0  0  0  0  0  0  0
  146.9307  137.3659  152.7942 N   0  0  0  0  0  0  0  0  0  0  0  0
  145.8339  136.8161  152.2456 C   0  0  0  0  0  0  0  0  0  0  0  0
  144.7044  137.3053  152.2746 O   0  0  0  0  0  0  0  0  0  0  0  0
  146.1187  135.6444  151.6585 N   0  0  0  0  0  0  0  0  0  0  0  0
  145.1565  134.7924  150.9575 C   0  0  1  0  0  0  0  0  0  0  0  0
  145.8463  133.5000  150.4698 C   0  0  2  0  0  0  0  0  0  0  0  0
  144.9499  132.8154  149.4220 C   0  0  0  0  0  0  0  0  0  0  0  0
  143.7895  132.2735  150.2784 C   0  0  0  0  0  0  0  0  0  0  0  0
  144.1770  132.7180  151.7032 C   0  0  1  0  0  0  0  0  0  0  0  0
  145.6925  132.5674  151.6650 C   0  0  0  0  0  0  0  0  0  0  0  0
  143.9862  134.2495  151.8339 C   0  0  1  0  0  0  0  0  0  0  0  0
  143.9463  134.7377  153.3003 C   0  0  0  0  0  0  0  0  0  0  0  0
  142.7644  134.2973  153.9355 O   0  0  0  0  0  0  0  0  0  0  0  0
  147.3564  138.7333  154.7791 N   0  0  0  0  0  0  0  0  0  0  0  0
  147.3036  140.1121  155.0163 O   0  0  0  0  0  0  0  0  0  0  0  0
  146.4539  142.6214  152.9739 H   0  0  0  0  0  0  0  0  0  0  0  0
  147.7945  142.6780  154.1200 H   0  0  0  0  0  0  0  0  0  0  0  0
  146.1365  142.5332  154.7073 H   0  0  0  0  0  0  0  0  0  0  0  0
  146.4445  140.0170  151.8470 H   0  0  0  0  0  0  0  0  0  0  0  0
  147.7942  136.8531  152.6943 H   0  0  0  0  0  0  0  0  0  0  0  0
  147.0736  135.3185  151.6862 H   0  0  0  0  0  0  0  0  0  0  0  0
  144.7635  135.3399  150.0986 H   0  0  0  0  0  0  0  0  0  0  0  0
  146.8717  133.6448  150.1269 H   0  0  0  0  0  0  0  0  0  0  0  0
  144.6115  133.5039  148.6468 H   0  0  0  0  0  0  0  0  0  0  0  0
  145.4796  131.9967  148.9331 H   0  0  0  0  0  0  0  0  0  0  0  0
  142.8216  132.6686  149.9680 H   0  0  0  0  0  0  0  0  0  0  0  0
  143.7413  131.1858  150.2115 H   0  0  0  0  0  0  0  0  0  0  0  0
  143.6799  132.1366  152.4802 H   0  0  0  0  0  0  0  0  0  0  0  0
  146.0209  131.5465  151.4620 H   0  0  0  0  0  0  0  0  0  0  0  0
  146.1912  132.9277  152.5657 H   0  0  0  0  0  0  0  0  0  0  0  0
  143.0403  134.5390  151.3730 H   0  0  0  0  0  0  0  0  0  0  0  0
  144.8082  134.3830  153.8659 H   0  0  0  0  0  0  0  0  0  0  0  0
  143.9544  135.8268  153.3413 H   0  0  0  0  0  0  0  0  0  0  0  0
  142.8845  133.3996  154.2057 H   0  0  0  0  0  0  0  0  0  0  0  0
  1  2  1  0  0  0  0
  1 20  1  0  0  0  0
  1 21  1  0  0  0  0
  1 22  1  0  0  0  0
  2 19  1  0  0  0  0
  2  3  2  0  0  0  0
  3  4  1  0  0  0  0
  3 23  1  0  0  0  0
  4  5  1  0  0  0  0
  4 18  2  0  0  0  0
  5  6  1  0  0  0  0
  5 24  1  0  0  0  0
  6  7  2  0  0  0  0
  6  8  1  0  0  0  0
  8  9  1  0  0  0  0
  8 25  1  0  0  0  0
  9 15  1  0  0  0  0
  9 10  1  0  0  0  0
  9 26  1  0  0  0  0
 10 14  1  0  0  0  0
 10 11  1  0  0  0  0
 10 27  1  0  0  0  0
 11 12  1  0  0  0  0
 11 28  1  0  0  0  0
 11 29  1  0  0  0  0
 12 13  1  0  0  0  0
 12 30  1  0  0  0  0
 12 31  1  0  0  0  0
 13 14  1  0  0  0  0
 13 15  1  0  0  0  0
 13 32  1  0  0  0  0
 14 33  1  0  0  0  0
 14 34  1  0  0  0  0
 15 16  1  0  0  0  0
 15 35  1  0  0  0  0
 16 17  1  0  0  0  0
 16 36  1  0  0  0  0
 16 37  1  0  0  0  0
 17 38  1  0  0  0  0
 18 19  1  0  0  0  0
M  END
> <s_m_source_file>
AV-unprocessed.smi

> <i_m_source_file_index>
781

> <i_lp_mmshare_version>
43012

> <i_f3d_flags>
0

> <s_epik_input>
W0NIM11jMVtjSF1jKG5vMSlbTkhdQyg9TylbTkhdW0NASF0oW0NAQEhdMjMpW0NASF0oW0NIMl1bT0hdKVtDQEBIXShbQ0gyXTMpW0NIMl1bQ0gyXTI=

> <s_epik_cmdline>
J2VwaWtfcHl0aG9uJywgJy1waCcsICc3LjAnLCAnLXRuJywgJzgnLCAnLW1hJywgJzIwMCcsICctbWV0YWxfYmluZGluZycsICctaW1hZScsICc8aW5maWxlLm1hZT4nLCAnLW9tYWUnLCAnPG91dGZpbGUubWFlPic=

> <r_lp_tautomer_probability>
1

> <r_epik_Ionization_Penalty>
2.32222e-05

> <r_epik_Ionization_Penalty_Charging>
0

> <r_epik_Ionization_Penalty_Neutral>
2.32222e-05

> <r_epik_State_Penalty>
-0

> <r_epik_Charging_Adjusted_Penalty>
0

> <i_epik_Tot_Q>
0

> <i_epik_Tot_abs_Q>
0

> <r_epik_Metal_State_Penalty>
-0

> <b_epik_Metal_Only>
0

> <s_lp_Force_Field>
OPLS_2005

> <r_lp_Energy>
48.1353

> <b_lp_Chiralities_Consistent>
1

> <s_lp_Variant>
AV-unprocessed.smi:781-4

> <Gold.Version>
5.8.1

> <Gold.Id.Protein>
6NUR|6NUR_protein|mol2

> <Gold.PLP.Fitness>
37.1535

> <Gold.PLP.PLP>
-30.5509

> <Gold.PLP.part.hbond>
-2.7836

> <Gold.PLP.part.metal>
0.0000

> <Gold.PLP.part.buried>
-2.6578

> <Gold.PLP.part.nonpolar>
-25.4722

> <Gold.PLP.part.repulsive>
2.2594

> <Gold.PLP.ligand.clash>
0.0256

> <Gold.PLP.ligand.torsion>
0.6396

> <Gold.PLP.Chemscore.Hbond>
2.6293

> <Gold.PLP.Chemscore.CHOScore>
0.0000

> <Gold.PLP.Chemscore.Metal>
0.0000

> <Gold.Chemscore.Hbonds>
donor molecule, donor type, donor heavy atom, donor atom, acceptor molecule, acceptor atom, score
      L1  H     5    24       P1  7948  1.00
      L1  H     8    25       P1  7948  0.68
      L1  H    17    38       P1 10957  1.00

> <Gold.PLP.Chemscore.Internal.Correction>
0.0197

> <Gold.Rescore>
     Score         DG    S(hbond)    S(metal)    S(lipo)     H(rot)  DE(clash)    DE(int)     intcor
     13.86     -18.24       2.62        0.00      74.89       1.86       1.32       3.06       ----

> <Gold.Chemscore.Fitness>
13.8635

> <Gold.Chemscore.DG>
-18.2369

> <Gold.Chemscore.ZeroCoef>
-5.4800

> <Gold.Chemscore.Hbond>
2.6208

> <Gold.Chemscore.Metal>
0.0000

> <Gold.Chemscore.Lipo>
74.8859

> <Gold.Chemscore.Internal_Hbond>
0.0000

> <Gold.Chemscore.DEClash>
1.3152

> <Gold.Chemscore.DEInternal>
3.0582

> <Gold.Chemscore.Rot>
1.8587

> <Gold.Chemscore.Internal.Correction>
   9.000000E+99

> <Gold.Chemscore.Hbonds>
donor molecule, donor type, donor heavy atom, donor atom, acceptor molecule, acceptor atom, score
      L1  H     5    24       P1  7948  0.92
      L1  H     8    25       P1  7948  0.64
      L1  H    17    38       P1 10957  1.00

> <Gold.Chemscore.Hbond.Weighted>
-8.7536

> <Gold.Chemscore.Metal.Weighted>
-0.0000

> <Gold.Chemscore.Lipo.Weighted>
-8.7616

> <Gold.Chemscore.Internal_Hbond.Weighted>
0.0000

> <Gold.Chemscore.DEClash.Weighted>
1.3152

> <Gold.Chemscore.DEInternal.Weighted>
3.0582

> <Gold.Chemscore.Rot.Weighted>
4.7583

> <Gold.Chemscore.Internal.Correction.Weighted>
   9.000000E+99

> <Gold.Protein.RotatedTorsions>
[ 6907 6896 6895 6894 ] final  -79.69 input  -60.11 | X-H torsion
[ 7974 7965 7964 7962 ] final   37.50 input  175.53 | X-H torsion
[ 8008 7997 7996 7995 ] final   76.17 input   59.86 | X-H torsion
[ 10167 10162 10161 10158 ] final    2.41 input  -65.29 | X-H torsion
[ 10718 10713 10712 10709 ] final   11.67 input   66.30 | X-H torsion
[ 10763 10752 10751 10750 ] final  -70.47 input  -60.55 | X-H torsion
[ 11005 11000 10999 10996 ] final  106.75 input  -57.11 | X-H torsion

> <Gold.Protein.ActiveResidues>
 VAL166  LYS551  ARG553  GLY616  TRP617  ASP618  TYR619  PRO620  LYS621  CYS622 
 ASP623  PHE694  ASN695  SER759  ASP760  ASP761  ALA762  ILE779  LEU786  VAL792 
 PHE793  MET794  SER795  GLU796  ALA797  LYS798  CYS799  TRP800  GLU811  SER814 

> <Gold.Protein.RotatedAtoms>
  150.6944  134.4083  159.5149 H   0  0  0  0  0  0  0  0  0  0  0  0  # atno 6907 bound_to 6896
  152.1846  134.8722  160.0532 H   0  0  0  0  0  0  0  0  0  0  0  0  # atno 6908 bound_to 6896
  151.9700  133.3688  159.4104 H   0  0  0  0  0  0  0  0  0  0  0  0  # atno 6909 bound_to 6896
  146.1133  139.5886  142.9338 H   0  0  0  0  0  0  0  0  0  0  0  0  # atno 7974 bound_to 7965
  155.8235  140.3469  155.5529 H   0  0  0  0  0  0  0  0  0  0  0  0  # atno 8008 bound_to 7997
  155.8317  140.0928  157.1808 H   0  0  0  0  0  0  0  0  0  0  0  0  # atno 8009 bound_to 7997
  154.4004  140.1411  156.3609 H   0  0  0  0  0  0  0  0  0  0  0  0  # atno 8010 bound_to 7997
  140.6636  143.7238  150.7785 H   0  0  0  0  0  0  0  0  0  0  0  0  # atno 10167 bound_to 10162
  156.9990  130.6072  149.5694 H   0  0  0  0  0  0  0  0  0  0  0  0  # atno 10718 bound_to 10713
  154.4181  135.5993  153.5993 H   0  0  0  0  0  0  0  0  0  0  0  0  # atno 10763 bound_to 10752
  152.9793  135.5946  154.3988 H   0  0  0  0  0  0  0  0  0  0  0  0  # atno 10764 bound_to 10752
  154.3809  135.2841  155.2190 H   0  0  0  0  0  0  0  0  0  0  0  0  # atno 10765 bound_to 10752
  139.8818  134.9379  156.5715 H   0  0  0  0  0  0  0  0  0  0  0  0  # atno 11005 bound_to 11000
  145.5619  141.0403  143.2221 LP  0  0  0  0  0  0  0  0  0  0  0  0  # atno 17320 bound_to 7965
  144.7530  139.7145  143.7265 LP  0  0  0  0  0  0  0  0  0  0  0  0  # atno 17321 bound_to 7965
  140.0912  143.4876  152.2478 LP  0  0  0  0  0  0  0  0  0  0  0  0  # atno 17342 bound_to 10162
  139.5878  144.7538  151.3477 LP  0  0  0  0  0  0  0  0  0  0  0  0  # atno 17343 bound_to 10162
  156.0178  130.5273  150.8187 LP  0  0  0  0  0  0  0  0  0  0  0  0  # atno 17370 bound_to 10713
  157.5404  131.0940  150.9835 LP  0  0  0  0  0  0  0  0  0  0  0  0  # atno 17371 bound_to 10713
  140.8095  133.8440  155.8797 LP  0  0  0  0  0  0  0  0  0  0  0  0  # atno 17394 bound_to 11000
  140.9519  134.1767  157.4721 LP  0  0  0  0  0  0  0  0  0  0  0  0  # atno 17395 bound_to 11000

$$$$
