AV-unprocessed.smi:1990|AV-procd|sdf|8063|dock4
  -GOLD-   2272010263D 1   1.00000     0.00000
 Structure written by MMmdl.
 46 47  0  0  0  0  0  0  0  0  1 V2000
  149.5671  142.1065  157.4084 C   0  0  0  0  0  0  0  0  0  0  0  0
  151.0486  142.3629  157.0781 C   0  0  2  0  0  0  0  0  0  0  0  0
  152.0053  141.3309  157.7075 C   0  0  0  0  0  0  0  0  0  0  0  0
  152.1714  141.5724  159.1382 N   0  0  0  0  0  0  0  0  0  0  0  0
  152.7791  140.5297  159.8710 C   0  0  0  0  0  0  0  0  0  0  0  0
  153.8249  140.8139  160.7802 C   0  0  0  0  0  0  0  0  0  0  0  0
  154.4190  139.7604  161.5012 C   0  0  0  0  0  0  0  0  0  0  0  0
  153.9597  138.4394  161.2887 C   0  0  0  0  0  0  0  0  0  0  0  0
  154.4594  137.2904  161.9603 N   0  0  0  0  0  0  0  0  0  0  0  0
  154.4047  135.9978  161.5875 C   0  0  0  0  0  0  0  0  0  0  0  0
  153.8373  135.5867  160.5758 O   0  0  0  0  0  0  0  0  0  0  0  0
  155.0849  135.0030  162.5386 C   0  0  1  0  0  0  0  0  0  0  0  0
  156.6153  135.1556  162.5325 C   0  0  0  0  0  0  0  0  0  0  0  0
  154.4356  135.2274  164.2611 S   0  0  0  0  0  0  0  0  0  0  0  0
  153.7050  133.5814  164.6509 C   0  0  0  0  0  0  0  0  0  0  0  0
  155.5836  135.4428  165.1548 O   0  0  0  0  0  0  0  0  0  0  0  0
  153.3458  136.2152  164.2372 O   0  0  0  0  0  0  0  0  0  0  0  0
  152.9082  138.2567  160.3688 C   0  0  0  0  0  0  0  0  0  0  0  0
  152.3364  139.2634  159.6763 N   0  0  0  0  0  0  0  0  0  0  0  0
  152.5576  142.9464  159.4480 C   0  0  0  0  0  0  0  0  0  0  0  0
  151.5629  143.9391  158.8207 C   0  0  1  0  0  0  0  0  0  0  0  0
  152.0099  145.3922  159.0111 C   0  0  0  0  0  0  0  0  0  0  0  0
  151.4567  143.6895  157.4197 O   0  0  0  0  0  0  0  0  0  0  0  0
  149.2465  141.1409  157.0170 H   0  0  0  0  0  0  0  0  0  0  0  0
  148.9310  142.8704  156.9611 H   0  0  0  0  0  0  0  0  0  0  0  0
  149.3771  142.0978  158.4814 H   0  0  0  0  0  0  0  0  0  0  0  0
  151.1463  142.2859  155.9950 H   0  0  0  0  0  0  0  0  0  0  0  0
  151.6390  140.3266  157.4991 H   0  0  0  0  0  0  0  0  0  0  0  0
  152.9859  141.4076  157.2357 H   0  0  0  0  0  0  0  0  0  0  0  0
  154.1859  141.8211  160.9254 H   0  0  0  0  0  0  0  0  0  0  0  0
  155.2032  139.9939  162.2036 H   0  0  0  0  0  0  0  0  0  0  0  0
  154.8859  137.4715  162.8573 H   0  0  0  0  0  0  0  0  0  0  0  0
  154.8383  133.9855  162.2328 H   0  0  0  0  0  0  0  0  0  0  0  0
  157.0196  135.0613  161.5240 H   0  0  0  0  0  0  0  0  0  0  0  0
  157.0840  134.3865  163.1466 H   0  0  0  0  0  0  0  0  0  0  0  0
  156.9237  136.1238  162.9289 H   0  0  0  0  0  0  0  0  0  0  0  0
  153.3867  133.5682  165.6929 H   0  0  0  0  0  0  0  0  0  0  0  0
  154.4502  132.8026  164.4922 H   0  0  0  0  0  0  0  0  0  0  0  0
  152.8400  133.3976  164.0143 H   0  0  0  0  0  0  0  0  0  0  0  0
  152.5117  137.2698  160.1784 H   0  0  0  0  0  0  0  0  0  0  0  0
  152.5825  143.0979  160.5279 H   0  0  0  0  0  0  0  0  0  0  0  0
  153.5643  143.1292  159.0694 H   0  0  0  0  0  0  0  0  0  0  0  0
  150.5858  143.8234  159.2901 H   0  0  0  0  0  0  0  0  0  0  0  0
  152.1005  145.6392  160.0690 H   0  0  0  0  0  0  0  0  0  0  0  0
  151.2907  146.0821  158.5691 H   0  0  0  0  0  0  0  0  0  0  0  0
  152.9770  145.5725  158.5407 H   0  0  0  0  0  0  0  0  0  0  0  0
  1  2  1  0  0  0  0
  1 24  1  0  0  0  0
  1 25  1  0  0  0  0
  1 26  1  0  0  0  0
  2 23  1  0  0  0  0
  2  3  1  0  0  0  0
  2 27  1  0  0  0  0
  3  4  1  0  0  0  0
  3 28  1  0  0  0  0
  3 29  1  0  0  0  0
  4  5  1  0  0  0  0
  4 20  1  0  0  0  0
  5 19  1  0  0  0  0
  5  6  2  0  0  0  0
  6  7  1  0  0  0  0
  6 30  1  0  0  0  0
  7  8  2  0  0  0  0
  7 31  1  0  0  0  0
  8  9  1  0  0  0  0
  8 18  1  0  0  0  0
  9 10  1  0  0  0  0
  9 32  1  0  0  0  0
 10 11  2  0  0  0  0
 10 12  1  0  0  0  0
 12 13  1  0  0  0  0
 12 14  1  0  0  0  0
 12 33  1  0  0  0  0
 13 34  1  0  0  0  0
 13 35  1  0  0  0  0
 13 36  1  0  0  0  0
 14 15  1  0  0  0  0
 14 16  2  0  0  0  0
 14 17  2  0  0  0  0
 15 37  1  0  0  0  0
 15 38  1  0  0  0  0
 15 39  1  0  0  0  0
 18 19  2  0  0  0  0
 18 40  1  0  0  0  0
 20 21  1  0  0  0  0
 20 41  1  0  0  0  0
 20 42  1  0  0  0  0
 21 22  1  0  0  0  0
 21 23  1  0  0  0  0
 21 43  1  0  0  0  0
 22 44  1  0  0  0  0
 22 45  1  0  0  0  0
 22 46  1  0  0  0  0
M  END
> <s_m_source_file>
AV-unprocessed.smi

> <i_m_source_file_index>
1990

> <i_lp_mmshare_version>
43012

> <i_f3d_flags>
0

> <s_epik_input>
W0NIM11bQ0BASF0xW0NIMl1OKFtDSDJdW0NASF0oTzEpW0NIM10pYzJbY0hdW2NIXWMoW2NIXW4yKVtOSF1DKD1PKVtDQEhdKFtDSDNdKVMoPU8pKD1PKVtDSDNd

> <s_epik_cmdline>
J2VwaWtfcHl0aG9uJywgJy1waCcsICc3LjAnLCAnLXRuJywgJzgnLCAnLW1hJywgJzIwMCcsICctbWV0YWxfYmluZGluZycsICctaW1hZScsICc8aW5maWxlLm1hZT4nLCAnLW9tYWUnLCAnPG91dGZpbGUubWFlPic=

> <r_lp_tautomer_probability>
1

> <r_epik_Ionization_Penalty>
0.000334888

> <r_epik_Ionization_Penalty_Charging>
0

> <r_epik_Ionization_Penalty_Neutral>
0.000334888

> <r_epik_State_Penalty>
0.000200905

> <r_epik_Charging_Adjusted_Penalty>
0.000200905

> <i_epik_Tot_Q>
0

> <i_epik_Tot_abs_Q>
0

> <r_epik_Metal_State_Penalty>
-0

> <b_epik_Metal_Only>
0

> <s_lp_Force_Field>
OPLS_2005

> <r_lp_Energy>
21.5475

> <b_lp_Chiralities_Consistent>
1

> <s_lp_Variant>
AV-unprocessed.smi:1990-3

> <Gold.Version>
5.8.1

> <Gold.Id.Protein>
6NUR|6NUR_protein|mol2

> <Gold.PLP.Fitness>
39.7677

> <Gold.PLP.PLP>
-37.2377

> <Gold.PLP.part.hbond>
-1.0000

> <Gold.PLP.part.metal>
0.0000

> <Gold.PLP.part.buried>
-6.7044

> <Gold.PLP.part.nonpolar>
-29.8028

> <Gold.PLP.part.repulsive>
0.2897

> <Gold.PLP.ligand.clash>
0.0000

> <Gold.PLP.ligand.torsion>
0.4789

> <Gold.PLP.Chemscore.Hbond>
1.0000

> <Gold.PLP.Chemscore.CHOScore>
0.0000

> <Gold.PLP.Chemscore.Metal>
0.0000

> <Gold.Chemscore.Hbonds>
donor molecule, donor type, donor heavy atom, donor atom, acceptor molecule, acceptor atom, score
      P1  H  6896  6909       L1    11  1.00

> <Gold.PLP.Chemscore.Internal.Correction>
0.4879

> <Gold.Rescore>
     Score         DG    S(hbond)    S(metal)    S(lipo)     H(rot)  DE(clash)    DE(int)     intcor
     13.34     -16.41       1.00        0.00      98.19       1.52       0.08       2.99       ----

> <Gold.Chemscore.Fitness>
13.3355

> <Gold.Chemscore.DG>
-16.4067

> <Gold.Chemscore.ZeroCoef>
-5.4800

> <Gold.Chemscore.Hbond>
0.9950

> <Gold.Chemscore.Metal>
0.0000

> <Gold.Chemscore.Lipo>
98.1932

> <Gold.Chemscore.Internal_Hbond>
0.0000

> <Gold.Chemscore.DEClash>
0.0777

> <Gold.Chemscore.DEInternal>
2.9935

> <Gold.Chemscore.Rot>
1.5177

> <Gold.Chemscore.Internal.Correction>
   9.000000E+99

> <Gold.Chemscore.Hbonds>
donor molecule, donor type, donor heavy atom, donor atom, acceptor molecule, acceptor atom, score
      P1  H  6896  6909       L1    11  0.99

> <Gold.Chemscore.Hbond.Weighted>
-3.3233

> <Gold.Chemscore.Metal.Weighted>
-0.0000

> <Gold.Chemscore.Lipo.Weighted>
-11.4886

> <Gold.Chemscore.Internal_Hbond.Weighted>
0.0000

> <Gold.Chemscore.DEClash.Weighted>
0.0777

> <Gold.Chemscore.DEInternal.Weighted>
2.9935

> <Gold.Chemscore.Rot.Weighted>
3.8853

> <Gold.Chemscore.Internal.Correction.Weighted>
   9.000000E+99

> <Gold.Protein.RotatedTorsions>
[ 6907 6896 6895 6894 ] final  165.95 input  -60.11 | X-H torsion
[ 7974 7965 7964 7962 ] final -129.95 input  175.53 | X-H torsion
[ 8008 7997 7996 7995 ] final -173.81 input   59.86 | X-H torsion
[ 10167 10162 10161 10158 ] final  152.82 input  -65.29 | X-H torsion
[ 10718 10713 10712 10709 ] final   41.65 input   66.30 | X-H torsion
[ 10763 10752 10751 10750 ] final  -48.24 input  -60.55 | X-H torsion
[ 11005 11000 10999 10996 ] final   36.05 input  -57.11 | X-H torsion

> <Gold.Protein.ActiveResidues>
 VAL166  LYS551  ARG553  GLY616  TRP617  ASP618  TYR619  PRO620  LYS621  CYS622 
 ASP623  PHE694  ASN695  SER759  ASP760  ASP761  ALA762  ILE779  LEU786  VAL792 
 PHE793  MET794  SER795  GLU796  ALA797  LYS798  CYS799  TRP800  GLU811  SER814 

> <Gold.Protein.RotatedAtoms>
  151.8865  133.3506  159.3783 H   0  0  0  0  0  0  0  0  0  0  0  0  # atno 6907 bound_to 6896
  150.7114  134.4966  159.5550 H   0  0  0  0  0  0  0  0  0  0  0  0  # atno 6908 bound_to 6896
  152.2528  134.8115  160.0494 H   0  0  0  0  0  0  0  0  0  0  0  0  # atno 6909 bound_to 6896
  144.9522  140.7357  143.4781 H   0  0  0  0  0  0  0  0  0  0  0  0  # atno 7974 bound_to 7965
  155.9622  140.1146  157.0886 H   0  0  0  0  0  0  0  0  0  0  0  0  # atno 8008 bound_to 7997
  154.4135  140.1179  156.5261 H   0  0  0  0  0  0  0  0  0  0  0  0  # atno 8009 bound_to 7997
  155.6705  140.3473  155.4819 H   0  0  0  0  0  0  0  0  0  0  0  0  # atno 8010 bound_to 7997
  139.4830  144.5325  151.7699 H   0  0  0  0  0  0  0  0  0  0  0  0  # atno 10167 bound_to 10162
  157.3959  130.7833  149.7308 H   0  0  0  0  0  0  0  0  0  0  0  0  # atno 10718 bound_to 10713
  154.0745  135.6600  153.4829 H   0  0  0  0  0  0  0  0  0  0  0  0  # atno 10763 bound_to 10752
  153.0378  135.5165  154.7534 H   0  0  0  0  0  0  0  0  0  0  0  0  # atno 10764 bound_to 10752
  154.6610  135.3015  154.9834 H   0  0  0  0  0  0  0  0  0  0  0  0  # atno 10765 bound_to 10752
  140.2364  134.3466  155.7943 H   0  0  0  0  0  0  0  0  0  0  0  0  # atno 11005 bound_to 11000
  145.2827  139.1912  143.4782 LP  0  0  0  0  0  0  0  0  0  0  0  0  # atno 17320 bound_to 7965
  146.3325  140.2791  142.8609 LP  0  0  0  0  0  0  0  0  0  0  0  0  # atno 17321 bound_to 7965
  140.4853  144.1390  150.5940 LP  0  0  0  0  0  0  0  0  0  0  0  0  # atno 17342 bound_to 10162
  140.4232  143.2602  151.9689 LP  0  0  0  0  0  0  0  0  0  0  0  0  # atno 17343 bound_to 10162
  155.9810  130.4023  150.3495 LP  0  0  0  0  0  0  0  0  0  0  0  0  # atno 17370 bound_to 10713
  157.1617  131.0346  151.2838 LP  0  0  0  0  0  0  0  0  0  0  0  0  # atno 17371 bound_to 10713
  141.2214  133.7274  156.8815 LP  0  0  0  0  0  0  0  0  0  0  0  0  # atno 17394 bound_to 11000
  140.1697  134.9108  157.2818 LP  0  0  0  0  0  0  0  0  0  0  0  0  # atno 17395 bound_to 11000

$$$$
