AV-unprocessed.smi:72|AV-procd|sdf|733|dock3
  -GOLD-   2262017 63D 1   1.00000     0.00000
 Structure written by MMmdl.
 28 29  0  0  0  0  0  0  0  0  2 V2000
  154.3567  137.8432  154.6218 N   0  0  0  0  0  0  0  0  0  0  0  0
  153.1576  138.2006  154.7777 C   0  0  0  0  0  0  0  0  0  0  0  0
  152.0900  137.4348  154.1733 N   0  0  0  0  0  0  0  0  0  0  0  0
  150.8749  137.8636  154.3268 C   0  0  0  0  0  0  0  0  0  0  0  0
  150.5756  139.0891  155.0605 N   0  0  0  0  0  0  0  0  0  0  0  0
  149.1560  139.6024  155.2570 C   0  0  2  0  0  0  0  0  0  0  0  0
  148.2382  138.7588  154.6257 O   0  0  0  0  0  0  0  0  0  0  0  0
  147.9408  139.2596  153.3281 C   0  0  1  0  0  0  0  0  0  0  0  0
  146.6151  138.6661  152.8290 C   0  0  0  0  0  0  0  0  0  0  0  0
  146.7001  137.2575  152.7862 O   0  0  0  0  0  0  0  0  0  0  0  0
  147.8837  140.7676  153.5755 C   0  0  2  0  0  0  0  0  0  0  0  0
  148.1740  141.4738  152.3860 O   0  0  0  0  0  0  0  0  0  0  0  0
  148.9732  140.9983  154.6199 C   0  0  1  0  0  0  0  0  0  0  0  0
  148.5431  141.9521  155.5696 O   0  0  0  0  0  0  0  0  0  0  0  0
  151.6419  139.7841  155.6943 C   0  0  0  0  0  0  0  0  0  0  0  0
  151.3667  140.7772  156.3685 O   0  0  0  0  0  0  0  0  0  0  0  0
  152.9141  139.3250  155.5342 N   0  5  0  0  0  0  0  0  0  0  0  0
  148.9975  139.5713  156.3366 H   0  0  0  0  0  0  0  0  0  0  0  0
  148.7576  139.0294  152.6410 H   0  0  0  0  0  0  0  0  0  0  0  0
  146.9025  141.0505  153.9611 H   0  0  0  0  0  0  0  0  0  0  0  0
  149.9057  141.3253  154.1563 H   0  0  0  0  0  0  0  0  0  0  0  0
  155.0099  138.4531  155.0914 H   0  0  0  0  0  0  0  0  0  0  0  0
  150.0160  137.3313  153.9184 H   0  0  0  0  0  0  0  0  0  0  0  0
  145.7791  138.9788  153.4555 H   0  0  0  0  0  0  0  0  0  0  0  0
  146.4081  139.0117  151.8159 H   0  0  0  0  0  0  0  0  0  0  0  0
  147.5563  137.0178  152.4667 H   0  0  0  0  0  0  0  0  0  0  0  0
  148.5587  140.8698  151.7693 H   0  0  0  0  0  0  0  0  0  0  0  0
  148.9390  142.7829  155.3516 H   0  0  0  0  0  0  0  0  0  0  0  0
  1  2  2  0  0  0  0
  1 22  1  0  0  0  0
  2 17  1  0  0  0  0
  2  3  1  0  0  0  0
  3  4  2  0  0  0  0
  4  5  1  0  0  0  0
  4 23  1  0  0  0  0
  5  6  1  0  0  0  0
  5 15  1  0  0  0  0
  6 18  1  0  0  0  0
  6 13  1  0  0  0  0
  6  7  1  0  0  0  0
  7  8  1  0  0  0  0
  8 19  1  0  0  0  0
  8  9  1  0  0  0  0
  8 11  1  0  0  0  0
  9 10  1  0  0  0  0
  9 24  1  0  0  0  0
  9 25  1  0  0  0  0
 10 26  1  0  0  0  0
 11 20  1  0  0  0  0
 11 12  1  0  0  0  0
 11 13  1  0  0  0  0
 12 27  1  0  0  0  0
 13 21  1  0  0  0  0
 13 14  1  0  0  0  0
 14 28  1  0  0  0  0
 15 16  2  0  0  0  0
 15 17  1  0  0  0  0
M  CHG  1  17  -1
M  END
> <s_m_source_file>
AV-unprocessed.smi

> <i_m_source_file_index>
72

> <i_lp_mmshare_version>
43012

> <i_f3d_flags>
0

> <s_epik_input>
W05IMl1jMW5bY0hdbihjKD1PKW4xKVtDQEBIXTJPW0NASF0oW0NIMl1bT0hdKVtDQEBIXShbT0hdKVtDQEhdMltPSF0=

> <s_epik_cmdline>
J2VwaWtfcHl0aG9uJywgJy1waCcsICc3LjAnLCAnLXRuJywgJzgnLCAnLW1hJywgJzIwMCcsICctbWV0YWxfYmluZGluZycsICctaW1hZScsICc8aW5maWxlLm1hZT4nLCAnLW9tYWUnLCAnPG91dGZpbGUubWFlPic=

> <r_lp_tautomer_probability>
7.17554e-07

> <r_epik_Ionization_Penalty>
12.8705

> <r_epik_Ionization_Penalty_Charging>
5.64144

> <r_epik_Ionization_Penalty_Neutral>
7.22905

> <r_epik_State_Penalty>
3.30104

> <r_epik_Charging_Adjusted_Penalty>
8.94249

> <i_epik_Tot_Q>
-1

> <i_epik_Tot_abs_Q>
1

> <r_epik_Metal_State_Penalty>
0.529074

> <b_epik_Metal_Only>
1

> <s_epik_Chemistry_Notes>
This compound contains an acetal/aminal-like group ( X-CH(R)-Y where X, Y are N, S, or O) that may be acid/base labile, releasing an aldehyde.

> <s_lp_Force_Field>
OPLS_2005

> <r_lp_Energy>
30.1413

> <b_lp_Chiralities_Consistent>
1

> <s_lp_Variant>
AV-unprocessed.smi:72-71

> <Gold.Version>
5.8.1

> <Gold.Id.Protein>
6NUR|6NUR_protein|mol2

> <Gold.PLP.Fitness>
45.7913

> <Gold.PLP.PLP>
-25.2181

> <Gold.PLP.part.hbond>
-7.2384

> <Gold.PLP.part.metal>
0.0000

> <Gold.PLP.part.buried>
2.2889

> <Gold.PLP.part.nonpolar>
-21.2187

> <Gold.PLP.part.repulsive>
0.2986

> <Gold.PLP.ligand.clash>
0.0000

> <Gold.PLP.ligand.torsion>
0.0349

> <Gold.PLP.Chemscore.Hbond>
5.9441

> <Gold.PLP.Chemscore.CHOScore>
0.9254

> <Gold.PLP.Chemscore.Metal>
0.0000

> <Gold.Chemscore.Hbonds>
donor molecule, donor type, donor heavy atom, donor atom, acceptor molecule, acceptor atom, score
      L1  H    10    26       P1  7948  1.00
      L1  H    12    27       P1  7957  0.78
      L1  H    14    28       P1  8028  0.90
      P1  H  7997  8008       L1    17  2.00
      P1  H  8011  8017       L1    12  0.24
      P1  H 10752 10763       L1     3  0.79
      L1  C     4    23       P1  7948  1.00

> <Gold.PLP.Chemscore.Internal.Correction>
0.0347

> <Gold.Rescore>
     Score         DG    S(hbond)    S(metal)    S(lipo)     H(rot)  DE(clash)    DE(int)     intcor
      9.29     -11.19       3.92        0.00      25.23       4.04       1.71       0.19       ----

> <Gold.Chemscore.Fitness>
9.2890

> <Gold.Chemscore.DG>
-11.1899

> <Gold.Chemscore.ZeroCoef>
-5.4800

> <Gold.Chemscore.Hbond>
3.9225

> <Gold.Chemscore.Metal>
0.0000

> <Gold.Chemscore.Lipo>
25.2283

> <Gold.Chemscore.Internal_Hbond>
0.0000

> <Gold.Chemscore.DEClash>
1.7132

> <Gold.Chemscore.DEInternal>
0.1877

> <Gold.Chemscore.Rot>
4.0403

> <Gold.Chemscore.Internal.Correction>
   9.000000E+99

> <Gold.Chemscore.Hbonds>
donor molecule, donor type, donor heavy atom, donor atom, acceptor molecule, acceptor atom, score
      L1  H    10    26       P1  7948  1.00
      L1  H    12    27       P1  7957  0.76
      L1  H    14    28       P1  8028  0.87
      P1  H  7997  8008       L1    17  0.88
      P1  H 10752 10763       L1     3  0.15

> <Gold.Chemscore.Hbond.Weighted>
-13.1012

> <Gold.Chemscore.Metal.Weighted>
-0.0000

> <Gold.Chemscore.Lipo.Weighted>
-2.9517

> <Gold.Chemscore.Internal_Hbond.Weighted>
0.0000

> <Gold.Chemscore.DEClash.Weighted>
1.7132

> <Gold.Chemscore.DEInternal.Weighted>
0.1877

> <Gold.Chemscore.Rot.Weighted>
10.3431

> <Gold.Chemscore.Internal.Correction.Weighted>
   9.000000E+99

> <Gold.Protein.RotatedTorsions>
[ 6907 6896 6895 6894 ] final   59.80 input  -60.11 | X-H torsion
[ 7974 7965 7964 7962 ] final  155.70 input  175.53 | X-H torsion
[ 8008 7997 7996 7995 ] final  -26.42 input   59.86 | X-H torsion
[ 10167 10162 10161 10158 ] final  133.18 input  -65.29 | X-H torsion
[ 10718 10713 10712 10709 ] final   13.14 input   66.30 | X-H torsion
[ 10763 10752 10751 10750 ] final   34.65 input  -60.55 | X-H torsion
[ 11005 11000 10999 10996 ] final   68.16 input  -57.11 | X-H torsion

> <Gold.Protein.ActiveResidues>
 VAL166  LYS551  ARG553  GLY616  TRP617  ASP618  TYR619  PRO620  LYS621  CYS622 
 ASP623  PHE694  ASN695  SER759  ASP760  ASP761  ALA762  ILE779  LEU786  VAL792 
 PHE793  MET794  SER795  GLU796  ALA797  LYS798  CYS799  TRP800  GLU811  SER814 

> <Gold.Protein.RotatedAtoms>
  152.3947  134.6384  160.0093 H   0  0  0  0  0  0  0  0  0  0  0  0  # atno 6907 bound_to 6896
  151.6608  133.3311  159.3181 H   0  0  0  0  0  0  0  0  0  0  0  0  # atno 6908 bound_to 6896
  150.7857  134.6883  159.6527 H   0  0  0  0  0  0  0  0  0  0  0  0  # atno 6909 bound_to 6896
  144.8009  139.7103  143.6182 H   0  0  0  0  0  0  0  0  0  0  0  0  # atno 7974 bound_to 7965
  154.4426  140.1900  156.0772 H   0  0  0  0  0  0  0  0  0  0  0  0  # atno 8008 bound_to 7997
  156.0466  140.3313  155.7277 H   0  0  0  0  0  0  0  0  0  0  0  0  # atno 8009 bound_to 7997
  155.5619  140.0604  157.2817 H   0  0  0  0  0  0  0  0  0  0  0  0  # atno 8010 bound_to 7997
  139.5308  144.6627  151.4959 H   0  0  0  0  0  0  0  0  0  0  0  0  # atno 10167 bound_to 10162
  157.0203  130.6152  149.5720 H   0  0  0  0  0  0  0  0  0  0  0  0  # atno 10718 bound_to 10713
  153.0154  135.6354  154.1702 H   0  0  0  0  0  0  0  0  0  0  0  0  # atno 10763 bound_to 10752
  154.1441  135.2833  155.3154 H   0  0  0  0  0  0  0  0  0  0  0  0  # atno 10764 bound_to 10752
  154.6102  135.5559  153.7527 H   0  0  0  0  0  0  0  0  0  0  0  0  # atno 10765 bound_to 10752
  139.9728  134.6872  156.0413 H   0  0  0  0  0  0  0  0  0  0  0  0  # atno 11005 bound_to 11000
  146.2290  139.5777  142.9568 LP  0  0  0  0  0  0  0  0  0  0  0  0  # atno 17320 bound_to 7965
  145.5556  141.0409  143.2254 LP  0  0  0  0  0  0  0  0  0  0  0  0  # atno 17321 bound_to 7965
  140.6484  143.8747  150.6760 LP  0  0  0  0  0  0  0  0  0  0  0  0  # atno 17342 bound_to 10162
  140.2104  143.3888  152.1722 LP  0  0  0  0  0  0  0  0  0  0  0  0  # atno 17343 bound_to 10162
  156.0104  130.5195  150.7971 LP  0  0  0  0  0  0  0  0  0  0  0  0  # atno 17370 bound_to 10713
  157.5254  131.0934  151.0024 LP  0  0  0  0  0  0  0  0  0  0  0  0  # atno 17371 bound_to 10713
  141.1407  133.6565  156.3720 LP  0  0  0  0  0  0  0  0  0  0  0  0  # atno 17394 bound_to 11000
  140.5258  134.6260  157.5333 LP  0  0  0  0  0  0  0  0  0  0  0  0  # atno 17395 bound_to 11000

$$$$
