AV-unprocessed.smi:1774|AV-procd|sdf|7170|dock10
  -GOLD-   22720 8413D 1   1.00000     0.00000
 Structure written by MMmdl.
 46 47  0  0  0  0  0  0  0  0  2 V2000
  151.4079  138.5987  153.0374 C   0  0  0  0  0  0  0  0  0  0  0  0
  150.6212  139.8924  153.1733 C   0  0  0  0  0  0  0  0  0  0  0  0
  151.3161  141.1075  153.3531 C   0  0  0  0  0  0  0  0  0  0  0  0
  150.5871  142.3026  153.4777 C   0  0  0  0  0  0  0  0  0  0  0  0
  149.1849  142.2314  153.4170 C   0  0  0  0  0  0  0  0  0  0  0  0
  148.5127  141.0747  153.2461 N   0  0  0  0  0  0  0  0  0  0  0  0
  149.2014  139.9122  153.1228 C   0  0  0  0  0  0  0  0  0  0  0  0
  148.5583  138.6548  152.9447 N   0  0  0  0  0  0  0  0  0  0  0  0
  147.6505  138.0604  153.7390 C   0  0  0  0  0  0  0  0  0  0  0  0
  147.1880  138.5353  154.7769 O   0  0  0  0  0  0  0  0  0  0  0  0
  147.2937  136.8603  153.2584 N   0  0  0  0  0  0  0  0  0  0  0  0
  146.3135  135.9754  153.8773 C   0  0  0  0  0  0  0  0  0  0  0  0
  145.7529  134.9533  152.8686 C   0  0  0  0  0  0  0  0  0  0  0  0
  146.8226  134.1501  152.2194 N   0  3  1  0  0  0  0  0  0  0  0  0
  147.5113  133.2214  153.1487 C   0  0  0  0  0  0  0  0  0  0  0  0
  146.6533  131.9710  153.4309 C   0  0  2  0  0  0  0  0  0  0  0  0
  147.3853  130.9596  154.3192 C   0  0  0  0  0  0  0  0  0  0  0  0
  146.3481  131.3336  152.1953 O   0  0  0  0  0  0  0  0  0  0  0  0
  145.5896  132.1602  151.3187 C   0  0  2  0  0  0  0  0  0  0  0  0
  145.2633  131.3460  150.0620 C   0  0  0  0  0  0  0  0  0  0  0  0
  146.4032  133.4303  150.9890 C   0  0  0  0  0  0  0  0  0  0  0  0
  152.4823  138.7803  153.0805 H   0  0  0  0  0  0  0  0  0  0  0  0
  151.1879  138.1161  152.0846 H   0  0  0  0  0  0  0  0  0  0  0  0
  151.1515  137.9102  153.8432 H   0  0  0  0  0  0  0  0  0  0  0  0
  152.3952  141.1273  153.3954 H   0  0  0  0  0  0  0  0  0  0  0  0
  151.0893  143.2487  153.6159 H   0  0  0  0  0  0  0  0  0  0  0  0
  148.5862  143.1256  153.5085 H   0  0  0  0  0  0  0  0  0  0  0  0
  148.8251  138.1495  152.1127 H   0  0  0  0  0  0  0  0  0  0  0  0
  147.7184  136.5437  152.3986 H   0  0  0  0  0  0  0  0  0  0  0  0
  146.7762  135.4840  154.7335 H   0  0  0  0  0  0  0  0  0  0  0  0
  145.5040  136.5894  154.2727 H   0  0  0  0  0  0  0  0  0  0  0  0
  145.0849  134.2822  153.4104 H   0  0  0  0  0  0  0  0  0  0  0  0
  145.1393  135.4453  152.1144 H   0  0  0  0  0  0  0  0  0  0  0  0
  148.4542  132.9189  152.6905 H   0  0  0  0  0  0  0  0  0  0  0  0
  147.7740  133.7322  154.0758 H   0  0  0  0  0  0  0  0  0  0  0  0
  145.7251  132.2561  153.9290 H   0  0  0  0  0  0  0  0  0  0  0  0
  147.6349  131.3948  155.2872 H   0  0  0  0  0  0  0  0  0  0  0  0
  148.3124  130.6232  153.8540 H   0  0  0  0  0  0  0  0  0  0  0  0
  146.7660  130.0806  154.5003 H   0  0  0  0  0  0  0  0  0  0  0  0
  144.6487  132.4270  151.8020 H   0  0  0  0  0  0  0  0  0  0  0  0
  144.6729  131.9321  149.3572 H   0  0  0  0  0  0  0  0  0  0  0  0
  144.6893  130.4538  150.3140 H   0  0  0  0  0  0  0  0  0  0  0  0
  146.1716  131.0240  149.5515 H   0  0  0  0  0  0  0  0  0  0  0  0
  145.8429  134.0824  150.3204 H   0  0  0  0  0  0  0  0  0  0  0  0
  147.3057  133.1479  150.4450 H   0  0  0  0  0  0  0  0  0  0  0  0
  147.5202  134.8230  151.9355 H   0  0  0  0  0  0  0  0  0  0  0  0
  1  2  1  0  0  0  0
  1 22  1  0  0  0  0
  1 23  1  0  0  0  0
  1 24  1  0  0  0  0
  2  7  1  0  0  0  0
  2  3  2  0  0  0  0
  3  4  1  0  0  0  0
  3 25  1  0  0  0  0
  4  5  2  0  0  0  0
  4 26  1  0  0  0  0
  5  6  1  0  0  0  0
  5 27  1  0  0  0  0
  6  7  2  0  0  0  0
  7  8  1  0  0  0  0
  8  9  1  0  0  0  0
  8 28  1  0  0  0  0
  9 10  2  0  0  0  0
  9 11  1  0  0  0  0
 11 12  1  0  0  0  0
 11 29  1  0  0  0  0
 12 13  1  0  0  0  0
 12 30  1  0  0  0  0
 12 31  1  0  0  0  0
 13 14  1  0  0  0  0
 13 32  1  0  0  0  0
 13 33  1  0  0  0  0
 14 21  1  0  0  0  0
 14 15  1  0  0  0  0
 14 46  1  0  0  0  0
 15 16  1  0  0  0  0
 15 34  1  0  0  0  0
 15 35  1  0  0  0  0
 16 17  1  0  0  0  0
 16 18  1  0  0  0  0
 16 36  1  0  0  0  0
 17 37  1  0  0  0  0
 17 38  1  0  0  0  0
 17 39  1  0  0  0  0
 18 19  1  0  0  0  0
 19 20  1  0  0  0  0
 19 21  1  0  0  0  0
 19 40  1  0  0  0  0
 20 41  1  0  0  0  0
 20 42  1  0  0  0  0
 20 43  1  0  0  0  0
 21 44  1  0  0  0  0
 21 45  1  0  0  0  0
M  CHG  1  14   1
M  END
> <s_m_source_file>
AV-unprocessed.smi

> <i_m_source_file_index>
1774

> <i_lp_mmshare_version>
43012

> <i_f3d_flags>
0

> <s_epik_input>
W0NIM11jMVtjSF1bY0hdW2NIXW5jMVtOSF1DKD1PKVtOSF1bQ0gyXVtDSDJdTjJbQ0gyXVtDQEBIXShbQ0gzXSlPW0NAQEhdKFtDSDNdKVtDSDJdMg==

> <s_epik_cmdline>
J2VwaWtfcHl0aG9uJywgJy1waCcsICc3LjAnLCAnLXRuJywgJzgnLCAnLW1hJywgJzIwMCcsICctbWV0YWxfYmluZGluZycsICctaW1hZScsICc8aW5maWxlLm1hZT4nLCAnLW9tYWUnLCAnPG91dGZpbGUubWFlPic=

> <r_epik_Ionization_Penalty>
0.602573

> <r_epik_Ionization_Penalty_Charging>
0.602531

> <r_epik_Ionization_Penalty_Neutral>
4.21996e-05

> <r_epik_State_Penalty>
0.617039

> <r_epik_Charging_Adjusted_Penalty>
1.21957

> <i_epik_Tot_Q>
1

> <i_epik_Tot_abs_Q>
1

> <r_epik_Metal_State_Penalty>
0.617042

> <b_epik_Metal_Only>
0

> <s_lp_Force_Field>
OPLS_2005

> <r_lp_Energy>
17.7689

> <b_lp_Chiralities_Consistent>
1

> <s_lp_Variant>
AV-unprocessed.smi:1774-7

> <Gold.Version>
5.8.1

> <Gold.Id.Protein>
6NUR|6NUR_protein|mol2

> <Gold.PLP.Fitness>
46.1933

> <Gold.PLP.PLP>
-33.1335

> <Gold.PLP.part.hbond>
-3.0000

> <Gold.PLP.part.metal>
0.0000

> <Gold.PLP.part.buried>
-3.9818

> <Gold.PLP.part.nonpolar>
-25.6535

> <Gold.PLP.part.repulsive>
0.2457

> <Gold.PLP.ligand.clash>
0.0000

> <Gold.PLP.ligand.torsion>
0.7685

> <Gold.PLP.Chemscore.Hbond>
3.8596

> <Gold.PLP.Chemscore.CHOScore>
1.0000

> <Gold.PLP.Chemscore.Metal>
0.0000

> <Gold.Chemscore.Hbonds>
donor molecule, donor type, donor heavy atom, donor atom, acceptor molecule, acceptor atom, score
      L1  H     8    28       P1  7948  0.61
      L1  H    11    29       P1  7948  0.52
      L1  H    14    46       P1  7948  2.00
      L1  C     5    27       P1  8028  0.58

> <Gold.PLP.Chemscore.Internal.Correction>
0.0180

> <Gold.Rescore>
     Score         DG    S(hbond)    S(metal)    S(lipo)     H(rot)  DE(clash)    DE(int)     intcor
     19.09     -19.83       2.54        0.00      82.91       1.49       0.10       0.63       ----

> <Gold.Chemscore.Fitness>
19.0908

> <Gold.Chemscore.DG>
-19.8285

> <Gold.Chemscore.ZeroCoef>
-5.4800

> <Gold.Chemscore.Hbond>
2.5371

> <Gold.Chemscore.Metal>
0.0000

> <Gold.Chemscore.Lipo>
82.9103

> <Gold.Chemscore.Internal_Hbond>
0.0000

> <Gold.Chemscore.DEClash>
0.1027

> <Gold.Chemscore.DEInternal>
0.6350

> <Gold.Chemscore.Rot>
1.4946

> <Gold.Chemscore.Internal.Correction>
   9.000000E+99

> <Gold.Chemscore.Hbonds>
donor molecule, donor type, donor heavy atom, donor atom, acceptor molecule, acceptor atom, score
      L1  H     8    28       P1  7948  0.59
      L1  H    11    29       P1  7948  0.50
      L1  H    14    46       P1  7948  0.73

> <Gold.Chemscore.Hbond.Weighted>
-8.4740

> <Gold.Chemscore.Metal.Weighted>
-0.0000

> <Gold.Chemscore.Lipo.Weighted>
-9.7005

> <Gold.Chemscore.Internal_Hbond.Weighted>
0.0000

> <Gold.Chemscore.DEClash.Weighted>
0.1027

> <Gold.Chemscore.DEInternal.Weighted>
0.6350

> <Gold.Chemscore.Rot.Weighted>
3.8261

> <Gold.Chemscore.Internal.Correction.Weighted>
   9.000000E+99

> <Gold.Protein.RotatedTorsions>
[ 6907 6896 6895 6894 ] final   11.38 input  -60.11 | X-H torsion
[ 7974 7965 7964 7962 ] final   25.58 input  175.53 | X-H torsion
[ 8008 7997 7996 7995 ] final -170.66 input   59.86 | X-H torsion
[ 10167 10162 10161 10158 ] final  -33.53 input  -65.29 | X-H torsion
[ 10718 10713 10712 10709 ] final  159.38 input   66.30 | X-H torsion
[ 10763 10752 10751 10750 ] final    3.16 input  -60.55 | X-H torsion
[ 11005 11000 10999 10996 ] final   -5.13 input  -57.11 | X-H torsion

> <Gold.Protein.ActiveResidues>
 VAL166  LYS551  ARG553  GLY616  TRP617  ASP618  TYR619  PRO620  LYS621  CYS622 
 ASP623  PHE694  ASN695  SER759  ASP760  ASP761  ALA762  ILE779  LEU786  VAL792 
 PHE793  MET794  SER795  GLU796  ALA797  LYS798  CYS799  TRP800  GLU811  SER814 

> <Gold.Protein.RotatedAtoms>
  151.7534  135.0827  160.0334 H   0  0  0  0  0  0  0  0  0  0  0  0  # atno 6907 bound_to 6896
  152.3402  133.6053  159.5879 H   0  0  0  0  0  0  0  0  0  0  0  0  # atno 6908 bound_to 6896
  150.7474  133.9650  159.3569 H   0  0  0  0  0  0  0  0  0  0  0  0  # atno 6909 bound_to 6896
  146.1881  139.7446  142.8852 H   0  0  0  0  0  0  0  0  0  0  0  0  # atno 7974 bound_to 7965
  155.9213  140.1075  157.1204 H   0  0  0  0  0  0  0  0  0  0  0  0  # atno 8008 bound_to 7997
  154.4055  140.1255  156.4749 H   0  0  0  0  0  0  0  0  0  0  0  0  # atno 8009 bound_to 7997
  155.7192  140.3470  155.5010 H   0  0  0  0  0  0  0  0  0  0  0  0  # atno 8010 bound_to 7997
  140.7202  143.3613  151.1957 H   0  0  0  0  0  0  0  0  0  0  0  0  # atno 10167 bound_to 10162
  157.1649  131.0596  151.2213 H   0  0  0  0  0  0  0  0  0  0  0  0  # atno 10718 bound_to 10713
  153.2867  135.6945  153.7332 H   0  0  0  0  0  0  0  0  0  0  0  0  # atno 10763 bound_to 10752
  153.6298  135.3412  155.3039 H   0  0  0  0  0  0  0  0  0  0  0  0  # atno 10764 bound_to 10752
  154.8512  135.4406  154.1938 H   0  0  0  0  0  0  0  0  0  0  0  0  # atno 10765 bound_to 10752
  140.6878  133.9097  155.8598 H   0  0  0  0  0  0  0  0  0  0  0  0  # atno 11005 bound_to 11000
  145.3876  141.0368  143.3142 LP  0  0  0  0  0  0  0  0  0  0  0  0  # atno 17320 bound_to 7965
  144.8435  139.5434  143.6889 LP  0  0  0  0  0  0  0  0  0  0  0  0  # atno 17321 bound_to 7965
  139.7166  143.9291  152.2969 LP  0  0  0  0  0  0  0  0  0  0  0  0  # atno 17342 bound_to 10162
  139.9033  144.6899  150.8641 LP  0  0  0  0  0  0  0  0  0  0  0  0  # atno 17343 bound_to 10162
  157.4097  130.7378  149.6830 LP  0  0  0  0  0  0  0  0  0  0  0  0  # atno 17370 bound_to 10713
  155.9747  130.4098  150.3900 LP  0  0  0  0  0  0  0  0  0  0  0  0  # atno 17371 bound_to 10713
  141.0266  134.0815  157.4062 LP  0  0  0  0  0  0  0  0  0  0  0  0  # atno 17394 bound_to 11000
  139.8932  135.0129  156.6888 LP  0  0  0  0  0  0  0  0  0  0  0  0  # atno 17395 bound_to 11000

$$$$
