AV-unprocessed.smi:2272|AV-procd|sdf|9163|dock1
  -GOLD-   2272012373D 1   1.00000     0.00000
 Structure written by MMmdl.
 41 42  0  0  0  0  0  0  0  0  1 V2000
  152.7341  143.3017  162.1268 C   0  0  0  0  0  0  0  0  0  0  0  0
  153.4408  142.0682  161.5934 C   0  0  0  0  0  0  0  0  0  0  0  0
  154.3416  141.4599  162.4726 N   0  0  0  0  0  0  0  0  0  0  0  0
  154.9912  140.4051  162.1024 C   0  0  0  0  0  0  0  0  0  0  0  0
  154.8157  139.8400  160.8292 N   0  0  0  0  0  0  0  0  0  0  0  0
  155.6258  138.6489  160.5273 C   0  0  0  0  0  0  0  0  0  0  0  0
  156.4404  138.8224  159.2248 C   0  0  1  0  0  0  0  0  0  0  0  0
  157.7113  139.3488  159.5498 O   0  0  0  0  0  0  0  0  0  0  0  0
  156.6719  137.4878  158.5014 C   0  0  0  0  0  0  0  0  0  0  0  0
  157.1713  137.7581  157.1996 O   0  0  0  0  0  0  0  0  0  0  0  0
  156.8681  136.7527  156.2437 C   0  0  0  0  0  0  0  0  0  0  0  0
  157.2013  137.1612  154.8178 C   0  0  0  0  0  0  0  0  0  0  0  0
  156.5834  138.2942  154.2472 C   0  0  0  0  0  0  0  0  0  0  0  0
  156.8835  138.6748  152.9247 C   0  0  0  0  0  0  0  0  0  0  0  0
  157.7990  137.9214  152.1654 C   0  0  0  0  0  0  0  0  0  0  0  0
  158.4128  136.7861  152.7284 C   0  0  0  0  0  0  0  0  0  0  0  0
  158.1140  136.4035  154.0508 C   0  0  0  0  0  0  0  0  0  0  0  0
  158.7085  135.3068  154.5790 F   0  0  0  0  0  0  0  0  0  0  0  0
  153.9642  140.3749  159.9067 C   0  0  0  0  0  0  0  0  0  0  0  0
  153.8323  139.8815  158.7850 O   0  0  0  0  0  0  0  0  0  0  0  0
  153.2292  141.5730  160.3433 C   0  0  0  0  0  0  0  0  0  0  0  0
  152.2638  142.1953  159.3421 C   0  0  0  0  0  0  0  0  0  0  0  0
  151.6543  143.1516  162.1323 H   0  0  0  0  0  0  0  0  0  0  0  0
  152.9633  144.1696  161.5078 H   0  0  0  0  0  0  0  0  0  0  0  0
  153.0446  143.5282  163.1477 H   0  0  0  0  0  0  0  0  0  0  0  0
  155.7108  139.8969  162.7466 H   0  0  0  0  0  0  0  0  0  0  0  0
  156.2772  138.3711  161.3587 H   0  0  0  0  0  0  0  0  0  0  0  0
  154.9527  137.7952  160.4298 H   0  0  0  0  0  0  0  0  0  0  0  0
  155.9462  139.5118  158.5387 H   0  0  0  0  0  0  0  0  0  0  0  0
  158.1360  139.6227  158.7513 H   0  0  0  0  0  0  0  0  0  0  0  0
  157.4039  136.8863  159.0433 H   0  0  0  0  0  0  0  0  0  0  0  0
  155.7439  136.9155  158.4597 H   0  0  0  0  0  0  0  0  0  0  0  0
  157.4599  135.8698  156.4862 H   0  0  0  0  0  0  0  0  0  0  0  0
  155.8217  136.4555  156.3300 H   0  0  0  0  0  0  0  0  0  0  0  0
  155.8792  138.8777  154.8219 H   0  0  0  0  0  0  0  0  0  0  0  0
  156.4105  139.5444  152.4929 H   0  0  0  0  0  0  0  0  0  0  0  0
  158.0288  138.2129  151.1512 H   0  0  0  0  0  0  0  0  0  0  0  0
  159.1129  136.2068  152.1447 H   0  0  0  0  0  0  0  0  0  0  0  0
  152.8028  142.5146  158.4495 H   0  0  0  0  0  0  0  0  0  0  0  0
  151.7366  143.0630  159.7351 H   0  0  0  0  0  0  0  0  0  0  0  0
  151.5119  141.4653  159.0407 H   0  0  0  0  0  0  0  0  0  0  0  0
  1  2  1  0  0  0  0
  1 23  1  0  0  0  0
  1 24  1  0  0  0  0
  1 25  1  0  0  0  0
  2 21  2  0  0  0  0
  2  3  1  0  0  0  0
  3  4  2  0  0  0  0
  4  5  1  0  0  0  0
  4 26  1  0  0  0  0
  5  6  1  0  0  0  0
  5 19  1  0  0  0  0
  6  7  1  0  0  0  0
  6 27  1  0  0  0  0
  6 28  1  0  0  0  0
  7  8  1  0  0  0  0
  7  9  1  0  0  0  0
  7 29  1  0  0  0  0
  8 30  1  0  0  0  0
  9 10  1  0  0  0  0
  9 31  1  0  0  0  0
  9 32  1  0  0  0  0
 10 11  1  0  0  0  0
 11 12  1  0  0  0  0
 11 33  1  0  0  0  0
 11 34  1  0  0  0  0
 12 17  1  0  0  0  0
 12 13  2  0  0  0  0
 13 14  1  0  0  0  0
 13 35  1  0  0  0  0
 14 15  2  0  0  0  0
 14 36  1  0  0  0  0
 15 16  1  0  0  0  0
 15 37  1  0  0  0  0
 16 17  2  0  0  0  0
 16 38  1  0  0  0  0
 17 18  1  0  0  0  0
 19 20  2  0  0  0  0
 19 21  1  0  0  0  0
 21 22  1  0  0  0  0
 22 39  1  0  0  0  0
 22 40  1  0  0  0  0
 22 41  1  0  0  0  0
M  END
> <s_m_source_file>
AV-unprocessed.smi

> <i_m_source_file_index>
2272

> <i_lp_mmshare_version>
43012

> <i_f3d_flags>
0

> <s_epik_input>
W0NIM11jMW5bY0hdbihjKD1PKWMxW0NIM10pW0NIMl1bQ0BIXShbT0hdKVtDSDJdT1tDSDJdYzJbY0hdW2NIXVtjSF1bY0hdYzJG

> <s_epik_cmdline>
J2VwaWtfcHl0aG9uJywgJy1waCcsICc3LjAnLCAnLXRuJywgJzgnLCAnLW1hJywgJzIwMCcsICctbWV0YWxfYmluZGluZycsICctaW1hZScsICc8aW5maWxlLm1hZT4nLCAnLW9tYWUnLCAnPG91dGZpbGUubWFlPic=

> <r_lp_tautomer_probability>
1

> <r_epik_Ionization_Penalty>
5.35985e-05

> <r_epik_Ionization_Penalty_Charging>
1.17753e-07

> <r_epik_Ionization_Penalty_Neutral>
5.34808e-05

> <r_epik_State_Penalty>
-0

> <r_epik_Charging_Adjusted_Penalty>
1.17753e-07

> <i_epik_Tot_Q>
0

> <i_epik_Tot_abs_Q>
0

> <r_epik_Metal_State_Penalty>
-0

> <b_epik_Metal_Only>
0

> <s_lp_Force_Field>
OPLS_2005

> <r_lp_Energy>
21.4702

> <b_lp_Chiralities_Consistent>
1

> <s_lp_Variant>
AV-unprocessed.smi:2272-2

> <Gold.Version>
5.8.1

> <Gold.Id.Protein>
6NUR|6NUR_protein|mol2

> <Gold.PLP.Fitness>
44.5432

> <Gold.PLP.PLP>
-42.8007

> <Gold.PLP.part.hbond>
-2.7476

> <Gold.PLP.part.metal>
0.0000

> <Gold.PLP.part.buried>
-2.6173

> <Gold.PLP.part.nonpolar>
-37.5646

> <Gold.PLP.part.repulsive>
0.0951

> <Gold.PLP.ligand.clash>
0.0000

> <Gold.PLP.ligand.torsion>
0.6960

> <Gold.PLP.Chemscore.Hbond>
1.0000

> <Gold.PLP.Chemscore.CHOScore>
0.0000

> <Gold.PLP.Chemscore.Metal>
0.0000

> <Gold.Chemscore.Hbonds>
donor molecule, donor type, donor heavy atom, donor atom, acceptor molecule, acceptor atom, score
      P1  H  7997  8009       L1    20  1.00

> <Gold.PLP.Chemscore.Internal.Correction>
0.1346

> <Gold.Rescore>
     Score         DG    S(hbond)    S(metal)    S(lipo)     H(rot)  DE(clash)    DE(int)     intcor
     14.75     -16.87       0.98        0.00     128.10       2.69       0.02       2.10       ----

> <Gold.Chemscore.Fitness>
14.7466

> <Gold.Chemscore.DG>
-16.8655

> <Gold.Chemscore.ZeroCoef>
-5.4800

> <Gold.Chemscore.Hbond>
0.9801

> <Gold.Chemscore.Metal>
0.0000

> <Gold.Chemscore.Lipo>
128.0978

> <Gold.Chemscore.Internal_Hbond>
0.0000

> <Gold.Chemscore.DEClash>
0.0151

> <Gold.Chemscore.DEInternal>
2.1038

> <Gold.Chemscore.Rot>
2.6857

> <Gold.Chemscore.Internal.Correction>
   9.000000E+99

> <Gold.Chemscore.Hbonds>
donor molecule, donor type, donor heavy atom, donor atom, acceptor molecule, acceptor atom, score
      P1  H  7997  8009       L1    20  0.98

> <Gold.Chemscore.Hbond.Weighted>
-3.2736

> <Gold.Chemscore.Metal.Weighted>
-0.0000

> <Gold.Chemscore.Lipo.Weighted>
-14.9874

> <Gold.Chemscore.Internal_Hbond.Weighted>
0.0000

> <Gold.Chemscore.DEClash.Weighted>
0.0151

> <Gold.Chemscore.DEInternal.Weighted>
2.1038

> <Gold.Chemscore.Rot.Weighted>
6.8755

> <Gold.Chemscore.Internal.Correction.Weighted>
   9.000000E+99

> <Gold.Protein.RotatedTorsions>
[ 6907 6896 6895 6894 ] final    5.67 input  -60.11 | X-H torsion
[ 7974 7965 7964 7962 ] final -148.56 input  175.53 | X-H torsion
[ 8008 7997 7996 7995 ] final  131.00 input   59.86 | X-H torsion
[ 10167 10162 10161 10158 ] final -124.60 input  -65.29 | X-H torsion
[ 10718 10713 10712 10709 ] final -169.62 input   66.30 | X-H torsion
[ 10763 10752 10751 10750 ] final  -55.60 input  -60.55 | X-H torsion
[ 11005 11000 10999 10996 ] final  128.14 input  -57.11 | X-H torsion

> <Gold.Protein.ActiveResidues>
 VAL166  LYS551  ARG553  GLY616  TRP617  ASP618  TYR619  PRO620  LYS621  CYS622 
 ASP623  PHE694  ASN695  SER759  ASP760  ASP761  ALA762  ILE779  LEU786  VAL792 
 PHE793  MET794  SER795  GLU796  ALA797  LYS798  CYS799  TRP800  GLU811  SER814 

> <Gold.Protein.RotatedAtoms>
  151.6612  135.0989  160.0179 H   0  0  0  0  0  0  0  0  0  0  0  0  # atno 6907 bound_to 6896
  152.3945  133.6723  159.6273 H   0  0  0  0  0  0  0  0  0  0  0  0  # atno 6908 bound_to 6896
  150.7855  133.8814  159.3328 H   0  0  0  0  0  0  0  0  0  0  0  0  # atno 6909 bound_to 6896
  144.8021  140.5180  143.5700 H   0  0  0  0  0  0  0  0  0  0  0  0  # atno 7974 bound_to 7965
  156.2963  140.2582  156.2854 H   0  0  0  0  0  0  0  0  0  0  0  0  # atno 8008 bound_to 7997
  154.9561  140.0393  157.2186 H   0  0  0  0  0  0  0  0  0  0  0  0  # atno 8009 bound_to 7997
  154.7990  140.2825  155.5940 H   0  0  0  0  0  0  0  0  0  0  0  0  # atno 8010 bound_to 7997
  139.9910  143.5640  152.2342 H   0  0  0  0  0  0  0  0  0  0  0  0  # atno 10167 bound_to 10162
  156.7143  130.9245  151.3092 H   0  0  0  0  0  0  0  0  0  0  0  0  # atno 10718 bound_to 10713
  154.1933  135.6423  153.5066 H   0  0  0  0  0  0  0  0  0  0  0  0  # atno 10763 bound_to 10752
  153.0030  135.5434  154.6392 H   0  0  0  0  0  0  0  0  0  0  0  0  # atno 10764 bound_to 10752
  154.5787  135.2923  155.0728 H   0  0  0  0  0  0  0  0  0  0  0  0  # atno 10765 bound_to 10752
  139.9544  134.9616  156.8958 H   0  0  0  0  0  0  0  0  0  0  0  0  # atno 11005 bound_to 11000
  145.5526  139.1477  143.3385 LP  0  0  0  0  0  0  0  0  0  0  0  0  # atno 17320 bound_to 7965
  146.2305  140.5664  142.8977 LP  0  0  0  0  0  0  0  0  0  0  0  0  # atno 17321 bound_to 7965
  139.6340  144.7648  151.2477 LP  0  0  0  0  0  0  0  0  0  0  0  0  # atno 17342 bound_to 10162
  140.7454  143.6431  150.8317 LP  0  0  0  0  0  0  0  0  0  0  0  0  # atno 17343 bound_to 10162
  157.6924  130.9247  150.0549 LP  0  0  0  0  0  0  0  0  0  0  0  0  # atno 17370 bound_to 10713
  156.1639  130.3644  149.9260 LP  0  0  0  0  0  0  0  0  0  0  0  0  # atno 17371 bound_to 10713
  140.5642  134.0505  155.7409 LP  0  0  0  0  0  0  0  0  0  0  0  0  # atno 17394 bound_to 11000
  141.1213  133.9456  157.2723 LP  0  0  0  0  0  0  0  0  0  0  0  0  # atno 17395 bound_to 11000

$$$$
