AV-unprocessed.smi:1568|AV-procd|sdf|6310|dock3
  -GOLD-   22720 6513D 1   1.00000     0.00000
 Structure written by MMmdl.
 43 44  0  0  0  0  0  0  0  0  1 V2000
  151.8532  144.7493  159.1166 C   0  0  0  0  0  0  0  0  0  0  0  0
  151.5151  143.9014  158.0329 O   0  0  0  0  0  0  0  0  0  0  0  0
  150.8089  142.7472  158.4539 C   0  0  0  0  0  0  0  0  0  0  0  0
  151.5282  141.4971  157.9408 C   0  0  0  0  0  0  0  0  0  0  0  0
  151.0435  141.2102  156.6337 O   0  0  0  0  0  0  0  0  0  0  0  0
  151.3586  139.9965  156.0548 C   0  0  0  0  0  0  0  0  0  0  0  0
  152.4267  139.3109  156.5353 N   0  0  0  0  0  0  0  0  0  0  0  0
  152.7146  138.1075  155.9969 C   0  0  0  0  0  0  0  0  0  0  0  0
  151.9575  137.5227  154.9643 C   0  0  0  0  0  0  0  0  0  0  0  0
  150.8512  138.2332  154.4624 C   0  0  0  0  0  0  0  0  0  0  0  0
  150.5508  139.5013  155.0016 C   0  0  0  0  0  0  0  0  0  0  0  0
  149.3709  140.2736  154.4882 C   0  0  0  0  0  0  0  0  0  0  0  0
  149.5538  141.4219  154.0833 O   0  0  0  0  0  0  0  0  0  0  0  0
  148.1605  139.6605  154.4749 N   0  0  0  0  0  0  0  0  0  0  0  0
  146.9866  140.2619  153.8292 C   0  0  0  0  0  0  0  0  0  0  0  0
  146.4648  139.3098  152.7387 C   0  0  0  0  0  0  0  0  0  0  0  0
  146.1134  137.9284  153.3325 C   0  0  0  0  0  0  0  0  0  0  0  0
  145.6738  136.9485  152.2365 C   0  0  0  0  0  0  0  0  0  0  0  0
  146.6215  136.4899  151.4153 N   0  0  0  0  0  0  0  0  0  0  0  0
  144.4974  136.6065  152.1312 O   0  0  0  0  0  0  0  0  0  0  0  0
  147.3081  137.3686  154.1347 C   0  0  0  0  0  0  0  0  0  0  0  0
  147.8293  138.3975  155.1549 C   0  0  0  0  0  0  0  0  0  0  0  0
  152.3922  145.6212  158.7461 H   0  0  0  0  0  0  0  0  0  0  0  0
  152.4957  144.2359  159.8330 H   0  0  0  0  0  0  0  0  0  0  0  0
  150.9607  145.1005  159.6366 H   0  0  0  0  0  0  0  0  0  0  0  0
  150.7476  142.7214  159.5430 H   0  0  0  0  0  0  0  0  0  0  0  0
  149.7900  142.7737  158.0676 H   0  0  0  0  0  0  0  0  0  0  0  0
  152.6049  141.6732  157.9167 H   0  0  0  0  0  0  0  0  0  0  0  0
  151.3344  140.6589  158.6120 H   0  0  0  0  0  0  0  0  0  0  0  0
  153.5712  137.5922  156.4057 H   0  0  0  0  0  0  0  0  0  0  0  0
  152.2193  136.5533  154.5672 H   0  0  0  0  0  0  0  0  0  0  0  0
  150.2501  137.8122  153.6694 H   0  0  0  0  0  0  0  0  0  0  0  0
  146.2137  140.4392  154.5784 H   0  0  0  0  0  0  0  0  0  0  0  0
  147.2000  141.2334  153.3816 H   0  0  0  0  0  0  0  0  0  0  0  0
  145.5874  139.7462  152.2598 H   0  0  0  0  0  0  0  0  0  0  0  0
  147.2238  139.2073  151.9608 H   0  0  0  0  0  0  0  0  0  0  0  0
  145.2814  138.0673  154.0253 H   0  0  0  0  0  0  0  0  0  0  0  0
  146.3815  135.8426  150.6787 H   0  0  0  0  0  0  0  0  0  0  0  0
  147.5772  136.7930  151.5353 H   0  0  0  0  0  0  0  0  0  0  0  0
  147.0135  136.4564  154.6551 H   0  0  0  0  0  0  0  0  0  0  0  0
  148.1163  137.0863  153.4616 H   0  0  0  0  0  0  0  0  0  0  0  0
  148.6614  137.9694  155.7122 H   0  0  0  0  0  0  0  0  0  0  0  0
  147.0575  138.5978  155.8993 H   0  0  0  0  0  0  0  0  0  0  0  0
  1  2  1  0  0  0  0
  1 23  1  0  0  0  0
  1 24  1  0  0  0  0
  1 25  1  0  0  0  0
  2  3  1  0  0  0  0
  3  4  1  0  0  0  0
  3 26  1  0  0  0  0
  3 27  1  0  0  0  0
  4  5  1  0  0  0  0
  4 28  1  0  0  0  0
  4 29  1  0  0  0  0
  5  6  1  0  0  0  0
  6 11  1  0  0  0  0
  6  7  2  0  0  0  0
  7  8  1  0  0  0  0
  8  9  2  0  0  0  0
  8 30  1  0  0  0  0
  9 10  1  0  0  0  0
  9 31  1  0  0  0  0
 10 11  2  0  0  0  0
 10 32  1  0  0  0  0
 11 12  1  0  0  0  0
 12 13  2  0  0  0  0
 12 14  1  0  0  0  0
 14 22  1  0  0  0  0
 14 15  1  0  0  0  0
 15 16  1  0  0  0  0
 15 33  1  0  0  0  0
 15 34  1  0  0  0  0
 16 17  1  0  0  0  0
 16 35  1  0  0  0  0
 16 36  1  0  0  0  0
 17 18  1  0  0  0  0
 17 21  1  0  0  0  0
 17 37  1  0  0  0  0
 18 19  1  0  0  0  0
 18 20  2  0  0  0  0
 19 38  1  0  0  0  0
 19 39  1  0  0  0  0
 21 22  1  0  0  0  0
 21 40  1  0  0  0  0
 21 41  1  0  0  0  0
 22 42  1  0  0  0  0
 22 43  1  0  0  0  0
M  END
> <s_m_source_file>
AV-unprocessed.smi

> <i_m_source_file_index>
1568

> <i_lp_mmshare_version>
43012

> <i_f3d_flags>
0

> <s_epik_input>
W0NIM11PW0NIMl1bQ0gyXU9jMW5bY0hdW2NIXVtjSF1jMUMoPU8pTjJbQ0gyXVtDSDJdW0NIXShDKD1PKVtOSDJdKVtDSDJdW0NIMl0y

> <s_epik_cmdline>
J2VwaWtfcHl0aG9uJywgJy1waCcsICc3LjAnLCAnLXRuJywgJzgnLCAnLW1hJywgJzIwMCcsICctbWV0YWxfYmluZGluZycsICctaW1hZScsICc8aW5maWxlLm1hZT4nLCAnLW9tYWUnLCAnPG91dGZpbGUubWFlPic=

> <r_lp_tautomer_probability>
1

> <r_epik_Ionization_Penalty>
2.36279e-06

> <r_epik_Ionization_Penalty_Charging>
0

> <r_epik_Ionization_Penalty_Neutral>
2.36279e-06

> <r_epik_State_Penalty>
-0

> <r_epik_Charging_Adjusted_Penalty>
0

> <i_epik_Tot_Q>
0

> <i_epik_Tot_abs_Q>
0

> <r_epik_Metal_State_Penalty>
-0

> <b_epik_Metal_Only>
0

> <s_lp_Force_Field>
OPLS_2005

> <r_lp_Energy>
28.0257

> <b_lp_Chiralities_Consistent>
1

> <s_lp_Variant>
AV-unprocessed.smi:1568-1

> <Gold.Version>
5.8.1

> <Gold.Id.Protein>
6NUR|6NUR_protein|mol2

> <Gold.PLP.Fitness>
39.4811

> <Gold.PLP.PLP>
-33.4557

> <Gold.PLP.part.hbond>
-3.7751

> <Gold.PLP.part.metal>
0.0000

> <Gold.PLP.part.buried>
0.3846

> <Gold.PLP.part.nonpolar>
-30.5445

> <Gold.PLP.part.repulsive>
0.8764

> <Gold.PLP.ligand.clash>
0.0000

> <Gold.PLP.ligand.torsion>
2.1038

> <Gold.PLP.Chemscore.Hbond>
2.7221

> <Gold.PLP.Chemscore.CHOScore>
0.0000

> <Gold.PLP.Chemscore.Metal>
0.0000

> <Gold.Chemscore.Hbonds>
donor molecule, donor type, donor heavy atom, donor atom, acceptor molecule, acceptor atom, score
      L1  H    19    39       P1  7948  0.73
      P1  H  7989  7998       L1    13  0.09
      P1  H  7997  8009       L1     7  0.57
      P1  H  8011  8017       L1    13  0.69

> <Gold.PLP.Chemscore.Internal.Correction>
2.0667

> <Gold.Rescore>
     Score         DG    S(hbond)    S(metal)    S(lipo)     H(rot)  DE(clash)    DE(int)     intcor
     10.97     -15.28       1.94        0.00      76.82       2.21       1.24       3.08       ----

> <Gold.Chemscore.Fitness>
10.9660

> <Gold.Chemscore.DG>
-15.2806

> <Gold.Chemscore.ZeroCoef>
-5.4800

> <Gold.Chemscore.Hbond>
1.9409

> <Gold.Chemscore.Metal>
0.0000

> <Gold.Chemscore.Lipo>
76.8192

> <Gold.Chemscore.Internal_Hbond>
0.0000

> <Gold.Chemscore.DEClash>
1.2376

> <Gold.Chemscore.DEInternal>
3.0770

> <Gold.Chemscore.Rot>
2.2148

> <Gold.Chemscore.Internal.Correction>
   9.000000E+99

> <Gold.Chemscore.Hbonds>
donor molecule, donor type, donor heavy atom, donor atom, acceptor molecule, acceptor atom, score
      L1  H    19    39       P1  7948  0.70
      P1  H  7989  7998       L1    13  0.01
      P1  H  7997  8009       L1     7  0.07
      P1  H  8011  8017       L1    13  0.64

> <Gold.Chemscore.Hbond.Weighted>
-6.4825

> <Gold.Chemscore.Metal.Weighted>
-0.0000

> <Gold.Chemscore.Lipo.Weighted>
-8.9879

> <Gold.Chemscore.Internal_Hbond.Weighted>
0.0000

> <Gold.Chemscore.DEClash.Weighted>
1.2376

> <Gold.Chemscore.DEInternal.Weighted>
3.0770

> <Gold.Chemscore.Rot.Weighted>
5.6698

> <Gold.Chemscore.Internal.Correction.Weighted>
   9.000000E+99

> <Gold.Protein.RotatedTorsions>
[ 6907 6896 6895 6894 ] final   60.70 input  -60.11 | X-H torsion
[ 7974 7965 7964 7962 ] final   90.29 input  175.53 | X-H torsion
[ 8008 7997 7996 7995 ] final -153.14 input   59.86 | X-H torsion
[ 10167 10162 10161 10158 ] final   24.00 input  -65.29 | X-H torsion
[ 10718 10713 10712 10709 ] final -126.57 input   66.30 | X-H torsion
[ 10763 10752 10751 10750 ] final  137.83 input  -60.55 | X-H torsion
[ 11005 11000 10999 10996 ] final   42.79 input  -57.11 | X-H torsion

> <Gold.Protein.ActiveResidues>
 VAL166  LYS551  ARG553  GLY616  TRP617  ASP618  TYR619  PRO620  LYS621  CYS622 
 ASP623  PHE694  ASN695  SER759  ASP760  ASP761  ALA762  ILE779  LEU786  VAL792 
 PHE793  MET794  SER795  GLU796  ALA797  LYS798  CYS799  TRP800  GLU811  SER814 

> <Gold.Protein.RotatedAtoms>
  152.4026  134.6261  160.0063 H   0  0  0  0  0  0  0  0  0  0  0  0  # atno 6907 bound_to 6896
  151.6462  133.3317  159.3149 H   0  0  0  0  0  0  0  0  0  0  0  0  # atno 6908 bound_to 6896
  150.7924  134.7001  159.6590 H   0  0  0  0  0  0  0  0  0  0  0  0  # atno 6909 bound_to 6896
  145.5210  139.2279  143.2672 H   0  0  0  0  0  0  0  0  0  0  0  0  # atno 7974 bound_to 7965
  155.6661  140.0728  157.2536 H   0  0  0  0  0  0  0  0  0  0  0  0  # atno 8008 bound_to 7997
  154.4132  140.1707  156.1880 H   0  0  0  0  0  0  0  0  0  0  0  0  # atno 8009 bound_to 7997
  155.9656  140.3366  155.6532 H   0  0  0  0  0  0  0  0  0  0  0  0  # atno 8010 bound_to 7997
  140.5223  143.9981  150.6423 H   0  0  0  0  0  0  0  0  0  0  0  0  # atno 10167 bound_to 10162
  156.1777  130.6711  151.0264 H   0  0  0  0  0  0  0  0  0  0  0  0  # atno 10718 bound_to 10713
  153.8795  135.3046  155.3445 H   0  0  0  0  0  0  0  0  0  0  0  0  # atno 10763 bound_to 10752
  154.7768  135.4857  153.9764 H   0  0  0  0  0  0  0  0  0  0  0  0  # atno 10764 bound_to 10752
  153.1359  135.6814  153.9200 H   0  0  0  0  0  0  0  0  0  0  0  0  # atno 10765 bound_to 10752
  140.1705  134.4227  155.8260 H   0  0  0  0  0  0  0  0  0  0  0  0  # atno 11005 bound_to 11000
  146.2106  140.6022  142.9061 LP  0  0  0  0  0  0  0  0  0  0  0  0  # atno 17320 bound_to 7965
  144.7676  140.5565  143.6692 LP  0  0  0  0  0  0  0  0  0  0  0  0  # atno 17321 bound_to 7965
  140.3333  143.3064  152.0664 LP  0  0  0  0  0  0  0  0  0  0  0  0  # atno 17342 bound_to 10162
  139.4927  144.6494  151.6709 LP  0  0  0  0  0  0  0  0  0  0  0  0  # atno 17343 bound_to 10162
  157.6847  131.0828  150.7275 LP  0  0  0  0  0  0  0  0  0  0  0  0  # atno 17370 bound_to 10713
  156.7333  130.4716  149.5494 LP  0  0  0  0  0  0  0  0  0  0  0  0  # atno 17371 bound_to 10713
  141.2217  133.6954  156.7756 LP  0  0  0  0  0  0  0  0  0  0  0  0  # atno 17394 bound_to 11000
  140.2382  134.8633  157.3547 LP  0  0  0  0  0  0  0  0  0  0  0  0  # atno 17395 bound_to 11000

$$$$
