AV-unprocessed.smi:63|AV-procd|sdf|607|dock7
  -GOLD-   2262016503D 1   1.00000     0.00000
 Structure written by MMmdl.
 29 30  0  0  0  0  0  0  0  0  1 V2000
  153.5501  141.1723  160.0307 C   0  0  0  0  0  0  0  0  0  0  0  0
  152.7258  140.9835  158.7746 C   0  0  0  0  0  0  0  0  0  0  0  0
  151.6134  141.8043  158.5134 C   0  0  0  0  0  0  0  0  0  0  0  0
  150.8980  141.5617  157.3284 C   0  0  0  0  0  0  0  0  0  0  0  0
  151.3416  140.5160  156.4867 C   0  0  0  0  0  0  0  0  0  0  0  0
  150.6525  140.2288  155.2891 N   0  0  0  0  0  0  0  0  0  0  0  0
  149.5462  141.1132  154.9370 C   0  0  0  0  0  0  0  0  0  0  0  0
  148.4798  140.2289  154.2857 C   0  0  0  0  0  0  0  0  0  0  0  0
  149.2618  139.0062  153.8186 C   0  0  0  0  0  0  0  0  0  0  0  0
  150.3367  138.8549  154.8999 C   0  0  1  0  0  0  0  0  0  0  0  0
  151.5704  138.0642  154.4194 C   0  0  0  0  0  0  0  0  0  0  0  0
  151.2304  136.7090  154.2186 O   0  0  0  0  0  0  0  0  0  0  0  0
  152.4278  139.7682  156.8102 N   0  0  0  0  0  0  0  0  0  0  0  0
  153.1118  139.9954  157.9365 N   0  0  0  0  0  0  0  0  0  0  0  0
  153.8139  142.2227  160.1572 H   0  0  0  0  0  0  0  0  0  0  0  0
  154.4735  140.5927  159.9930 H   0  0  0  0  0  0  0  0  0  0  0  0
  152.9816  140.8530  160.9044 H   0  0  0  0  0  0  0  0  0  0  0  0
  151.3193  142.5896  159.1940 H   0  0  0  0  0  0  0  0  0  0  0  0
  150.0394  142.1668  157.0771 H   0  0  0  0  0  0  0  0  0  0  0  0
  149.1383  141.6391  155.8014 H   0  0  0  0  0  0  0  0  0  0  0  0
  149.9093  141.8582  154.2283 H   0  0  0  0  0  0  0  0  0  0  0  0
  147.7455  139.9283  155.0341 H   0  0  0  0  0  0  0  0  0  0  0  0
  147.9491  140.7310  153.4763 H   0  0  0  0  0  0  0  0  0  0  0  0
  148.6376  138.1183  153.7143 H   0  0  0  0  0  0  0  0  0  0  0  0
  149.7195  139.2132  152.8500 H   0  0  0  0  0  0  0  0  0  0  0  0
  149.8932  138.3518  155.7610 H   0  0  0  0  0  0  0  0  0  0  0  0
  151.9607  138.4795  153.4897 H   0  0  0  0  0  0  0  0  0  0  0  0
  152.3786  138.1021  155.1491 H   0  0  0  0  0  0  0  0  0  0  0  0
  150.9635  136.5973  153.3190 H   0  0  0  0  0  0  0  0  0  0  0  0
  1  2  1  0  0  0  0
  1 15  1  0  0  0  0
  1 16  1  0  0  0  0
  1 17  1  0  0  0  0
  2 14  1  0  0  0  0
  2  3  2  0  0  0  0
  3  4  1  0  0  0  0
  3 18  1  0  0  0  0
  4  5  2  0  0  0  0
  4 19  1  0  0  0  0
  5  6  1  0  0  0  0
  5 13  1  0  0  0  0
  6 10  1  0  0  0  0
  6  7  1  0  0  0  0
  7  8  1  0  0  0  0
  7 20  1  0  0  0  0
  7 21  1  0  0  0  0
  8  9  1  0  0  0  0
  8 22  1  0  0  0  0
  8 23  1  0  0  0  0
  9 10  1  0  0  0  0
  9 24  1  0  0  0  0
  9 25  1  0  0  0  0
 10 11  1  0  0  0  0
 10 26  1  0  0  0  0
 11 12  1  0  0  0  0
 11 27  1  0  0  0  0
 11 28  1  0  0  0  0
 12 29  1  0  0  0  0
 13 14  2  0  0  0  0
M  END
> <s_m_source_file>
AV-unprocessed.smi

> <i_m_source_file_index>
63

> <i_lp_mmshare_version>
43012

> <i_f3d_flags>
0

> <s_epik_input>
W0NIM11jMVtjSF1bY0hdYyhubjEpTjJbQ0gyXVtDSDJdW0NIMl1bQ0BIXTJbQ0gyXVtPSF0=

> <s_epik_cmdline>
J2VwaWtfcHl0aG9uJywgJy1waCcsICc3LjAnLCAnLXRuJywgJzgnLCAnLW1hJywgJzIwMCcsICctbWV0YWxfYmluZGluZycsICctaW1hZScsICc8aW5maWxlLm1hZT4nLCAnLW9tYWUnLCAnPG91dGZpbGUubWFlPic=

> <r_lp_tautomer_probability>
1

> <r_epik_Ionization_Penalty>
4.30639e-05

> <r_epik_Ionization_Penalty_Charging>
0

> <r_epik_Ionization_Penalty_Neutral>
4.30639e-05

> <r_epik_State_Penalty>
-0

> <r_epik_Charging_Adjusted_Penalty>
0

> <i_epik_Tot_Q>
0

> <i_epik_Tot_abs_Q>
0

> <r_epik_Metal_State_Penalty>
-0

> <b_epik_Metal_Only>
0

> <s_lp_Force_Field>
OPLS_2005

> <r_lp_Energy>
32.9321

> <b_lp_Chiralities_Consistent>
1

> <s_lp_Variant>
AV-unprocessed.smi:63-1

> <Gold.Version>
5.8.1

> <Gold.Id.Protein>
6NUR|6NUR_protein|mol2

> <Gold.PLP.Fitness>
37.1042

> <Gold.PLP.PLP>
-28.2537

> <Gold.PLP.part.hbond>
-5.2018

> <Gold.PLP.part.metal>
0.0000

> <Gold.PLP.part.buried>
-0.1008

> <Gold.PLP.part.nonpolar>
-23.2233

> <Gold.PLP.part.repulsive>
0.0452

> <Gold.PLP.ligand.clash>
0.0000

> <Gold.PLP.ligand.torsion>
0.2427

> <Gold.PLP.Chemscore.Hbond>
2.9938

> <Gold.PLP.Chemscore.CHOScore>
0.0000

> <Gold.PLP.Chemscore.Metal>
0.0000

> <Gold.Chemscore.Hbonds>
donor molecule, donor type, donor heavy atom, donor atom, acceptor molecule, acceptor atom, score
      L1  H    12    29       P1  7949  0.95
      P1  H  7989  7998       L1     6  0.28
      P1  H  7997  8010       L1    14  0.65
      P1  H 10752 10764       L1    12  0.99

> <Gold.PLP.Chemscore.Internal.Correction>
0.3545

> <Gold.Rescore>
     Score         DG    S(hbond)    S(metal)    S(lipo)     H(rot)  DE(clash)    DE(int)     intcor
     12.59     -14.61       1.76        0.00      65.27       1.71       1.23       0.79       ----

> <Gold.Chemscore.Fitness>
12.5934

> <Gold.Chemscore.DG>
-14.6114

> <Gold.Chemscore.ZeroCoef>
-5.4800

> <Gold.Chemscore.Hbond>
1.7610

> <Gold.Chemscore.Metal>
0.0000

> <Gold.Chemscore.Lipo>
65.2710

> <Gold.Chemscore.Internal_Hbond>
0.0000

> <Gold.Chemscore.DEClash>
1.2254

> <Gold.Chemscore.DEInternal>
0.7926

> <Gold.Chemscore.Rot>
1.7138

> <Gold.Chemscore.Internal.Correction>
   9.000000E+99

> <Gold.Chemscore.Hbonds>
donor molecule, donor type, donor heavy atom, donor atom, acceptor molecule, acceptor atom, score
      L1  H    12    29       P1  7949  0.21
      P1  H  7997  8010       L1    14  0.14
      P1  H 10752 10764       L1    12  0.34

> <Gold.Chemscore.Hbond.Weighted>
-5.8819

> <Gold.Chemscore.Metal.Weighted>
-0.0000

> <Gold.Chemscore.Lipo.Weighted>
-7.6367

> <Gold.Chemscore.Internal_Hbond.Weighted>
0.0000

> <Gold.Chemscore.DEClash.Weighted>
1.2254

> <Gold.Chemscore.DEInternal.Weighted>
0.7926

> <Gold.Chemscore.Rot.Weighted>
4.3872

> <Gold.Chemscore.Internal.Correction.Weighted>
   9.000000E+99

> <Gold.Protein.RotatedTorsions>
[ 6907 6896 6895 6894 ] final  156.60 input  -60.11 | X-H torsion
[ 7974 7965 7964 7962 ] final   38.72 input  175.53 | X-H torsion
[ 8008 7997 7996 7995 ] final   14.72 input   59.86 | X-H torsion
[ 10167 10162 10161 10158 ] final  171.30 input  -65.29 | X-H torsion
[ 10718 10713 10712 10709 ] final   18.27 input   66.30 | X-H torsion
[ 10763 10752 10751 10750 ] final  -64.58 input  -60.55 | X-H torsion
[ 11005 11000 10999 10996 ] final   -3.02 input  -57.11 | X-H torsion

> <Gold.Protein.ActiveResidues>
 VAL166  LYS551  ARG553  GLY616  TRP617  ASP618  TYR619  PRO620  LYS621  CYS622 
 ASP623  PHE694  ASN695  SER759  ASP760  ASP761  ALA762  ILE779  LEU786  VAL792 
 PHE793  MET794  SER795  GLU796  ALA797  LYS798  CYS799  TRP800  GLU811  SER814 

> <Gold.Protein.RotatedAtoms>
  152.0274  133.3923  159.4282 H   0  0  0  0  0  0  0  0  0  0  0  0  # atno 6907 bound_to 6896
  150.6885  134.3559  159.4938 H   0  0  0  0  0  0  0  0  0  0  0  0  # atno 6908 bound_to 6896
  152.1341  134.9112  160.0608 H   0  0  0  0  0  0  0  0  0  0  0  0  # atno 6909 bound_to 6896
  146.1040  139.5738  142.9395 H   0  0  0  0  0  0  0  0  0  0  0  0  # atno 7974 bound_to 7965
  154.8524  140.2931  155.5590 H   0  0  0  0  0  0  0  0  0  0  0  0  # atno 8008 bound_to 7997
  156.3017  140.2493  156.3417 H   0  0  0  0  0  0  0  0  0  0  0  0  # atno 8009 bound_to 7997
  154.9007  140.0391  157.1880 H   0  0  0  0  0  0  0  0  0  0  0  0  # atno 8010 bound_to 7997
  139.5043  144.3501  151.9931 H   0  0  0  0  0  0  0  0  0  0  0  0  # atno 10167 bound_to 10162
  157.0939  130.6439  149.5855 H   0  0  0  0  0  0  0  0  0  0  0  0  # atno 10718 bound_to 10713
  154.3323  135.6174  153.5557 H   0  0  0  0  0  0  0  0  0  0  0  0  # atno 10763 bound_to 10752
  152.9810  135.5749  154.4948 H   0  0  0  0  0  0  0  0  0  0  0  0  # atno 10764 bound_to 10752
  154.4636  135.2857  155.1671 H   0  0  0  0  0  0  0  0  0  0  0  0  # atno 10765 bound_to 10752
  140.6647  133.9289  155.8458 H   0  0  0  0  0  0  0  0  0  0  0  0  # atno 11005 bound_to 11000
  145.5797  141.0384  143.2129 LP  0  0  0  0  0  0  0  0  0  0  0  0  # atno 17320 bound_to 7965
  144.7456  139.7330  143.7293 LP  0  0  0  0  0  0  0  0  0  0  0  0  # atno 17321 bound_to 7965
  140.2938  144.3724  150.6080 LP  0  0  0  0  0  0  0  0  0  0  0  0  # atno 17342 bound_to 10162
  140.5926  143.2167  151.7224 LP  0  0  0  0  0  0  0  0  0  0  0  0  # atno 17343 bound_to 10162
  155.9891  130.4937  150.7198 LP  0  0  0  0  0  0  0  0  0  0  0  0  # atno 17370 bound_to 10713
  157.4698  131.0892  151.0655 LP  0  0  0  0  0  0  0  0  0  0  0  0  # atno 17371 bound_to 10713
  141.0438  134.0583  157.3869 LP  0  0  0  0  0  0  0  0  0  0  0  0  # atno 17394 bound_to 11000
  139.9001  135.0161  156.7226 LP  0  0  0  0  0  0  0  0  0  0  0  0  # atno 17395 bound_to 11000

$$$$
