AV-unprocessed.smi:1338|AV-procd|sdf|5501|dock10
  -GOLD-   22720 5 83D 1   1.00000     0.00000
 Structure written by MMmdl.
 39 40  0  0  0  0  0  0  0  0  2 V2000
  149.9877  134.1752  154.9519 C   0  0  0  0  0  0  0  0  0  0  0  0
  150.0716  135.6865  154.9219 C   0  0  0  0  0  0  0  0  0  0  0  0
  148.9940  136.3735  154.9521 N   0  0  0  0  0  0  0  0  0  0  0  0
  149.0671  137.7767  154.9297 C   0  0  0  0  0  0  0  0  0  0  0  0
  147.7368  138.5086  154.9729 C   0  0  0  0  0  0  0  0  0  0  0  0
  150.2686  138.4203  154.8738 C   0  0  0  0  0  0  0  0  0  0  0  0
  150.4021  139.9424  154.8543 C   0  0  0  0  0  0  0  0  0  0  0  0
  151.1325  140.5510  156.0525 C   0  0  0  0  0  0  0  0  0  0  0  0
  152.3107  140.2668  156.2664 O   0  0  0  0  0  0  0  0  0  0  0  0
  150.4223  141.3877  156.8253 N   0  0  0  0  0  0  0  0  0  0  0  0
  150.9271  142.0806  158.0061 C   0  0  0  0  0  0  0  0  0  0  0  0
  151.7248  143.3377  157.6002 C   0  0  0  0  0  0  0  0  0  0  0  0
  152.3337  144.0379  158.8258 C   0  0  0  0  0  0  0  0  0  0  0  0
  153.2057  143.0727  159.6435 C   0  0  0  0  0  0  0  0  0  0  0  0
  152.4117  141.8231  160.0558 C   0  0  0  0  0  0  0  0  0  0  0  0
  151.8034  141.1195  158.8317 C   0  0  0  0  0  0  0  0  0  0  0  0
  151.4869  137.5912  154.8346 C   0  0  0  0  0  0  0  0  0  0  0  0
  152.5966  138.1189  154.7722 O   0  0  0  0  0  0  0  0  0  0  0  0
  151.3321  136.2367  154.8667 N   0  5  0  0  0  0  0  0  0  0  0  0
  148.9589  133.8360  154.8240 H   0  0  0  0  0  0  0  0  0  0  0  0
  150.3572  133.7977  155.9056 H   0  0  0  0  0  0  0  0  0  0  0  0
  150.5904  133.7440  154.1518 H   0  0  0  0  0  0  0  0  0  0  0  0
  147.6864  139.1655  155.8411 H   0  0  0  0  0  0  0  0  0  0  0  0
  146.9032  137.8084  155.0373 H   0  0  0  0  0  0  0  0  0  0  0  0
  147.5999  139.1076  154.0726 H   0  0  0  0  0  0  0  0  0  0  0  0
  150.9132  140.2325  153.9360 H   0  0  0  0  0  0  0  0  0  0  0  0
  149.4229  140.4158  154.7781 H   0  0  0  0  0  0  0  0  0  0  0  0
  149.4615  141.5637  156.5701 H   0  0  0  0  0  0  0  0  0  0  0  0
  150.0816  142.3837  158.6269 H   0  0  0  0  0  0  0  0  0  0  0  0
  152.5228  143.0614  156.9095 H   0  0  0  0  0  0  0  0  0  0  0  0
  151.0812  144.0365  157.0645 H   0  0  0  0  0  0  0  0  0  0  0  0
  152.9263  144.8958  158.5069 H   0  0  0  0  0  0  0  0  0  0  0  0
  151.5343  144.4313  159.4552 H   0  0  0  0  0  0  0  0  0  0  0  0
  154.0750  142.7766  159.0548 H   0  0  0  0  0  0  0  0  0  0  0  0
  153.5905  143.5785  160.5294 H   0  0  0  0  0  0  0  0  0  0  0  0
  153.0593  141.1330  160.5972 H   0  0  0  0  0  0  0  0  0  0  0  0
  151.6166  142.1071  160.7464 H   0  0  0  0  0  0  0  0  0  0  0  0
  151.2129  140.2622  159.1573 H   0  0  0  0  0  0  0  0  0  0  0  0
  152.6065  140.7226  158.2089 H   0  0  0  0  0  0  0  0  0  0  0  0
  1  2  1  0  0  0  0
  1 20  1  0  0  0  0
  1 21  1  0  0  0  0
  1 22  1  0  0  0  0
  2 19  1  0  0  0  0
  2  3  2  0  0  0  0
  3  4  1  0  0  0  0
  4  5  1  0  0  0  0
  4  6  2  0  0  0  0
  5 23  1  0  0  0  0
  5 24  1  0  0  0  0
  5 25  1  0  0  0  0
  6  7  1  0  0  0  0
  6 17  1  0  0  0  0
  7  8  1  0  0  0  0
  7 26  1  0  0  0  0
  7 27  1  0  0  0  0
  8  9  2  0  0  0  0
  8 10  1  0  0  0  0
 10 11  1  0  0  0  0
 10 28  1  0  0  0  0
 11 16  1  0  0  0  0
 11 12  1  0  0  0  0
 11 29  1  0  0  0  0
 12 13  1  0  0  0  0
 12 30  1  0  0  0  0
 12 31  1  0  0  0  0
 13 14  1  0  0  0  0
 13 32  1  0  0  0  0
 13 33  1  0  0  0  0
 14 15  1  0  0  0  0
 14 34  1  0  0  0  0
 14 35  1  0  0  0  0
 15 16  1  0  0  0  0
 15 36  1  0  0  0  0
 15 37  1  0  0  0  0
 16 38  1  0  0  0  0
 16 39  1  0  0  0  0
 17 18  2  0  0  0  0
 17 19  1  0  0  0  0
M  CHG  1  19  -1
M  END
> <s_m_source_file>
AV-unprocessed.smi

> <i_m_source_file_index>
1338

> <i_lp_mmshare_version>
43012

> <i_f3d_flags>
0

> <s_epik_input>
W0NIM11jMW5jKFtDSDNdKWMoYyg9TylbbkhdMSlbQ0gyXUMoPU8pW05IXVtDSF0yW0NIMl1bQ0gyXVtDSDJdW0NIMl1bQ0gyXTI=

> <s_epik_cmdline>
J2VwaWtfcHl0aG9uJywgJy1waCcsICc3LjAnLCAnLXRuJywgJzgnLCAnLW1hJywgJzIwMCcsICctbWV0YWxfYmluZGluZycsICctaW1hZScsICc8aW5maWxlLm1hZT4nLCAnLW9tYWUnLCAnPG91dGZpbGUubWFlPic=

> <r_lp_tautomer_probability>
0.839158

> <r_epik_Ionization_Penalty>
6.66811

> <r_epik_Ionization_Penalty_Charging>
7.5907e-08

> <r_epik_Ionization_Penalty_Neutral>
6.66811

> <r_epik_State_Penalty>
4.51402

> <r_epik_Charging_Adjusted_Penalty>
4.51402

> <i_epik_Tot_Q>
-1

> <i_epik_Tot_abs_Q>
1

> <r_epik_Metal_State_Penalty>
0.85041

> <b_epik_Metal_Only>
1

> <s_lp_Force_Field>
OPLS_2005

> <r_lp_Energy>
13.4348

> <b_lp_Chiralities_Consistent>
1

> <s_lp_Variant>
AV-unprocessed.smi:1338-3

> <Gold.Version>
5.8.1

> <Gold.Id.Protein>
6NUR|6NUR_protein|mol2

> <Gold.PLP.Fitness>
43.6254

> <Gold.PLP.PLP>
-35.1966

> <Gold.PLP.part.hbond>
-2.5253

> <Gold.PLP.part.metal>
0.0000

> <Gold.PLP.part.buried>
-3.5112

> <Gold.PLP.part.nonpolar>
-29.9943

> <Gold.PLP.part.repulsive>
0.3606

> <Gold.PLP.ligand.clash>
0.0000

> <Gold.PLP.ligand.torsion>
0.2874

> <Gold.PLP.Chemscore.Hbond>
3.0000

> <Gold.PLP.Chemscore.CHOScore>
0.0000

> <Gold.PLP.Chemscore.Metal>
0.0000

> <Gold.Chemscore.Hbonds>
donor molecule, donor type, donor heavy atom, donor atom, acceptor molecule, acceptor atom, score
      P1  H  7997  8008       L1     9  0.99
      P1  H 10752 10764       L1    19  2.00

> <Gold.PLP.Chemscore.Internal.Correction>
0.0037

> <Gold.Rescore>
     Score         DG    S(hbond)    S(metal)    S(lipo)     H(rot)  DE(clash)    DE(int)     intcor
     13.96     -17.46       1.85        0.00      81.35       1.46       0.28       3.22       ----

> <Gold.Chemscore.Fitness>
13.9573

> <Gold.Chemscore.DG>
-17.4570

> <Gold.Chemscore.ZeroCoef>
-5.4800

> <Gold.Chemscore.Hbond>
1.8544

> <Gold.Chemscore.Metal>
0.0000

> <Gold.Chemscore.Lipo>
81.3548

> <Gold.Chemscore.Internal_Hbond>
0.0000

> <Gold.Chemscore.DEClash>
0.2810

> <Gold.Chemscore.DEInternal>
3.2188

> <Gold.Chemscore.Rot>
1.4591

> <Gold.Chemscore.Internal.Correction>
   9.000000E+99

> <Gold.Chemscore.Hbonds>
donor molecule, donor type, donor heavy atom, donor atom, acceptor molecule, acceptor atom, score
      P1  H  7997  8008       L1     9  0.89
      P1  H 10752 10764       L1    19  0.50

> <Gold.Chemscore.Hbond.Weighted>
-6.1939

> <Gold.Chemscore.Metal.Weighted>
-0.0000

> <Gold.Chemscore.Lipo.Weighted>
-9.5185

> <Gold.Chemscore.Internal_Hbond.Weighted>
0.0000

> <Gold.Chemscore.DEClash.Weighted>
0.2810

> <Gold.Chemscore.DEInternal.Weighted>
3.2188

> <Gold.Chemscore.Rot.Weighted>
3.7353

> <Gold.Chemscore.Internal.Correction.Weighted>
   9.000000E+99

> <Gold.Protein.RotatedTorsions>
[ 6907 6896 6895 6894 ] final    0.81 input  -60.11 | X-H torsion
[ 7974 7965 7964 7962 ] final   71.81 input  175.53 | X-H torsion
[ 8008 7997 7996 7995 ] final  -34.03 input   59.86 | X-H torsion
[ 10167 10162 10161 10158 ] final -131.71 input  -65.29 | X-H torsion
[ 10718 10713 10712 10709 ] final    2.68 input   66.30 | X-H torsion
[ 10763 10752 10751 10750 ] final  -63.96 input  -60.55 | X-H torsion
[ 11005 11000 10999 10996 ] final -176.86 input  -57.11 | X-H torsion

> <Gold.Protein.ActiveResidues>
 VAL166  LYS551  ARG553  GLY616  TRP617  ASP618  TYR619  PRO620  LYS621  CYS622 
 ASP623  PHE694  ASN695  SER759  ASP760  ASP761  ALA762  ILE779  LEU786  VAL792 
 PHE793  MET794  SER795  GLU796  ALA797  LYS798  CYS799  TRP800  GLU811  SER814 

> <Gold.Protein.RotatedAtoms>
  151.5824  135.1058  160.0020 H   0  0  0  0  0  0  0  0  0  0  0  0  # atno 6907 bound_to 6896
  152.4347  133.7336  159.6612 H   0  0  0  0  0  0  0  0  0  0  0  0  # atno 6908 bound_to 6896
  150.8243  133.8128  159.3148 H   0  0  0  0  0  0  0  0  0  0  0  0  # atno 6909 bound_to 6896
  145.7612  139.2801  143.1375 H   0  0  0  0  0  0  0  0  0  0  0  0  # atno 7974 bound_to 7965
  154.4132  140.1695  156.1983 H   0  0  0  0  0  0  0  0  0  0  0  0  # atno 8008 bound_to 7997
  155.9545  140.3398  155.6413 H   0  0  0  0  0  0  0  0  0  0  0  0  # atno 8009 bound_to 7997
  155.6827  140.0724  157.2469 H   0  0  0  0  0  0  0  0  0  0  0  0  # atno 8010 bound_to 7997
  139.9161  143.6437  152.2564 H   0  0  0  0  0  0  0  0  0  0  0  0  # atno 10167 bound_to 10162
  156.8666  130.5605  149.5659 H   0  0  0  0  0  0  0  0  0  0  0  0  # atno 10718 bound_to 10713
  154.3230  135.6192  153.5516 H   0  0  0  0  0  0  0  0  0  0  0  0  # atno 10763 bound_to 10752
  152.9818  135.5728  154.5048 H   0  0  0  0  0  0  0  0  0  0  0  0  # atno 10764 bound_to 10752
  154.4720  135.2859  155.1612 H   0  0  0  0  0  0  0  0  0  0  0  0  # atno 10765 bound_to 10752
  140.4474  134.6375  157.4785 H   0  0  0  0  0  0  0  0  0  0  0  0  # atno 11005 bound_to 11000
  146.0262  140.8302  142.9899 LP  0  0  0  0  0  0  0  0  0  0  0  0  # atno 17320 bound_to 7965
  144.6830  140.2701  143.7307 LP  0  0  0  0  0  0  0  0  0  0  0  0  # atno 17321 bound_to 7965
  139.6901  144.7647  151.1454 LP  0  0  0  0  0  0  0  0  0  0  0  0  # atno 17342 bound_to 10162
  140.7674  143.5601  150.9108 LP  0  0  0  0  0  0  0  0  0  0  0  0  # atno 17343 bound_to 10162
  156.0748  130.5773  150.9453 LP  0  0  0  0  0  0  0  0  0  0  0  0  # atno 17370 bound_to 10713
  157.6219  131.0929  150.8605 LP  0  0  0  0  0  0  0  0  0  0  0  0  # atno 17371 bound_to 10713
  140.0029  134.6808  155.9501 LP  0  0  0  0  0  0  0  0  0  0  0  0  # atno 17394 bound_to 11000
  141.1679  133.6537  156.4546 LP  0  0  0  0  0  0  0  0  0  0  0  0  # atno 17395 bound_to 11000

$$$$
