AV-unprocessed.smi:1033|AV-procd|sdf|4510|dock10
  -GOLD-   22720 2513D 1   1.00000     0.00000
 Structure written by MMmdl.
 57 59  0  0  0  0  0  0  0  0  3 V2000
  152.8542  143.5916  160.0772 C   0  0  0  0  0  0  0  0  0  0  0  0
  152.2662  142.8267  158.9045 C   0  0  0  0  0  0  0  0  0  0  0  0
  152.4099  141.4215  158.8590 C   0  0  0  0  0  0  0  0  0  0  0  0
  151.8770  140.6733  157.7866 C   0  0  0  0  0  0  0  0  0  0  0  0
  151.8981  139.3109  157.5406 N   0  0  0  0  0  0  0  0  0  0  0  0
  151.2350  139.2346  156.3902 C   0  0  0  0  0  0  0  0  0  0  0  0
  150.7788  140.3884  155.8651 N   0  0  0  0  0  0  0  0  0  0  0  0
  150.0242  140.5611  154.6372 C   0  0  0  0  0  0  0  0  0  0  0  0
  149.3328  139.2575  154.1953 C   0  0  2  0  0  0  0  0  0  0  0  0
  150.2473  138.4739  153.4531 O   0  0  0  0  0  0  0  0  0  0  0  0
  148.0909  139.5290  153.3238 C   0  0  0  0  0  0  0  0  0  0  0  0
  147.3729  138.2837  152.9466 N   0  3  2  0  0  0  0  0  0  0  0  0
  146.4054  138.5015  151.8422 C   0  0  0  0  0  0  0  0  0  0  0  0
  145.7366  137.1806  151.4082 C   0  0  0  0  0  0  0  0  0  0  0  0
  145.1168  136.4586  152.5507 N   0  3  2  0  0  0  0  0  0  0  0  0
  143.8104  137.0101  153.0033 C   0  0  0  0  0  0  0  0  0  0  0  0
  142.6689  135.9802  152.8921 C   0  0  2  0  0  0  0  0  0  0  0  0
  141.3153  136.6446  152.6097 C   0  0  0  0  0  0  0  0  0  0  0  0
  142.5659  135.2698  154.1094 O   0  0  0  0  0  0  0  0  0  0  0  0
  146.0933  136.2635  153.6515 C   0  0  0  0  0  0  0  0  0  0  0  0
  146.7293  137.5942  154.0950 C   0  0  0  0  0  0  0  0  0  0  0  0
  151.1889  141.3752  156.7544 C   0  0  0  0  0  0  0  0  0  0  0  0
  151.0419  142.7732  156.7864 C   0  0  0  0  0  0  0  0  0  0  0  0
  151.5819  143.5054  157.8640 C   0  0  0  0  0  0  0  0  0  0  0  0
  151.4204  145.0151  157.8889 C   0  0  0  0  0  0  0  0  0  0  0  0
  153.3332  142.9204  160.7905 H   0  0  0  0  0  0  0  0  0  0  0  0
  152.0745  144.1399  160.6065 H   0  0  0  0  0  0  0  0  0  0  0  0
  153.6044  144.3031  159.7314 H   0  0  0  0  0  0  0  0  0  0  0  0
  152.9327  140.9048  159.6503 H   0  0  0  0  0  0  0  0  0  0  0  0
  151.0643  138.2843  155.9052 H   0  0  0  0  0  0  0  0  0  0  0  0
  149.2833  141.3436  154.8060 H   0  0  0  0  0  0  0  0  0  0  0  0
  150.6945  140.9277  153.8580 H   0  0  0  0  0  0  0  0  0  0  0  0
  149.0539  138.6983  155.0875 H   0  0  0  0  0  0  0  0  0  0  0  0
  149.7598  137.8396  152.9481 H   0  0  0  0  0  0  0  0  0  0  0  0
  147.4013  140.2003  153.8378 H   0  0  0  0  0  0  0  0  0  0  0  0
  148.4119  140.0545  152.4227 H   0  0  0  0  0  0  0  0  0  0  0  0
  145.6548  139.2290  152.1541 H   0  0  0  0  0  0  0  0  0  0  0  0
  146.9219  138.9358  150.9852 H   0  0  0  0  0  0  0  0  0  0  0  0
  145.0084  137.3661  150.6196 H   0  0  0  0  0  0  0  0  0  0  0  0
  146.4916  136.5271  150.9689 H   0  0  0  0  0  0  0  0  0  0  0  0
  143.8855  137.3269  154.0449 H   0  0  0  0  0  0  0  0  0  0  0  0
  143.5680  137.9084  152.4351 H   0  0  0  0  0  0  0  0  0  0  0  0
  142.8716  135.2644  152.0961 H   0  0  0  0  0  0  0  0  0  0  0  0
  141.3376  137.1929  151.6673 H   0  0  0  0  0  0  0  0  0  0  0  0
  141.0430  137.3484  153.3973 H   0  0  0  0  0  0  0  0  0  0  0  0
  140.5201  135.9016  152.5374 H   0  0  0  0  0  0  0  0  0  0  0  0
  142.3965  134.3594  153.9185 H   0  0  0  0  0  0  0  0  0  0  0  0
  145.6214  135.7605  154.4964 H   0  0  0  0  0  0  0  0  0  0  0  0
  146.8757  135.5895  153.2993 H   0  0  0  0  0  0  0  0  0  0  0  0
  147.4606  137.3875  154.8751 H   0  0  0  0  0  0  0  0  0  0  0  0
  145.9749  138.2460  154.5385 H   0  0  0  0  0  0  0  0  0  0  0  0
  150.5190  143.2778  155.9876 H   0  0  0  0  0  0  0  0  0  0  0  0
  150.8652  145.3707  157.0205 H   0  0  0  0  0  0  0  0  0  0  0  0
  152.3955  145.5030  157.8852 H   0  0  0  0  0  0  0  0  0  0  0  0
  150.8795  145.3281  158.7821 H   0  0  0  0  0  0  0  0  0  0  0  0
  144.8959  135.5307  152.2158 H   0  0  0  0  0  0  0  0  0  0  0  0
  148.0792  137.6583  152.5836 H   0  0  0  0  0  0  0  0  0  0  0  0
  1  2  1  0  0  0  0
  1 26  1  0  0  0  0
  1 27  1  0  0  0  0
  1 28  1  0  0  0  0
  2 24  1  0  0  0  0
  2  3  2  0  0  0  0
  3  4  1  0  0  0  0
  3 29  1  0  0  0  0
  4 22  2  0  0  0  0
  4  5  1  0  0  0  0
  5  6  2  0  0  0  0
  6  7  1  0  0  0  0
  6 30  1  0  0  0  0
  7  8  1  0  0  0  0
  7 22  1  0  0  0  0
  8  9  1  0  0  0  0
  8 31  1  0  0  0  0
  8 32  1  0  0  0  0
  9 10  1  0  0  0  0
  9 11  1  0  0  0  0
  9 33  1  0  0  0  0
 10 34  1  0  0  0  0
 11 12  1  0  0  0  0
 11 35  1  0  0  0  0
 11 36  1  0  0  0  0
 12 21  1  0  0  0  0
 12 13  1  0  0  0  0
 12 57  1  0  0  0  0
 13 14  1  0  0  0  0
 13 37  1  0  0  0  0
 13 38  1  0  0  0  0
 14 15  1  0  0  0  0
 14 39  1  0  0  0  0
 14 40  1  0  0  0  0
 15 16  1  0  0  0  0
 15 20  1  0  0  0  0
 15 56  1  0  0  0  0
 16 17  1  0  0  0  0
 16 41  1  0  0  0  0
 16 42  1  0  0  0  0
 17 18  1  0  0  0  0
 17 19  1  0  0  0  0
 17 43  1  0  0  0  0
 18 44  1  0  0  0  0
 18 45  1  0  0  0  0
 18 46  1  0  0  0  0
 19 47  1  0  0  0  0
 20 21  1  0  0  0  0
 20 48  1  0  0  0  0
 20 49  1  0  0  0  0
 21 50  1  0  0  0  0
 21 51  1  0  0  0  0
 22 23  1  0  0  0  0
 23 24  2  0  0  0  0
 23 52  1  0  0  0  0
 24 25  1  0  0  0  0
 25 53  1  0  0  0  0
 25 54  1  0  0  0  0
 25 55  1  0  0  0  0
M  CHG  1  12   1
M  CHG  1  15   1
M  END
> <s_m_source_file>
AV-unprocessed.smi

> <i_m_source_file_index>
1033

> <i_lp_mmshare_version>
43012

> <i_f3d_flags>
0

> <s_epik_input>
W0NIM11jKFtjSF0xKWMoW0NIM10pW2NIXWMoYzEyKW4oW2NIXW4yKVtDSDJdW0NASF0oW09IXSlbQ0gyXU4zW0NIMl1bQ0gyXU4oW0NIMl1bQ0gyXTMpW0NIMl1bQ0BIXShbQ0gzXSlbT0hd

> <s_epik_cmdline>
J2VwaWtfcHl0aG9uJywgJy1waCcsICc3LjAnLCAnLXRuJywgJzgnLCAnLW1hJywgJzIwMCcsICctbWV0YWxfYmluZGluZycsICctaW1hZScsICc8aW5maWxlLm1hZT4nLCAnLW9tYWUnLCAnPG91dGZpbGUubWFlPic=

> <r_epik_Ionization_Penalty>
3.16016

> <r_epik_Ionization_Penalty_Charging>
3.07679

> <r_epik_Ionization_Penalty_Neutral>
0.083365

> <r_epik_State_Penalty>
2.09701

> <r_epik_Charging_Adjusted_Penalty>
5.1738

> <i_epik_Tot_Q>
2

> <i_epik_Tot_abs_Q>
2

> <r_epik_Metal_State_Penalty>
2.02534

> <b_epik_Metal_Only>
0

> <s_lp_Force_Field>
OPLS_2005

> <r_lp_Energy>
28.3009

> <b_lp_Chiralities_Consistent>
1

> <s_lp_Variant>
AV-unprocessed.smi:1033-21

> <Gold.Version>
5.8.1

> <Gold.Id.Protein>
6NUR|6NUR_protein|mol2

> <Gold.PLP.Fitness>
56.7811

> <Gold.PLP.PLP>
-48.1003

> <Gold.PLP.part.hbond>
-4.7715

> <Gold.PLP.part.metal>
0.0000

> <Gold.PLP.part.buried>
-3.8340

> <Gold.PLP.part.nonpolar>
-39.0935

> <Gold.PLP.part.repulsive>
0.0278

> <Gold.PLP.ligand.clash>
0.0000

> <Gold.PLP.ligand.torsion>
1.7589

> <Gold.PLP.Chemscore.Hbond>
4.0000

> <Gold.PLP.Chemscore.CHOScore>
0.0000

> <Gold.PLP.Chemscore.Metal>
0.0000

> <Gold.Chemscore.Hbonds>
donor molecule, donor type, donor heavy atom, donor atom, acceptor molecule, acceptor atom, score
      L1  H    10    34       P1  7948  0.94
      L1  H    12    57       P1  7948  2.00

> <Gold.PLP.Chemscore.Internal.Correction>
0.1985

> <Gold.Rescore>
     Score         DG    S(hbond)    S(metal)    S(lipo)     H(rot)  DE(clash)    DE(int)     intcor
     19.19     -21.17       2.81        0.00     122.57       3.14       0.16       1.81       ----

> <Gold.Chemscore.Fitness>
19.1949

> <Gold.Chemscore.DG>
-21.1739

> <Gold.Chemscore.ZeroCoef>
-5.4800

> <Gold.Chemscore.Hbond>
2.8104

> <Gold.Chemscore.Metal>
0.0000

> <Gold.Chemscore.Lipo>
122.5673

> <Gold.Chemscore.Internal_Hbond>
0.0000

> <Gold.Chemscore.DEClash>
0.1640

> <Gold.Chemscore.DEInternal>
1.8149

> <Gold.Chemscore.Rot>
3.1380

> <Gold.Chemscore.Internal.Correction>
   9.000000E+99

> <Gold.Chemscore.Hbonds>
donor molecule, donor type, donor heavy atom, donor atom, acceptor molecule, acceptor atom, score
      L1  H    10    34       P1  7948  0.50
      L1  H    12    57       P1  7948  1.00

> <Gold.Chemscore.Hbond.Weighted>
-9.3867

> <Gold.Chemscore.Metal.Weighted>
-0.0000

> <Gold.Chemscore.Lipo.Weighted>
-14.3404

> <Gold.Chemscore.Internal_Hbond.Weighted>
0.0000

> <Gold.Chemscore.DEClash.Weighted>
0.1640

> <Gold.Chemscore.DEInternal.Weighted>
1.8149

> <Gold.Chemscore.Rot.Weighted>
8.0332

> <Gold.Chemscore.Internal.Correction.Weighted>
   9.000000E+99

> <Gold.Protein.RotatedTorsions>
[ 6907 6896 6895 6894 ] final  121.15 input  -60.11 | X-H torsion
[ 7974 7965 7964 7962 ] final   -1.68 input  175.53 | X-H torsion
[ 8008 7997 7996 7995 ] final   50.16 input   59.86 | X-H torsion
[ 10167 10162 10161 10158 ] final -148.46 input  -65.29 | X-H torsion
[ 10718 10713 10712 10709 ] final  148.80 input   66.30 | X-H torsion
[ 10763 10752 10751 10750 ] final  147.56 input  -60.55 | X-H torsion
[ 11005 11000 10999 10996 ] final -119.79 input  -57.11 | X-H torsion

> <Gold.Protein.ActiveResidues>
 VAL166  LYS551  ARG553  GLY616  TRP617  ASP618  TYR619  PRO620  LYS621  CYS622 
 ASP623  PHE694  ASN695  SER759  ASP760  ASP761  ALA762  ILE779  LEU786  VAL792 
 PHE793  MET794  SER795  GLU796  ALA797  LYS798  CYS799  TRP800  GLU811  SER814 

> <Gold.Protein.RotatedAtoms>
  152.4344  133.7334  159.6600 H   0  0  0  0  0  0  0  0  0  0  0  0  # atno 6907 bound_to 6896
  150.8226  133.8216  159.3138 H   0  0  0  0  0  0  0  0  0  0  0  0  # atno 6908 bound_to 6896
  151.5894  135.1056  160.0087 H   0  0  0  0  0  0  0  0  0  0  0  0  # atno 6909 bound_to 6896
  146.2414  140.1457  142.8335 H   0  0  0  0  0  0  0  0  0  0  0  0  # atno 7974 bound_to 7965
  155.4141  140.3443  155.4266 H   0  0  0  0  0  0  0  0  0  0  0  0  # atno 8008 bound_to 7997
  156.1431  140.1548  156.8920 H   0  0  0  0  0  0  0  0  0  0  0  0  # atno 8009 bound_to 7997
  154.4988  140.0820  156.7734 H   0  0  0  0  0  0  0  0  0  0  0  0  # atno 8010 bound_to 7997
  139.7529  143.8491  152.2590 H   0  0  0  0  0  0  0  0  0  0  0  0  # atno 10167 bound_to 10162
  157.3041  131.0876  151.1368 H   0  0  0  0  0  0  0  0  0  0  0  0  # atno 10718 bound_to 10713
  154.0403  135.2890  155.3356 H   0  0  0  0  0  0  0  0  0  0  0  0  # atno 10763 bound_to 10752
  154.6933  135.5218  153.8426 H   0  0  0  0  0  0  0  0  0  0  0  0  # atno 10764 bound_to 10752
  153.0602  135.6611  154.0608 H   0  0  0  0  0  0  0  0  0  0  0  0  # atno 10765 bound_to 10752
  141.0190  134.0152  157.3309 H   0  0  0  0  0  0  0  0  0  0  0  0  # atno 11005 bound_to 11000
  145.0209  140.8793  143.5167 LP  0  0  0  0  0  0  0  0  0  0  0  0  # atno 17320 bound_to 7965
  145.1506  139.2517  143.5443 LP  0  0  0  0  0  0  0  0  0  0  0  0  # atno 17321 bound_to 7965
  139.8474  144.7181  150.9255 LP  0  0  0  0  0  0  0  0  0  0  0  0  # atno 17342 bound_to 10162
  140.7800  143.3929  151.1279 LP  0  0  0  0  0  0  0  0  0  0  0  0  # atno 17343 bound_to 10162
  157.2715  130.6707  149.6022 LP  0  0  0  0  0  0  0  0  0  0  0  0  # atno 17370 bound_to 10713
  155.9673  130.4477  150.5592 LP  0  0  0  0  0  0  0  0  0  0  0  0  # atno 17371 bound_to 10713
  139.9134  135.0193  156.7786 LP  0  0  0  0  0  0  0  0  0  0  0  0  # atno 17394 bound_to 11000
  140.6605  133.9650  155.7802 LP  0  0  0  0  0  0  0  0  0  0  0  0  # atno 17395 bound_to 11000

$$$$
