#       Name:                AV-unprocessed.smi:668
#       Creating user name   scv26
#       Creation time:       Fri Mar 27 00:21:13 2020


#       File generated by GOLD software.
#

@<TRIPOS>MOLECULE
AV-unprocessed.smi:668
    45    46     1
SMALL
NO_CHARGES


@<TRIPOS>ATOM
      1 ****        -6.9403   2.4617   0.4619 C.3            1 S1                 0.0000
      2 ****        -6.4379   1.1302   0.4843 O.3            1 S1                 0.0000
      3 ****        -5.0705   0.9456   0.4750 C.ar           1 S1                 0.0000
      4 ****        -4.5682  -0.3707   0.4553 C.ar           1 S1                 0.0000
      5 ****        -3.1744  -0.5681   0.4367 C.ar           1 S1                 0.0000
      6 ****        -2.3240   0.5629   0.4322 C.ar           1 S1                 0.0000
      7 ****        -0.9053   0.4922   0.4267 N.am           1 S1                 0.0000
      8 ****        -0.1258  -0.4980  -0.0398 C.2            1 S1                 0.0000
      9 ****        -0.5312  -1.5427  -0.5491 O.2            1 S1                 0.0000
     10 ****         1.1731  -0.1985   0.0985 N.am           1 S1                 0.0000
     11 ****         2.2791  -1.0451  -0.3423 C.3            1 S1                 0.0000
     12 ****         2.5388  -2.2136   0.6214 C.3            1 S1                 0.0000
     13 ****         4.0431  -2.4530   0.5436 C.3            1 S1                 0.0000
     14 ****         4.6329  -1.0517   0.4002 C.3            1 S1                 0.0000
     15 ****         3.6039  -0.2407  -0.4137 C.3            1 S1                 0.0000
     16 ****         4.0593  -0.0027  -1.8628 C.2            1 S1                 0.0000
     17 ****         4.1081   1.2630  -2.2861 N.am           1 S1                 0.0000
     18 ****         4.3672  -0.9461  -2.5888 O.2            1 S1                 0.0000
     19 ****        -2.9259   1.8373   0.4740 C.ar           1 S1                 0.0000
     20 ****        -4.2611   2.0335   0.4884 N.ar           1 S1                 0.0000
     21 ****        -8.0299   2.4360   0.4670 H              1 S1                 0.0000
     22 ****        -6.6268   2.9896  -0.4399 H              1 S1                 0.0000
     23 ****        -6.6188   3.0268   1.3381 H              1 S1                 0.0000
     24 ****        -5.2409  -1.2157   0.4559 H              1 S1                 0.0000
     25 ****        -2.7882  -1.5756   0.4387 H              1 S1                 0.0000
     26 ****        -0.4282   1.3244   0.7410 H              1 S1                 0.0000
     27 ****         1.4165   0.6822   0.5272 H              1 S1                 0.0000
     28 ****         2.0361  -1.4599  -1.3234 H              1 S1                 0.0000
     29 ****         2.2751  -1.9308   1.6419 H              1 S1                 0.0000
     30 ****         1.9601  -3.1017   0.3655 H              1 S1                 0.0000
     31 ****         4.4303  -2.9861   1.4124 H              1 S1                 0.0000
     32 ****         4.2761  -3.0442  -0.3431 H              1 S1                 0.0000
     33 ****         4.7459  -0.6027   1.3880 H              1 S1                 0.0000
     34 ****         5.6262  -1.0772  -0.0510 H              1 S1                 0.0000
     35 ****         3.4871   0.7302   0.0724 H              1 S1                 0.0000
     36 ****         4.3998   1.4699  -3.2303 H              1 S1                 0.0000
     37 ****         3.8507   2.0101  -1.6574 H              1 S1                 0.0000
     38 ****        -2.3181   2.7303   0.4873 H              1 S1                 0.0000
     39 ****        -6.8051   0.6619  -0.3193 LP             1 S1                 0.0000
     40 ****        -6.7895   0.6953   1.3133 LP             1 S1                 0.0000
     41 ****        -1.5135  -1.7056  -0.6413 LP             1 S1                 0.0000
     42 ****         0.1218  -2.2284  -0.8706 LP             1 S1                 0.0000
     43 ****         4.3231  -1.8817  -2.2386 LP             1 S1                 0.0000
     44 ****         4.6618  -0.7777  -3.5295 LP             1 S1                 0.0000
     45 ****        -4.6436   2.9573   0.5084 LP             1 S1                 0.0000
@<TRIPOS>BOND
    1    1    2 1     
    2    1   21 1     
    3    1   22 1     
    4    1   23 1     
    5    2    3 1     
    6    3   20 ar    
    7    3    4 ar    
    8    4    5 ar    
    9    4   24 1     
   10    5    6 ar    
   11    5   25 1     
   12    6    7 1     
   13    6   19 ar    
   14    7    8 am    
   15    7   26 1     
   16    8    9 2     
   17    8   10 am    
   18   10   11 1     
   19   10   27 1     
   20   11   15 1     
   21   11   12 1     
   22   11   28 1     
   23   12   13 1     
   24   12   29 1     
   25   12   30 1     
   26   13   14 1     
   27   13   31 1     
   28   13   32 1     
   29   14   15 1     
   30   14   33 1     
   31   14   34 1     
   32   15   16 1     
   33   15   35 1     
   34   16   17 am    
   35   16   18 2     
   36   17   36 1     
   37   17   37 1     
   38   19   20 ar    
   39   19   38 1     
   40    2   39 1     
   41    2   40 1     
   42    9   41 1     
   43    9   42 1     
   44   18   43 1     
   45   18   44 1     
   46   20   45 1     
@<TRIPOS>SUBSTRUCTURE
      1 S1             1
@<TRIPOS>SET
LONE_PAIRS      STATIC     ATOMS    <user>   **** ""
7 39 40 41 42 43 44 45
DONOR_HYDROGENS      STATIC     ATOMS    <user>   **** ""
4 26 27 36 37
ATOM$BLUE        STATIC     ATOMS    COLORGROUP SYSTEM
7 39 40 41 42 43 44 45
ATOM$RED        STATIC     ATOMS    COLORGROUP SYSTEM
4 26 27 36 37
