AV-unprocessed.smi:2152|AV-procd|sdf|8765|dock10
  -GOLD-   2272011543D 1   1.00000     0.00000
 Structure written by MMmdl.
 41 42  0  0  0  0  0  0  0  0  1 V2000
  145.2692  136.0950  151.5915 C   0  0  0  0  0  0  0  0  0  0  0  0
  145.1028  134.5733  151.4265 C   0  0  1  0  0  0  0  0  0  0  0  0
  144.1002  134.2597  150.2972 C   0  0  0  0  0  0  0  0  0  0  0  0
  143.8970  132.7480  150.1138 C   0  0  0  0  0  0  0  0  0  0  0  0
  145.2333  132.0394  149.8546 C   0  0  0  0  0  0  0  0  0  0  0  0
  146.2365  132.3303  150.9799 C   0  0  0  0  0  0  0  0  0  0  0  0
  146.4486  133.8444  151.1765 C   0  0  2  0  0  0  0  0  0  0  0  0
  147.3673  134.0501  152.2950 N   0  0  0  0  0  0  0  0  0  0  0  0
  147.2267  133.5509  153.5328 C   0  0  0  0  0  0  0  0  0  0  0  0
  146.2654  132.8663  153.8854 O   0  0  0  0  0  0  0  0  0  0  0  0
  148.3459  133.8913  154.5253 C   0  0  0  0  0  0  0  0  0  0  0  0
  149.2875  132.7818  154.7218 N   0  0  0  0  0  0  0  0  0  0  0  0
  149.1305  131.6127  154.0001 C   0  0  0  0  0  0  0  0  0  0  0  0
  149.9625  130.5538  154.1069 C   0  0  0  0  0  0  0  0  0  0  0  0
  151.1007  130.5855  155.0172 C   0  0  0  0  0  0  0  0  0  0  0  0
  151.8977  129.6535  155.1301 O   0  0  0  0  0  0  0  0  0  0  0  0
  151.2284  131.7854  155.7566 N   0  0  0  0  0  0  0  0  0  0  0  0
  152.3469  131.9050  156.6690 C   0  0  0  0  0  0  0  0  0  0  0  0
  150.3659  132.8974  155.6258 C   0  0  0  0  0  0  0  0  0  0  0  0
  150.5394  133.9391  156.2634 O   0  0  0  0  0  0  0  0  0  0  0  0
  145.7378  136.5388  150.7126 H   0  0  0  0  0  0  0  0  0  0  0  0
  145.8838  136.3427  152.4570 H   0  0  0  0  0  0  0  0  0  0  0  0
  144.3043  136.5816  151.7348 H   0  0  0  0  0  0  0  0  0  0  0  0
  144.6790  134.1904  152.3563 H   0  0  0  0  0  0  0  0  0  0  0  0
  143.1397  134.7303  150.5098 H   0  0  0  0  0  0  0  0  0  0  0  0
  144.4542  134.6934  149.3608 H   0  0  0  0  0  0  0  0  0  0  0  0
  143.4263  132.3304  151.0047 H   0  0  0  0  0  0  0  0  0  0  0  0
  143.2117  132.5630  149.2860 H   0  0  0  0  0  0  0  0  0  0  0  0
  145.0740  130.9645  149.7665 H   0  0  0  0  0  0  0  0  0  0  0  0
  145.6460  132.3711  148.9008 H   0  0  0  0  0  0  0  0  0  0  0  0
  145.8757  131.8834  151.9076 H   0  0  0  0  0  0  0  0  0  0  0  0
  147.1878  131.8465  150.7544 H   0  0  0  0  0  0  0  0  0  0  0  0
  146.8840  134.2381  150.2560 H   0  0  0  0  0  0  0  0  0  0  0  0
  148.1900  134.6036  152.1045 H   0  0  0  0  0  0  0  0  0  0  0  0
  148.8847  134.7803  154.1916 H   0  0  0  0  0  0  0  0  0  0  0  0
  147.8854  134.1647  155.4756 H   0  0  0  0  0  0  0  0  0  0  0  0
  148.3040  131.5416  153.3079 H   0  0  0  0  0  0  0  0  0  0  0  0
  149.7857  129.6727  153.5078 H   0  0  0  0  0  0  0  0  0  0  0  0
  152.0555  132.5229  157.5198 H   0  0  0  0  0  0  0  0  0  0  0  0
  153.1654  132.3576  156.1079 H   0  0  0  0  0  0  0  0  0  0  0  0
  152.6201  130.9199  157.0493 H   0  0  0  0  0  0  0  0  0  0  0  0
  1  2  1  0  0  0  0
  1 21  1  0  0  0  0
  1 22  1  0  0  0  0
  1 23  1  0  0  0  0
  2  7  1  0  0  0  0
  2  3  1  0  0  0  0
  2 24  1  0  0  0  0
  3  4  1  0  0  0  0
  3 25  1  0  0  0  0
  3 26  1  0  0  0  0
  4  5  1  0  0  0  0
  4 27  1  0  0  0  0
  4 28  1  0  0  0  0
  5  6  1  0  0  0  0
  5 29  1  0  0  0  0
  5 30  1  0  0  0  0
  6  7  1  0  0  0  0
  6 31  1  0  0  0  0
  6 32  1  0  0  0  0
  7  8  1  0  0  0  0
  7 33  1  0  0  0  0
  8  9  1  0  0  0  0
  8 34  1  0  0  0  0
  9 10  2  0  0  0  0
  9 11  1  0  0  0  0
 11 12  1  0  0  0  0
 11 35  1  0  0  0  0
 11 36  1  0  0  0  0
 12 19  1  0  0  0  0
 12 13  1  0  0  0  0
 13 14  2  0  0  0  0
 13 37  1  0  0  0  0
 14 15  1  0  0  0  0
 14 38  1  0  0  0  0
 15 16  2  0  0  0  0
 15 17  1  0  0  0  0
 17 18  1  0  0  0  0
 17 19  1  0  0  0  0
 18 39  1  0  0  0  0
 18 40  1  0  0  0  0
 18 41  1  0  0  0  0
 19 20  2  0  0  0  0
M  END
> <s_m_source_file>
AV-unprocessed.smi

> <i_m_source_file_index>
2152

> <i_lp_mmshare_version>
43012

> <i_f3d_flags>
0

> <s_epik_input>
W0NIM11bQ0BASF0xW0NIMl1bQ0gyXVtDSDJdW0NIMl1bQ0BIXTFbTkhdQyg9TylbQ0gyXW4yW2NIXVtjSF1jKD1PKW4oW0NIM10pYzI9Tw==

> <s_epik_cmdline>
J2VwaWtfcHl0aG9uJywgJy1waCcsICc3LjAnLCAnLXRuJywgJzgnLCAnLW1hJywgJzIwMCcsICctbWV0YWxfYmluZGluZycsICctaW1hZScsICc8aW5maWxlLm1hZT4nLCAnLW9tYWUnLCAnPG91dGZpbGUubWFlPic=

> <r_lp_tautomer_probability>
1

> <r_epik_Ionization_Penalty>
3.20555e-08

> <r_epik_Ionization_Penalty_Charging>
1.30086e-08

> <r_epik_Ionization_Penalty_Neutral>
1.90469e-08

> <r_epik_State_Penalty>
-0

> <r_epik_Charging_Adjusted_Penalty>
1.30086e-08

> <i_epik_Tot_Q>
0

> <i_epik_Tot_abs_Q>
0

> <r_epik_Metal_State_Penalty>
-0

> <b_epik_Metal_Only>
0

> <s_lp_Force_Field>
OPLS_2005

> <r_lp_Energy>
17.8687

> <b_lp_Chiralities_Consistent>
1

> <s_lp_Variant>
AV-unprocessed.smi:2152-4

> <Gold.Version>
5.8.1

> <Gold.Id.Protein>
6NUR|6NUR_protein|mol2

> <Gold.PLP.Fitness>
38.1103

> <Gold.PLP.PLP>
-36.1870

> <Gold.PLP.part.hbond>
-1.0000

> <Gold.PLP.part.metal>
0.0000

> <Gold.PLP.part.buried>
-4.2751

> <Gold.PLP.part.nonpolar>
-31.8402

> <Gold.PLP.part.repulsive>
0.1708

> <Gold.PLP.ligand.clash>
0.0000

> <Gold.PLP.ligand.torsion>
0.3163

> <Gold.PLP.Chemscore.Hbond>
0.8500

> <Gold.PLP.Chemscore.CHOScore>
0.0000

> <Gold.PLP.Chemscore.Metal>
0.0000

> <Gold.Chemscore.Hbonds>
donor molecule, donor type, donor heavy atom, donor atom, acceptor molecule, acceptor atom, score
      L1  H     8    34       P1  7948  0.80

> <Gold.PLP.Chemscore.Internal.Correction>
0.0060

> <Gold.Rescore>
     Score         DG    S(hbond)    S(metal)    S(lipo)     H(rot)  DE(clash)    DE(int)     intcor
     12.92     -14.07       1.61        0.00      60.73       1.52       0.01       1.14       ----

> <Gold.Chemscore.Fitness>
12.9215

> <Gold.Chemscore.DG>
-14.0733

> <Gold.Chemscore.ZeroCoef>
-5.4800

> <Gold.Chemscore.Hbond>
1.6136

> <Gold.Chemscore.Metal>
0.0000

> <Gold.Chemscore.Lipo>
60.7337

> <Gold.Chemscore.Internal_Hbond>
0.0000

> <Gold.Chemscore.DEClash>
0.0098

> <Gold.Chemscore.DEInternal>
1.1420

> <Gold.Chemscore.Rot>
1.5242

> <Gold.Chemscore.Internal.Correction>
   9.000000E+99

> <Gold.Chemscore.Hbonds>
donor molecule, donor type, donor heavy atom, donor atom, acceptor molecule, acceptor atom, score
      L1  H     8    34       P1  7948  0.11

> <Gold.Chemscore.Hbond.Weighted>
-5.3893

> <Gold.Chemscore.Metal.Weighted>
-0.0000

> <Gold.Chemscore.Lipo.Weighted>
-7.1058

> <Gold.Chemscore.Internal_Hbond.Weighted>
0.0000

> <Gold.Chemscore.DEClash.Weighted>
0.0098

> <Gold.Chemscore.DEInternal.Weighted>
1.1420

> <Gold.Chemscore.Rot.Weighted>
3.9019

> <Gold.Chemscore.Internal.Correction.Weighted>
   9.000000E+99

> <Gold.Protein.RotatedTorsions>
[ 6907 6896 6895 6894 ] final -169.26 input  -60.11 | X-H torsion
[ 7974 7965 7964 7962 ] final  -81.73 input  175.53 | X-H torsion
[ 8008 7997 7996 7995 ] final -157.74 input   59.86 | X-H torsion
[ 10167 10162 10161 10158 ] final  126.61 input  -65.29 | X-H torsion
[ 10718 10713 10712 10709 ] final  -59.92 input   66.30 | X-H torsion
[ 10763 10752 10751 10750 ] final  -55.43 input  -60.55 | X-H torsion
[ 11005 11000 10999 10996 ] final   59.16 input  -57.11 | X-H torsion

> <Gold.Protein.ActiveResidues>
 VAL166  LYS551  ARG553  GLY616  TRP617  ASP618  TYR619  PRO620  LYS621  CYS622 
 ASP623  PHE694  ASN695  SER759  ASP760  ASP761  ALA762  ILE779  LEU786  VAL792 
 PHE793  MET794  SER795  GLU796  ALA797  LYS798  CYS799  TRP800  GLU811  SER814 

> <Gold.Protein.RotatedAtoms>
  151.4888  133.3529  159.2849 H   0  0  0  0  0  0  0  0  0  0  0  0  # atno 6907 bound_to 6896
  150.8849  134.8247  159.7262 H   0  0  0  0  0  0  0  0  0  0  0  0  # atno 6908 bound_to 6896
  152.4786  134.4790  159.9711 H   0  0  0  0  0  0  0  0  0  0  0  0  # atno 6909 bound_to 6896
  145.5427  140.9507  143.1542 H   0  0  0  0  0  0  0  0  0  0  0  0  # atno 7974 bound_to 7965
  155.7369  140.0809  157.2263 H   0  0  0  0  0  0  0  0  0  0  0  0  # atno 8008 bound_to 7997
  154.4026  140.1585  156.2627 H   0  0  0  0  0  0  0  0  0  0  0  0  # atno 8009 bound_to 7997
  155.9056  140.3407  155.6062 H   0  0  0  0  0  0  0  0  0  0  0  0  # atno 8010 bound_to 7997
  139.5622  144.6889  151.4011 H   0  0  0  0  0  0  0  0  0  0  0  0  # atno 10167 bound_to 10162
  156.1027  130.4184  150.0782 H   0  0  0  0  0  0  0  0  0  0  0  0  # atno 10718 bound_to 10713
  154.1907  135.6428  153.5059 H   0  0  0  0  0  0  0  0  0  0  0  0  # atno 10763 bound_to 10752
  153.0036  135.5428  154.6418 H   0  0  0  0  0  0  0  0  0  0  0  0  # atno 10764 bound_to 10752
  154.5806  135.2925  155.0709 H   0  0  0  0  0  0  0  0  0  0  0  0  # atno 10765 bound_to 10752
  140.0324  134.5992  155.9489 H   0  0  0  0  0  0  0  0  0  0  0  0  # atno 11005 bound_to 11000
  144.7569  139.7053  143.7250 LP  0  0  0  0  0  0  0  0  0  0  0  0  # atno 17320 bound_to 7965
  146.1970  139.5242  142.9768 LP  0  0  0  0  0  0  0  0  0  0  0  0  # atno 17321 bound_to 7965
  140.6903  143.7878  150.7245 LP  0  0  0  0  0  0  0  0  0  0  0  0  # atno 17342 bound_to 10162
  140.1358  143.4485  152.2225 LP  0  0  0  0  0  0  0  0  0  0  0  0  # atno 17343 bound_to 10162
  156.8765  130.9542  151.3604 LP  0  0  0  0  0  0  0  0  0  0  0  0  # atno 17370 bound_to 10713
  157.6200  130.8647  149.9092 LP  0  0  0  0  0  0  0  0  0  0  0  0  # atno 17371 bound_to 10713
  141.1838  133.6551  156.5133 LP  0  0  0  0  0  0  0  0  0  0  0  0  # atno 17394 bound_to 11000
  140.4203  134.7193  157.4886 LP  0  0  0  0  0  0  0  0  0  0  0  0  # atno 17395 bound_to 11000

$$$$
