AV-unprocessed.smi:234|AV-procd|sdf|1797|dock3
  -GOLD-   2262020363D 1   1.00000     0.00000
 Structure written by MMmdl.
 59 62  0  0  0  0  0  0  0  0  1 V2000
  153.4805  143.2650  159.2876 C   0  0  0  0  0  0  0  0  0  0  0  0
  152.5377  142.4183  160.1534 C   0  0  0  0  0  0  0  0  0  0  0  0
  151.1745  142.7145  159.8867 O   0  0  0  0  0  0  0  0  0  0  0  0
  150.8703  142.8898  158.5058 C   0  0  2  0  0  0  0  0  0  0  0  0
  149.3779  143.1751  158.3339 C   0  0  0  0  0  0  0  0  0  0  0  0
  149.1882  141.6548  158.2337 C   0  0  1  0  0  0  0  0  0  0  0  0
  148.1831  141.2374  157.2502 N   0  0  0  0  0  0  0  0  0  0  0  0
  148.2620  139.8779  156.7260 C   0  0  0  0  0  0  0  0  0  0  0  0
  146.9012  141.6330  157.4469 C   0  0  0  0  0  0  0  0  0  0  0  0
  146.3096  141.4604  158.6591 N   0  0  0  0  0  0  0  0  0  0  0  0
  145.0426  141.8401  158.8484 C   0  0  0  0  0  0  0  0  0  0  0  0
  144.2012  142.4025  157.9786 N   0  0  0  0  0  0  0  0  0  0  0  0
  144.7896  142.5750  156.7602 C   0  0  0  0  0  0  0  0  0  0  0  0
  146.1209  142.2140  156.4101 C   0  0  0  0  0  0  0  0  0  0  0  0
  146.3677  142.5368  155.0815 N   0  0  0  0  0  0  0  0  0  0  0  0
  145.2466  143.0641  154.6706 C   0  0  0  0  0  0  0  0  0  0  0  0
  144.2482  143.1354  155.6164 N   0  0  0  0  0  0  0  0  0  0  0  0
  142.9131  143.6849  155.4327 C   0  0  0  0  0  0  0  0  0  0  0  0
  142.9165  145.1201  154.8429 C   0  0  2  0  0  0  0  0  0  0  0  0
  143.3142  145.0298  153.4844 O   0  0  0  0  0  0  0  0  0  0  0  0
  143.8775  146.0714  155.5495 C   0  0  0  0  0  0  0  0  0  0  0  0
  143.2453  147.4335  155.3097 C   0  0  0  0  0  0  0  0  0  0  0  0
  141.8635  147.1615  155.4639 O   0  0  0  0  0  0  0  0  0  0  0  0
  141.5673  145.8915  154.8860 C   0  0  2  0  0  0  0  0  0  0  0  0
  140.4388  145.2619  155.7176 C   0  0  0  0  0  0  0  0  0  0  0  0
  150.6606  141.5540  157.7457 C   0  0  0  0  0  0  0  0  0  0  0  0
  150.9199  141.6515  156.2333 C   0  0  0  0  0  0  0  0  0  0  0  0
  151.4702  140.3567  158.2517 C   0  0  0  0  0  0  0  0  0  0  0  0
  154.5199  142.9891  159.4652 H   0  0  0  0  0  0  0  0  0  0  0  0
  153.3802  144.3288  159.5029 H   0  0  0  0  0  0  0  0  0  0  0  0
  153.2739  143.1167  158.2275 H   0  0  0  0  0  0  0  0  0  0  0  0
  152.6985  141.3643  159.9266 H   0  0  0  0  0  0  0  0  0  0  0  0
  152.7579  142.5435  161.2148 H   0  0  0  0  0  0  0  0  0  0  0  0
  151.5035  143.6096  157.9836 H   0  0  0  0  0  0  0  0  0  0  0  0
  148.8985  143.6402  159.1960 H   0  0  0  0  0  0  0  0  0  0  0  0
  149.1518  143.7119  157.4109 H   0  0  0  0  0  0  0  0  0  0  0  0
  149.0519  141.2008  159.2171 H   0  0  0  0  0  0  0  0  0  0  0  0
  147.3785  139.2901  156.9812 H   0  0  0  0  0  0  0  0  0  0  0  0
  149.1278  139.3507  157.1248 H   0  0  0  0  0  0  0  0  0  0  0  0
  148.3529  139.9016  155.6400 H   0  0  0  0  0  0  0  0  0  0  0  0
  144.6471  141.6694  159.8387 H   0  0  0  0  0  0  0  0  0  0  0  0
  145.1181  143.4279  153.6614 H   0  0  0  0  0  0  0  0  0  0  0  0
  142.3552  143.0084  154.7839 H   0  0  0  0  0  0  0  0  0  0  0  0
  142.4121  143.6680  156.4008 H   0  0  0  0  0  0  0  0  0  0  0  0
  143.1632  144.1454  153.1869 H   0  0  0  0  0  0  0  0  0  0  0  0
  143.8797  145.8738  156.6219 H   0  0  0  0  0  0  0  0  0  0  0  0
  144.9076  146.0039  155.1965 H   0  0  0  0  0  0  0  0  0  0  0  0
  143.5887  148.1897  156.0158 H   0  0  0  0  0  0  0  0  0  0  0  0
  143.4428  147.7877  154.2969 H   0  0  0  0  0  0  0  0  0  0  0  0
  141.1935  146.0643  153.8751 H   0  0  0  0  0  0  0  0  0  0  0  0
  140.1472  144.2885  155.3229 H   0  0  0  0  0  0  0  0  0  0  0  0
  139.5523  145.8965  155.7033 H   0  0  0  0  0  0  0  0  0  0  0  0
  140.7321  145.1350  156.7600 H   0  0  0  0  0  0  0  0  0  0  0  0
  150.6694  140.7240  155.7181 H   0  0  0  0  0  0  0  0  0  0  0  0
  151.9690  141.8642  156.0253 H   0  0  0  0  0  0  0  0  0  0  0  0
  150.3354  142.4446  155.7663 H   0  0  0  0  0  0  0  0  0  0  0  0
  151.2077  139.4390  157.7255 H   0  0  0  0  0  0  0  0  0  0  0  0
  151.3012  140.1743  159.3130 H   0  0  0  0  0  0  0  0  0  0  0  0
  152.5404  140.5132  158.1162 H   0  0  0  0  0  0  0  0  0  0  0  0
  1  2  1  0  0  0  0
  1 29  1  0  0  0  0
  1 30  1  0  0  0  0
  1 31  1  0  0  0  0
  2  3  1  0  0  0  0
  2 32  1  0  0  0  0
  2 33  1  0  0  0  0
  3  4  1  0  0  0  0
  4 26  1  0  0  0  0
  4  5  1  0  0  0  0
  4 34  1  0  0  0  0
  5  6  1  0  0  0  0
  5 35  1  0  0  0  0
  5 36  1  0  0  0  0
  6  7  1  0  0  0  0
  6 26  1  0  0  0  0
  6 37  1  0  0  0  0
  7  8  1  0  0  0  0
  7  9  1  0  0  0  0
  8 38  1  0  0  0  0
  8 39  1  0  0  0  0
  8 40  1  0  0  0  0
  9 14  1  0  0  0  0
  9 10  2  0  0  0  0
 10 11  1  0  0  0  0
 11 12  2  0  0  0  0
 11 41  1  0  0  0  0
 12 13  1  0  0  0  0
 13 17  1  0  0  0  0
 13 14  2  0  0  0  0
 14 15  1  0  0  0  0
 15 16  2  0  0  0  0
 16 17  1  0  0  0  0
 16 42  1  0  0  0  0
 17 18  1  0  0  0  0
 18 19  1  0  0  0  0
 18 43  1  0  0  0  0
 18 44  1  0  0  0  0
 19 24  1  0  0  0  0
 19 20  1  0  0  0  0
 19 21  1  0  0  0  0
 20 45  1  0  0  0  0
 21 22  1  0  0  0  0
 21 46  1  0  0  0  0
 21 47  1  0  0  0  0
 22 23  1  0  0  0  0
 22 48  1  0  0  0  0
 22 49  1  0  0  0  0
 23 24  1  0  0  0  0
 24 25  1  0  0  0  0
 24 50  1  0  0  0  0
 25 51  1  0  0  0  0
 25 52  1  0  0  0  0
 25 53  1  0  0  0  0
 26 27  1  0  0  0  0
 26 28  1  0  0  0  0
 27 54  1  0  0  0  0
 27 55  1  0  0  0  0
 27 56  1  0  0  0  0
 28 57  1  0  0  0  0
 28 58  1  0  0  0  0
 28 59  1  0  0  0  0
M  END
> <s_m_source_file>
AV-unprocessed.smi

> <i_m_source_file_index>
234

> <i_lp_mmshare_version>
43012

> <i_f3d_flags>
0

> <s_epik_input>
W0NIM11bQ0gyXU9bQ0BASF0oQzEoW0NIM10pW0NIM10pW0NIMl1bQ0BIXTFOKFtDSDNdKWMobltjSF1uMiljKGMyMyluW2NIXW4zW0NIMl1bQ0BAXTQoW09IXSlbQ0gyXVtDSDJdT1tDQEhdNFtDSDNd

> <s_epik_cmdline>
J2VwaWtfcHl0aG9uJywgJy1waCcsICc3LjAnLCAnLXRuJywgJzgnLCAnLW1hJywgJzIwMCcsICctbWV0YWxfYmluZGluZycsICctaW1hZScsICc8aW5maWxlLm1hZT4nLCAnLW9tYWUnLCAnPG91dGZpbGUubWFlPic=

> <r_lp_tautomer_probability>
1

> <r_epik_Ionization_Penalty>
0.00349132

> <r_epik_Ionization_Penalty_Charging>
0

> <r_epik_Ionization_Penalty_Neutral>
0.00349132

> <r_epik_State_Penalty>
0.00242418

> <r_epik_Charging_Adjusted_Penalty>
0.00242418

> <i_epik_Tot_Q>
0

> <i_epik_Tot_abs_Q>
0

> <r_epik_Metal_State_Penalty>
-0

> <b_epik_Metal_Only>
0

> <s_lp_Force_Field>
OPLS_2005

> <r_lp_Energy>
49.2938

> <b_lp_Chiralities_Consistent>
1

> <s_lp_Variant>
AV-unprocessed.smi:234-13

> <Gold.Version>
5.8.1

> <Gold.Id.Protein>
6NUR|6NUR_protein|mol2

> <Gold.PLP.Fitness>
42.2682

> <Gold.PLP.PLP>
-39.3233

> <Gold.PLP.part.hbond>
-4.0000

> <Gold.PLP.part.metal>
0.0000

> <Gold.PLP.part.buried>
-6.0885

> <Gold.PLP.part.nonpolar>
-30.6434

> <Gold.PLP.part.repulsive>
0.2746

> <Gold.PLP.ligand.clash>
0.0000

> <Gold.PLP.ligand.torsion>
1.0227

> <Gold.PLP.Chemscore.Hbond>
1.2714

> <Gold.PLP.Chemscore.CHOScore>
0.0000

> <Gold.PLP.Chemscore.Metal>
0.0000

> <Gold.Chemscore.Hbonds>
donor molecule, donor type, donor heavy atom, donor atom, acceptor molecule, acceptor atom, score
      L1  H    20    45       P1 10174  1.00
      P1  H  6934  6946       L1    10  0.36

> <Gold.PLP.Chemscore.Internal.Correction>
1.1761

> <Gold.Rescore>
     Score         DG    S(hbond)    S(metal)    S(lipo)     H(rot)  DE(clash)    DE(int)     intcor
     10.65     -14.08       1.31        0.00      93.43       2.62       1.22       2.21       ----

> <Gold.Chemscore.Fitness>
10.6506

> <Gold.Chemscore.DG>
-14.0850

> <Gold.Chemscore.ZeroCoef>
-5.4800

> <Gold.Chemscore.Hbond>
1.3131

> <Gold.Chemscore.Metal>
0.0000

> <Gold.Chemscore.Lipo>
93.4308

> <Gold.Chemscore.Internal_Hbond>
0.0000

> <Gold.Chemscore.DEClash>
1.2200

> <Gold.Chemscore.DEInternal>
2.2143

> <Gold.Chemscore.Rot>
2.6219

> <Gold.Chemscore.Internal.Correction>
   9.000000E+99

> <Gold.Chemscore.Hbonds>
donor molecule, donor type, donor heavy atom, donor atom, acceptor molecule, acceptor atom, score
      L1  H    20    45       P1 10174  0.95
      P1  H  6934  6946       L1    10  0.12

> <Gold.Chemscore.Hbond.Weighted>
-4.3857

> <Gold.Chemscore.Metal.Weighted>
-0.0000

> <Gold.Chemscore.Lipo.Weighted>
-10.9314

> <Gold.Chemscore.Internal_Hbond.Weighted>
0.0000

> <Gold.Chemscore.DEClash.Weighted>
1.2200

> <Gold.Chemscore.DEInternal.Weighted>
2.2143

> <Gold.Chemscore.Rot.Weighted>
6.7121

> <Gold.Chemscore.Internal.Correction.Weighted>
   9.000000E+99

> <Gold.Protein.RotatedTorsions>
[ 6907 6896 6895 6894 ] final   10.22 input  -60.11 | X-H torsion
[ 7974 7965 7964 7962 ] final  -61.85 input  175.53 | X-H torsion
[ 8008 7997 7996 7995 ] final  123.59 input   59.86 | X-H torsion
[ 10167 10162 10161 10158 ] final  160.15 input  -65.29 | X-H torsion
[ 10718 10713 10712 10709 ] final -149.12 input   66.30 | X-H torsion
[ 10763 10752 10751 10750 ] final    0.81 input  -60.55 | X-H torsion
[ 11005 11000 10999 10996 ] final -146.39 input  -57.11 | X-H torsion

> <Gold.Protein.ActiveResidues>
 VAL166  LYS551  ARG553  GLY616  TRP617  ASP618  TYR619  PRO620  LYS621  CYS622 
 ASP623  PHE694  ASN695  SER759  ASP760  ASP761  ALA762  ILE779  LEU786  VAL792 
 PHE793  MET794  SER795  GLU796  ALA797  LYS798  CYS799  TRP800  GLU811  SER814 

> <Gold.Protein.RotatedAtoms>
  151.7347  135.0867  160.0305 H   0  0  0  0  0  0  0  0  0  0  0  0  # atno 6907 bound_to 6896
  152.3518  133.6184  159.5959 H   0  0  0  0  0  0  0  0  0  0  0  0  # atno 6908 bound_to 6896
  150.7545  133.9478  159.3518 H   0  0  0  0  0  0  0  0  0  0  0  0  # atno 6909 bound_to 6896
  145.7985  140.8669  143.0244 H   0  0  0  0  0  0  0  0  0  0  0  0  # atno 7974 bound_to 7965
  156.2771  140.2759  156.1652 H   0  0  0  0  0  0  0  0  0  0  0  0  # atno 8008 bound_to 7997
  155.0712  140.0387  157.2627 H   0  0  0  0  0  0  0  0  0  0  0  0  # atno 8009 bound_to 7997
  154.7039  140.2655  155.6699 H   0  0  0  0  0  0  0  0  0  0  0  0  # atno 8010 bound_to 7997
  139.4837  144.4662  151.8638 H   0  0  0  0  0  0  0  0  0  0  0  0  # atno 10167 bound_to 10162
  156.4290  130.8066  151.2292 H   0  0  0  0  0  0  0  0  0  0  0  0  # atno 10718 bound_to 10713
  153.3159  135.6966  153.7074 H   0  0  0  0  0  0  0  0  0  0  0  0  # atno 10763 bound_to 10752
  153.5933  135.3476  155.2919 H   0  0  0  0  0  0  0  0  0  0  0  0  # atno 10764 bound_to 10752
  154.8586  135.4323  154.2310 H   0  0  0  0  0  0  0  0  0  0  0  0  # atno 10765 bound_to 10752
  140.7824  134.3063  157.5041 H   0  0  0  0  0  0  0  0  0  0  0  0  # atno 11005 bound_to 11000
  144.6772  140.0224  143.7483 LP  0  0  0  0  0  0  0  0  0  0  0  0  # atno 17320 bound_to 7965
  145.9903  139.3010  143.0989 LP  0  0  0  0  0  0  0  0  0  0  0  0  # atno 17321 bound_to 7965
  140.4128  144.2347  150.5888 LP  0  0  0  0  0  0  0  0  0  0  0  0  # atno 17342 bound_to 10162
  140.4950  143.2335  151.8763 LP  0  0  0  0  0  0  0  0  0  0  0  0  # atno 17343 bound_to 10162
  157.7508  131.0204  150.3707 LP  0  0  0  0  0  0  0  0  0  0  0  0  # atno 17370 bound_to 10713
  156.4041  130.3921  149.6939 LP  0  0  0  0  0  0  0  0  0  0  0  0  # atno 17371 bound_to 10713
  139.8741  134.9326  156.3559 LP  0  0  0  0  0  0  0  0  0  0  0  0  # atno 17394 bound_to 11000
  140.9469  133.7477  156.0220 LP  0  0  0  0  0  0  0  0  0  0  0  0  # atno 17395 bound_to 11000

$$$$
