AV-unprocessed.smi:2143|AV-procd|sdf|8725|dock1
  -GOLD-   2272011493D 1   1.00000     0.00000
 Structure written by MMmdl.
 44 45  0  0  0  0  0  0  0  0  1 V2000
  144.9710  140.4487  155.3428 C   0  0  0  0  0  0  0  0  0  0  0  0
  145.3682  141.9344  155.2209 C   0  0  1  0  0  0  0  0  0  0  0  0
  144.6298  142.8057  156.2571 C   0  0  0  0  0  0  0  0  0  0  0  0
  145.1691  142.5972  157.6806 C   0  0  0  0  0  0  0  0  0  0  0  0
  146.6810  142.8521  157.7413 C   0  0  0  0  0  0  0  0  0  0  0  0
  147.4526  141.9901  156.7232 C   0  0  2  0  0  0  0  0  0  0  0  0
  148.8693  142.3458  156.7967 N   0  0  0  0  0  0  0  0  0  0  0  0
  149.8821  141.5036  157.0543 C   0  0  0  0  0  0  0  0  0  0  0  0
  149.7320  140.2932  157.2274 O   0  0  0  0  0  0  0  0  0  0  0  0
  151.2806  142.1343  157.0971 C   0  0  0  0  0  0  0  0  0  0  0  0
  151.8216  142.2481  158.4576 N   0  0  0  0  0  0  0  0  0  0  0  0
  151.5300  143.3645  159.2197 C   0  0  0  0  0  0  0  0  0  0  0  0
  152.0020  143.5562  160.4709 C   0  0  0  0  0  0  0  0  0  0  0  0
  152.8667  142.5682  161.1048 C   0  0  0  0  0  0  0  0  0  0  0  0
  153.3361  142.7133  162.2339 O   0  0  0  0  0  0  0  0  0  0  0  0
  153.1362  141.4284  160.3095 N   0  0  0  0  0  0  0  0  0  0  0  0
  154.0040  140.4002  160.8457 C   0  0  0  0  0  0  0  0  0  0  0  0
  152.6523  141.2413  158.9954 C   0  0  0  0  0  0  0  0  0  0  0  0
  152.9431  140.2447  158.3288 O   0  0  0  0  0  0  0  0  0  0  0  0
  146.8982  142.1909  155.2870 C   0  0  1  0  0  0  0  0  0  0  0  0
  147.6708  141.3929  154.2180 C   0  0  0  0  0  0  0  0  0  0  0  0
  145.3161  140.0039  156.2757 H   0  0  0  0  0  0  0  0  0  0  0  0
  145.3791  139.8563  154.5242 H   0  0  0  0  0  0  0  0  0  0  0  0
  143.8874  140.3327  155.3069 H   0  0  0  0  0  0  0  0  0  0  0  0
  145.0263  142.2603  154.2376 H   0  0  0  0  0  0  0  0  0  0  0  0
  144.7413  143.8566  155.9863 H   0  0  0  0  0  0  0  0  0  0  0  0
  143.5591  142.6007  156.2305 H   0  0  0  0  0  0  0  0  0  0  0  0
  144.6549  143.2654  158.3718 H   0  0  0  0  0  0  0  0  0  0  0  0
  144.9523  141.5838  158.0190 H   0  0  0  0  0  0  0  0  0  0  0  0
  146.8722  143.9092  157.5492 H   0  0  0  0  0  0  0  0  0  0  0  0
  147.0444  142.6527  158.7502 H   0  0  0  0  0  0  0  0  0  0  0  0
  147.3216  140.9447  157.0061 H   0  0  0  0  0  0  0  0  0  0  0  0
  149.0955  143.3198  156.6566 H   0  0  0  0  0  0  0  0  0  0  0  0
  151.9457  141.5274  156.4813 H   0  0  0  0  0  0  0  0  0  0  0  0
  151.2561  143.1175  156.6235 H   0  0  0  0  0  0  0  0  0  0  0  0
  150.8965  144.1289  158.7930 H   0  0  0  0  0  0  0  0  0  0  0  0
  151.7393  144.4552  161.0090 H   0  0  0  0  0  0  0  0  0  0  0  0
  153.6054  139.4247  160.5616 H   0  0  0  0  0  0  0  0  0  0  0  0
  154.0298  140.4519  161.9344 H   0  0  0  0  0  0  0  0  0  0  0  0
  154.9940  140.5674  160.4190 H   0  0  0  0  0  0  0  0  0  0  0  0
  147.0418  143.2437  155.0372 H   0  0  0  0  0  0  0  0  0  0  0  0
  147.7024  140.3294  154.4554 H   0  0  0  0  0  0  0  0  0  0  0  0
  148.7008  141.7383  154.1292 H   0  0  0  0  0  0  0  0  0  0  0  0
  147.2109  141.5039  153.2357 H   0  0  0  0  0  0  0  0  0  0  0  0
  1  2  1  0  0  0  0
  1 22  1  0  0  0  0
  1 23  1  0  0  0  0
  1 24  1  0  0  0  0
  2 20  1  0  0  0  0
  2  3  1  0  0  0  0
  2 25  1  0  0  0  0
  3  4  1  0  0  0  0
  3 26  1  0  0  0  0
  3 27  1  0  0  0  0
  4  5  1  0  0  0  0
  4 28  1  0  0  0  0
  4 29  1  0  0  0  0
  5  6  1  0  0  0  0
  5 30  1  0  0  0  0
  5 31  1  0  0  0  0
  6  7  1  0  0  0  0
  6 20  1  0  0  0  0
  6 32  1  0  0  0  0
  7  8  1  0  0  0  0
  7 33  1  0  0  0  0
  8  9  2  0  0  0  0
  8 10  1  0  0  0  0
 10 11  1  0  0  0  0
 10 34  1  0  0  0  0
 10 35  1  0  0  0  0
 11 18  1  0  0  0  0
 11 12  1  0  0  0  0
 12 13  2  0  0  0  0
 12 36  1  0  0  0  0
 13 14  1  0  0  0  0
 13 37  1  0  0  0  0
 14 15  2  0  0  0  0
 14 16  1  0  0  0  0
 16 17  1  0  0  0  0
 16 18  1  0  0  0  0
 17 38  1  0  0  0  0
 17 39  1  0  0  0  0
 17 40  1  0  0  0  0
 18 19  2  0  0  0  0
 20 21  1  0  0  0  0
 20 41  1  0  0  0  0
 21 42  1  0  0  0  0
 21 43  1  0  0  0  0
 21 44  1  0  0  0  0
M  END
> <s_m_source_file>
AV-unprocessed.smi

> <i_m_source_file_index>
2143

> <i_lp_mmshare_version>
43012

> <i_f3d_flags>
0

> <s_epik_input>
W0NIM11bQ0BASF0xW0NIMl1bQ0gyXVtDSDJdW0NASF0oW0NASF0xW0NIM10pW05IXUMoPU8pW0NIMl1uMltjSF1bY0hdYyg9TyluKFtDSDNdKWMyPU8=

> <s_epik_cmdline>
J2VwaWtfcHl0aG9uJywgJy1waCcsICc3LjAnLCAnLXRuJywgJzgnLCAnLW1hJywgJzIwMCcsICctbWV0YWxfYmluZGluZycsICctaW1hZScsICc8aW5maWxlLm1hZT4nLCAnLW9tYWUnLCAnPG91dGZpbGUubWFlPic=

> <r_lp_tautomer_probability>
1

> <r_epik_Ionization_Penalty>
3.18445e-08

> <r_epik_Ionization_Penalty_Charging>
1.27977e-08

> <r_epik_Ionization_Penalty_Neutral>
1.90469e-08

> <r_epik_State_Penalty>
-0

> <r_epik_Charging_Adjusted_Penalty>
1.27977e-08

> <i_epik_Tot_Q>
0

> <i_epik_Tot_abs_Q>
0

> <r_epik_Metal_State_Penalty>
-0

> <b_epik_Metal_Only>
0

> <s_lp_Force_Field>
OPLS_2005

> <r_lp_Energy>
21.4204

> <b_lp_Chiralities_Consistent>
1

> <s_lp_Variant>
AV-unprocessed.smi:2143-4

> <Gold.Version>
5.8.1

> <Gold.Id.Protein>
6NUR|6NUR_protein|mol2

> <Gold.PLP.Fitness>
40.4306

> <Gold.PLP.PLP>
-35.8159

> <Gold.PLP.part.hbond>
-2.0000

> <Gold.PLP.part.metal>
0.0000

> <Gold.PLP.part.buried>
-4.3014

> <Gold.PLP.part.nonpolar>
-29.1073

> <Gold.PLP.part.repulsive>
0.0551

> <Gold.PLP.ligand.clash>
0.0000

> <Gold.PLP.ligand.torsion>
0.5513

> <Gold.PLP.Chemscore.Hbond>
1.9040

> <Gold.PLP.Chemscore.CHOScore>
0.0000

> <Gold.PLP.Chemscore.Metal>
0.0000

> <Gold.Chemscore.Hbonds>
donor molecule, donor type, donor heavy atom, donor atom, acceptor molecule, acceptor atom, score
      L1  H     7    33       P1  8028  0.93
      P1  H  7997  8008       L1    19  0.77

> <Gold.PLP.Chemscore.Internal.Correction>
0.0052

> <Gold.Rescore>
     Score         DG    S(hbond)    S(metal)    S(lipo)     H(rot)  DE(clash)    DE(int)     intcor
     14.36     -15.00       1.86        0.00      61.50       1.51       0.05       0.59       ----

> <Gold.Chemscore.Fitness>
14.3586

> <Gold.Chemscore.DG>
-15.0045

> <Gold.Chemscore.ZeroCoef>
-5.4800

> <Gold.Chemscore.Hbond>
1.8570

> <Gold.Chemscore.Metal>
0.0000

> <Gold.Chemscore.Lipo>
61.5002

> <Gold.Chemscore.Internal_Hbond>
0.0000

> <Gold.Chemscore.DEClash>
0.0515

> <Gold.Chemscore.DEInternal>
0.5944

> <Gold.Chemscore.Rot>
1.5131

> <Gold.Chemscore.Internal.Correction>
   9.000000E+99

> <Gold.Chemscore.Hbonds>
donor molecule, donor type, donor heavy atom, donor atom, acceptor molecule, acceptor atom, score
      L1  H     7    33       P1  8028  0.88
      P1  H  7997  8008       L1    19  0.74

> <Gold.Chemscore.Hbond.Weighted>
-6.2025

> <Gold.Chemscore.Metal.Weighted>
-0.0000

> <Gold.Chemscore.Lipo.Weighted>
-7.1955

> <Gold.Chemscore.Internal_Hbond.Weighted>
0.0000

> <Gold.Chemscore.DEClash.Weighted>
0.0515

> <Gold.Chemscore.DEInternal.Weighted>
0.5944

> <Gold.Chemscore.Rot.Weighted>
3.8734

> <Gold.Chemscore.Internal.Correction.Weighted>
   9.000000E+99

> <Gold.Protein.RotatedTorsions>
[ 6907 6896 6895 6894 ] final  -43.46 input  -60.11 | X-H torsion
[ 7974 7965 7964 7962 ] final -122.67 input  175.53 | X-H torsion
[ 8008 7997 7996 7995 ] final  -85.44 input   59.86 | X-H torsion
[ 10167 10162 10161 10158 ] final -154.69 input  -65.29 | X-H torsion
[ 10718 10713 10712 10709 ] final  110.57 input   66.30 | X-H torsion
[ 10763 10752 10751 10750 ] final  175.45 input  -60.55 | X-H torsion
[ 11005 11000 10999 10996 ] final  105.10 input  -57.11 | X-H torsion

> <Gold.Protein.ActiveResidues>
 VAL166  LYS551  ARG553  GLY616  TRP617  ASP618  TYR619  PRO620  LYS621  CYS622 
 ASP623  PHE694  ASN695  SER759  ASP760  ASP761  ALA762  ILE779  LEU786  VAL792 
 PHE793  MET794  SER795  GLU796  ALA797  LYS798  CYS799  TRP800  GLU811  SER814 

> <Gold.Protein.RotatedAtoms>
  150.9437  134.8843  159.7627 H   0  0  0  0  0  0  0  0  0  0  0  0  # atno 6907 bound_to 6896
  152.5091  134.3906  159.9392 H   0  0  0  0  0  0  0  0  0  0  0  0  # atno 6908 bound_to 6896
  151.3925  133.3744  159.2757 H   0  0  0  0  0  0  0  0  0  0  0  0  # atno 6909 bound_to 6896
  145.0270  140.8036  143.4346 H   0  0  0  0  0  0  0  0  0  0  0  0  # atno 7974 bound_to 7965
  154.6408  140.0591  156.9843 H   0  0  0  0  0  0  0  0  0  0  0  0  # atno 8008 bound_to 7997
  155.1520  140.3275  155.4410 H   0  0  0  0  0  0  0  0  0  0  0  0  # atno 8009 bound_to 7997
  156.2530  140.1945  156.6632 H   0  0  0  0  0  0  0  0  0  0  0  0  # atno 8010 bound_to 7997
  139.6992  143.9291  152.2421 H   0  0  0  0  0  0  0  0  0  0  0  0  # atno 10167 bound_to 10162
  157.6487  131.0935  150.6622 H   0  0  0  0  0  0  0  0  0  0  0  0  # atno 10718 bound_to 10713
  154.4678  135.2770  155.1665 H   0  0  0  0  0  0  0  0  0  0  0  0  # atno 10763 bound_to 10752
  154.3427  135.6167  153.5608 H   0  0  0  0  0  0  0  0  0  0  0  0  # atno 10764 bound_to 10752
  152.9861  135.5792  154.5053 H   0  0  0  0  0  0  0  0  0  0  0  0  # atno 10765 bound_to 10752
  139.8798  134.9324  156.5462 H   0  0  0  0  0  0  0  0  0  0  0  0  # atno 11005 bound_to 11000
  145.1821  139.2346  143.5287 LP  0  0  0  0  0  0  0  0  0  0  0  0  # atno 17320 bound_to 7965
  146.3493  140.1597  142.8591 LP  0  0  0  0  0  0  0  0  0  0  0  0  # atno 17321 bound_to 7965
  139.9128  144.6846  150.8543 LP  0  0  0  0  0  0  0  0  0  0  0  0  # atno 17342 bound_to 10162
  140.7705  143.3430  151.2168 LP  0  0  0  0  0  0  0  0  0  0  0  0  # atno 17343 bound_to 10162
  156.6935  130.4602  149.5593 LP  0  0  0  0  0  0  0  0  0  0  0  0  # atno 17370 bound_to 10713
  156.1845  130.6520  151.0990 LP  0  0  0  0  0  0  0  0  0  0  0  0  # atno 17371 bound_to 10713
  140.8274  133.8306  155.8951 LP  0  0  0  0  0  0  0  0  0  0  0  0  # atno 17394 bound_to 11000
  140.9361  134.1960  157.4830 LP  0  0  0  0  0  0  0  0  0  0  0  0  # atno 17395 bound_to 11000

$$$$
