#       Name:                AV-unprocessed.smi:2739
#       Creating user name   scv26
#       Creation time:       Fri Mar 27 15:00:33 2020


#       File generated by GOLD software.
#

@<TRIPOS>MOLECULE
AV-unprocessed.smi:2739
    40    40     1
SMALL
NO_CHARGES


@<TRIPOS>ATOM
      1 ****        -2.2449  -0.4376  -4.0614 C.3            1 S1                 0.0000
      2 ****        -2.4319  -1.2183  -2.7524 C.3            1 S1                 0.0000
      3 ****        -2.3597  -0.3376  -1.4910 C.3            1 S1                 0.0000
      4 ****        -2.6553  -1.1476  -0.2186 C.3            1 S1                 0.0000
      5 ****        -1.0434   0.2865  -1.3868 N.am           1 S1                 0.0000
      6 ****        -0.7834   1.4696  -0.8074 C.2            1 S1                 0.0000
      7 ****        -1.6499   2.1876  -0.3094 O.2            1 S1                 0.0000
      8 ****         0.6813   1.9107  -0.7850 C.3            1 S1                 0.0000
      9 ****         1.4697   1.0734   0.1019 N.pl3          1 S1                 0.0000
     10 ****         2.2213  -0.0388  -0.2114 C.2            1 S1                 0.0000
     11 ****         2.7654  -0.5012   0.9521 C.2            1 S1                 0.0000
     12 ****         2.2869   0.4052   1.9428 C.2            1 S1                 0.0000
     13 ****         2.5417   0.3971   3.4276 C.3            1 S1                 0.0000
     14 ****         1.3635  -0.2185   4.1948 C.3            1 S1                 0.0000
     15 ****         3.7118  -0.3197   3.7637 O.3            1 S1                 0.0000
     16 ****         1.5131   1.3475   1.4235 N.2            1 S1                 0.0000
     17 ****        -2.3479  -1.0978  -4.9227 H              1 S1                 0.0000
     18 ****        -1.2589   0.0240  -4.1175 H              1 S1                 0.0000
     19 ****        -2.9908   0.3519  -4.1575 H              1 S1                 0.0000
     20 ****        -3.4000  -1.7197  -2.7835 H              1 S1                 0.0000
     21 ****        -1.6832  -2.0097  -2.6946 H              1 S1                 0.0000
     22 ****        -3.1198   0.4404  -1.5838 H              1 S1                 0.0000
     23 ****        -3.6411  -1.6105  -0.2689 H              1 S1                 0.0000
     24 ****        -2.6375  -0.5125   0.6678 H              1 S1                 0.0000
     25 ****        -1.9216  -1.9414  -0.0736 H              1 S1                 0.0000
     26 ****        -0.2661  -0.2304  -1.7711 H              1 S1                 0.0000
     27 ****         1.0997   1.8559  -1.7909 H              1 S1                 0.0000
     28 ****         0.7583   2.9498  -0.4606 H              1 S1                 0.0000
     29 ****         2.3005  -0.4077  -1.2235 H              1 S1                 0.0000
     30 ****         3.4055  -1.3618   1.0785 H              1 S1                 0.0000
     31 ****         2.6867   1.4205   3.7762 H              1 S1                 0.0000
     32 ****         0.4430   0.3369   4.0113 H              1 S1                 0.0000
     33 ****         1.5444  -0.2077   5.2700 H              1 S1                 0.0000
     34 ****         1.1919  -1.2531   3.8951 H              1 S1                 0.0000
     35 ****         4.4514   0.1135   3.3656 H              1 S1                 0.0000
     36 ****        -2.6072   1.8988  -0.3231 LP             1 S1                 0.0000
     37 ****        -1.3968   3.0599   0.1090 LP             1 S1                 0.0000
     38 ****         3.6442  -1.2566   3.4207 LP             1 S1                 0.0000
     39 ****         3.8244  -0.3358   4.7572 LP             1 S1                 0.0000
     40 ****         1.0602   2.0978   1.9052 LP             1 S1                 0.0000
@<TRIPOS>BOND
    1    1    2 1     
    2    1   17 1     
    3    1   18 1     
    4    1   19 1     
    5    2    3 1     
    6    2   20 1     
    7    2   21 1     
    8    3    4 1     
    9    3    5 1     
   10    3   22 1     
   11    4   23 1     
   12    4   24 1     
   13    4   25 1     
   14    5    6 am    
   15    5   26 1     
   16    6    7 2     
   17    6    8 1     
   18    8    9 1     
   19    8   27 1     
   20    8   28 1     
   21    9   16 1     
   22    9   10 1     
   23   10   11 2     
   24   10   29 1     
   25   11   12 1     
   26   11   30 1     
   27   12   13 1     
   28   12   16 2     
   29   13   14 1     
   30   13   15 1     
   31   13   31 1     
   32   14   32 1     
   33   14   33 1     
   34   14   34 1     
   35   15   35 1     
   36    7   36 1     
   37    7   37 1     
   38   15   38 1     
   39   15   39 1     
   40   16   40 1     
@<TRIPOS>SUBSTRUCTURE
      1 S1             1
@<TRIPOS>SET
LONE_PAIRS      STATIC     ATOMS    <user>   **** ""
5 36 37 38 39 40
DONOR_HYDROGENS      STATIC     ATOMS    <user>   **** ""
2 26 35
ATOM$BLUE        STATIC     ATOMS    COLORGROUP SYSTEM
5 36 37 38 39 40
ATOM$RED        STATIC     ATOMS    COLORGROUP SYSTEM
2 26 35
