#       Name:                AV-unprocessed.smi:2773
#       Creating user name   scv26
#       Creation time:       Fri Mar 27 15:12:23 2020


#       File generated by GOLD software.
#

@<TRIPOS>MOLECULE
AV-unprocessed.smi:2773
    33    34     1
SMALL
NO_CHARGES


@<TRIPOS>ATOM
      1 ****        -0.0392  -3.5245   4.8115 C.3            1 S1                 0.0000
      2 ****        -0.6362  -2.9954   3.5257 C.3            1 S1                 0.0000
      3 ****        -0.8142  -3.9145   2.3472 C.3            1 S1                 0.0000
      4 ****         0.2189  -2.8108   2.2887 C.3            1 S1                 0.0000
      5 ****        -0.0728  -1.7098   1.4202 N.am           1 S1                 0.0000
      6 ****         0.7894  -0.8324   0.8754 C.2            1 S1                 0.0000
      7 ****         1.9996  -0.9299   1.0712 O.2            1 S1                 0.0000
      8 ****         0.2124   0.1024   0.0937 N.am           1 S1                 0.0000
      9 ****         0.8300   1.1809  -0.5929 C.ar           1 S1                 0.0000
     10 ****        -0.0455   1.9822  -1.3584 C.ar           1 S1                 0.0000
     11 ****         0.4695   3.0790  -2.0747 C.ar           1 S1                 0.0000
     12 ****         1.8479   3.3483  -2.0071 C.ar           1 S1                 0.0000
     13 ****         2.6571   2.5023  -1.2190 C.ar           1 S1                 0.0000
     14 ****         4.1565   2.7287  -1.0858 C.3            1 S1                 0.0000
     15 ****         4.8150   1.6467  -1.5017 F              1 S1                 0.0000
     16 ****         4.5636   3.7728  -1.8086 F              1 S1                 0.0000
     17 ****         4.4640   2.9551   0.1915 F              1 S1                 0.0000
     18 ****         2.1573   1.4496  -0.5328 N.ar           1 S1                 0.0000
     19 ****         0.7445  -4.2539   4.6043 H              1 S1                 0.0000
     20 ****        -0.8114  -4.0049   5.4127 H              1 S1                 0.0000
     21 ****         0.3923  -2.7057   5.3876 H              1 S1                 0.0000
     22 ****        -1.4256  -2.2618   3.6808 H              1 S1                 0.0000
     23 ****        -0.4486  -4.9355   2.4387 H              1 S1                 0.0000
     24 ****        -1.7207  -3.7987   1.7559 H              1 S1                 0.0000
     25 ****         1.2518  -3.1505   2.3498 H              1 S1                 0.0000
     26 ****        -1.0381  -1.6211   1.1373 H              1 S1                 0.0000
     27 ****        -0.7898   0.0406  -0.0073 H              1 S1                 0.0000
     28 ****        -1.1025   1.7621  -1.3989 H              1 S1                 0.0000
     29 ****        -0.1838   3.7041  -2.6656 H              1 S1                 0.0000
     30 ****         2.2651   4.1850  -2.5473 H              1 S1                 0.0000
     31 ****         2.3557  -1.6693   1.6425 LP             1 S1                 0.0000
     32 ****         2.6276  -0.2697   0.6591 LP             1 S1                 0.0000
     33 ****         2.7631   0.8731   0.0155 LP             1 S1                 0.0000
@<TRIPOS>BOND
    1    1    2 1     
    2    1   19 1     
    3    1   20 1     
    4    1   21 1     
    5    2    4 1     
    6    2    3 1     
    7    2   22 1     
    8    3    4 1     
    9    3   23 1     
   10    3   24 1     
   11    4    5 1     
   12    4   25 1     
   13    5    6 am    
   14    5   26 1     
   15    6    7 2     
   16    6    8 am    
   17    8    9 1     
   18    8   27 1     
   19    9   18 ar    
   20    9   10 ar    
   21   10   11 ar    
   22   10   28 1     
   23   11   12 ar    
   24   11   29 1     
   25   12   13 ar    
   26   12   30 1     
   27   13   14 1     
   28   13   18 ar    
   29   14   15 1     
   30   14   16 1     
   31   14   17 1     
   32    7   31 1     
   33    7   32 1     
   34   18   33 1     
@<TRIPOS>SUBSTRUCTURE
      1 S1             1
@<TRIPOS>SET
LONE_PAIRS      STATIC     ATOMS    <user>   **** ""
3 31 32 33
DONOR_HYDROGENS      STATIC     ATOMS    <user>   **** ""
2 26 27
ATOM$BLUE        STATIC     ATOMS    COLORGROUP SYSTEM
3 31 32 33
ATOM$RED        STATIC     ATOMS    COLORGROUP SYSTEM
2 26 27
