AV-unprocessed.smi:1978|AV-procd|sdf|7992|dock6
  -GOLD-   2272010173D 1   1.00000     0.00000
 Structure written by MMmdl.
 45 46  0  0  0  0  0  0  0  0  2 V2000
  145.3462  130.1686  152.1183 C   0  0  0  0  0  0  0  0  0  0  0  0
  145.2907  131.6516  151.9819 C   0  0  0  0  0  0  0  0  0  0  0  0
  146.2539  132.6211  151.9682 C   0  0  0  0  0  0  0  0  0  0  0  0
  145.5026  133.8155  151.8060 C   0  0  0  0  0  0  0  0  0  0  0  0
  146.1458  135.0785  151.7458 N   0  0  0  0  0  0  0  0  0  0  0  0
  145.5838  136.2898  151.8988 C   0  0  0  0  0  0  0  0  0  0  0  0
  144.3892  136.4952  152.1148 O   0  0  0  0  0  0  0  0  0  0  0  0
  146.4964  137.2682  151.7981 N   0  0  0  0  0  0  0  0  0  0  0  0
  146.2179  138.6992  151.9076 C   0  0  0  0  0  0  0  0  0  0  0  0
  147.1185  139.4233  152.9508 C   0  0  2  0  0  0  0  0  0  0  0  0
  147.6152  138.4114  154.0143 C   0  0  0  0  0  0  0  0  0  0  0  0
  146.4326  140.5965  153.5998 N   0  3  1  0  0  0  0  0  0  0  0  0
  145.7974  140.2761  154.9153 C   0  0  0  0  0  0  0  0  0  0  0  0
  144.9083  141.4255  155.4174 C   0  0  0  0  0  0  0  0  0  0  0  0
  145.6900  142.7364  155.5163 C   0  0  0  0  0  0  0  0  0  0  0  0
  146.3523  143.0390  154.1682 C   0  0  0  0  0  0  0  0  0  0  0  0
  147.2276  141.8690  153.6707 C   0  0  1  0  0  0  0  0  0  0  0  0
  148.5317  141.7350  154.4893 C   0  0  0  0  0  0  0  0  0  0  0  0
  144.1995  133.5950  151.7260 N   0  0  0  0  0  0  0  0  0  0  0  0
  144.0571  132.2070  151.8373 O   0  0  0  0  0  0  0  0  0  0  0  0
  146.3209  129.8480  152.4864 H   0  0  0  0  0  0  0  0  0  0  0  0
  145.1717  129.6865  151.1565 H   0  0  0  0  0  0  0  0  0  0  0  0
  144.5885  129.8146  152.8177 H   0  0  0  0  0  0  0  0  0  0  0  0
  147.3220  132.4924  152.0612 H   0  0  0  0  0  0  0  0  0  0  0  0
  147.1402  135.0550  151.5764 H   0  0  0  0  0  0  0  0  0  0  0  0
  147.4553  137.0047  151.6222 H   0  0  0  0  0  0  0  0  0  0  0  0
  146.3866  139.0853  150.9040 H   0  0  0  0  0  0  0  0  0  0  0  0
  145.1652  138.8803  152.1314 H   0  0  0  0  0  0  0  0  0  0  0  0
  147.9943  139.8035  152.4228 H   0  0  0  0  0  0  0  0  0  0  0  0
  148.0746  137.5329  153.5637 H   0  0  0  0  0  0  0  0  0  0  0  0
  146.7934  138.0638  154.6415 H   0  0  0  0  0  0  0  0  0  0  0  0
  148.3878  138.8190  154.6629 H   0  0  0  0  0  0  0  0  0  0  0  0
  145.1544  139.4029  154.8472 H   0  0  0  0  0  0  0  0  0  0  0  0
  146.5632  140.0341  155.6525 H   0  0  0  0  0  0  0  0  0  0  0  0
  144.0640  141.5543  154.7388 H   0  0  0  0  0  0  0  0  0  0  0  0
  144.4858  141.1716  156.3902 H   0  0  0  0  0  0  0  0  0  0  0  0
  145.0224  143.5511  155.7984 H   0  0  0  0  0  0  0  0  0  0  0  0
  146.4420  142.6661  156.3027 H   0  0  0  0  0  0  0  0  0  0  0  0
  145.5755  143.2439  153.4300 H   0  0  0  0  0  0  0  0  0  0  0  0
  146.9449  143.9517  154.2413 H   0  0  0  0  0  0  0  0  0  0  0  0
  147.5052  142.1584  152.6584 H   0  0  0  0  0  0  0  0  0  0  0  0
  149.0894  142.6719  154.4752 H   0  0  0  0  0  0  0  0  0  0  0  0
  149.1929  140.9684  154.0874 H   0  0  0  0  0  0  0  0  0  0  0  0
  148.3447  141.4893  155.5340 H   0  0  0  0  0  0  0  0  0  0  0  0
  145.6633  140.8135  152.9823 H   0  0  0  0  0  0  0  0  0  0  0  0
  1  2  1  0  0  0  0
  1 21  1  0  0  0  0
  1 22  1  0  0  0  0
  1 23  1  0  0  0  0
  2 20  1  0  0  0  0
  2  3  2  0  0  0  0
  3  4  1  0  0  0  0
  3 24  1  0  0  0  0
  4  5  1  0  0  0  0
  4 19  2  0  0  0  0
  5  6  1  0  0  0  0
  5 25  1  0  0  0  0
  6  7  2  0  0  0  0
  6  8  1  0  0  0  0
  8  9  1  0  0  0  0
  8 26  1  0  0  0  0
  9 10  1  0  0  0  0
  9 27  1  0  0  0  0
  9 28  1  0  0  0  0
 10 11  1  0  0  0  0
 10 12  1  0  0  0  0
 10 29  1  0  0  0  0
 11 30  1  0  0  0  0
 11 31  1  0  0  0  0
 11 32  1  0  0  0  0
 12 17  1  0  0  0  0
 12 13  1  0  0  0  0
 12 45  1  0  0  0  0
 13 14  1  0  0  0  0
 13 33  1  0  0  0  0
 13 34  1  0  0  0  0
 14 15  1  0  0  0  0
 14 35  1  0  0  0  0
 14 36  1  0  0  0  0
 15 16  1  0  0  0  0
 15 37  1  0  0  0  0
 15 38  1  0  0  0  0
 16 17  1  0  0  0  0
 16 39  1  0  0  0  0
 16 40  1  0  0  0  0
 17 18  1  0  0  0  0
 17 41  1  0  0  0  0
 18 42  1  0  0  0  0
 18 43  1  0  0  0  0
 18 44  1  0  0  0  0
 19 20  1  0  0  0  0
M  CHG  1  12   1
M  END
> <s_m_source_file>
AV-unprocessed.smi

> <i_m_source_file_index>
1978

> <i_lp_mmshare_version>
43012

> <i_f3d_flags>
0

> <s_epik_input>
W0NIM11jMVtjSF1jKG5vMSlbTkhdQyg9TylbTkhdW0NIMl1bQ0BIXShbQ0gzXSlOMltDSDJdW0NIMl1bQ0gyXVtDSDJdW0NASF0yW0NIM10=

> <s_epik_cmdline>
J2VwaWtfcHl0aG9uJywgJy1waCcsICc3LjAnLCAnLXRuJywgJzgnLCAnLW1hJywgJzIwMCcsICctbWV0YWxfYmluZGluZycsICctaW1hZScsICc8aW5maWxlLm1hZT4nLCAnLW9tYWUnLCAnPG91dGZpbGUubWFlPic=

> <r_epik_Ionization_Penalty>
0.00265971

> <r_epik_Ionization_Penalty_Charging>
0.00262393

> <r_epik_Ionization_Penalty_Neutral>
3.57846e-05

> <r_epik_State_Penalty>
0.00182566

> <r_epik_Charging_Adjusted_Penalty>
0.00444959

> <i_epik_Tot_Q>
1

> <i_epik_Tot_abs_Q>
1

> <r_epik_Metal_State_Penalty>
0.0216344

> <b_epik_Metal_Only>
0

> <s_lp_Force_Field>
OPLS_2005

> <r_lp_Energy>
24.7796

> <b_lp_Chiralities_Consistent>
1

> <s_lp_Variant>
AV-unprocessed.smi:1978-1

> <Gold.Version>
5.8.1

> <Gold.Id.Protein>
6NUR|6NUR_protein|mol2

> <Gold.PLP.Fitness>
40.5492

> <Gold.PLP.PLP>
-32.7413

> <Gold.PLP.part.hbond>
-3.0000

> <Gold.PLP.part.metal>
0.0000

> <Gold.PLP.part.buried>
-3.1767

> <Gold.PLP.part.nonpolar>
-28.2720

> <Gold.PLP.part.repulsive>
0.6909

> <Gold.PLP.ligand.clash>
0.6107

> <Gold.PLP.ligand.torsion>
1.6092

> <Gold.PLP.Chemscore.Hbond>
3.8480

> <Gold.PLP.Chemscore.CHOScore>
0.0000

> <Gold.PLP.Chemscore.Metal>
0.0000

> <Gold.Chemscore.Hbonds>
donor molecule, donor type, donor heavy atom, donor atom, acceptor molecule, acceptor atom, score
      L1  H     5    25       P1  7948  0.65
      L1  H     8    26       P1  7948  1.00
      L1  H    12    45       P1 10175  1.81

> <Gold.PLP.Chemscore.Internal.Correction>
0.0929

> <Gold.Rescore>
     Score         DG    S(hbond)    S(metal)    S(lipo)     H(rot)  DE(clash)    DE(int)     intcor
     15.02     -18.34       2.65        0.00      68.09       1.55       0.21       3.11       ----

> <Gold.Chemscore.Fitness>
15.0215

> <Gold.Chemscore.DG>
-18.3381

> <Gold.Chemscore.ZeroCoef>
-5.4800

> <Gold.Chemscore.Hbond>
2.6504

> <Gold.Chemscore.Metal>
0.0000

> <Gold.Chemscore.Lipo>
68.0943

> <Gold.Chemscore.Internal_Hbond>
0.0000

> <Gold.Chemscore.DEClash>
0.2062

> <Gold.Chemscore.DEInternal>
3.1103

> <Gold.Chemscore.Rot>
1.5474

> <Gold.Chemscore.Internal.Correction>
   9.000000E+99

> <Gold.Chemscore.Hbonds>
donor molecule, donor type, donor heavy atom, donor atom, acceptor molecule, acceptor atom, score
      L1  H     5    25       P1  7948  0.56
      L1  H     8    26       P1  7948  0.99
      L1  H    12    45       P1 10175  0.41

> <Gold.Chemscore.Hbond.Weighted>
-8.8523

> <Gold.Chemscore.Metal.Weighted>
-0.0000

> <Gold.Chemscore.Lipo.Weighted>
-7.9670

> <Gold.Chemscore.Internal_Hbond.Weighted>
0.0000

> <Gold.Chemscore.DEClash.Weighted>
0.2062

> <Gold.Chemscore.DEInternal.Weighted>
3.1103

> <Gold.Chemscore.Rot.Weighted>
3.9612

> <Gold.Chemscore.Internal.Correction.Weighted>
   9.000000E+99

> <Gold.Protein.RotatedTorsions>
[ 6907 6896 6895 6894 ] final    9.88 input  -60.11 | X-H torsion
[ 7974 7965 7964 7962 ] final  173.48 input  175.53 | X-H torsion
[ 8008 7997 7996 7995 ] final -146.90 input   59.86 | X-H torsion
[ 10167 10162 10161 10158 ] final    5.32 input  -65.29 | X-H torsion
[ 10718 10713 10712 10709 ] final   15.87 input   66.30 | X-H torsion
[ 10763 10752 10751 10750 ] final -158.90 input  -60.55 | X-H torsion
[ 11005 11000 10999 10996 ] final   19.80 input  -57.11 | X-H torsion

> <Gold.Protein.ActiveResidues>
 VAL166  LYS551  ARG553  GLY616  TRP617  ASP618  TYR619  PRO620  LYS621  CYS622 
 ASP623  PHE694  ASN695  SER759  ASP760  ASP761  ALA762  ILE779  LEU786  VAL792 
 PHE793  MET794  SER795  GLU796  ALA797  LYS798  CYS799  TRP800  GLU811  SER814 

> <Gold.Protein.RotatedAtoms>
  151.7293  135.0878  160.0297 H   0  0  0  0  0  0  0  0  0  0  0  0  # atno 6907 bound_to 6896
  152.3551  133.6223  159.5982 H   0  0  0  0  0  0  0  0  0  0  0  0  # atno 6908 bound_to 6896
  150.7566  133.9428  159.3503 H   0  0  0  0  0  0  0  0  0  0  0  0  # atno 6909 bound_to 6896
  144.7243  139.9654  143.6436 H   0  0  0  0  0  0  0  0  0  0  0  0  # atno 7974 bound_to 7965
  155.5668  140.0630  157.2816 H   0  0  0  0  0  0  0  0  0  0  0  0  # atno 8008 bound_to 7997
  154.4373  140.1876  156.0884 H   0  0  0  0  0  0  0  0  0  0  0  0  # atno 8009 bound_to 7997
  156.0406  140.3296  155.7243 H   0  0  0  0  0  0  0  0  0  0  0  0  # atno 8010 bound_to 7997
  140.6488  143.7596  150.7542 H   0  0  0  0  0  0  0  0  0  0  0  0  # atno 10167 bound_to 10162
  157.0597  130.6303  149.5783 H   0  0  0  0  0  0  0  0  0  0  0  0  # atno 10718 bound_to 10713
  154.7519  135.3094  154.8541 H   0  0  0  0  0  0  0  0  0  0  0  0  # atno 10763 bound_to 10752
  153.9326  135.6783  153.4749 H   0  0  0  0  0  0  0  0  0  0  0  0  # atno 10764 bound_to 10752
  153.1115  135.4864  154.8972 H   0  0  0  0  0  0  0  0  0  0  0  0  # atno 10765 bound_to 10752
  140.4097  134.1631  155.7667 H   0  0  0  0  0  0  0  0  0  0  0  0  # atno 11005 bound_to 11000
  146.0604  139.3598  143.0584 LP  0  0  0  0  0  0  0  0  0  0  0  0  # atno 17320 bound_to 7965
  145.8099  140.9730  143.0954 LP  0  0  0  0  0  0  0  0  0  0  0  0  # atno 17321 bound_to 7965
  140.1242  143.4584  152.2294 LP  0  0  0  0  0  0  0  0  0  0  0  0  # atno 17342 bound_to 10162
  139.5701  144.7458  151.3914 LP  0  0  0  0  0  0  0  0  0  0  0  0  # atno 17343 bound_to 10162
  155.9982  130.5056  150.7563 LP  0  0  0  0  0  0  0  0  0  0  0  0  # atno 17370 bound_to 10713
  157.4965  131.0915  151.0365 LP  0  0  0  0  0  0  0  0  0  0  0  0  # atno 17371 bound_to 10713
  141.1826  133.8382  157.1204 LP  0  0  0  0  0  0  0  0  0  0  0  0  # atno 17394 bound_to 11000
  140.0276  134.9916  157.0717 LP  0  0  0  0  0  0  0  0  0  0  0  0  # atno 17395 bound_to 11000

$$$$
