#       Name:                AV-unprocessed.smi:447
#       Creating user name   scv26
#       Creation time:       Thu Mar 26 23:00:11 2020


#       File generated by GOLD software.
#

@<TRIPOS>MOLECULE
AV-unprocessed.smi:447
    50    52     1
SMALL
NO_CHARGES


@<TRIPOS>ATOM
      1 ****        -3.0811   3.3852  -0.4786 C.3            1 S1                 0.0000
      2 ****        -2.1392   2.2105  -0.2408 C.2            1 S1                 0.0000
      3 ****        -1.4202   2.1891   0.7560 O.2            1 S1                 0.0000
      4 ****        -2.1473   1.2461  -1.1741 N.am           1 S1                 0.0000
      5 ****        -1.3836  -0.0020  -1.1395 C.3            1 S1                 0.0000
      6 ****        -1.8311  -0.8778  -2.3194 C.3            1 S1                 0.0000
      7 ****         0.1088   0.1954  -1.1704 C.2            1 S1                 0.0000
      8 ****         0.7590   1.2977  -1.6446 N.pl3          1 S1                 1.0000
      9 ****         2.1371   1.1165  -1.5550 C.ar           1 S1                 0.0000
     10 ****         3.1886   1.9566  -1.9076 C.ar           1 S1                 0.0000
     11 ****         4.4919   1.4597  -1.7012 C.ar           1 S1                 0.0000
     12 ****         4.7095   0.1730  -1.1683 C.ar           1 S1                 0.0000
     13 ****         3.6339  -0.6681  -0.8154 C.ar           1 S1                 0.0000
     14 ****         2.3466  -0.1668  -1.0126 C.ar           1 S1                 0.0000
     15 ****         1.0695  -0.6968  -0.7778 N.pl3          1 S1                 0.0000
     16 ****         0.9503  -2.0629  -0.2270 C.3            1 S1                 0.0000
     17 ****         0.9927  -2.1567   1.3167 C.3            1 S1                 0.0000
     18 ****         2.2020  -1.6281   1.8248 O.3            1 S1                 0.0000
     19 ****        -0.2455  -1.5712   1.9835 C.ar           1 S1                 0.0000
     20 ****        -0.2278  -0.2890   2.5780 C.ar           1 S1                 0.0000
     21 ****        -1.3836   0.2203   3.2014 C.ar           1 S1                 0.0000
     22 ****        -2.5680  -0.5395   3.2227 C.ar           1 S1                 0.0000
     23 ****        -2.5947  -1.8142   2.6267 C.ar           1 S1                 0.0000
     24 ****        -1.4366  -2.3288   2.0127 C.ar           1 S1                 0.0000
     25 ****        -2.8169   3.9043  -1.4003 H              1 S1                 0.0000
     26 ****        -3.0263   4.0994   0.3436 H              1 S1                 0.0000
     27 ****        -4.1113   3.0372  -0.5595 H              1 S1                 0.0000
     28 ****        -2.7720   1.3657  -1.9585 H              1 S1                 0.0000
     29 ****        -1.6418  -0.5155  -0.2143 H              1 S1                 0.0000
     30 ****        -1.3394  -1.8499  -2.3106 H              1 S1                 0.0000
     31 ****        -1.6015  -0.4026  -3.2740 H              1 S1                 0.0000
     32 ****        -2.9062  -1.0581  -2.2884 H              1 S1                 0.0000
     33 ****         3.0229   2.9405  -2.3210 H              1 S1                 0.0000
     34 ****         5.3410   2.0761  -1.9589 H              1 S1                 0.0000
     35 ****         5.7217  -0.1767  -1.0256 H              1 S1                 0.0000
     36 ****         3.8147  -1.6503  -0.4047 H              1 S1                 0.0000
     37 ****         0.0214  -2.4960  -0.5957 H              1 S1                 0.0000
     38 ****         1.7443  -2.6713  -0.6609 H              1 S1                 0.0000
     39 ****         1.0090  -3.2159   1.5766 H              1 S1                 0.0000
     40 ****         2.2430  -1.8150   2.7504 H              1 S1                 0.0000
     41 ****         0.6673   0.3150   2.5592 H              1 S1                 0.0000
     42 ****        -1.3640   1.2009   3.6539 H              1 S1                 0.0000
     43 ****        -3.4551  -0.1442   3.6953 H              1 S1                 0.0000
     44 ****        -3.5025  -2.3989   2.6431 H              1 S1                 0.0000
     45 ****        -1.4659  -3.3092   1.5603 H              1 S1                 0.0000
     46 ****         0.2850   2.1176  -2.0004 H              1 S1                 0.0000
     47 ****        -1.4527   2.9429   1.4122 LP             1 S1                 0.0000
     48 ****        -0.8028   1.4178   0.9107 LP             1 S1                 0.0000
     49 ****         2.2264  -0.6392   1.6784 LP             1 S1                 0.0000
     50 ****         2.9785  -2.0532   1.3595 LP             1 S1                 0.0000
@<TRIPOS>BOND
    1    1    2 1     
    2    1   25 1     
    3    1   26 1     
    4    1   27 1     
    5    2    3 2     
    6    2    4 am    
    7    4    5 1     
    8    4   28 1     
    9    5    6 1     
   10    5    7 1     
   11    5   29 1     
   12    6   30 1     
   13    6   31 1     
   14    6   32 1     
   15    7   15 1     
   16    7    8 2     
   17    8    9 1     
   18    8   46 1     
   19    9   14 ar    
   20    9   10 ar    
   21   10   11 ar    
   22   10   33 1     
   23   11   12 ar    
   24   11   34 1     
   25   12   13 ar    
   26   12   35 1     
   27   13   14 ar    
   28   13   36 1     
   29   14   15 1     
   30   15   16 1     
   31   16   17 1     
   32   16   37 1     
   33   16   38 1     
   34   17   18 1     
   35   17   19 1     
   36   17   39 1     
   37   18   40 1     
   38   19   24 ar    
   39   19   20 ar    
   40   20   21 ar    
   41   20   41 1     
   42   21   22 ar    
   43   21   42 1     
   44   22   23 ar    
   45   22   43 1     
   46   23   24 ar    
   47   23   44 1     
   48   24   45 1     
   49    3   47 1     
   50    3   48 1     
   51   18   49 1     
   52   18   50 1     
@<TRIPOS>SUBSTRUCTURE
      1 S1             1
@<TRIPOS>SET
LONE_PAIRS      STATIC     ATOMS    <user>   **** ""
4 47 48 49 50
DONOR_HYDROGENS      STATIC     ATOMS    <user>   **** ""
3 28 46 40
ATOM$BLUE        STATIC     ATOMS    COLORGROUP SYSTEM
4 47 48 49 50
ATOM$RED        STATIC     ATOMS    COLORGROUP SYSTEM
3 28 46 40
