AV-unprocessed.smi:100|AV-procd|sdf|899|dock7
  -GOLD-   2262017393D 1   1.00000     0.00000
 Structure written by MMmdl.
 31 33  0  0  0  0  0  0  0  0  1 V2000
  147.1935  138.5685  152.1026 N   0  0  0  0  0  0  0  0  0  0  0  0
  147.6570  139.5367  152.9048 C   0  0  0  0  0  0  0  0  0  0  0  0
  146.9507  140.6880  152.9982 N   0  0  0  0  0  0  0  0  0  0  0  0
  147.3915  141.6696  153.7924 C   0  0  0  0  0  0  0  0  0  0  0  0
  148.4871  141.6985  154.5570 N   0  0  0  0  0  0  0  0  0  0  0  0
  149.1981  140.5372  154.4568 C   0  0  0  0  0  0  0  0  0  0  0  0
  148.8512  139.4126  153.6589 C   0  0  0  0  0  0  0  0  0  0  0  0
  149.8034  138.4130  153.8118 N   0  0  0  0  0  0  0  0  0  0  0  0
  150.6629  138.9237  154.6533 C   0  0  0  0  0  0  0  0  0  0  0  0
  150.3758  140.2003  155.0873 N   0  0  0  0  0  0  0  0  0  0  0  0
  151.1417  141.0544  156.0423 C   0  0  2  0  0  0  0  0  0  0  0  0
  152.1383  140.2560  156.6077 O   0  0  0  0  0  0  0  0  0  0  0  0
  152.1999  140.5064  158.0040 C   0  0  2  0  0  0  0  0  0  0  0  0
  152.8872  139.3464  158.7411 C   0  0  0  0  0  0  0  0  0  0  0  0
  154.2403  139.2501  158.3500 O   0  0  0  0  0  0  0  0  0  0  0  0
  150.7388  140.7598  158.3801 C   0  0  2  0  0  0  0  0  0  0  0  0
  150.0699  139.6101  158.4908 F   0  0  0  0  0  0  0  0  0  0  0  0
  150.2149  141.5284  157.1771 C   0  0  1  0  0  0  0  0  0  0  0  0
  150.3134  142.9214  157.3961 O   0  0  0  0  0  0  0  0  0  0  0  0
  147.7030  137.7008  152.0158 H   0  0  0  0  0  0  0  0  0  0  0  0
  146.3386  138.7093  151.5844 H   0  0  0  0  0  0  0  0  0  0  0  0
  146.7799  142.5595  153.8176 H   0  0  0  0  0  0  0  0  0  0  0  0
  151.5363  138.3790  154.9819 H   0  0  0  0  0  0  0  0  0  0  0  0
  151.5730  141.8578  155.4431 H   0  0  0  0  0  0  0  0  0  0  0  0
  152.7742  141.4239  158.1468 H   0  0  0  0  0  0  0  0  0  0  0  0
  152.8245  139.4709  159.8223 H   0  0  0  0  0  0  0  0  0  0  0  0
  152.3924  138.4054  158.4988 H   0  0  0  0  0  0  0  0  0  0  0  0
  154.5465  138.3770  158.5421 H   0  0  0  0  0  0  0  0  0  0  0  0
  150.6234  141.2895  159.3265 H   0  0  0  0  0  0  0  0  0  0  0  0
  149.1717  141.2894  156.9632 H   0  0  0  0  0  0  0  0  0  0  0  0
  149.8141  143.3651  156.7272 H   0  0  0  0  0  0  0  0  0  0  0  0
  1  2  1  0  0  0  0
  1 20  1  0  0  0  0
  1 21  1  0  0  0  0
  2  7  1  0  0  0  0
  2  3  2  0  0  0  0
  3  4  1  0  0  0  0
  4  5  2  0  0  0  0
  4 22  1  0  0  0  0
  5  6  1  0  0  0  0
  6 10  1  0  0  0  0
  6  7  2  0  0  0  0
  7  8  1  0  0  0  0
  8  9  2  0  0  0  0
  9 10  1  0  0  0  0
  9 23  1  0  0  0  0
 10 11  1  0  0  0  0
 11 18  1  0  0  0  0
 11 12  1  0  0  0  0
 11 24  1  0  0  0  0
 12 13  1  0  0  0  0
 13 14  1  0  0  0  0
 13 16  1  0  0  0  0
 13 25  1  0  0  0  0
 14 15  1  0  0  0  0
 14 26  1  0  0  0  0
 14 27  1  0  0  0  0
 15 28  1  0  0  0  0
 16 17  1  0  0  0  0
 16 18  1  0  0  0  0
 16 29  1  0  0  0  0
 18 19  1  0  0  0  0
 18 30  1  0  0  0  0
 19 31  1  0  0  0  0
M  END
> <s_m_source_file>
AV-unprocessed.smi

> <i_m_source_file_index>
100

> <i_lp_mmshare_version>
43012

> <i_f3d_flags>
0

> <s_epik_input>
bjFbY0hdbmMoW05IMl0pYyhjMTIpbltjSF1uMltDQEBIXTNPW0NAQEhdKFtDSDJdW09IXSlbQ0BIXShGKVtDQEhdM1tPSF0=

> <s_epik_cmdline>
J2VwaWtfcHl0aG9uJywgJy1waCcsICc3LjAnLCAnLXRuJywgJzgnLCAnLW1hJywgJzIwMCcsICctbWV0YWxfYmluZGluZycsICctaW1hZScsICc8aW5maWxlLm1hZT4nLCAnLW9tYWUnLCAnPG91dGZpbGUubWFlPic=

> <r_lp_tautomer_probability>
1

> <r_epik_Ionization_Penalty>
0.000750324

> <r_epik_Ionization_Penalty_Charging>
0

> <r_epik_Ionization_Penalty_Neutral>
0.000750324

> <r_epik_State_Penalty>
-0

> <r_epik_Charging_Adjusted_Penalty>
0

> <i_epik_Tot_Q>
0

> <i_epik_Tot_abs_Q>
0

> <r_epik_Metal_State_Penalty>
-0

> <b_epik_Metal_Only>
0

> <s_epik_Chemistry_Notes>
This compound contains an acetal/aminal-like group ( X-CH(R)-Y where X, Y are N, S, or O) that may be acid/base labile, releasing an aldehyde.

> <s_lp_Force_Field>
OPLS_2005

> <r_lp_Energy>
28.7864

> <b_lp_Chiralities_Consistent>
1

> <s_lp_Variant>
AV-unprocessed.smi:100-3

> <Gold.Version>
5.8.1

> <Gold.Id.Protein>
6NUR|6NUR_protein|mol2

> <Gold.PLP.Fitness>
36.0955

> <Gold.PLP.PLP>
-27.3405

> <Gold.PLP.part.hbond>
-4.5184

> <Gold.PLP.part.metal>
0.0000

> <Gold.PLP.part.buried>
2.0666

> <Gold.PLP.part.nonpolar>
-25.8984

> <Gold.PLP.part.repulsive>
1.4180

> <Gold.PLP.ligand.clash>
0.0000

> <Gold.PLP.ligand.torsion>
0.1283

> <Gold.PLP.Chemscore.Hbond>
3.0000

> <Gold.PLP.Chemscore.CHOScore>
0.0000

> <Gold.PLP.Chemscore.Metal>
0.0000

> <Gold.Chemscore.Hbonds>
donor molecule, donor type, donor heavy atom, donor atom, acceptor molecule, acceptor atom, score
      L1  H     1    20       P1  7948  1.00
      L1  H    19    31       P1  8028  1.00
      P1  H  7997  8010       L1    15  0.99

> <Gold.PLP.Chemscore.Internal.Correction>
0.0117

> <Gold.Rescore>
     Score         DG    S(hbond)    S(metal)    S(lipo)     H(rot)  DE(clash)    DE(int)     intcor
      9.49      -9.72       2.69        0.00      29.28       3.19       0.13       0.10       ----

> <Gold.Chemscore.Fitness>
9.4916

> <Gold.Chemscore.DG>
-9.7206

> <Gold.Chemscore.ZeroCoef>
-5.4800

> <Gold.Chemscore.Hbond>
2.6889

> <Gold.Chemscore.Metal>
0.0000

> <Gold.Chemscore.Lipo>
29.2847

> <Gold.Chemscore.Internal_Hbond>
0.0000

> <Gold.Chemscore.DEClash>
0.1331

> <Gold.Chemscore.DEInternal>
0.0960

> <Gold.Chemscore.Rot>
3.1901

> <Gold.Chemscore.Internal.Correction>
   9.000000E+99

> <Gold.Chemscore.Hbonds>
donor molecule, donor type, donor heavy atom, donor atom, acceptor molecule, acceptor atom, score
      L1  H     1    20       P1  7948  1.00
      L1  H    19    31       P1  8028  0.99
      P1  H  7997  8010       L1    15  0.78

> <Gold.Chemscore.Hbond.Weighted>
-8.9810

> <Gold.Chemscore.Metal.Weighted>
-0.0000

> <Gold.Chemscore.Lipo.Weighted>
-3.4263

> <Gold.Chemscore.Internal_Hbond.Weighted>
0.0000

> <Gold.Chemscore.DEClash.Weighted>
0.1331

> <Gold.Chemscore.DEInternal.Weighted>
0.0960

> <Gold.Chemscore.Rot.Weighted>
8.1667

> <Gold.Chemscore.Internal.Correction.Weighted>
   9.000000E+99

> <Gold.Protein.RotatedTorsions>
[ 6907 6896 6895 6894 ] final  179.99 input  -60.11 | X-H torsion
[ 7974 7965 7964 7962 ] final -124.42 input  175.53 | X-H torsion
[ 8008 7997 7996 7995 ] final   -4.94 input   59.86 | X-H torsion
[ 10167 10162 10161 10158 ] final -145.87 input  -65.29 | X-H torsion
[ 10718 10713 10712 10709 ] final -124.44 input   66.30 | X-H torsion
[ 10763 10752 10751 10750 ] final -171.70 input  -60.55 | X-H torsion
[ 11005 11000 10999 10996 ] final    1.15 input  -57.11 | X-H torsion

> <Gold.Protein.ActiveResidues>
 VAL166  LYS551  ARG553  GLY616  TRP617  ASP618  TYR619  PRO620  LYS621  CYS622 
 ASP623  PHE694  ASN695  SER759  ASP760  ASP761  ALA762  ILE779  LEU786  VAL792 
 PHE793  MET794  SER795  GLU796  ALA797  LYS798  CYS799  TRP800  GLU811  SER814 

> <Gold.Protein.RotatedAtoms>
  151.6628  133.3316  159.3177 H   0  0  0  0  0  0  0  0  0  0  0  0  # atno 6907 bound_to 6896
  150.7905  134.6929  159.6516 H   0  0  0  0  0  0  0  0  0  0  0  0  # atno 6908 bound_to 6896
  152.3984  134.6331  160.0132 H   0  0  0  0  0  0  0  0  0  0  0  0  # atno 6909 bound_to 6896
  145.0083  140.7882  143.4454 H   0  0  0  0  0  0  0  0  0  0  0  0  # atno 7974 bound_to 7965
  154.6090  140.2471  155.7693 H   0  0  0  0  0  0  0  0  0  0  0  0  # atno 8008 bound_to 7997
  156.2359  140.2950  156.0262 H   0  0  0  0  0  0  0  0  0  0  0  0  # atno 8009 bound_to 7997
  155.2083  140.0396  157.2919 H   0  0  0  0  0  0  0  0  0  0  0  0  # atno 8010 bound_to 7997
  139.7766  143.8161  152.2632 H   0  0  0  0  0  0  0  0  0  0  0  0  # atno 10167 bound_to 10162
  156.1588  130.6587  151.0019 H   0  0  0  0  0  0  0  0  0  0  0  0  # atno 10718 bound_to 10713
  154.6276  135.2882  155.0254 H   0  0  0  0  0  0  0  0  0  0  0  0  # atno 10763 bound_to 10752
  154.1427  135.6516  153.4949 H   0  0  0  0  0  0  0  0  0  0  0  0  # atno 10764 bound_to 10752
  153.0264  135.5337  154.7090 H   0  0  0  0  0  0  0  0  0  0  0  0  # atno 10765 bound_to 10752
  140.6186  133.9682  155.8213 H   0  0  0  0  0  0  0  0  0  0  0  0  # atno 11005 bound_to 11000
  145.2058  139.2229  143.5169 LP  0  0  0  0  0  0  0  0  0  0  0  0  # atno 17320 bound_to 7965
  146.3465  140.1886  142.8589 LP  0  0  0  0  0  0  0  0  0  0  0  0  # atno 17321 bound_to 7965
  139.8211  144.7295  150.9571 LP  0  0  0  0  0  0  0  0  0  0  0  0  # atno 17342 bound_to 10162
  140.7816  143.4158  151.0920 LP  0  0  0  0  0  0  0  0  0  0  0  0  # atno 17343 bound_to 10162
  157.6716  131.0860  150.7599 LP  0  0  0  0  0  0  0  0  0  0  0  0  # atno 17370 bound_to 10713
  156.7662  130.4814  149.5427 LP  0  0  0  0  0  0  0  0  0  0  0  0  # atno 17371 bound_to 10713
  141.0758  134.0137  157.3460 LP  0  0  0  0  0  0  0  0  0  0  0  0  # atno 17394 bound_to 11000
  139.9162  135.0197  156.7891 LP  0  0  0  0  0  0  0  0  0  0  0  0  # atno 17395 bound_to 11000

$$$$
