AV-unprocessed.smi:1240|AV-procd|sdf|5203|dock9
  -GOLD-   22720 4293D 1   1.00000     0.00000
 Structure written by MMmdl.
 48 50  0  0  0  0  0  0  0  0  2 V2000
  145.0280  137.8897  151.6098 O   0  0  0  0  0  0  0  0  0  0  0  0
  146.1705  137.4332  151.5801 C   0  0  0  0  0  0  0  0  0  0  0  0
  147.2698  138.1834  151.7441 N   0  0  0  0  0  0  0  0  0  0  0  0
  147.2779  139.6261  151.9668 C   0  0  0  0  0  0  0  0  0  0  0  0
  147.0280  140.0617  153.4516 C   0  0  2  0  0  0  0  0  0  0  0  0
  146.3441  141.4791  153.4700 C   0  0  2  0  0  0  0  0  0  0  0  0
  146.9516  142.5772  152.6102 C   0  0  0  0  0  0  0  0  0  0  0  0
  146.2680  143.8295  153.1388 C   0  0  0  0  0  0  0  0  0  0  0  0
  146.1603  143.6129  154.5366 O   0  0  0  0  0  0  0  0  0  0  0  0
  146.3110  142.2246  154.8166 C   0  0  0  0  0  0  0  0  0  0  0  0
  148.2563  140.0424  154.3001 N   0  0  0  0  0  0  0  0  0  0  0  0
  149.0948  141.2467  154.2424 C   0  0  0  0  0  0  0  0  0  0  0  0
  150.3227  141.1611  155.1671 C   0  0  0  0  0  0  0  0  0  0  0  0
  151.1003  140.0193  154.8346 O   0  0  0  0  0  0  0  0  0  0  0  0
  150.3495  138.8160  154.9197 C   0  0  0  0  0  0  0  0  0  0  0  0
  149.1324  138.9051  153.9841 C   0  0  0  0  0  0  0  0  0  0  0  0
  146.4897  136.1462  151.3586 N   0  0  0  0  0  0  0  0  0  0  0  0
  145.6247  135.0445  151.1141 C   0  0  0  0  0  0  0  0  0  0  0  0
  144.2379  135.3069  151.0528 C   0  0  0  0  0  0  0  0  0  0  0  0
  143.3395  134.2505  150.7989 C   0  0  0  0  0  0  0  0  0  0  0  0
  143.8098  132.9995  150.6075 N   0  3  0  0  0  0  0  0  0  0  0  0
  145.1263  132.7014  150.6429 C   0  0  0  0  0  0  0  0  0  0  0  0
  146.0723  133.7167  150.8925 C   0  0  0  0  0  0  0  0  0  0  0  0
  148.1699  137.7280  151.7008 H   0  0  0  0  0  0  0  0  0  0  0  0
  148.2513  139.9512  151.6013 H   0  0  0  0  0  0  0  0  0  0  0  0
  146.5362  140.0824  151.3103 H   0  0  0  0  0  0  0  0  0  0  0  0
  146.3255  139.3399  153.8708 H   0  0  0  0  0  0  0  0  0  0  0  0
  145.3122  141.3512  153.1380 H   0  0  0  0  0  0  0  0  0  0  0  0
  148.0252  142.6560  152.7873 H   0  0  0  0  0  0  0  0  0  0  0  0
  146.7723  142.4416  151.5432 H   0  0  0  0  0  0  0  0  0  0  0  0
  146.8233  144.7403  152.9137 H   0  0  0  0  0  0  0  0  0  0  0  0
  145.2664  143.9252  152.7173 H   0  0  0  0  0  0  0  0  0  0  0  0
  145.4937  141.8942  155.4574 H   0  0  0  0  0  0  0  0  0  0  0  0
  147.2486  142.0919  155.3580 H   0  0  0  0  0  0  0  0  0  0  0  0
  149.4242  141.4250  153.2175 H   0  0  0  0  0  0  0  0  0  0  0  0
  148.5260  142.1202  154.5598 H   0  0  0  0  0  0  0  0  0  0  0  0
  150.9395  142.0535  155.0614 H   0  0  0  0  0  0  0  0  0  0  0  0
  150.0148  141.1073  156.2125 H   0  0  0  0  0  0  0  0  0  0  0  0
  150.9873  137.9800  154.6330 H   0  0  0  0  0  0  0  0  0  0  0  0
  150.0347  138.6415  155.9498 H   0  0  0  0  0  0  0  0  0  0  0  0
  148.6111  137.9575  154.0352 H   0  0  0  0  0  0  0  0  0  0  0  0
  149.4841  138.9930  152.9549 H   0  0  0  0  0  0  0  0  0  0  0  0
  147.4765  135.9428  151.2937 H   0  0  0  0  0  0  0  0  0  0  0  0
  143.8609  136.3082  151.2036 H   0  0  0  0  0  0  0  0  0  0  0  0
  142.2673  134.3684  150.7418 H   0  0  0  0  0  0  0  0  0  0  0  0
  145.3832  131.6671  150.4654 H   0  0  0  0  0  0  0  0  0  0  0  0
  147.1196  133.4570  150.8966 H   0  0  0  0  0  0  0  0  0  0  0  0
  143.1434  132.2487  150.4237 H   0  0  0  0  0  0  0  0  0  0  0  0
  1  2  2  0  0  0  0
  2  3  1  0  0  0  0
  2 17  1  0  0  0  0
  3  4  1  0  0  0  0
  3 24  1  0  0  0  0
  4  5  1  0  0  0  0
  4 25  1  0  0  0  0
  4 26  1  0  0  0  0
  5  6  1  0  0  0  0
  5 11  1  0  0  0  0
  5 27  1  0  0  0  0
  6 10  1  0  0  0  0
  6  7  1  0  0  0  0
  6 28  1  0  0  0  0
  7  8  1  0  0  0  0
  7 29  1  0  0  0  0
  7 30  1  0  0  0  0
  8  9  1  0  0  0  0
  8 31  1  0  0  0  0
  8 32  1  0  0  0  0
  9 10  1  0  0  0  0
 10 33  1  0  0  0  0
 10 34  1  0  0  0  0
 11 16  1  0  0  0  0
 11 12  1  0  0  0  0
 12 13  1  0  0  0  0
 12 35  1  0  0  0  0
 12 36  1  0  0  0  0
 13 14  1  0  0  0  0
 13 37  1  0  0  0  0
 13 38  1  0  0  0  0
 14 15  1  0  0  0  0
 15 16  1  0  0  0  0
 15 39  1  0  0  0  0
 15 40  1  0  0  0  0
 16 41  1  0  0  0  0
 16 42  1  0  0  0  0
 17 18  1  0  0  0  0
 17 43  1  0  0  0  0
 18 23  1  0  0  0  0
 18 19  2  0  0  0  0
 19 20  1  0  0  0  0
 19 44  1  0  0  0  0
 20 21  2  0  0  0  0
 20 45  1  0  0  0  0
 21 22  1  0  0  0  0
 21 48  1  0  0  0  0
 22 23  2  0  0  0  0
 22 46  1  0  0  0  0
 23 47  1  0  0  0  0
M  CHG  1  21   1
M  END
> <s_m_source_file>
AV-unprocessed.smi

> <i_m_source_file_index>
1240

> <i_lp_mmshare_version>
43012

> <i_f3d_flags>
0

> <s_epik_input>
W2NIXTFbY0hdbltjSF1bY0hdYzFbTkhdQyg9TylbTkhdW0NIMl1bQ0BIXShbQ0BASF0yW0NIMl1bQ0gyXU9bQ0gyXTIpTjNbQ0gyXVtDSDJdT1tDSDJdW0NIMl0z

> <s_epik_cmdline>
J2VwaWtfcHl0aG9uJywgJy1waCcsICc3LjAnLCAnLXRuJywgJzgnLCAnLW1hJywgJzIwMCcsICctbWV0YWxfYmluZGluZycsICctaW1hZScsICc8aW5maWxlLm1hZT4nLCAnLW9tYWUnLCAnPG91dGZpbGUubWFlPic=

> <r_epik_Ionization_Penalty>
1.15944

> <r_epik_Ionization_Penalty_Charging>
1.0344

> <r_epik_Ionization_Penalty_Neutral>
0.125034

> <r_epik_State_Penalty>
1.2199

> <r_epik_Charging_Adjusted_Penalty>
2.25431

> <i_epik_Tot_Q>
1

> <i_epik_Tot_abs_Q>
1

> <r_epik_Metal_State_Penalty>
1.3155

> <b_epik_Metal_Only>
0

> <s_lp_Force_Field>
OPLS_2005

> <r_lp_Energy>
66.7815

> <b_lp_Chiralities_Consistent>
1

> <s_lp_Variant>
AV-unprocessed.smi:1240-9

> <Gold.Version>
5.8.1

> <Gold.Id.Protein>
6NUR|6NUR_protein|mol2

> <Gold.PLP.Fitness>
44.4056

> <Gold.PLP.PLP>
-38.0334

> <Gold.PLP.part.hbond>
-2.9577

> <Gold.PLP.part.metal>
0.0000

> <Gold.PLP.part.buried>
-5.9132

> <Gold.PLP.part.nonpolar>
-30.8760

> <Gold.PLP.part.repulsive>
0.6829

> <Gold.PLP.ligand.clash>
0.0000

> <Gold.PLP.ligand.torsion>
1.1364

> <Gold.PLP.Chemscore.Hbond>
2.8480

> <Gold.PLP.Chemscore.CHOScore>
0.0000

> <Gold.PLP.Chemscore.Metal>
0.0000

> <Gold.Chemscore.Hbonds>
donor molecule, donor type, donor heavy atom, donor atom, acceptor molecule, acceptor atom, score
      L1  H     3    24       P1  7948  0.90
      L1  H    17    43       P1  7948  0.98
      P1  H  7989  7998       L1    14  0.35

> <Gold.PLP.Chemscore.Internal.Correction>
0.1010

> <Gold.Rescore>
     Score         DG    S(hbond)    S(metal)    S(lipo)     H(rot)  DE(clash)    DE(int)     intcor
     16.36     -20.01       2.77        0.00      82.23       1.69       0.06       3.59       ----

> <Gold.Chemscore.Fitness>
16.3645

> <Gold.Chemscore.DG>
-20.0081

> <Gold.Chemscore.ZeroCoef>
-5.4800

> <Gold.Chemscore.Hbond>
2.7653

> <Gold.Chemscore.Metal>
0.0000

> <Gold.Chemscore.Lipo>
82.2350

> <Gold.Chemscore.Internal_Hbond>
0.0000

> <Gold.Chemscore.DEClash>
0.0566

> <Gold.Chemscore.DEInternal>
3.5870

> <Gold.Chemscore.Rot>
1.6912

> <Gold.Chemscore.Internal.Correction>
   9.000000E+99

> <Gold.Chemscore.Hbonds>
donor molecule, donor type, donor heavy atom, donor atom, acceptor molecule, acceptor atom, score
      L1  H     3    24       P1  7948  0.88
      L1  H    17    43       P1  7948  0.88
      P1  H  7989  7998       L1    14  0.01

> <Gold.Chemscore.Hbond.Weighted>
-9.2361

> <Gold.Chemscore.Metal.Weighted>
-0.0000

> <Gold.Chemscore.Lipo.Weighted>
-9.6215

> <Gold.Chemscore.Internal_Hbond.Weighted>
0.0000

> <Gold.Chemscore.DEClash.Weighted>
0.0566

> <Gold.Chemscore.DEInternal.Weighted>
3.5870

> <Gold.Chemscore.Rot.Weighted>
4.3295

> <Gold.Chemscore.Internal.Correction.Weighted>
   9.000000E+99

> <Gold.Protein.RotatedTorsions>
[ 6907 6896 6895 6894 ] final  113.10 input  -60.11 | X-H torsion
[ 7974 7965 7964 7962 ] final -159.17 input  175.53 | X-H torsion
[ 8008 7997 7996 7995 ] final   59.47 input   59.86 | X-H torsion
[ 10167 10162 10161 10158 ] final  178.29 input  -65.29 | X-H torsion
[ 10718 10713 10712 10709 ] final  -25.44 input   66.30 | X-H torsion
[ 10763 10752 10751 10750 ] final  155.57 input  -60.55 | X-H torsion
[ 11005 11000 10999 10996 ] final   41.75 input  -57.11 | X-H torsion

> <Gold.Protein.ActiveResidues>
 VAL166  LYS551  ARG553  GLY616  TRP617  ASP618  TYR619  PRO620  LYS621  CYS622 
 ASP623  PHE694  ASN695  SER759  ASP760  ASP761  ALA762  ILE779  LEU786  VAL792 
 PHE793  MET794  SER795  GLU796  ALA797  LYS798  CYS799  TRP800  GLU811  SER814 

> <Gold.Protein.RotatedAtoms>
  152.4879  133.8423  159.7158 H   0  0  0  0  0  0  0  0  0  0  0  0  # atno 6907 bound_to 6896
  150.8983  133.7143  159.2892 H   0  0  0  0  0  0  0  0  0  0  0  0  # atno 6908 bound_to 6896
  151.4593  135.1041  159.9772 H   0  0  0  0  0  0  0  0  0  0  0  0  # atno 6909 bound_to 6896
  144.7476  140.3724  143.6073 H   0  0  0  0  0  0  0  0  0  0  0  0  # atno 7974 bound_to 7965
  155.5667  140.3489  155.4505 H   0  0  0  0  0  0  0  0  0  0  0  0  # atno 8008 bound_to 7997
  156.0474  140.1310  157.0114 H   0  0  0  0  0  0  0  0  0  0  0  0  # atno 8009 bound_to 7997
  154.4419  140.1011  156.6311 H   0  0  0  0  0  0  0  0  0  0  0  0  # atno 8010 bound_to 7997
  139.5288  144.2697  152.0638 H   0  0  0  0  0  0  0  0  0  0  0  0  # atno 10167 bound_to 10162
  156.4643  130.4510  149.6909 H   0  0  0  0  0  0  0  0  0  0  0  0  # atno 10718 bound_to 10713
  154.1704  135.2805  155.3082 H   0  0  0  0  0  0  0  0  0  0  0  0  # atno 10763 bound_to 10752
  154.6079  135.5508  153.7445 H   0  0  0  0  0  0  0  0  0  0  0  0  # atno 10764 bound_to 10752
  153.0166  135.6408  154.1845 H   0  0  0  0  0  0  0  0  0  0  0  0  # atno 10765 bound_to 10752
  140.1805  134.4110  155.8203 H   0  0  0  0  0  0  0  0  0  0  0  0  # atno 11005 bound_to 11000
  145.7064  139.1674  143.2564 LP  0  0  0  0  0  0  0  0  0  0  0  0  # atno 17320 bound_to 7965
  146.1379  140.7098  142.9381 LP  0  0  0  0  0  0  0  0  0  0  0  0  # atno 17321 bound_to 7965
  140.2157  144.4517  150.6365 LP  0  0  0  0  0  0  0  0  0  0  0  0  # atno 17342 bound_to 10162
  140.6451  143.2212  151.6204 LP  0  0  0  0  0  0  0  0  0  0  0  0  # atno 17343 bound_to 10162
  156.3684  130.7517  151.2498 LP  0  0  0  0  0  0  0  0  0  0  0  0  # atno 17370 bound_to 10713
  157.7496  131.0330  150.4253 LP  0  0  0  0  0  0  0  0  0  0  0  0  # atno 17371 bound_to 10713
  141.2222  133.6998  156.7922 LP  0  0  0  0  0  0  0  0  0  0  0  0  # atno 17394 bound_to 11000
  140.2273  134.8712  157.3440 LP  0  0  0  0  0  0  0  0  0  0  0  0  # atno 17395 bound_to 11000

$$$$
