AV-unprocessed.smi:3234|AV-procd|sdf|12351|dock5
  -GOLD-   2272018213D 1   1.00000     0.00000
 Structure written by MMmdl.
 37 39  0  0  0  0  0  0  0  0  2 V2000
  146.7749  136.8893  153.6678 O   0  0  0  0  0  0  0  0  0  0  0  0
  145.9155  137.6628  153.2456 C   0  0  0  0  0  0  0  0  0  0  0  0
  146.0463  138.9970  153.1465 N   0  0  0  0  0  0  0  0  0  0  0  0
  147.1458  139.8105  153.5322 C   0  0  0  0  0  0  0  0  0  0  0  0
  146.9448  141.2053  153.5867 C   0  0  0  0  0  0  0  0  0  0  0  0
  148.0165  142.0307  153.9818 C   0  0  0  0  0  0  0  0  0  0  0  0
  149.2321  141.5547  154.3239 N   0  0  0  0  0  0  0  0  0  0  0  0
  149.4175  140.2182  154.2869 C   0  0  0  0  0  0  0  0  0  0  0  0
  148.4142  139.3049  153.9054 C   0  0  0  0  0  0  0  0  0  0  0  0
  144.7190  137.2572  152.7973 N   0  0  0  0  0  0  0  0  0  0  0  0
  144.2697  135.8696  152.7659 C   0  0  1  0  0  0  0  0  0  0  0  0
  142.8746  135.6647  153.3410 C   0  0  0  0  0  0  0  0  0  0  0  0
  142.4644  134.3130  152.7448 C   0  0  0  0  0  0  0  0  0  0  0  0
  143.1920  134.1736  151.4583 N   0  3  2  0  0  0  0  0  0  0  0  0
  143.8580  132.8632  151.2953 C   0  0  0  0  0  0  0  0  0  0  0  0
  145.3140  132.8729  151.6950 C   0  0  0  0  0  0  0  0  0  0  0  0
  144.9296  132.8586  150.2314 C   0  0  0  0  0  0  0  0  0  0  0  0
  144.1150  135.3240  151.3441 C   0  0  0  0  0  0  0  0  0  0  0  0
  145.2871  139.4860  152.6951 H   0  0  0  0  0  0  0  0  0  0  0  0
  145.9914  141.6405  153.3249 H   0  0  0  0  0  0  0  0  0  0  0  0
  147.8924  143.1025  154.0254 H   0  0  0  0  0  0  0  0  0  0  0  0
  150.3957  139.8634  154.5760 H   0  0  0  0  0  0  0  0  0  0  0  0
  148.6321  138.2482  153.9191 H   0  0  0  0  0  0  0  0  0  0  0  0
  144.0717  137.9566  152.4631 H   0  0  0  0  0  0  0  0  0  0  0  0
  144.9727  135.2438  153.3202 H   0  0  0  0  0  0  0  0  0  0  0  0
  142.8574  135.6685  154.4313 H   0  0  0  0  0  0  0  0  0  0  0  0
  142.1997  136.4465  152.9885 H   0  0  0  0  0  0  0  0  0  0  0  0
  142.7521  133.5127  153.4291 H   0  0  0  0  0  0  0  0  0  0  0  0
  141.3869  134.2426  152.5944 H   0  0  0  0  0  0  0  0  0  0  0  0
  143.2430  131.9808  151.4649 H   0  0  0  0  0  0  0  0  0  0  0  0
  145.7320  133.7945  152.0960 H   0  0  0  0  0  0  0  0  0  0  0  0
  145.7262  131.9560  152.1114 H   0  0  0  0  0  0  0  0  0  0  0  0
  145.0887  131.9320  149.6836 H   0  0  0  0  0  0  0  0  0  0  0  0
  145.0928  133.7706  149.6599 H   0  0  0  0  0  0  0  0  0  0  0  0
  143.6448  136.0689  150.7002 H   0  0  0  0  0  0  0  0  0  0  0  0
  145.0713  135.0561  150.8915 H   0  0  0  0  0  0  0  0  0  0  0  0
  142.5186  134.2593  150.7103 H   0  0  0  0  0  0  0  0  0  0  0  0
  1  2  2  0  0  0  0
  2  3  1  0  0  0  0
  2 10  1  0  0  0  0
  3  4  1  0  0  0  0
  3 19  1  0  0  0  0
  4  9  1  0  0  0  0
  4  5  2  0  0  0  0
  5  6  1  0  0  0  0
  5 20  1  0  0  0  0
  6  7  2  0  0  0  0
  6 21  1  0  0  0  0
  7  8  1  0  0  0  0
  8  9  2  0  0  0  0
  8 22  1  0  0  0  0
  9 23  1  0  0  0  0
 10 11  1  0  0  0  0
 10 24  1  0  0  0  0
 11 18  1  0  0  0  0
 11 12  1  0  0  0  0
 11 25  1  0  0  0  0
 12 13  1  0  0  0  0
 12 26  1  0  0  0  0
 12 27  1  0  0  0  0
 13 14  1  0  0  0  0
 13 28  1  0  0  0  0
 13 29  1  0  0  0  0
 14 15  1  0  0  0  0
 14 18  1  0  0  0  0
 14 37  1  0  0  0  0
 15 17  1  0  0  0  0
 15 16  1  0  0  0  0
 15 30  1  0  0  0  0
 16 17  1  0  0  0  0
 16 31  1  0  0  0  0
 16 32  1  0  0  0  0
 17 33  1  0  0  0  0
 17 34  1  0  0  0  0
 18 35  1  0  0  0  0
 18 36  1  0  0  0  0
M  CHG  1  14   1
M  END
> <s_m_source_file>
AV-unprocessed.smi

> <i_m_source_file_index>
3234

> <i_lp_mmshare_version>
43012

> <i_f3d_flags>
0

> <s_epik_input>
W2NIXTFbY0hdbltjSF1bY0hdYzFbTkhdQyg9TylbTkhdW0NAQEhdMltDSDJdW0NIMl1OKFtDSDJdMilbQ0hdM1tDSDJdW0NIMl0z

> <s_epik_cmdline>
J2VwaWtfcHl0aG9uJywgJy1waCcsICc3LjAnLCAnLXRuJywgJzgnLCAnLW1hJywgJzIwMCcsICctbWV0YWxfYmluZGluZycsICctaW1hZScsICc8aW5maWxlLm1hZT4nLCAnLW9tYWUnLCAnPG91dGZpbGUubWFlPic=

> <r_epik_Ionization_Penalty>
0.0934328

> <r_epik_Ionization_Penalty_Charging>
0.000606352

> <r_epik_Ionization_Penalty_Neutral>
0.0928265

> <r_epik_State_Penalty>
0.0830811

> <r_epik_Charging_Adjusted_Penalty>
0.0836875

> <i_epik_Tot_Q>
1

> <i_epik_Tot_abs_Q>
1

> <r_epik_Metal_State_Penalty>
0.0724491

> <b_epik_Metal_Only>
0

> <s_lp_Force_Field>
OPLS_2005

> <r_lp_Energy>
41.5008

> <b_lp_Chiralities_Consistent>
1

> <s_lp_Variant>
AV-unprocessed.smi:3234-4

> <Gold.Version>
5.8.1

> <Gold.Id.Protein>
6NUR|6NUR_protein|mol2

> <Gold.PLP.Fitness>
42.8120

> <Gold.PLP.PLP>
-31.0477

> <Gold.PLP.part.hbond>
-2.9558

> <Gold.PLP.part.metal>
0.0000

> <Gold.PLP.part.buried>
-4.9448

> <Gold.PLP.part.nonpolar>
-24.3322

> <Gold.PLP.part.repulsive>
1.5377

> <Gold.PLP.ligand.clash>
0.0000

> <Gold.PLP.ligand.torsion>
0.7620

> <Gold.PLP.Chemscore.Hbond>
3.0075

> <Gold.PLP.Chemscore.CHOScore>
1.0000

> <Gold.PLP.Chemscore.Metal>
0.0000

> <Gold.Chemscore.Hbonds>
donor molecule, donor type, donor heavy atom, donor atom, acceptor molecule, acceptor atom, score
      L1  H     3    19       P1 10175  1.00
      L1  H    14    37       P1 10186  2.00
      P1  H  8011  8017       L1     7  0.03
      L1  C     6    21       P1  8028  1.00

> <Gold.PLP.Chemscore.Internal.Correction>
1.2658

> <Gold.Rescore>
     Score         DG    S(hbond)    S(metal)    S(lipo)     H(rot)  DE(clash)    DE(int)     intcor
     15.10     -17.26       1.86        0.00      74.05       1.21       0.18       1.98       ----

> <Gold.Chemscore.Fitness>
15.1014

> <Gold.Chemscore.DG>
-17.2572

> <Gold.Chemscore.ZeroCoef>
-5.4800

> <Gold.Chemscore.Hbond>
1.8600

> <Gold.Chemscore.Metal>
0.0000

> <Gold.Chemscore.Lipo>
74.0541

> <Gold.Chemscore.Internal_Hbond>
0.0000

> <Gold.Chemscore.DEClash>
0.1770

> <Gold.Chemscore.DEInternal>
1.9788

> <Gold.Chemscore.Rot>
1.2108

> <Gold.Chemscore.Internal.Correction>
   9.000000E+99

> <Gold.Chemscore.Hbonds>
donor molecule, donor type, donor heavy atom, donor atom, acceptor molecule, acceptor atom, score
      L1  H     3    19       P1 10175  1.00
      L1  H    10    24       P1 10175  0.01
      L1  H    14    37       P1 10186  0.45

> <Gold.Chemscore.Hbond.Weighted>
-6.2124

> <Gold.Chemscore.Metal.Weighted>
-0.0000

> <Gold.Chemscore.Lipo.Weighted>
-8.6643

> <Gold.Chemscore.Internal_Hbond.Weighted>
0.0000

> <Gold.Chemscore.DEClash.Weighted>
0.1770

> <Gold.Chemscore.DEInternal.Weighted>
1.9788

> <Gold.Chemscore.Rot.Weighted>
3.0996

> <Gold.Chemscore.Internal.Correction.Weighted>
   9.000000E+99

> <Gold.Protein.RotatedTorsions>
[ 6907 6896 6895 6894 ] final  -61.24 input  -60.11 | X-H torsion
[ 7974 7965 7964 7962 ] final -171.60 input  175.53 | X-H torsion
[ 8008 7997 7996 7995 ] final  -56.12 input   59.86 | X-H torsion
[ 10167 10162 10161 10158 ] final -175.67 input  -65.29 | X-H torsion
[ 10718 10713 10712 10709 ] final   50.91 input   66.30 | X-H torsion
[ 10763 10752 10751 10750 ] final  -25.85 input  -60.55 | X-H torsion
[ 11005 11000 10999 10996 ] final  -39.73 input  -57.11 | X-H torsion

> <Gold.Protein.ActiveResidues>
 VAL166  LYS551  ARG553  GLY616  TRP617  ASP618  TYR619  PRO620  LYS621  CYS622 
 ASP623  PHE694  ASN695  SER759  ASP760  ASP761  ALA762  ILE779  LEU786  VAL792 
 PHE793  MET794  SER795  GLU796  ALA797  LYS798  CYS799  TRP800  GLU811  SER814 

> <Gold.Protein.RotatedAtoms>
  150.7798  134.6730  159.6401 H   0  0  0  0  0  0  0  0  0  0  0  0  # atno 6907 bound_to 6896
  152.3879  134.6484  160.0127 H   0  0  0  0  0  0  0  0  0  0  0  0  # atno 6908 bound_to 6896
  151.6794  133.3275  159.3252 H   0  0  0  0  0  0  0  0  0  0  0  0  # atno 6909 bound_to 6896
  144.7155  140.1898  143.6349 H   0  0  0  0  0  0  0  0  0  0  0  0  # atno 7974 bound_to 7965
  154.4219  140.1137  156.5587 H   0  0  0  0  0  0  0  0  0  0  0  0  # atno 8008 bound_to 7997
  155.6334  140.3496  155.4671 H   0  0  0  0  0  0  0  0  0  0  0  0  # atno 8009 bound_to 7997
  155.9930  140.1183  157.0610 H   0  0  0  0  0  0  0  0  0  0  0  0  # atno 8010 bound_to 7997
  139.5569  144.1967  152.1174 H   0  0  0  0  0  0  0  0  0  0  0  0  # atno 10167 bound_to 10162
  157.4930  130.8388  149.8225 H   0  0  0  0  0  0  0  0  0  0  0  0  # atno 10718 bound_to 10713
  153.7065  135.6953  153.5049 H   0  0  0  0  0  0  0  0  0  0  0  0  # atno 10763 bound_to 10752
  153.2304  135.4339  155.0588 H   0  0  0  0  0  0  0  0  0  0  0  0  # atno 10764 bound_to 10752
  154.8328  135.3483  154.6603 H   0  0  0  0  0  0  0  0  0  0  0  0  # atno 10765 bound_to 10752
  141.0123  133.6902  156.2226 H   0  0  0  0  0  0  0  0  0  0  0  0  # atno 11005 bound_to 11000
  145.8779  139.2307  143.1623 LP  0  0  0  0  0  0  0  0  0  0  0  0  # atno 17320 bound_to 7965
  146.0023  140.8509  143.0012 LP  0  0  0  0  0  0  0  0  0  0  0  0  # atno 17321 bound_to 7965
  140.1473  144.5147  150.6708 LP  0  0  0  0  0  0  0  0  0  0  0  0  # atno 17342 bound_to 10162
  140.6843  143.2342  151.5302 LP  0  0  0  0  0  0  0  0  0  0  0  0  # atno 17343 bound_to 10162
  156.0184  130.3805  150.2038 LP  0  0  0  0  0  0  0  0  0  0  0  0  # atno 17370 bound_to 10713
  157.0227  130.9984  151.3335 LP  0  0  0  0  0  0  0  0  0  0  0  0  # atno 17371 bound_to 10713
  140.6712  134.4865  157.5587 LP  0  0  0  0  0  0  0  0  0  0  0  0  # atno 17394 bound_to 11000
  139.9097  134.8372  156.1574 LP  0  0  0  0  0  0  0  0  0  0  0  0  # atno 17395 bound_to 11000

$$$$
