AV-unprocessed.smi:2334|AV-procd|sdf|9322|dock5
  -GOLD-   2272012543D 1   1.00000     0.00000
 Structure written by MMmdl.
 50 52  0  0  0  0  0  0  0  0  2 V2000
  146.3154  142.4994  154.3500 C   0  0  0  0  0  0  0  0  0  0  0  0
  146.9355  141.1180  154.4807 C   0  0  0  0  0  0  0  0  0  0  0  0
  146.2746  140.1080  153.8718 N   0  3  0  0  0  0  0  0  0  0  0  0
  146.6864  138.8227  153.8880 C   0  0  0  0  0  0  0  0  0  0  0  0
  145.8883  137.8891  153.2121 N   0  0  0  0  0  0  0  0  0  0  0  0
  146.0855  136.5128  153.6346 C   0  0  0  0  0  0  0  0  0  0  0  0
  145.4731  135.6484  152.5286 C   0  0  0  0  0  0  0  0  0  0  0  0
  145.4055  136.5650  151.3013 C   0  0  0  0  0  0  0  0  0  0  0  0
  146.0231  137.8863  151.7648 C   0  0  0  0  0  0  0  0  0  0  0  0
  147.8761  138.4927  154.5745 C   0  0  0  0  0  0  0  0  0  0  0  0
  148.6034  139.5089  155.2251 C   0  0  0  0  0  0  0  0  0  0  0  0
  148.1299  140.8452  155.1956 C   0  0  0  0  0  0  0  0  0  0  0  0
  148.8326  141.9181  155.8124 N   0  0  0  0  0  0  0  0  0  0  0  0
  149.6297  141.8800  156.8941 C   0  0  0  0  0  0  0  0  0  0  0  0
  149.8579  140.8722  157.5624 O   0  0  0  0  0  0  0  0  0  0  0  0
  150.1324  143.0976  157.1625 N   0  0  0  0  0  0  0  0  0  0  0  0
  151.0398  143.5177  158.2413 C   0  0  0  0  0  0  0  0  0  0  0  0
  151.9733  144.5734  157.6099 C   0  0  0  0  0  0  0  0  0  0  0  0
  150.2461  144.1380  159.4199 C   0  0  0  0  0  0  0  0  0  0  0  0
  151.1284  144.3699  160.6602 C   0  0  0  0  0  0  0  0  0  0  0  0
  151.7642  143.1563  161.0418 O   0  0  0  0  0  0  0  0  0  0  0  0
  152.6496  142.6598  160.0457 C   0  0  0  0  0  0  0  0  0  0  0  0
  151.8666  142.3155  158.7659 C   0  0  0  0  0  0  0  0  0  0  0  0
  146.8844  143.2752  154.8606 H   0  0  0  0  0  0  0  0  0  0  0  0
  145.3090  142.4963  154.7695 H   0  0  0  0  0  0  0  0  0  0  0  0
  146.2417  142.7780  153.2984 H   0  0  0  0  0  0  0  0  0  0  0  0
  147.1492  136.2937  153.7378 H   0  0  0  0  0  0  0  0  0  0  0  0
  145.6090  136.3268  154.5976 H   0  0  0  0  0  0  0  0  0  0  0  0
  146.0701  134.7545  152.3450 H   0  0  0  0  0  0  0  0  0  0  0  0
  144.4694  135.3256  152.8078 H   0  0  0  0  0  0  0  0  0  0  0  0
  145.9348  136.1513  150.4423 H   0  0  0  0  0  0  0  0  0  0  0  0
  144.3655  136.7161  151.0093 H   0  0  0  0  0  0  0  0  0  0  0  0
  145.5152  138.7432  151.3210 H   0  0  0  0  0  0  0  0  0  0  0  0
  147.0729  137.9295  151.4731 H   0  0  0  0  0  0  0  0  0  0  0  0
  148.2360  137.4749  154.6054 H   0  0  0  0  0  0  0  0  0  0  0  0
  149.5224  139.2435  155.7247 H   0  0  0  0  0  0  0  0  0  0  0  0
  148.6554  142.8328  155.4238 H   0  0  0  0  0  0  0  0  0  0  0  0
  149.8558  143.8382  156.5347 H   0  0  0  0  0  0  0  0  0  0  0  0
  152.6998  144.9677  158.3192 H   0  0  0  0  0  0  0  0  0  0  0  0
  151.4073  145.4230  157.2260 H   0  0  0  0  0  0  0  0  0  0  0  0
  152.5362  144.1543  156.7749 H   0  0  0  0  0  0  0  0  0  0  0  0
  149.7769  145.0741  159.1149 H   0  0  0  0  0  0  0  0  0  0  0  0
  149.4321  143.4808  159.7240 H   0  0  0  0  0  0  0  0  0  0  0  0
  151.8736  145.1458  160.4821 H   0  0  0  0  0  0  0  0  0  0  0  0
  150.5138  144.7157  161.4913 H   0  0  0  0  0  0  0  0  0  0  0  0
  153.4401  143.3847  159.8490 H   0  0  0  0  0  0  0  0  0  0  0  0
  153.1385  141.7650  160.4314 H   0  0  0  0  0  0  0  0  0  0  0  0
  151.2157  141.4755  159.0056 H   0  0  0  0  0  0  0  0  0  0  0  0
  152.5490  141.9551  157.9954 H   0  0  0  0  0  0  0  0  0  0  0  0
  145.4149  140.3307  153.3696 H   0  0  0  0  0  0  0  0  0  0  0  0
  1  2  1  0  0  0  0
  1 24  1  0  0  0  0
  1 25  1  0  0  0  0
  1 26  1  0  0  0  0
  2 12  1  0  0  0  0
  2  3  2  0  0  0  0
  3  4  1  0  0  0  0
  3 50  1  0  0  0  0
  4  5  1  0  0  0  0
  4 10  2  0  0  0  0
  5  9  1  0  0  0  0
  5  6  1  0  0  0  0
  6  7  1  0  0  0  0
  6 27  1  0  0  0  0
  6 28  1  0  0  0  0
  7  8  1  0  0  0  0
  7 29  1  0  0  0  0
  7 30  1  0  0  0  0
  8  9  1  0  0  0  0
  8 31  1  0  0  0  0
  8 32  1  0  0  0  0
  9 33  1  0  0  0  0
  9 34  1  0  0  0  0
 10 11  1  0  0  0  0
 10 35  1  0  0  0  0
 11 12  2  0  0  0  0
 11 36  1  0  0  0  0
 12 13  1  0  0  0  0
 13 14  1  0  0  0  0
 13 37  1  0  0  0  0
 14 15  2  0  0  0  0
 14 16  1  0  0  0  0
 16 17  1  0  0  0  0
 16 38  1  0  0  0  0
 17 23  1  0  0  0  0
 17 18  1  0  0  0  0
 17 19  1  0  0  0  0
 18 39  1  0  0  0  0
 18 40  1  0  0  0  0
 18 41  1  0  0  0  0
 19 20  1  0  0  0  0
 19 42  1  0  0  0  0
 19 43  1  0  0  0  0
 20 21  1  0  0  0  0
 20 44  1  0  0  0  0
 20 45  1  0  0  0  0
 21 22  1  0  0  0  0
 22 23  1  0  0  0  0
 22 46  1  0  0  0  0
 22 47  1  0  0  0  0
 23 48  1  0  0  0  0
 23 49  1  0  0  0  0
M  CHG  1   3   1
M  END
> <s_m_source_file>
AV-unprocessed.smi

> <i_m_source_file_index>
2334

> <i_lp_mmshare_version>
43012

> <i_f3d_flags>
0

> <s_epik_input>
W0NIMl0xW0NIMl1bQ0gyXVtDSDJdTjFjKG5jMltDSDNdKVtjSF1bY0hdYzJbTkhdQyg9TylbTkhdQzMoW0NIM10pW0NIMl1bQ0gyXU9bQ0gyXVtDSDJdMw==

> <s_epik_cmdline>
J2VwaWtfcHl0aG9uJywgJy1waCcsICc3LjAnLCAnLXRuJywgJzgnLCAnLW1hJywgJzIwMCcsICctbWV0YWxfYmluZGluZycsICctaW1hZScsICc8aW5maWxlLm1hZT4nLCAnLW9tYWUnLCAnPG91dGZpbGUubWFlPic=

> <r_lp_tautomer_probability>
0.999994

> <r_epik_Ionization_Penalty>
0.526488

> <r_epik_Ionization_Penalty_Charging>
0.526468

> <r_epik_Ionization_Penalty_Neutral>
1.9901e-05

> <r_epik_State_Penalty>
0.534906

> <r_epik_Charging_Adjusted_Penalty>
1.06137

> <i_epik_Tot_Q>
1

> <i_epik_Tot_abs_Q>
1

> <r_epik_Metal_State_Penalty>
0.740533

> <b_epik_Metal_Only>
0

> <s_lp_Force_Field>
OPLS_2005

> <r_lp_Energy>
48.5671

> <b_lp_Chiralities_Consistent>
1

> <s_lp_Variant>
AV-unprocessed.smi:2334-2

> <Gold.Version>
5.8.1

> <Gold.Id.Protein>
6NUR|6NUR_protein|mol2

> <Gold.PLP.Fitness>
47.6723

> <Gold.PLP.PLP>
-38.3302

> <Gold.PLP.part.hbond>
-3.9408

> <Gold.PLP.part.metal>
0.0000

> <Gold.PLP.part.buried>
-3.0923

> <Gold.PLP.part.nonpolar>
-33.5038

> <Gold.PLP.part.repulsive>
0.4920

> <Gold.PLP.ligand.clash>
0.0000

> <Gold.PLP.ligand.torsion>
1.1800

> <Gold.PLP.Chemscore.Hbond>
3.8960

> <Gold.PLP.Chemscore.CHOScore>
0.0000

> <Gold.PLP.Chemscore.Metal>
0.0000

> <Gold.Chemscore.Hbonds>
donor molecule, donor type, donor heavy atom, donor atom, acceptor molecule, acceptor atom, score
      L1  H     3    50       P1 10175  2.00
      L1  H    13    37       P1  8028  0.93
      L1  H    16    38       P1  8028  1.00

> <Gold.PLP.Chemscore.Internal.Correction>
0.0142

> <Gold.Rescore>
     Score         DG    S(hbond)    S(metal)    S(lipo)     H(rot)  DE(clash)    DE(int)     intcor
     19.91     -23.66       2.62        0.00     106.26       1.18       0.11       3.64       ----

> <Gold.Chemscore.Fitness>
19.9080

> <Gold.Chemscore.DG>
-23.6579

> <Gold.Chemscore.ZeroCoef>
-5.4800

> <Gold.Chemscore.Hbond>
2.6239

> <Gold.Chemscore.Metal>
0.0000

> <Gold.Chemscore.Lipo>
106.2561

> <Gold.Chemscore.Internal_Hbond>
0.0000

> <Gold.Chemscore.DEClash>
0.1065

> <Gold.Chemscore.DEInternal>
3.6434

> <Gold.Chemscore.Rot>
1.1788

> <Gold.Chemscore.Internal.Correction>
   9.000000E+99

> <Gold.Chemscore.Hbonds>
donor molecule, donor type, donor heavy atom, donor atom, acceptor molecule, acceptor atom, score
      L1  H     3    50       P1 10175  0.98
      L1  H    13    37       P1  8028  0.91
      L1  H    16    38       P1  8028  0.96

> <Gold.Chemscore.Hbond.Weighted>
-8.7637

> <Gold.Chemscore.Metal.Weighted>
-0.0000

> <Gold.Chemscore.Lipo.Weighted>
-12.4320

> <Gold.Chemscore.Internal_Hbond.Weighted>
0.0000

> <Gold.Chemscore.DEClash.Weighted>
0.1065

> <Gold.Chemscore.DEInternal.Weighted>
3.6434

> <Gold.Chemscore.Rot.Weighted>
3.0178

> <Gold.Chemscore.Internal.Correction.Weighted>
   9.000000E+99

> <Gold.Protein.RotatedTorsions>
[ 6907 6896 6895 6894 ] final  -99.84 input  -60.11 | X-H torsion
[ 7974 7965 7964 7962 ] final   47.79 input  175.53 | X-H torsion
[ 8008 7997 7996 7995 ] final    5.12 input   59.86 | X-H torsion
[ 10167 10162 10161 10158 ] final  -70.88 input  -65.29 | X-H torsion
[ 10718 10713 10712 10709 ] final   -9.64 input   66.30 | X-H torsion
[ 10763 10752 10751 10750 ] final   26.50 input  -60.55 | X-H torsion
[ 11005 11000 10999 10996 ] final   28.77 input  -57.11 | X-H torsion

> <Gold.Protein.ActiveResidues>
 VAL166  LYS551  ARG553  GLY616  TRP617  ASP618  TYR619  PRO620  LYS621  CYS622 
 ASP623  PHE694  ASN695  SER759  ASP760  ASP761  ALA762  ILE779  LEU786  VAL792 
 PHE793  MET794  SER795  GLU796  ALA797  LYS798  CYS799  TRP800  GLU811  SER814 

> <Gold.Protein.RotatedAtoms>
  150.7094  134.0979  159.3954 H   0  0  0  0  0  0  0  0  0  0  0  0  # atno 6907 bound_to 6896
  151.8965  135.0393  160.0512 H   0  0  0  0  0  0  0  0  0  0  0  0  # atno 6908 bound_to 6896
  152.2449  133.5130  159.5328 H   0  0  0  0  0  0  0  0  0  0  0  0  # atno 6909 bound_to 6896
  146.0265  139.4712  142.9865 H   0  0  0  0  0  0  0  0  0  0  0  0  # atno 7974 bound_to 7965
  154.7243  140.2718  155.6513 H   0  0  0  0  0  0  0  0  0  0  0  0  # atno 8008 bound_to 7997
  156.2832  140.2728  156.1850 H   0  0  0  0  0  0  0  0  0  0  0  0  # atno 8009 bound_to 7997
  155.0465  140.0371  157.2518 H   0  0  0  0  0  0  0  0  0  0  0  0  # atno 8010 bound_to 7997
  140.5317  143.2321  151.7249 H   0  0  0  0  0  0  0  0  0  0  0  0  # atno 10167 bound_to 10162
  156.6851  130.5048  149.5960 H   0  0  0  0  0  0  0  0  0  0  0  0  # atno 10718 bound_to 10713
  153.0618  135.6559  154.0444 H   0  0  0  0  0  0  0  0  0  0  0  0  # atno 10763 bound_to 10752
  154.0110  135.2928  155.3394 H   0  0  0  0  0  0  0  0  0  0  0  0  # atno 10764 bound_to 10752
  154.6960  135.5264  153.8527 H   0  0  0  0  0  0  0  0  0  0  0  0  # atno 10765 bound_to 10752
  140.3120  134.2639  155.7732 H   0  0  0  0  0  0  0  0  0  0  0  0  # atno 11005 bound_to 11000
  145.7110  141.0106  143.1453 LP  0  0  0  0  0  0  0  0  0  0  0  0  # atno 17320 bound_to 7965
  144.7011  139.8757  143.7443 LP  0  0  0  0  0  0  0  0  0  0  0  0  # atno 17321 bound_to 7965
  139.4957  144.4103  152.0087 LP  0  0  0  0  0  0  0  0  0  0  0  0  # atno 17342 bound_to 10162
  140.3206  144.3432  150.6010 LP  0  0  0  0  0  0  0  0  0  0  0  0  # atno 17343 bound_to 10162
  156.1839  130.6516  151.0983 LP  0  0  0  0  0  0  0  0  0  0  0  0  # atno 17370 bound_to 10713
  157.7029  131.0768  150.6761 LP  0  0  0  0  0  0  0  0  0  0  0  0  # atno 17371 bound_to 10713
  141.2106  133.7714  156.9921 LP  0  0  0  0  0  0  0  0  0  0  0  0  # atno 17394 bound_to 11000
  140.1016  134.9532  157.1932 LP  0  0  0  0  0  0  0  0  0  0  0  0  # atno 17395 bound_to 11000

$$$$
