AV-unprocessed.smi:1063|AV-procd|sdf|4663|dock6
  -GOLD-   22720 3173D 1   1.00000     0.00000
 Structure written by MMmdl.
 38 39  0  0  0  0  0  0  0  0  1 V2000
  151.9361  142.6639  159.0281 C   0  0  0  0  0  0  0  0  0  0  0  0
  151.2835  141.6547  158.0801 C   0  0  0  0  0  0  0  0  0  0  0  0
  150.7278  142.4469  156.5432 S   0  0  0  0  0  0  0  0  0  0  0  0
  149.8832  141.2186  155.5928 C   0  0  0  0  0  0  0  0  0  0  0  0
  148.5179  141.3719  155.2851 C   0  0  0  0  0  0  0  0  0  0  0  0
  147.8924  140.3682  154.5214 C   0  0  0  0  0  0  0  0  0  0  0  0
  148.6458  139.2514  154.1035 C   0  0  0  0  0  0  0  0  0  0  0  0
  147.9959  138.2658  153.3129 N   0  0  0  0  0  0  0  0  0  0  0  0
  146.6776  138.0604  153.1530 C   0  0  0  0  0  0  0  0  0  0  0  0
  145.7863  138.7667  153.6231 O   0  0  0  0  0  0  0  0  0  0  0  0
  146.4448  136.9826  152.3908 N   0  0  0  0  0  0  0  0  0  0  0  0
  145.1269  136.4710  152.0281 C   0  0  0  0  0  0  0  0  0  0  0  0
  145.2222  135.2835  151.0542 C   0  0  1  0  0  0  0  0  0  0  0  0
  146.1872  134.1730  151.4696 C   0  0  0  0  0  0  0  0  0  0  0  0
  145.6415  132.9445  150.7591 C   0  0  0  0  0  0  0  0  0  0  0  0
  144.2219  133.3485  150.3492 C   0  0  0  0  0  0  0  0  0  0  0  0
  143.9844  134.5947  150.9904 O   0  0  0  0  0  0  0  0  0  0  0  0
  150.0166  139.2060  154.4618 C   0  0  0  0  0  0  0  0  0  0  0  0
  150.6252  140.1645  155.1924 N   0  0  0  0  0  0  0  0  0  0  0  0
  152.2599  142.1776  159.9483 H   0  0  0  0  0  0  0  0  0  0  0  0
  151.2395  143.4577  159.2984 H   0  0  0  0  0  0  0  0  0  0  0  0
  152.8111  143.1248  158.5693 H   0  0  0  0  0  0  0  0  0  0  0  0
  151.9921  140.8627  157.8365 H   0  0  0  0  0  0  0  0  0  0  0  0
  150.4281  141.1860  158.5670 H   0  0  0  0  0  0  0  0  0  0  0  0
  147.9645  142.2358  155.6227 H   0  0  0  0  0  0  0  0  0  0  0  0
  146.8471  140.4560  154.2635 H   0  0  0  0  0  0  0  0  0  0  0  0
  148.6076  137.6628  152.7825 H   0  0  0  0  0  0  0  0  0  0  0  0
  147.2402  136.4677  152.0424 H   0  0  0  0  0  0  0  0  0  0  0  0
  144.5537  136.1972  152.9158 H   0  0  0  0  0  0  0  0  0  0  0  0
  144.5786  137.2842  151.5521 H   0  0  0  0  0  0  0  0  0  0  0  0
  145.4715  135.6385  150.0522 H   0  0  0  0  0  0  0  0  0  0  0  0
  147.2224  134.3919  151.2059 H   0  0  0  0  0  0  0  0  0  0  0  0
  146.1402  134.0180  152.5484 H   0  0  0  0  0  0  0  0  0  0  0  0
  146.2376  132.6950  149.8806 H   0  0  0  0  0  0  0  0  0  0  0  0
  145.6420  132.0788  151.4221 H   0  0  0  0  0  0  0  0  0  0  0  0
  144.1598  133.4838  149.2685 H   0  0  0  0  0  0  0  0  0  0  0  0
  143.4752  132.6100  150.6422 H   0  0  0  0  0  0  0  0  0  0  0  0
  150.6643  138.4033  154.1458 H   0  0  0  0  0  0  0  0  0  0  0  0
  1  2  1  0  0  0  0
  1 20  1  0  0  0  0
  1 21  1  0  0  0  0
  1 22  1  0  0  0  0
  2  3  1  0  0  0  0
  2 23  1  0  0  0  0
  2 24  1  0  0  0  0
  3  4  1  0  0  0  0
  4 19  1  0  0  0  0
  4  5  2  0  0  0  0
  5  6  1  0  0  0  0
  5 25  1  0  0  0  0
  6  7  2  0  0  0  0
  6 26  1  0  0  0  0
  7  8  1  0  0  0  0
  7 18  1  0  0  0  0
  8  9  1  0  0  0  0
  8 27  1  0  0  0  0
  9 10  2  0  0  0  0
  9 11  1  0  0  0  0
 11 12  1  0  0  0  0
 11 28  1  0  0  0  0
 12 13  1  0  0  0  0
 12 29  1  0  0  0  0
 12 30  1  0  0  0  0
 13 17  1  0  0  0  0
 13 14  1  0  0  0  0
 13 31  1  0  0  0  0
 14 15  1  0  0  0  0
 14 32  1  0  0  0  0
 14 33  1  0  0  0  0
 15 16  1  0  0  0  0
 15 34  1  0  0  0  0
 15 35  1  0  0  0  0
 16 17  1  0  0  0  0
 16 36  1  0  0  0  0
 16 37  1  0  0  0  0
 18 19  2  0  0  0  0
 18 38  1  0  0  0  0
M  END
> <s_m_source_file>
AV-unprocessed.smi

> <i_m_source_file_index>
1063

> <i_lp_mmshare_version>
43012

> <i_f3d_flags>
0

> <s_epik_input>
W0NIM11bQ0gyXVNjMVtjSF1bY0hdYyhbY0hdbjEpW05IXUMoPU8pW05IXVtDSDJdW0NAQEhdMltDSDJdW0NIMl1bQ0gyXU8y

> <s_epik_cmdline>
J2VwaWtfcHl0aG9uJywgJy1waCcsICc3LjAnLCAnLXRuJywgJzgnLCAnLW1hJywgJzIwMCcsICctbWV0YWxfYmluZGluZycsICctaW1hZScsICc8aW5maWxlLm1hZT4nLCAnLW9tYWUnLCAnPG91dGZpbGUubWFlPic=

> <r_lp_tautomer_probability>
1

> <r_epik_Ionization_Penalty>
0.000426617

> <r_epik_Ionization_Penalty_Charging>
0

> <r_epik_Ionization_Penalty_Neutral>
0.000426617

> <r_epik_State_Penalty>
0.000241115

> <r_epik_Charging_Adjusted_Penalty>
0.000241115

> <i_epik_Tot_Q>
0

> <i_epik_Tot_abs_Q>
0

> <r_epik_Metal_State_Penalty>
-0

> <b_epik_Metal_Only>
0

> <s_lp_Force_Field>
OPLS_2005

> <r_lp_Energy>
18.8486

> <b_lp_Chiralities_Consistent>
1

> <s_lp_Variant>
AV-unprocessed.smi:1063-2

> <Gold.Version>
5.8.1

> <Gold.Id.Protein>
6NUR|6NUR_protein|mol2

> <Gold.PLP.Fitness>
42.3476

> <Gold.PLP.PLP>
-34.5472

> <Gold.PLP.part.hbond>
-3.4563

> <Gold.PLP.part.metal>
0.0000

> <Gold.PLP.part.buried>
-5.9149

> <Gold.PLP.part.nonpolar>
-27.1684

> <Gold.PLP.part.repulsive>
0.5772

> <Gold.PLP.ligand.clash>
0.0000

> <Gold.PLP.ligand.torsion>
0.1655

> <Gold.PLP.Chemscore.Hbond>
2.7000

> <Gold.PLP.Chemscore.CHOScore>
0.0000

> <Gold.PLP.Chemscore.Metal>
0.0000

> <Gold.Chemscore.Hbonds>
donor molecule, donor type, donor heavy atom, donor atom, acceptor molecule, acceptor atom, score
      L1  H     8    27       P1  7948  1.00
      L1  H    11    28       P1  7948  1.00
      P1  H  7989  7998       L1    19  0.46

> <Gold.PLP.Chemscore.Internal.Correction>
0.0314

> <Gold.Rescore>
     Score         DG    S(hbond)    S(metal)    S(lipo)     H(rot)  DE(clash)    DE(int)     intcor
     16.61     -18.53       1.97        0.00      87.38       1.47       0.05       1.87       ----

> <Gold.Chemscore.Fitness>
16.6056

> <Gold.Chemscore.DG>
-18.5296

> <Gold.Chemscore.ZeroCoef>
-5.4800

> <Gold.Chemscore.Hbond>
1.9713

> <Gold.Chemscore.Metal>
0.0000

> <Gold.Chemscore.Lipo>
87.3839

> <Gold.Chemscore.Internal_Hbond>
0.0000

> <Gold.Chemscore.DEClash>
0.0520

> <Gold.Chemscore.DEInternal>
1.8720

> <Gold.Chemscore.Rot>
1.4681

> <Gold.Chemscore.Internal.Correction>
   9.000000E+99

> <Gold.Chemscore.Hbonds>
donor molecule, donor type, donor heavy atom, donor atom, acceptor molecule, acceptor atom, score
      L1  H     8    27       P1  7948  0.98
      L1  H    11    28       P1  7948  0.97
      P1  H  7989  7998       L1    19  0.01

> <Gold.Chemscore.Hbond.Weighted>
-6.5840

> <Gold.Chemscore.Metal.Weighted>
-0.0000

> <Gold.Chemscore.Lipo.Weighted>
-10.2239

> <Gold.Chemscore.Internal_Hbond.Weighted>
0.0000

> <Gold.Chemscore.DEClash.Weighted>
0.0520

> <Gold.Chemscore.DEInternal.Weighted>
1.8720

> <Gold.Chemscore.Rot.Weighted>
3.7584

> <Gold.Chemscore.Internal.Correction.Weighted>
   9.000000E+99

> <Gold.Protein.RotatedTorsions>
[ 6907 6896 6895 6894 ] final -127.98 input  -60.11 | X-H torsion
[ 7974 7965 7964 7962 ] final  105.43 input  175.53 | X-H torsion
[ 8008 7997 7996 7995 ] final  -30.06 input   59.86 | X-H torsion
[ 10167 10162 10161 10158 ] final  109.08 input  -65.29 | X-H torsion
[ 10718 10713 10712 10709 ] final -177.47 input   66.30 | X-H torsion
[ 10763 10752 10751 10750 ] final   24.49 input  -60.55 | X-H torsion
[ 11005 11000 10999 10996 ] final  -46.61 input  -57.11 | X-H torsion

> <Gold.Protein.ActiveResidues>
 VAL166  LYS551  ARG553  GLY616  TRP617  ASP618  TYR619  PRO620  LYS621  CYS622 
 ASP623  PHE694  ASN695  SER759  ASP760  ASP761  ALA762  ILE779  LEU786  VAL792 
 PHE793  MET794  SER795  GLU796  ALA797  LYS798  CYS799  TRP800  GLU811  SER814 

> <Gold.Protein.RotatedAtoms>
  150.9130  133.6974  159.2850 H   0  0  0  0  0  0  0  0  0  0  0  0  # atno 6907 bound_to 6896
  151.4454  135.1023  159.9692 H   0  0  0  0  0  0  0  0  0  0  0  0  # atno 6908 bound_to 6896
  152.4940  133.8528  159.7265 H   0  0  0  0  0  0  0  0  0  0  0  0  # atno 6909 bound_to 6896
  145.3197  139.2516  143.3718 H   0  0  0  0  0  0  0  0  0  0  0  0  # atno 7974 bound_to 7965
  154.4265  140.1801  156.1346 H   0  0  0  0  0  0  0  0  0  0  0  0  # atno 8008 bound_to 7997
  156.0040  140.3357  155.6849 H   0  0  0  0  0  0  0  0  0  0  0  0  # atno 8009 bound_to 7997
  155.6203  140.0659  157.2671 H   0  0  0  0  0  0  0  0  0  0  0  0  # atno 8010 bound_to 7997
  139.6795  144.7119  151.1541 H   0  0  0  0  0  0  0  0  0  0  0  0  # atno 10167 bound_to 10162
  156.8300  130.9650  151.3107 H   0  0  0  0  0  0  0  0  0  0  0  0  # atno 10718 bound_to 10713
  153.0760  135.6604  154.0146 H   0  0  0  0  0  0  0  0  0  0  0  0  # atno 10763 bound_to 10752
  153.9779  135.2958  155.3424 H   0  0  0  0  0  0  0  0  0  0  0  0  # atno 10764 bound_to 10752
  154.7148  135.5190  153.8791 H   0  0  0  0  0  0  0  0  0  0  0  0  # atno 10765 bound_to 10752
  141.0589  133.6716  156.3179 H   0  0  0  0  0  0  0  0  0  0  0  0  # atno 11005 bound_to 11000
  146.3087  140.3752  142.8678 LP  0  0  0  0  0  0  0  0  0  0  0  0  # atno 17320 bound_to 7965
  144.8949  140.7570  143.5903 LP  0  0  0  0  0  0  0  0  0  0  0  0  # atno 17321 bound_to 7965
  140.7647  143.5721  150.8985 LP  0  0  0  0  0  0  0  0  0  0  0  0  # atno 17342 bound_to 10162
  139.9392  143.6402  152.3058 LP  0  0  0  0  0  0  0  0  0  0  0  0  # atno 17343 bound_to 10162
  157.6412  130.8807  149.9452 LP  0  0  0  0  0  0  0  0  0  0  0  0  # atno 17370 bound_to 10713
  156.0940  130.3661  150.0342 LP  0  0  0  0  0  0  0  0  0  0  0  0  # atno 17371 bound_to 10713
  140.5907  134.5653  157.5499 LP  0  0  0  0  0  0  0  0  0  0  0  0  # atno 17394 bound_to 11000
  139.9415  134.7778  156.0666 LP  0  0  0  0  0  0  0  0  0  0  0  0  # atno 17395 bound_to 11000

$$$$
