AV-unprocessed.smi:767|AV-procd|sdf|3665|dock3
  -GOLD-   22720 1 73D 1   1.00000     0.00000
 Structure written by MMmdl.
 48 50  0  0  0  0  0  0  0  0  2 V2000
  151.5115  143.3874  158.0358 C   0  0  0  0  0  0  0  0  0  0  0  0
  151.1181  142.2510  157.1156 C   0  0  0  0  0  0  0  0  0  0  0  0
  151.6879  140.9640  157.2207 C   0  0  0  0  0  0  0  0  0  0  0  0
  151.2682  139.9511  156.3338 C   0  0  0  0  0  0  0  0  0  0  0  0
  150.2854  140.2434  155.3623 C   0  0  0  0  0  0  0  0  0  0  0  0
  149.7974  139.1666  154.4081 C   0  0  0  0  0  0  0  0  0  0  0  0
  148.2619  139.1151  154.2655 C   0  0  0  0  0  0  0  0  0  0  0  0
  147.7967  138.0454  153.3862 N   0  0  0  0  0  0  0  0  0  0  0  0
  146.5126  137.7479  153.1445 C   0  0  0  0  0  0  0  0  0  0  0  0
  145.5602  138.3504  153.6391 O   0  0  0  0  0  0  0  0  0  0  0  0
  146.3917  136.7280  152.2852 N   0  0  0  0  0  0  0  0  0  0  0  0
  145.1180  136.2079  151.8027 C   0  0  2  0  0  0  0  0  0  0  0  0
  144.0460  136.1779  152.8925 C   0  0  1  0  0  0  0  0  0  0  0  0
  142.7611  136.8925  153.1158 C   0  0  0  0  0  0  0  0  0  0  0  0
  141.8966  135.6607  153.4972 C   0  0  0  0  0  0  0  0  0  0  0  0
  142.6984  134.4973  153.1765 O   0  0  0  0  0  0  0  0  0  0  0  0
  143.5537  134.9519  152.1481 C   0  0  2  0  0  0  0  0  0  0  0  0
  145.0282  134.6351  151.8284 C   0  0  0  0  0  0  0  0  0  0  0  0
  145.2696  133.9438  150.4862 C   0  0  0  0  0  0  0  0  0  0  0  0
  145.8312  133.8381  152.8766 C   0  0  0  0  0  0  0  0  0  0  0  0
  149.7557  141.5499  155.3005 C   0  0  0  0  0  0  0  0  0  0  0  0
  150.1847  142.4930  156.1678 N   0  3  0  0  0  0  0  0  0  0  0  0
  152.3254  143.0919  158.6990 H   0  0  0  0  0  0  0  0  0  0  0  0
  150.6629  143.6877  158.6511 H   0  0  0  0  0  0  0  0  0  0  0  0
  151.8412  144.2507  157.4572 H   0  0  0  0  0  0  0  0  0  0  0  0
  152.4342  140.7505  157.9723 H   0  0  0  0  0  0  0  0  0  0  0  0
  151.6904  138.9591  156.4072 H   0  0  0  0  0  0  0  0  0  0  0  0
  150.2505  139.3309  153.4299 H   0  0  0  0  0  0  0  0  0  0  0  0
  150.1671  138.1980  154.7471 H   0  0  0  0  0  0  0  0  0  0  0  0
  147.8154  138.9400  155.2445 H   0  0  0  0  0  0  0  0  0  0  0  0
  147.8791  140.0774  153.9220 H   0  0  0  0  0  0  0  0  0  0  0  0
  148.5063  137.4888  152.9322 H   0  0  0  0  0  0  0  0  0  0  0  0
  147.2301  136.2901  151.9325 H   0  0  0  0  0  0  0  0  0  0  0  0
  144.7702  136.6642  150.8709 H   0  0  0  0  0  0  0  0  0  0  0  0
  144.4941  135.9400  153.8603 H   0  0  0  0  0  0  0  0  0  0  0  0
  142.8182  137.6293  153.9175 H   0  0  0  0  0  0  0  0  0  0  0  0
  142.4014  137.3793  152.2081 H   0  0  0  0  0  0  0  0  0  0  0  0
  141.6485  135.6498  154.5589 H   0  0  0  0  0  0  0  0  0  0  0  0
  140.9644  135.6499  152.9310 H   0  0  0  0  0  0  0  0  0  0  0  0
  142.9798  135.1835  151.2432 H   0  0  0  0  0  0  0  0  0  0  0  0
  144.9151  132.9127  150.4978 H   0  0  0  0  0  0  0  0  0  0  0  0
  146.3287  133.9272  150.2277 H   0  0  0  0  0  0  0  0  0  0  0  0
  144.7509  134.4541  149.6740 H   0  0  0  0  0  0  0  0  0  0  0  0
  145.4483  132.8215  152.9721 H   0  0  0  0  0  0  0  0  0  0  0  0
  145.8102  134.2751  153.8732 H   0  0  0  0  0  0  0  0  0  0  0  0
  146.8806  133.7613  152.5947 H   0  0  0  0  0  0  0  0  0  0  0  0
  149.0024  141.8652  154.5931 H   0  0  0  0  0  0  0  0  0  0  0  0
  149.7843  143.4297  156.1064 H   0  0  0  0  0  0  0  0  0  0  0  0
  1  2  1  0  0  0  0
  1 23  1  0  0  0  0
  1 24  1  0  0  0  0
  1 25  1  0  0  0  0
  2 22  1  0  0  0  0
  2  3  2  0  0  0  0
  3  4  1  0  0  0  0
  3 26  1  0  0  0  0
  4  5  2  0  0  0  0
  4 27  1  0  0  0  0
  5  6  1  0  0  0  0
  5 21  1  0  0  0  0
  6  7  1  0  0  0  0
  6 28  1  0  0  0  0
  6 29  1  0  0  0  0
  7  8  1  0  0  0  0
  7 30  1  0  0  0  0
  7 31  1  0  0  0  0
  8  9  1  0  0  0  0
  8 32  1  0  0  0  0
  9 10  2  0  0  0  0
  9 11  1  0  0  0  0
 11 12  1  0  0  0  0
 11 33  1  0  0  0  0
 12 18  1  0  0  0  0
 12 13  1  0  0  0  0
 12 34  1  0  0  0  0
 13 17  1  0  0  0  0
 13 14  1  0  0  0  0
 13 35  1  0  0  0  0
 14 15  1  0  0  0  0
 14 36  1  0  0  0  0
 14 37  1  0  0  0  0
 15 16  1  0  0  0  0
 15 38  1  0  0  0  0
 15 39  1  0  0  0  0
 16 17  1  0  0  0  0
 17 18  1  0  0  0  0
 17 40  1  0  0  0  0
 18 19  1  0  0  0  0
 18 20  1  0  0  0  0
 19 41  1  0  0  0  0
 19 42  1  0  0  0  0
 19 43  1  0  0  0  0
 20 44  1  0  0  0  0
 20 45  1  0  0  0  0
 20 46  1  0  0  0  0
 21 22  2  0  0  0  0
 21 47  1  0  0  0  0
 22 48  1  0  0  0  0
M  CHG  1  22   1
M  END
> <s_m_source_file>
AV-unprocessed.smi

> <i_m_source_file_index>
767

> <i_lp_mmshare_version>
43012

> <i_f3d_flags>
0

> <s_epik_input>
W0NIM11jMVtjSF1bY0hdYyhbY0hdbjEpW0NIMl1bQ0gyXVtOSF1DKD1PKVtOSF1bQ0BIXTJDKFtDSDNdKShbQ0gzXSlbQ0BIXShbQ0BASF0yMylPW0NIMl1bQ0gyXTM=

> <s_epik_cmdline>
J2VwaWtfcHl0aG9uJywgJy1waCcsICc3LjAnLCAnLXRuJywgJzgnLCAnLW1hJywgJzIwMCcsICctbWV0YWxfYmluZGluZycsICctaW1hZScsICc8aW5maWxlLm1hZT4nLCAnLW9tYWUnLCAnPG91dGZpbGUubWFlPic=

> <r_epik_Ionization_Penalty>
1.41853

> <r_epik_Ionization_Penalty_Charging>
1.41848

> <r_epik_Ionization_Penalty_Neutral>
5.17407e-05

> <r_epik_State_Penalty>
1.50205

> <r_epik_Charging_Adjusted_Penalty>
2.92053

> <i_epik_Tot_Q>
1

> <i_epik_Tot_abs_Q>
1

> <r_epik_Metal_State_Penalty>
1.5544

> <b_epik_Metal_Only>
0

> <s_lp_Force_Field>
OPLS_2005

> <r_lp_Energy>
63.3353

> <b_lp_Chiralities_Consistent>
1

> <s_lp_Variant>
AV-unprocessed.smi:767-9

> <Gold.Version>
5.8.1

> <Gold.Id.Protein>
6NUR|6NUR_protein|mol2

> <Gold.PLP.Fitness>
48.2364

> <Gold.PLP.PLP>
-36.7851

> <Gold.PLP.part.hbond>
-3.0000

> <Gold.PLP.part.metal>
0.0000

> <Gold.PLP.part.buried>
-5.7453

> <Gold.PLP.part.nonpolar>
-30.0471

> <Gold.PLP.part.repulsive>
1.2762

> <Gold.PLP.ligand.clash>
0.0000

> <Gold.PLP.ligand.torsion>
0.4141

> <Gold.PLP.Chemscore.Hbond>
4.0000

> <Gold.PLP.Chemscore.CHOScore>
0.0000

> <Gold.PLP.Chemscore.Metal>
0.0000

> <Gold.Chemscore.Hbonds>
donor molecule, donor type, donor heavy atom, donor atom, acceptor molecule, acceptor atom, score
      L1  H     8    32       P1  7948  1.00
      L1  H    11    33       P1  7948  1.00
      L1  H    22    48       P1  8028  2.00

> <Gold.PLP.Chemscore.Internal.Correction>
0.2795

> <Gold.Rescore>
     Score         DG    S(hbond)    S(metal)    S(lipo)     H(rot)  DE(clash)    DE(int)     intcor
     19.92     -22.29       2.92        0.00      93.65       1.52       0.47       1.90       ----

> <Gold.Chemscore.Fitness>
19.9222

> <Gold.Chemscore.DG>
-22.2900

> <Gold.Chemscore.ZeroCoef>
-5.4800

> <Gold.Chemscore.Hbond>
2.9200

> <Gold.Chemscore.Metal>
0.0000

> <Gold.Chemscore.Lipo>
93.6473

> <Gold.Chemscore.Internal_Hbond>
0.0000

> <Gold.Chemscore.DEClash>
0.4686

> <Gold.Chemscore.DEInternal>
1.8991

> <Gold.Chemscore.Rot>
1.5233

> <Gold.Chemscore.Internal.Correction>
   9.000000E+99

> <Gold.Chemscore.Hbonds>
donor molecule, donor type, donor heavy atom, donor atom, acceptor molecule, acceptor atom, score
      L1  H     8    32       P1  7948  0.95
      L1  H    11    33       P1  7948  0.94
      L1  H    22    48       P1  8028  0.99

> <Gold.Chemscore.Hbond.Weighted>
-9.7528

> <Gold.Chemscore.Metal.Weighted>
-0.0000

> <Gold.Chemscore.Lipo.Weighted>
-10.9567

> <Gold.Chemscore.Internal_Hbond.Weighted>
0.0000

> <Gold.Chemscore.DEClash.Weighted>
0.4686

> <Gold.Chemscore.DEInternal.Weighted>
1.8991

> <Gold.Chemscore.Rot.Weighted>
3.8995

> <Gold.Chemscore.Internal.Correction.Weighted>
   9.000000E+99

> <Gold.Protein.RotatedTorsions>
[ 6907 6896 6895 6894 ] final  -84.33 input  -60.11 | X-H torsion
[ 7974 7965 7964 7962 ] final  -73.80 input  175.53 | X-H torsion
[ 8008 7997 7996 7995 ] final  133.67 input   59.86 | X-H torsion
[ 10167 10162 10161 10158 ] final  -48.23 input  -65.29 | X-H torsion
[ 10718 10713 10712 10709 ] final  -42.92 input   66.30 | X-H torsion
[ 10763 10752 10751 10750 ] final  -76.32 input  -60.55 | X-H torsion
[ 11005 11000 10999 10996 ] final   52.66 input  -57.11 | X-H torsion

> <Gold.Protein.ActiveResidues>
 VAL166  LYS551  ARG553  GLY616  TRP617  ASP618  TYR619  PRO620  LYS621  CYS622 
 ASP623  PHE694  ASN695  SER759  ASP760  ASP761  ALA762  ILE779  LEU786  VAL792 
 PHE793  MET794  SER795  GLU796  ALA797  LYS798  CYS799  TRP800  GLU811  SER814 

> <Gold.Protein.RotatedAtoms>
  150.6877  134.3374  159.4852 H   0  0  0  0  0  0  0  0  0  0  0  0  # atno 6907 bound_to 6896
  152.1231  134.9188  160.0571 H   0  0  0  0  0  0  0  0  0  0  0  0  # atno 6908 bound_to 6896
  152.0386  133.3933  159.4364 H   0  0  0  0  0  0  0  0  0  0  0  0  # atno 6909 bound_to 6896
  145.6474  140.9293  143.1003 H   0  0  0  0  0  0  0  0  0  0  0  0  # atno 7974 bound_to 7965
  156.2994  140.2515  156.3291 H   0  0  0  0  0  0  0  0  0  0  0  0  # atno 8008 bound_to 7997
  154.9162  140.0402  157.1992 H   0  0  0  0  0  0  0  0  0  0  0  0  # atno 8009 bound_to 7997
  154.8356  140.2882  155.5697 H   0  0  0  0  0  0  0  0  0  0  0  0  # atno 8010 bound_to 7997
  140.6740  143.2749  151.4041 H   0  0  0  0  0  0  0  0  0  0  0  0  # atno 10167 bound_to 10162
  156.2545  130.4191  149.8612 H   0  0  0  0  0  0  0  0  0  0  0  0  # atno 10718 bound_to 10713
  154.4983  135.5801  153.6512 H   0  0  0  0  0  0  0  0  0  0  0  0  # atno 10763 bound_to 10752
  152.9874  135.6129  154.3035 H   0  0  0  0  0  0  0  0  0  0  0  0  # atno 10764 bound_to 10752
  154.2940  135.2848  155.2621 H   0  0  0  0  0  0  0  0  0  0  0  0  # atno 10765 bound_to 10752
  140.0831  134.5312  155.8927 H   0  0  0  0  0  0  0  0  0  0  0  0  # atno 11005 bound_to 11000
  144.7135  139.8283  143.7406 LP  0  0  0  0  0  0  0  0  0  0  0  0  # atno 17320 bound_to 7965
  146.1231  139.4253  143.0215 LP  0  0  0  0  0  0  0  0  0  0  0  0  # atno 17321 bound_to 7965
  139.6023  144.1270  152.2211 LP  0  0  0  0  0  0  0  0  0  0  0  0  # atno 17342 bound_to 10162
  140.0658  144.5819  150.7228 LP  0  0  0  0  0  0  0  0  0  0  0  0  # atno 17343 bound_to 10162
  156.6149  130.8602  151.3462 LP  0  0  0  0  0  0  0  0  0  0  0  0  # atno 17370 bound_to 10713
  157.7227  130.9580  150.1505 LP  0  0  0  0  0  0  0  0  0  0  0  0  # atno 17371 bound_to 10713
  141.2053  133.6646  156.6174 LP  0  0  0  0  0  0  0  0  0  0  0  0  # atno 17394 bound_to 11000
  140.3460  134.7809  157.4432 LP  0  0  0  0  0  0  0  0  0  0  0  0  # atno 17395 bound_to 11000

$$$$
