AV-unprocessed.smi:2021|AV-procd|sdf|8185|dock1
  -GOLD-   2272010443D 1   1.00000     0.00000
 Structure written by MMmdl.
 40 41  0  0  0  0  0  0  0  0  2 V2000
  152.1390  144.2725  158.3570 C   0  0  0  0  0  0  0  0  0  0  0  0
  151.6832  143.1824  159.3377 C   0  0  0  0  0  0  0  0  0  0  0  0
  152.5213  143.2315  160.6255 C   0  0  0  0  0  0  0  0  0  0  0  0
  151.7459  141.7940  158.6657 C   0  0  0  0  0  0  0  0  0  0  0  0
  150.6216  141.4554  157.7917 N   0  0  0  0  0  0  0  0  0  0  0  0
  150.9382  141.6141  156.3740 C   0  0  0  0  0  0  0  0  0  0  0  0
  149.7572  141.2136  155.4737 C   0  0  0  0  0  0  0  0  0  0  0  0
  149.3669  139.8773  155.7674 O   0  0  0  0  0  0  0  0  0  0  0  0
  148.9833  139.6989  157.1290 C   0  0  1  0  0  0  0  0  0  0  0  0
  148.5629  138.2334  157.3341 C   0  0  0  0  0  0  0  0  0  0  0  0
  147.9166  138.0304  158.6267 N   0  0  0  0  0  0  0  0  0  0  0  0
  148.1352  137.0041  159.4609 C   0  0  0  0  0  0  0  0  0  0  0  0
  148.9418  136.1231  159.1545 O   0  0  0  0  0  0  0  0  0  0  0  0
  147.4077  137.0632  160.5996 N   0  5  0  0  0  0  0  0  0  0  0  0
  147.1245  135.9372  161.2753 C   0  0  0  0  0  0  0  0  0  0  0  0
  146.8906  135.9312  162.5975 N   0  0  0  0  0  0  0  0  0  0  0  0
  146.6252  134.6641  163.0993 N   0  0  0  0  0  0  0  0  0  0  0  0
  146.6742  133.7413  162.1389 C   0  0  0  0  0  0  0  0  0  0  0  0
  147.0505  134.3356  160.5354 S   0  0  0  0  0  0  0  0  0  0  0  0
  150.1747  140.0860  158.0266 C   0  0  0  0  0  0  0  0  0  0  0  0
  153.1750  144.1236  158.0516 H   0  0  0  0  0  0  0  0  0  0  0  0
  152.0632  145.2631  158.8062 H   0  0  0  0  0  0  0  0  0  0  0  0
  151.5237  144.2729  157.4567 H   0  0  0  0  0  0  0  0  0  0  0  0
  150.6502  143.4115  159.5972 H   0  0  0  0  0  0  0  0  0  0  0  0
  153.5701  143.0117  160.4248 H   0  0  0  0  0  0  0  0  0  0  0  0
  152.1641  142.5082  161.3588 H   0  0  0  0  0  0  0  0  0  0  0  0
  152.4704  144.2166  161.0896 H   0  0  0  0  0  0  0  0  0  0  0  0
  152.6751  141.7105  158.0999 H   0  0  0  0  0  0  0  0  0  0  0  0
  151.8153  141.0463  159.4571 H   0  0  0  0  0  0  0  0  0  0  0  0
  151.2010  142.6483  156.1562 H   0  0  0  0  0  0  0  0  0  0  0  0
  151.8083  141.0075  156.1185 H   0  0  0  0  0  0  0  0  0  0  0  0
  148.9116  141.8876  155.6204 H   0  0  0  0  0  0  0  0  0  0  0  0
  150.0411  141.2797  154.4234 H   0  0  0  0  0  0  0  0  0  0  0  0
  148.1396  140.3544  157.3532 H   0  0  0  0  0  0  0  0  0  0  0  0
  147.8670  137.9307  156.5514 H   0  0  0  0  0  0  0  0  0  0  0  0
  149.4280  137.5740  157.2492 H   0  0  0  0  0  0  0  0  0  0  0  0
  147.2529  138.7322  158.9193 H   0  0  0  0  0  0  0  0  0  0  0  0
  146.4910  132.7041  162.3764 H   0  0  0  0  0  0  0  0  0  0  0  0
  151.0000  139.3937  157.8517 H   0  0  0  0  0  0  0  0  0  0  0  0
  149.8874  139.9687  159.0722 H   0  0  0  0  0  0  0  0  0  0  0  0
  1  2  1  0  0  0  0
  1 21  1  0  0  0  0
  1 22  1  0  0  0  0
  1 23  1  0  0  0  0
  2  3  1  0  0  0  0
  2  4  1  0  0  0  0
  2 24  1  0  0  0  0
  3 25  1  0  0  0  0
  3 26  1  0  0  0  0
  3 27  1  0  0  0  0
  4  5  1  0  0  0  0
  4 28  1  0  0  0  0
  4 29  1  0  0  0  0
  5 20  1  0  0  0  0
  5  6  1  0  0  0  0
  6  7  1  0  0  0  0
  6 30  1  0  0  0  0
  6 31  1  0  0  0  0
  7  8  1  0  0  0  0
  7 32  1  0  0  0  0
  7 33  1  0  0  0  0
  8  9  1  0  0  0  0
  9 10  1  0  0  0  0
  9 20  1  0  0  0  0
  9 34  1  0  0  0  0
 10 11  1  0  0  0  0
 10 35  1  0  0  0  0
 10 36  1  0  0  0  0
 11 12  1  0  0  0  0
 11 37  1  0  0  0  0
 12 13  2  0  0  0  0
 12 14  1  0  0  0  0
 14 15  1  0  0  0  0
 15 19  1  0  0  0  0
 15 16  2  0  0  0  0
 16 17  1  0  0  0  0
 17 18  2  0  0  0  0
 18 19  1  0  0  0  0
 18 38  1  0  0  0  0
 20 39  1  0  0  0  0
 20 40  1  0  0  0  0
M  CHG  1  14  -1
M  END
> <s_m_source_file>
AV-unprocessed.smi

> <i_m_source_file_index>
2021

> <i_lp_mmshare_version>
43012

> <i_f3d_flags>
0

> <s_epik_input>
W0NIM11bQ0hdKFtDSDNdKVtDSDJdTjFbQ0gyXVtDSDJdT1tDQEhdKFtDSDJdMSlbQ0gyXVtOSF1DKD1PKVtOSF1jMm5uW2NIXXMy

> <s_epik_cmdline>
J2VwaWtfcHl0aG9uJywgJy1waCcsICc3LjAnLCAnLXRuJywgJzgnLCAnLW1hJywgJzIwMCcsICctbWV0YWxfYmluZGluZycsICctaW1hZScsICc8aW5maWxlLm1hZT4nLCAnLW9tYWUnLCAnPG91dGZpbGUubWFlPic=

> <r_lp_tautomer_probability>
1

> <r_epik_Ionization_Penalty>
4.44864

> <r_epik_Ionization_Penalty_Charging>
3.27383

> <r_epik_Ionization_Penalty_Neutral>
1.17482

> <r_epik_State_Penalty>
4.44168

> <r_epik_Charging_Adjusted_Penalty>
7.7155

> <i_epik_Tot_Q>
-1

> <i_epik_Tot_abs_Q>
1

> <r_epik_Metal_State_Penalty>
1.66628

> <b_epik_Metal_Only>
1

> <s_lp_Force_Field>
OPLS_2005

> <r_lp_Energy>
21.1827

> <b_lp_Chiralities_Consistent>
1

> <s_lp_Variant>
AV-unprocessed.smi:2021-11

> <Gold.Version>
5.8.1

> <Gold.Id.Protein>
6NUR|6NUR_protein|mol2

> <Gold.PLP.Fitness>
49.5279

> <Gold.PLP.PLP>
-38.6440

> <Gold.PLP.part.hbond>
-4.4265

> <Gold.PLP.part.metal>
0.0000

> <Gold.PLP.part.buried>
-6.7655

> <Gold.PLP.part.nonpolar>
-28.1513

> <Gold.PLP.part.repulsive>
0.5029

> <Gold.PLP.ligand.clash>
0.0000

> <Gold.PLP.ligand.torsion>
1.2816

> <Gold.PLP.Chemscore.Hbond>
4.3920

> <Gold.PLP.Chemscore.CHOScore>
0.0000

> <Gold.PLP.Chemscore.Metal>
0.0000

> <Gold.Chemscore.Hbonds>
donor molecule, donor type, donor heavy atom, donor atom, acceptor molecule, acceptor atom, score
      P1  H  6896  6907       L1    13  0.26
      P1  H  6931  6943       L1    14  0.10
      P1  H  6934  6947       L1    14  2.00

> <Gold.PLP.Chemscore.Internal.Correction>
0.2712

> <Gold.Rescore>
     Score         DG    S(hbond)    S(metal)    S(lipo)     H(rot)  DE(clash)    DE(int)     intcor
     13.96     -16.51       1.88        0.00      80.22       1.81       0.01       2.54       ----

> <Gold.Chemscore.Fitness>
13.9619

> <Gold.Chemscore.DG>
-16.5146

> <Gold.Chemscore.ZeroCoef>
-5.4800

> <Gold.Chemscore.Hbond>
1.8776

> <Gold.Chemscore.Metal>
0.0000

> <Gold.Chemscore.Lipo>
80.2207

> <Gold.Chemscore.Internal_Hbond>
0.0000

> <Gold.Chemscore.DEClash>
0.0149

> <Gold.Chemscore.DEInternal>
2.5379

> <Gold.Chemscore.Rot>
1.8056

> <Gold.Chemscore.Internal.Correction>
   9.000000E+99

> <Gold.Chemscore.Hbonds>
donor molecule, donor type, donor heavy atom, donor atom, acceptor molecule, acceptor atom, score
      P1  H  6896  6907       L1    13  0.27
      P1  H  6931  6943       L1    14  0.01
      P1  H  6934  6947       L1    14  0.42

> <Gold.Chemscore.Hbond.Weighted>
-6.2712

> <Gold.Chemscore.Metal.Weighted>
-0.0000

> <Gold.Chemscore.Lipo.Weighted>
-9.3858

> <Gold.Chemscore.Internal_Hbond.Weighted>
0.0000

> <Gold.Chemscore.DEClash.Weighted>
0.0149

> <Gold.Chemscore.DEInternal.Weighted>
2.5379

> <Gold.Chemscore.Rot.Weighted>
4.6224

> <Gold.Chemscore.Internal.Correction.Weighted>
   9.000000E+99

> <Gold.Protein.RotatedTorsions>
[ 6907 6896 6895 6894 ] final  -63.95 input  -60.11 | X-H torsion
[ 7974 7965 7964 7962 ] final  -30.60 input  175.53 | X-H torsion
[ 8008 7997 7996 7995 ] final  136.73 input   59.86 | X-H torsion
[ 10167 10162 10161 10158 ] final -104.38 input  -65.29 | X-H torsion
[ 10718 10713 10712 10709 ] final  -28.65 input   66.30 | X-H torsion
[ 10763 10752 10751 10750 ] final   66.35 input  -60.55 | X-H torsion
[ 11005 11000 10999 10996 ] final    5.98 input  -57.11 | X-H torsion

> <Gold.Protein.ActiveResidues>
 VAL166  LYS551  ARG553  GLY616  TRP617  ASP618  TYR619  PRO620  LYS621  CYS622 
 ASP623  PHE694  ASN695  SER759  ASP760  ASP761  ALA762  ILE779  LEU786  VAL792 
 PHE793  MET794  SER795  GLU796  ALA797  LYS798  CYS799  TRP800  GLU811  SER814 

> <Gold.Protein.RotatedAtoms>
  150.7616  134.6365  159.6213 H   0  0  0  0  0  0  0  0  0  0  0  0  # atno 6907 bound_to 6896
  152.3627  134.6846  160.0211 H   0  0  0  0  0  0  0  0  0  0  0  0  # atno 6908 bound_to 6896
  151.7231  133.3279  159.3357 H   0  0  0  0  0  0  0  0  0  0  0  0  # atno 6909 bound_to 6896
  146.1130  140.5562  142.8769 H   0  0  0  0  0  0  0  0  0  0  0  0  # atno 7974 bound_to 7965
  156.3003  140.2437  156.3793 H   0  0  0  0  0  0  0  0  0  0  0  0  # atno 8008 bound_to 7997
  154.8715  140.0416  157.1747 H   0  0  0  0  0  0  0  0  0  0  0  0  # atno 8009 bound_to 7997
  154.8790  140.2946  155.5440 H   0  0  0  0  0  0  0  0  0  0  0  0  # atno 8010 bound_to 7997
  140.2099  143.3755  152.1059 H   0  0  0  0  0  0  0  0  0  0  0  0  # atno 10167 bound_to 10162
  156.4225  130.4429  149.7173 H   0  0  0  0  0  0  0  0  0  0  0  0  # atno 10718 bound_to 10713
  153.0136  135.5323  154.6810 H   0  0  0  0  0  0  0  0  0  0  0  0  # atno 10763 bound_to 10752
  154.5970  135.2864  155.0578 H   0  0  0  0  0  0  0  0  0  0  0  0  # atno 10764 bound_to 10752
  154.1649  135.6541  153.5047 H   0  0  0  0  0  0  0  0  0  0  0  0  # atno 10765 bound_to 10752
  140.5646  134.0159  155.7985 H   0  0  0  0  0  0  0  0  0  0  0  0  # atno 11005 bound_to 11000
  144.7528  140.5234  143.6790 LP  0  0  0  0  0  0  0  0  0  0  0  0  # atno 17320 bound_to 7965
  145.5624  139.1480  143.3334 LP  0  0  0  0  0  0  0  0  0  0  0  0  # atno 17321 bound_to 7965
  139.5184  144.7005  151.5506 LP  0  0  0  0  0  0  0  0  0  0  0  0  # atno 17342 bound_to 10162
  140.6331  143.9037  150.6623 LP  0  0  0  0  0  0  0  0  0  0  0  0  # atno 17343 bound_to 10162
  156.4108  130.7721  151.2734 LP  0  0  0  0  0  0  0  0  0  0  0  0  # atno 17370 bound_to 10713
  157.7508  131.0212  150.3739 LP  0  0  0  0  0  0  0  0  0  0  0  0  # atno 17371 bound_to 10713
  141.1093  133.9642  157.2939 LP  0  0  0  0  0  0  0  0  0  0  0  0  # atno 17394 bound_to 11000
  139.9391  135.0193  156.8650 LP  0  0  0  0  0  0  0  0  0  0  0  0  # atno 17395 bound_to 11000

$$$$
