AV-unprocessed.smi:1629|AV-procd|sdf|6521|dock6
  -GOLD-   22720 7193D 1   1.00000     0.00000
 Structure written by MMmdl.
 44 45  0  0  0  0  0  0  0  0  1 V2000
  150.1691  133.7202  154.8766 C   0  0  0  0  0  0  0  0  0  0  0  0
  150.5070  134.4089  156.5462 S   0  0  0  0  0  0  0  0  0  0  0  0
  149.8180  133.5845  157.5506 O   0  0  0  0  0  0  0  0  0  0  0  0
  151.9509  134.6657  156.6594 O   0  0  0  0  0  0  0  0  0  0  0  0
  149.7007  135.9335  156.4850 N   0  0  0  0  0  0  0  0  0  0  0  0
  149.8026  136.7562  155.2754 C   0  0  0  0  0  0  0  0  0  0  0  0
  151.0767  137.6355  155.3227 C   0  0  0  0  0  0  0  0  0  0  0  0
  151.0644  138.7200  154.2308 C   0  0  0  0  0  0  0  0  0  0  0  0
  149.8253  139.5003  154.3659 N   0  0  0  0  0  0  0  0  0  0  0  0
  149.6959  140.6996  154.9874 C   0  0  0  0  0  0  0  0  0  0  0  0
  148.6389  141.3317  155.0100 O   0  0  0  0  0  0  0  0  0  0  0  0
  150.8064  141.1342  155.6106 N   0  0  0  0  0  0  0  0  0  0  0  0
  150.8836  142.2956  156.4959 C   0  0  0  0  0  0  0  0  0  0  0  0
  151.2076  141.8997  157.9519 C   0  0  0  0  0  0  0  0  0  0  0  0
  151.4040  143.0839  158.8855 C   0  0  0  0  0  0  0  0  0  0  0  0
  151.3337  144.4055  158.3950 C   0  0  0  0  0  0  0  0  0  0  0  0
  151.5768  145.4677  159.2865 C   0  0  0  0  0  0  0  0  0  0  0  0
  151.8718  145.1694  160.6302 C   0  0  0  0  0  0  0  0  0  0  0  0
  151.9030  143.8170  161.0252 C   0  0  0  0  0  0  0  0  0  0  0  0
  151.6714  142.7912  160.1779 N   0  0  0  0  0  0  0  0  0  0  0  0
  148.6583  138.6743  154.0415 C   0  0  0  0  0  0  0  0  0  0  0  0
  148.5160  137.6016  155.1365 C   0  0  0  0  0  0  0  0  0  0  0  0
  150.6410  132.7419  154.7858 H   0  0  0  0  0  0  0  0  0  0  0  0
  150.5750  134.3891  154.1180 H   0  0  0  0  0  0  0  0  0  0  0  0
  149.0936  133.6181  154.7341 H   0  0  0  0  0  0  0  0  0  0  0  0
  149.9039  136.4858  157.3177 H   0  0  0  0  0  0  0  0  0  0  0  0
  149.8691  136.0968  154.4093 H   0  0  0  0  0  0  0  0  0  0  0  0
  151.1574  138.1154  156.2966 H   0  0  0  0  0  0  0  0  0  0  0  0
  151.9676  137.0168  155.2127 H   0  0  0  0  0  0  0  0  0  0  0  0
  151.9696  139.3250  154.2857 H   0  0  0  0  0  0  0  0  0  0  0  0
  151.0928  138.2526  153.2455 H   0  0  0  0  0  0  0  0  0  0  0  0
  151.6382  140.5678  155.5327 H   0  0  0  0  0  0  0  0  0  0  0  0
  151.6505  142.9722  156.1186 H   0  0  0  0  0  0  0  0  0  0  0  0
  149.9497  142.8591  156.4719 H   0  0  0  0  0  0  0  0  0  0  0  0
  150.4006  141.2782  158.3419 H   0  0  0  0  0  0  0  0  0  0  0  0
  152.1029  141.2770  157.9745 H   0  0  0  0  0  0  0  0  0  0  0  0
  151.1178  144.6031  157.3554 H   0  0  0  0  0  0  0  0  0  0  0  0
  151.5444  146.4914  158.9438 H   0  0  0  0  0  0  0  0  0  0  0  0
  152.0670  145.9575  161.3420 H   0  0  0  0  0  0  0  0  0  0  0  0
  152.1224  143.5519  162.0487 H   0  0  0  0  0  0  0  0  0  0  0  0
  147.7398  139.2575  153.9612 H   0  0  0  0  0  0  0  0  0  0  0  0
  148.7945  138.2039  153.0667 H   0  0  0  0  0  0  0  0  0  0  0  0
  147.6649  136.9557  154.9180 H   0  0  0  0  0  0  0  0  0  0  0  0
  148.2926  138.0937  156.0850 H   0  0  0  0  0  0  0  0  0  0  0  0
  1  2  1  0  0  0  0
  1 23  1  0  0  0  0
  1 24  1  0  0  0  0
  1 25  1  0  0  0  0
  2  3  2  0  0  0  0
  2  4  2  0  0  0  0
  2  5  1  0  0  0  0
  5  6  1  0  0  0  0
  5 26  1  0  0  0  0
  6 22  1  0  0  0  0
  6  7  1  0  0  0  0
  6 27  1  0  0  0  0
  7  8  1  0  0  0  0
  7 28  1  0  0  0  0
  7 29  1  0  0  0  0
  8  9  1  0  0  0  0
  8 30  1  0  0  0  0
  8 31  1  0  0  0  0
  9 10  1  0  0  0  0
  9 21  1  0  0  0  0
 10 11  2  0  0  0  0
 10 12  1  0  0  0  0
 12 13  1  0  0  0  0
 12 32  1  0  0  0  0
 13 14  1  0  0  0  0
 13 33  1  0  0  0  0
 13 34  1  0  0  0  0
 14 15  1  0  0  0  0
 14 35  1  0  0  0  0
 14 36  1  0  0  0  0
 15 20  1  0  0  0  0
 15 16  2  0  0  0  0
 16 17  1  0  0  0  0
 16 37  1  0  0  0  0
 17 18  2  0  0  0  0
 17 38  1  0  0  0  0
 18 19  1  0  0  0  0
 18 39  1  0  0  0  0
 19 20  2  0  0  0  0
 19 40  1  0  0  0  0
 21 22  1  0  0  0  0
 21 41  1  0  0  0  0
 21 42  1  0  0  0  0
 22 43  1  0  0  0  0
 22 44  1  0  0  0  0
M  END
> <s_m_source_file>
AV-unprocessed.smi

> <i_m_source_file_index>
1629

> <i_lp_mmshare_version>
43012

> <i_f3d_flags>
0

> <s_epik_input>
W0NIM11TKD1PKSg9TylbTkhdW0NIXTFbQ0gyXVtDSDJdTihbQ0gyXVtDSDJdMSlDKD1PKVtOSF1bQ0gyXVtDSDJdYzJbY0hdW2NIXVtjSF1bY0hdbjI=

> <s_epik_cmdline>
J2VwaWtfcHl0aG9uJywgJy1waCcsICc3LjAnLCAnLXRuJywgJzgnLCAnLW1hJywgJzIwMCcsICctbWV0YWxfYmluZGluZycsICctaW1hZScsICc8aW5maWxlLm1hZT4nLCAnLW9tYWUnLCAnPG91dGZpbGUubWFlPic=

> <r_epik_Ionization_Penalty>
0.044864

> <r_epik_Ionization_Penalty_Charging>
0

> <r_epik_Ionization_Penalty_Neutral>
0.044864

> <r_epik_State_Penalty>
0.0379889

> <r_epik_Charging_Adjusted_Penalty>
0.0379889

> <i_epik_Tot_Q>
0

> <i_epik_Tot_abs_Q>
0

> <r_epik_Metal_State_Penalty>
0.04187

> <b_epik_Metal_Only>
0

> <s_lp_Force_Field>
OPLS_2005

> <r_lp_Energy>
21.9129

> <b_lp_Chiralities_Consistent>
1

> <s_lp_Variant>
AV-unprocessed.smi:1629-1

> <Gold.Version>
5.8.1

> <Gold.Id.Protein>
6NUR|6NUR_protein|mol2

> <Gold.PLP.Fitness>
46.2211

> <Gold.PLP.PLP>
-42.1932

> <Gold.PLP.part.hbond>
-2.0000

> <Gold.PLP.part.metal>
0.0000

> <Gold.PLP.part.buried>
-5.5433

> <Gold.PLP.part.nonpolar>
-33.0420

> <Gold.PLP.part.repulsive>
0.8376

> <Gold.PLP.ligand.clash>
0.0000

> <Gold.PLP.ligand.torsion>
0.8085

> <Gold.PLP.Chemscore.Hbond>
1.8284

> <Gold.PLP.Chemscore.CHOScore>
0.0000

> <Gold.PLP.Chemscore.Metal>
0.0000

> <Gold.Chemscore.Hbonds>
donor molecule, donor type, donor heavy atom, donor atom, acceptor molecule, acceptor atom, score
      P1  H  6896  6909       L1     3  1.00
      P1  H 10752 10764       L1     4  0.74

> <Gold.PLP.Chemscore.Internal.Correction>
0.1598

> <Gold.Rescore>
     Score         DG    S(hbond)    S(metal)    S(lipo)     H(rot)  DE(clash)    DE(int)     intcor
     17.43     -18.66       1.81        0.00     105.36       2.03       0.42       0.81       ----

> <Gold.Chemscore.Fitness>
17.4281

> <Gold.Chemscore.DG>
-18.6608

> <Gold.Chemscore.ZeroCoef>
-5.4800

> <Gold.Chemscore.Hbond>
1.8145

> <Gold.Chemscore.Metal>
0.0000

> <Gold.Chemscore.Lipo>
105.3627

> <Gold.Chemscore.Internal_Hbond>
0.0000

> <Gold.Chemscore.DEClash>
0.4202

> <Gold.Chemscore.DEInternal>
0.8125

> <Gold.Chemscore.Rot>
2.0340

> <Gold.Chemscore.Internal.Correction>
   9.000000E+99

> <Gold.Chemscore.Hbonds>
donor molecule, donor type, donor heavy atom, donor atom, acceptor molecule, acceptor atom, score
      P1  H  6896  6909       L1     3  0.54
      P1  H 10752 10764       L1     4  0.71

> <Gold.Chemscore.Hbond.Weighted>
-6.0604

> <Gold.Chemscore.Metal.Weighted>
-0.0000

> <Gold.Chemscore.Lipo.Weighted>
-12.3274

> <Gold.Chemscore.Internal_Hbond.Weighted>
0.0000

> <Gold.Chemscore.DEClash.Weighted>
0.4202

> <Gold.Chemscore.DEInternal.Weighted>
0.8125

> <Gold.Chemscore.Rot.Weighted>
5.2071

> <Gold.Chemscore.Internal.Correction.Weighted>
   9.000000E+99

> <Gold.Protein.RotatedTorsions>
[ 6907 6896 6895 6894 ] final  -16.12 input  -60.11 | X-H torsion
[ 7974 7965 7964 7962 ] final -117.56 input  175.53 | X-H torsion
[ 8008 7997 7996 7995 ] final  -59.52 input   59.86 | X-H torsion
[ 10167 10162 10161 10158 ] final -143.78 input  -65.29 | X-H torsion
[ 10718 10713 10712 10709 ] final -166.64 input   66.30 | X-H torsion
[ 10763 10752 10751 10750 ] final  -15.63 input  -60.55 | X-H torsion
[ 11005 11000 10999 10996 ] final   86.45 input  -57.11 | X-H torsion

> <Gold.Protein.ActiveResidues>
 VAL166  LYS551  ARG553  GLY616  TRP617  ASP618  TYR619  PRO620  LYS621  CYS622 
 ASP623  PHE694  ASN695  SER759  ASP760  ASP761  ALA762  ILE779  LEU786  VAL792 
 PHE793  MET794  SER795  GLU796  ALA797  LYS798  CYS799  TRP800  GLU811  SER814 

> <Gold.Protein.RotatedAtoms>
  151.3134  135.0800  159.9280 H   0  0  0  0  0  0  0  0  0  0  0  0  # atno 6907 bound_to 6896
  152.5273  133.9712  159.7773 H   0  0  0  0  0  0  0  0  0  0  0  0  # atno 6908 bound_to 6896
  151.0020  133.5995  159.2724 H   0  0  0  0  0  0  0  0  0  0  0  0  # atno 6909 bound_to 6896
  145.0838  140.8444  143.4023 H   0  0  0  0  0  0  0  0  0  0  0  0  # atno 7974 bound_to 7965
  154.4356  140.1060  156.6129 H   0  0  0  0  0  0  0  0  0  0  0  0  # atno 8008 bound_to 7997
  155.5790  140.3490  155.4516 H   0  0  0  0  0  0  0  0  0  0  0  0  # atno 8009 bound_to 7997
  156.0333  140.1265  157.0224 H   0  0  0  0  0  0  0  0  0  0  0  0  # atno 8010 bound_to 7997
  139.7961  143.7898  152.2654 H   0  0  0  0  0  0  0  0  0  0  0  0  # atno 10167 bound_to 10162
  156.6709  130.9083  151.3043 H   0  0  0  0  0  0  0  0  0  0  0  0  # atno 10718 bound_to 10713
  153.5462  135.7012  153.5613 H   0  0  0  0  0  0  0  0  0  0  0  0  # atno 10763 bound_to 10752
  153.3556  135.3983  155.1680 H   0  0  0  0  0  0  0  0  0  0  0  0  # atno 10764 bound_to 10752
  154.8667  135.3776  154.4970 H   0  0  0  0  0  0  0  0  0  0  0  0  # atno 10765 bound_to 10752
  139.8944  134.8356  156.2722 H   0  0  0  0  0  0  0  0  0  0  0  0  # atno 11005 bound_to 11000
  145.1146  139.2734  143.5620 LP  0  0  0  0  0  0  0  0  0  0  0  0  # atno 17320 bound_to 7965
  146.3531  140.0752  142.8621 LP  0  0  0  0  0  0  0  0  0  0  0  0  # atno 17321 bound_to 7965
  139.8004  144.7376  150.9833 LP  0  0  0  0  0  0  0  0  0  0  0  0  # atno 17342 bound_to 10162
  140.7820  143.4351  151.0635 LP  0  0  0  0  0  0  0  0  0  0  0  0  # atno 17343 bound_to 10162
  157.7077  130.9404  150.0986 LP  0  0  0  0  0  0  0  0  0  0  0  0  # atno 17370 bound_to 10713
  156.1940  130.3656  149.8873 LP  0  0  0  0  0  0  0  0  0  0  0  0  # atno 17371 bound_to 10713
  141.0093  133.7105  156.1086 LP  0  0  0  0  0  0  0  0  0  0  0  0  # atno 17394 bound_to 11000
  140.7390  134.4171  157.5557 LP  0  0  0  0  0  0  0  0  0  0  0  0  # atno 17395 bound_to 11000

$$$$
