#       Name:                AV-unprocessed.smi:1521
#       Creating user name   scv26
#       Creation time:       Fri Mar 27 06:27:22 2020


#       File generated by GOLD software.
#

@<TRIPOS>MOLECULE
AV-unprocessed.smi:1521
    44    45     1
SMALL
NO_CHARGES


@<TRIPOS>ATOM
      1 ****         0.5602   0.8397  -0.7511 O.2            1 S1                 0.0000
      2 ****        -0.0102  -0.2327  -0.9489 C.2            1 S1                 0.0000
      3 ****         0.6391  -1.3973  -1.0873 N.am           1 S1                 0.0000
      4 ****         2.0851  -1.5714  -0.9949 C.3            1 S1                 0.0000
      5 ****         2.5193  -1.9302   0.4365 C.3            1 S1                 0.0000
      6 ****         4.0228  -2.2629   0.5167 C.3            1 S1                 0.0000
      7 ****         4.3675  -2.5558   1.8647 O.3            1 S1                 0.0000
      8 ****         4.1040  -1.4498   2.7173 C.3            1 S1                 0.0000
      9 ****         2.6084  -1.1028   2.6406 C.3            1 S1                 0.0000
     10 ****         2.2705  -0.8178   1.2901 O.3            1 S1                 0.0000
     11 ****        -1.3410  -0.4140  -1.0332 N.am           1 S1                 0.0000
     12 ****        -2.3761   0.5328  -0.9490 C.2            1 S1                 0.0000
     13 ****        -2.2146   1.8761  -1.0754 C.2            1 S1                 0.0000
     14 ****        -3.3333   2.7996  -0.9882 C.2            1 S1                 0.0000
     15 ****        -3.1261   4.3047  -1.0527 C.3            1 S1                 0.0000
     16 ****        -3.1347   4.7089  -2.3221 F              1 S1                 0.0000
     17 ****        -4.0903   4.9572  -0.4021 F              1 S1                 0.0000
     18 ****        -1.9545   4.6471  -0.5173 F              1 S1                 0.0000
     19 ****        -4.5444   2.2561  -0.7663 C.2            1 S1                 0.0000
     20 ****        -4.7222   0.8753  -0.6561 N.am           1 S1                 0.0000
     21 ****        -3.7202  -0.0288  -0.7346 C.2            1 S1                 0.0000
     22 ****        -3.9592  -1.2312  -0.6275 O.2            1 S1                 0.0000
     23 ****        -5.6642   0.5445  -0.5044 H              1 S1                 0.0000
     24 ****         0.0912  -2.2305  -1.2438 H              1 S1                 0.0000
     25 ****         2.3600  -2.3791  -1.6735 H              1 S1                 0.0000
     26 ****         2.6116  -0.6825  -1.3471 H              1 S1                 0.0000
     27 ****         1.9398  -2.7898   0.7792 H              1 S1                 0.0000
     28 ****         4.2539  -3.1312  -0.1007 H              1 S1                 0.0000
     29 ****         4.6290  -1.4348   0.1454 H              1 S1                 0.0000
     30 ****         4.3809  -1.7118   3.7386 H              1 S1                 0.0000
     31 ****         4.7167  -0.5950   2.4264 H              1 S1                 0.0000
     32 ****         1.9969  -1.9241   3.0176 H              1 S1                 0.0000
     33 ****         2.3891  -0.2294   3.2550 H              1 S1                 0.0000
     34 ****        -1.6556  -1.3683  -1.1310 H              1 S1                 0.0000
     35 ****        -1.2447   2.3048  -1.2673 H              1 S1                 0.0000
     36 ****        -5.4555   2.8247  -0.6524 H              1 S1                 0.0000
     37 ****         1.5576   0.8710  -0.6863 LP             1 S1                 0.0000
     38 ****         0.0263   1.6798  -0.6552 LP             1 S1                 0.0000
     39 ****         5.3414  -2.7779   1.9109 LP             1 S1                 0.0000
     40 ****         3.8315  -3.3410   2.1747 LP             1 S1                 0.0000
     41 ****         1.2995  -0.5836   1.2419 LP             1 S1                 0.0000
     42 ****         2.8167  -0.0409   0.9768 LP             1 S1                 0.0000
     43 ****        -3.2145  -1.8961  -0.6853 LP             1 S1                 0.0000
     44 ****        -4.8981  -1.5434  -0.4828 LP             1 S1                 0.0000
@<TRIPOS>BOND
    1    1    2 2     
    2    2    3 am    
    3    2   11 am    
    4    3    4 1     
    5    3   24 1     
    6    4    5 1     
    7    4   25 1     
    8    4   26 1     
    9    5   10 1     
   10    5    6 1     
   11    5   27 1     
   12    6    7 1     
   13    6   28 1     
   14    6   29 1     
   15    7    8 1     
   16    8    9 1     
   17    8   30 1     
   18    8   31 1     
   19    9   10 1     
   20    9   32 1     
   21    9   33 1     
   22   11   12 1     
   23   11   34 1     
   24   12   21 1     
   25   12   13 2     
   26   13   14 1     
   27   13   35 1     
   28   14   15 1     
   29   14   19 2     
   30   15   16 1     
   31   15   17 1     
   32   15   18 1     
   33   19   20 1     
   34   19   36 1     
   35   20   23 1     
   36   20   21 am    
   37   21   22 2     
   38    1   37 1     
   39    1   38 1     
   40    7   39 1     
   41    7   40 1     
   42   10   41 1     
   43   10   42 1     
   44   22   43 1     
   45   22   44 1     
@<TRIPOS>SUBSTRUCTURE
      1 S1             1
@<TRIPOS>SET
LONE_PAIRS      STATIC     ATOMS    <user>   **** ""
8 37 38 39 40 41 42 43 44
DONOR_HYDROGENS      STATIC     ATOMS    <user>   **** ""
3 24 34 23
ATOM$BLUE        STATIC     ATOMS    COLORGROUP SYSTEM
8 37 38 39 40 41 42 43 44
ATOM$RED        STATIC     ATOMS    COLORGROUP SYSTEM
3 24 34 23
