AV-unprocessed.smi:3301|AV-procd|sdf|12653|dock3
  -GOLD-   2272018583D 1   1.00000     0.00000
 Structure written by MMmdl.
 37 38  0  0  0  0  0  0  0  0  2 V2000
  147.5274  141.2616  157.0299 C   0  0  0  0  0  0  0  0  0  0  0  0
  148.7217  141.4353  156.0778 C   0  0  1  0  0  0  0  0  0  0  0  0
  148.2971  141.7264  154.6219 C   0  0  0  0  0  0  0  0  0  0  0  0
  148.0203  140.5076  153.8560 N   0  0  0  0  0  0  0  0  0  0  0  0
  146.9070  140.2420  153.1011 C   0  0  0  0  0  0  0  0  0  0  0  0
  147.0812  138.9876  152.5756 C   0  0  0  0  0  0  0  0  0  0  0  0
  148.2908  138.5394  153.0350 N   0  3  0  0  0  0  0  0  0  0  0  0
  148.8590  139.4639  153.8164 C   0  0  0  0  0  0  0  0  0  0  0  0
  149.5818  142.5051  156.5748 N   0  0  0  0  0  0  0  0  0  0  0  0
  150.7617  142.3265  157.1889 C   0  0  0  0  0  0  0  0  0  0  0  0
  151.2417  141.2147  157.4154 O   0  0  0  0  0  0  0  0  0  0  0  0
  151.4956  143.6007  157.6255 C   0  0  0  0  0  0  0  0  0  0  0  0
  151.8130  143.6162  159.0543 N   0  0  0  0  0  0  0  0  0  0  0  0
  151.3613  144.7059  159.9040 C   0  0  0  0  0  0  0  0  0  0  0  0
  152.0229  144.4543  161.2668 C   0  0  0  0  0  0  0  0  0  0  0  0
  152.5997  143.0358  161.1999 C   0  0  0  0  0  0  0  0  0  0  0  0
  152.4897  142.6776  159.7279 C   0  0  0  0  0  0  0  0  0  0  0  0
  152.9687  141.6487  159.2530 O   0  0  0  0  0  0  0  0  0  0  0  0
  146.9051  140.4145  156.7408 H   0  0  0  0  0  0  0  0  0  0  0  0
  146.8965  142.1510  157.0412 H   0  0  0  0  0  0  0  0  0  0  0  0
  147.8644  141.0798  158.0510 H   0  0  0  0  0  0  0  0  0  0  0  0
  149.2894  140.5028  156.0956 H   0  0  0  0  0  0  0  0  0  0  0  0
  147.4087  142.3597  154.5987 H   0  0  0  0  0  0  0  0  0  0  0  0
  149.0821  142.2662  154.0903 H   0  0  0  0  0  0  0  0  0  0  0  0
  146.0957  140.9482  152.9963 H   0  0  0  0  0  0  0  0  0  0  0  0
  146.4515  138.3958  151.9275 H   0  0  0  0  0  0  0  0  0  0  0  0
  149.8095  139.3837  154.3133 H   0  0  0  0  0  0  0  0  0  0  0  0
  149.2594  143.4523  156.4372 H   0  0  0  0  0  0  0  0  0  0  0  0
  152.4178  143.7120  157.0524 H   0  0  0  0  0  0  0  0  0  0  0  0
  150.8717  144.4604  157.3785 H   0  0  0  0  0  0  0  0  0  0  0  0
  151.6460  145.6751  159.4922 H   0  0  0  0  0  0  0  0  0  0  0  0
  150.2737  144.6738  159.9836 H   0  0  0  0  0  0  0  0  0  0  0  0
  152.8256  145.1743  161.4337 H   0  0  0  0  0  0  0  0  0  0  0  0
  151.3101  144.5641  162.0848 H   0  0  0  0  0  0  0  0  0  0  0  0
  153.6343  142.9955  161.5424 H   0  0  0  0  0  0  0  0  0  0  0  0
  152.0068  142.3359  161.7897 H   0  0  0  0  0  0  0  0  0  0  0  0
  148.6979  137.6385  152.8172 H   0  0  0  0  0  0  0  0  0  0  0  0
  1  2  1  0  0  0  0
  1 19  1  0  0  0  0
  1 20  1  0  0  0  0
  1 21  1  0  0  0  0
  2  3  1  0  0  0  0
  2  9  1  0  0  0  0
  2 22  1  0  0  0  0
  3  4  1  0  0  0  0
  3 23  1  0  0  0  0
  3 24  1  0  0  0  0
  4  8  1  0  0  0  0
  4  5  1  0  0  0  0
  5  6  2  0  0  0  0
  5 25  1  0  0  0  0
  6  7  1  0  0  0  0
  6 26  1  0  0  0  0
  7  8  2  0  0  0  0
  7 37  1  0  0  0  0
  8 27  1  0  0  0  0
  9 10  1  0  0  0  0
  9 28  1  0  0  0  0
 10 11  2  0  0  0  0
 10 12  1  0  0  0  0
 12 13  1  0  0  0  0
 12 29  1  0  0  0  0
 12 30  1  0  0  0  0
 13 17  1  0  0  0  0
 13 14  1  0  0  0  0
 14 15  1  0  0  0  0
 14 31  1  0  0  0  0
 14 32  1  0  0  0  0
 15 16  1  0  0  0  0
 15 33  1  0  0  0  0
 15 34  1  0  0  0  0
 16 17  1  0  0  0  0
 16 35  1  0  0  0  0
 16 36  1  0  0  0  0
 17 18  2  0  0  0  0
M  CHG  1   7   1
M  END
> <s_m_source_file>
AV-unprocessed.smi

> <i_m_source_file_index>
3301

> <i_lp_mmshare_version>
43012

> <i_f3d_flags>
0

> <s_epik_input>
W2NIXTFuW2NIXVtjSF1uMVtDSDJdW0NAQEhdKFtDSDNdKVtOSF1DKD1PKVtDSDJdTjJbQ0gyXVtDSDJdW0NIMl1DMj1P

> <s_epik_cmdline>
J2VwaWtfcHl0aG9uJywgJy1waCcsICc3LjAnLCAnLXRuJywgJzgnLCAnLW1hJywgJzIwMCcsICctbWV0YWxfYmluZGluZycsICctaW1hZScsICc8aW5maWxlLm1hZT4nLCAnLW9tYWUnLCAnPG91dGZpbGUubWFlPic=

> <r_lp_tautomer_probability>
1

> <r_epik_Ionization_Penalty>
0.254232

> <r_epik_Ionization_Penalty_Charging>
0

> <r_epik_Ionization_Penalty_Neutral>
0.254232

> <r_epik_State_Penalty>
0.245698

> <r_epik_Charging_Adjusted_Penalty>
0.245698

> <i_epik_Tot_Q>
1

> <i_epik_Tot_abs_Q>
1

> <r_epik_Metal_State_Penalty>
0.5358

> <b_epik_Metal_Only>
0

> <s_lp_Force_Field>
OPLS_2005

> <r_lp_Energy>
15.9577

> <b_lp_Chiralities_Consistent>
1

> <s_lp_Variant>
AV-unprocessed.smi:3301-2

> <Gold.Version>
5.8.1

> <Gold.Id.Protein>
6NUR|6NUR_protein|mol2

> <Gold.PLP.Fitness>
51.9822

> <Gold.PLP.PLP>
-41.2300

> <Gold.PLP.part.hbond>
-3.0000

> <Gold.PLP.part.metal>
0.0000

> <Gold.PLP.part.buried>
-1.7750

> <Gold.PLP.part.nonpolar>
-36.7559

> <Gold.PLP.part.repulsive>
0.1196

> <Gold.PLP.ligand.clash>
0.0000

> <Gold.PLP.ligand.torsion>
0.5995

> <Gold.PLP.Chemscore.Hbond>
3.0000

> <Gold.PLP.Chemscore.CHOScore>
0.9700

> <Gold.PLP.Chemscore.Metal>
0.0000

> <Gold.Chemscore.Hbonds>
donor molecule, donor type, donor heavy atom, donor atom, acceptor molecule, acceptor atom, score
      L1  H     7    37       P1  7948  2.00
      L1  H     9    28       P1  8028  1.00
      L1  C     5    25       P1 10175  0.98

> <Gold.PLP.Chemscore.Internal.Correction>
0.0412

> <Gold.Rescore>
     Score         DG    S(hbond)    S(metal)    S(lipo)     H(rot)  DE(clash)    DE(int)     intcor
     12.68     -14.82       1.95        0.00      75.56       2.35       0.27       1.86       ----

> <Gold.Chemscore.Fitness>
12.6816

> <Gold.Chemscore.DG>
-14.8154

> <Gold.Chemscore.ZeroCoef>
-5.4800

> <Gold.Chemscore.Hbond>
1.9471

> <Gold.Chemscore.Metal>
0.0000

> <Gold.Chemscore.Lipo>
75.5587

> <Gold.Chemscore.Internal_Hbond>
0.0000

> <Gold.Chemscore.DEClash>
0.2706

> <Gold.Chemscore.DEInternal>
1.8631

> <Gold.Chemscore.Rot>
2.3470

> <Gold.Chemscore.Internal.Correction>
   9.000000E+99

> <Gold.Chemscore.Hbonds>
donor molecule, donor type, donor heavy atom, donor atom, acceptor molecule, acceptor atom, score
      L1  H     7    37       P1  7948  0.98
      L1  H     9    28       P1  8028  0.93

> <Gold.Chemscore.Hbond.Weighted>
-6.5033

> <Gold.Chemscore.Metal.Weighted>
-0.0000

> <Gold.Chemscore.Lipo.Weighted>
-8.8404

> <Gold.Chemscore.Internal_Hbond.Weighted>
0.0000

> <Gold.Chemscore.DEClash.Weighted>
0.2706

> <Gold.Chemscore.DEInternal.Weighted>
1.8631

> <Gold.Chemscore.Rot.Weighted>
6.0083

> <Gold.Chemscore.Internal.Correction.Weighted>
   9.000000E+99

> <Gold.Protein.RotatedTorsions>
[ 6907 6896 6895 6894 ] final  160.33 input  -60.11 | X-H torsion
[ 7974 7965 7964 7962 ] final -127.74 input  175.53 | X-H torsion
[ 8008 7997 7996 7995 ] final -104.96 input   59.86 | X-H torsion
[ 10167 10162 10161 10158 ] final  106.83 input  -65.29 | X-H torsion
[ 10718 10713 10712 10709 ] final   96.66 input   66.30 | X-H torsion
[ 10763 10752 10751 10750 ] final   59.83 input  -60.55 | X-H torsion
[ 11005 11000 10999 10996 ] final  148.98 input  -57.11 | X-H torsion

> <Gold.Protein.ActiveResidues>
 VAL166  LYS551  ARG553  GLY616  TRP617  ASP618  TYR619  PRO620  LYS621  CYS622 
 ASP623  PHE694  ASN695  SER759  ASP760  ASP761  ALA762  ILE779  LEU786  VAL792 
 PHE793  MET794  SER795  GLU796  ALA797  LYS798  CYS799  TRP800  GLU811  SER814 

> <Gold.Protein.RotatedAtoms>
  151.9722  133.3729  159.4075 H   0  0  0  0  0  0  0  0  0  0  0  0  # atno 6907 bound_to 6896
  150.6947  134.4128  159.5179 H   0  0  0  0  0  0  0  0  0  0  0  0  # atno 6908 bound_to 6896
  152.1834  134.8734  160.0575 H   0  0  0  0  0  0  0  0  0  0  0  0  # atno 6909 bound_to 6896
  144.9740  140.7574  143.4653 H   0  0  0  0  0  0  0  0  0  0  0  0  # atno 7974 bound_to 7965
  154.8929  140.0415  157.1849 H   0  0  0  0  0  0  0  0  0  0  0  0  # atno 8008 bound_to 7997
  154.8522  140.2931  155.5570 H   0  0  0  0  0  0  0  0  0  0  0  0  # atno 8009 bound_to 7997
  156.2996  140.2462  156.3482 H   0  0  0  0  0  0  0  0  0  0  0  0  # atno 8010 bound_to 7997
  139.6977  144.7099  151.1239 H   0  0  0  0  0  0  0  0  0  0  0  0  # atno 10167 bound_to 10162
  157.6924  131.0585  150.4526 H   0  0  0  0  0  0  0  0  0  0  0  0  # atno 10718 bound_to 10713
  152.9905  135.5558  154.5776 H   0  0  0  0  0  0  0  0  0  0  0  0  # atno 10763 bound_to 10752
  154.5164  135.2805  155.1302 H   0  0  0  0  0  0  0  0  0  0  0  0  # atno 10764 bound_to 10752
  154.2673  135.6370  153.5349 H   0  0  0  0  0  0  0  0  0  0  0  0  # atno 10765 bound_to 10752
  140.1006  134.8986  157.1790 H   0  0  0  0  0  0  0  0  0  0  0  0  # atno 11005 bound_to 11000
  145.2517  139.2029  143.4939 LP  0  0  0  0  0  0  0  0  0  0  0  0  # atno 17320 bound_to 7965
  146.3390  140.2431  142.8596 LP  0  0  0  0  0  0  0  0  0  0  0  0  # atno 17321 bound_to 7965
  140.7701  143.5468  150.9249 LP  0  0  0  0  0  0  0  0  0  0  0  0  # atno 17342 bound_to 10162
  139.9149  143.6676  152.3108 LP  0  0  0  0  0  0  0  0  0  0  0  0  # atno 17343 bound_to 10162
  156.4876  130.4088  149.6425 LP  0  0  0  0  0  0  0  0  0  0  0  0  # atno 17370 bound_to 10713
  156.3448  130.7401  151.2351 LP  0  0  0  0  0  0  0  0  0  0  0  0  # atno 17371 bound_to 10713
  140.3225  134.2900  155.7243 LP  0  0  0  0  0  0  0  0  0  0  0  0  # atno 17394 bound_to 11000
  141.2104  133.7719  156.9931 LP  0  0  0  0  0  0  0  0  0  0  0  0  # atno 17395 bound_to 11000

$$$$
