#       Name:                AV-unprocessed.smi:1701
#       Creating user name   scv26
#       Creation time:       Fri Mar 27 08:00:53 2020


#       File generated by GOLD software.
#

@<TRIPOS>MOLECULE
AV-unprocessed.smi:1701
    57    59     1
SMALL
NO_CHARGES


@<TRIPOS>ATOM
      1 ****        -6.2884  -1.2305  -1.4182 C.3            1 S1                 0.0000
      2 ****        -6.2712  -0.9140   0.0855 C.3            1 S1                 0.0000
      3 ****        -5.6681   0.3834   0.3887 N.pl3          1 S1                 0.0000
      4 ****        -6.4383   1.5762   0.0283 C.3            1 S1                 0.0000
      5 ****        -6.1439   2.7817   0.9355 C.3            1 S1                 0.0000
      6 ****        -4.2626   0.4197   0.2517 C.ar           1 S1                 0.0000
      7 ****        -3.4572  -0.4634   1.0061 C.ar           1 S1                 0.0000
      8 ****        -2.0600  -0.4229   0.8435 C.ar           1 S1                 0.0000
      9 ****        -1.4946   0.4902  -0.0680 C.ar           1 S1                 0.0000
     10 ****        -0.0779   0.4960  -0.1949 N.am           1 S1                 0.0000
     11 ****         0.7106   1.2044  -1.0277 C.2            1 S1                 0.0000
     12 ****         0.3133   2.0118  -1.8630 O.2            1 S1                 0.0000
     13 ****         2.0245   0.9606  -0.8760 N.am           1 S1                 0.0000
     14 ****         3.1421   1.5531  -1.6114 C.3            1 S1                 0.0000
     15 ****         3.3644   0.9497  -3.0129 C.3            1 S1                 0.0000
     16 ****         4.8947   0.8633  -3.1833 C.3            1 S1                 0.0000
     17 ****         5.4571   1.5066  -1.9807 N.4            1 S1                 1.0000
     18 ****         6.8297   1.1207  -1.5868 C.3            1 S1                 0.0000
     19 ****         7.2594   1.9511  -0.3601 C.3            1 S1                 0.0000
     20 ****         6.2352   1.8501   0.7892 C.3            1 S1                 0.0000
     21 ****         4.8115   2.1728   0.2962 C.3            1 S1                 0.0000
     22 ****         4.4731   1.2837  -0.9111 C.3            1 S1                 0.0000
     23 ****        -2.3812   1.3358  -0.7782 C.ar           1 S1                 0.0000
     24 ****        -3.7216   1.3004  -0.6243 N.ar           1 S1                 0.0000
     25 ****        -6.7495  -2.2012  -1.6012 H              1 S1                 0.0000
     26 ****        -5.2793  -1.2625  -1.8302 H              1 S1                 0.0000
     27 ****        -6.8557  -0.4855  -1.9766 H              1 S1                 0.0000
     28 ****        -7.2934  -0.9158   0.4649 H              1 S1                 0.0000
     29 ****        -5.7591  -1.7113   0.6232 H              1 S1                 0.0000
     30 ****        -6.2533   1.8367  -1.0145 H              1 S1                 0.0000
     31 ****        -7.5010   1.3414   0.0955 H              1 S1                 0.0000
     32 ****        -6.7727   3.6288   0.6617 H              1 S1                 0.0000
     33 ****        -5.1070   3.1091   0.8623 H              1 S1                 0.0000
     34 ****        -6.3465   2.5443   1.9801 H              1 S1                 0.0000
     35 ****        -3.8946  -1.1572   1.7089 H              1 S1                 0.0000
     36 ****        -1.4310  -1.0887   1.4162 H              1 S1                 0.0000
     37 ****         0.4053  -0.1362   0.4260 H              1 S1                 0.0000
     38 ****         2.2737   0.2991  -0.1546 H              1 S1                 0.0000
     39 ****         3.0088   2.6336  -1.6982 H              1 S1                 0.0000
     40 ****         2.9270  -0.0466  -3.0933 H              1 S1                 0.0000
     41 ****         2.9062   1.5710  -3.7831 H              1 S1                 0.0000
     42 ****         5.2065  -0.1815  -3.2290 H              1 S1                 0.0000
     43 ****         5.2425   1.3614  -4.0886 H              1 S1                 0.0000
     44 ****         6.8656   0.0545  -1.3582 H              1 S1                 0.0000
     45 ****         7.5125   1.2959  -2.4187 H              1 S1                 0.0000
     46 ****         8.2414   1.6267  -0.0149 H              1 S1                 0.0000
     47 ****         7.3672   2.9964  -0.6531 H              1 S1                 0.0000
     48 ****         6.2553   0.8415   1.2037 H              1 S1                 0.0000
     49 ****         6.5132   2.5233   1.6007 H              1 S1                 0.0000
     50 ****         4.0906   2.0126   1.0986 H              1 S1                 0.0000
     51 ****         4.7444   3.2260   0.0193 H              1 S1                 0.0000
     52 ****         4.5174   0.2331  -0.6132 H              1 S1                 0.0000
     53 ****        -2.0414   2.0712  -1.4884 H              1 S1                 0.0000
     54 ****         5.4633   2.5004  -2.1615 H              1 S1                 0.0000
     55 ****        -0.6663   2.1855  -1.9641 LP             1 S1                 0.0000
     56 ****         0.9693   2.4957  -2.4422 LP             1 S1                 0.0000
     57 ****        -4.3081   1.9165  -1.1502 LP             1 S1                 0.0000
@<TRIPOS>BOND
    1    1    2 1     
    2    1   25 1     
    3    1   26 1     
    4    1   27 1     
    5    2    3 1     
    6    2   28 1     
    7    2   29 1     
    8    3    4 1     
    9    3    6 1     
   10    4    5 1     
   11    4   30 1     
   12    4   31 1     
   13    5   32 1     
   14    5   33 1     
   15    5   34 1     
   16    6   24 ar    
   17    6    7 ar    
   18    7    8 ar    
   19    7   35 1     
   20    8    9 ar    
   21    8   36 1     
   22    9   10 1     
   23    9   23 ar    
   24   10   11 am    
   25   10   37 1     
   26   11   12 2     
   27   11   13 am    
   28   13   14 1     
   29   13   38 1     
   30   14   22 1     
   31   14   15 1     
   32   14   39 1     
   33   15   16 1     
   34   15   40 1     
   35   15   41 1     
   36   16   17 1     
   37   16   42 1     
   38   16   43 1     
   39   17   22 1     
   40   17   18 1     
   41   17   54 1     
   42   18   19 1     
   43   18   44 1     
   44   18   45 1     
   45   19   20 1     
   46   19   46 1     
   47   19   47 1     
   48   20   21 1     
   49   20   48 1     
   50   20   49 1     
   51   21   22 1     
   52   21   50 1     
   53   21   51 1     
   54   22   52 1     
   55   23   24 ar    
   56   23   53 1     
   57   12   55 1     
   58   12   56 1     
   59   24   57 1     
@<TRIPOS>SUBSTRUCTURE
      1 S1             1
@<TRIPOS>SET
LONE_PAIRS      STATIC     ATOMS    <user>   **** ""
3 55 56 57
DONOR_HYDROGENS      STATIC     ATOMS    <user>   **** ""
3 37 38 54
ATOM$BLUE        STATIC     ATOMS    COLORGROUP SYSTEM
3 55 56 57
ATOM$RED        STATIC     ATOMS    COLORGROUP SYSTEM
3 37 38 54
