AV-unprocessed.smi:1047|AV-procd|sdf|4597|dock7
  -GOLD-   22720 3 83D 1   1.00000     0.00000
 Structure written by MMmdl.
 57 59  0  0  0  0  0  0  0  0  3 V2000
  144.1237  145.4620  158.2783 C   0  0  0  0  0  0  0  0  0  0  0  0
  144.8932  145.6434  159.5943 C   0  0  0  0  0  0  0  0  0  0  0  0
  145.2356  144.3460  160.2352 N   0  3  2  0  0  0  0  0  0  0  0  0
  145.9933  144.4920  161.5027 C   0  0  0  0  0  0  0  0  0  0  0  0
  147.4738  144.8188  161.2343 C   0  0  0  0  0  0  0  0  0  0  0  0
  148.0470  143.8040  160.4188 O   0  0  0  0  0  0  0  0  0  0  0  0
  147.4037  143.6933  159.1530 C   0  0  1  0  0  0  0  0  0  0  0  0
  148.1629  142.6681  158.2921 C   0  0  0  0  0  0  0  0  0  0  0  0
  147.6425  142.5945  156.9288 N   0  0  0  0  0  0  0  0  0  0  0  0
  147.7565  141.2648  156.3344 C   0  0  0  0  0  0  0  0  0  0  0  0
  148.6222  141.2696  155.0615 C   0  0  2  0  0  0  0  0  0  0  0  0
  148.5336  140.0100  154.4241 O   0  0  0  0  0  0  0  0  0  0  0  0
  150.0922  141.6725  155.3023 C   0  0  0  0  0  0  0  0  0  0  0  0
  150.6985  140.9633  156.4364 N   0  0  0  0  0  0  0  0  0  0  0  0
  150.8563  139.6287  156.6503 C   0  0  0  0  0  0  0  0  0  0  0  0
  151.4715  139.4768  157.8559 N   0  3  0  0  0  0  0  0  0  0  0  0
  151.7071  140.7322  158.4207 C   0  0  0  0  0  0  0  0  0  0  0  0
  152.3002  141.0931  159.6246 C   0  0  0  0  0  0  0  0  0  0  0  0
  152.3912  142.4743  159.9105 C   0  0  0  0  0  0  0  0  0  0  0  0
  153.0359  142.9027  161.2179 C   0  0  0  0  0  0  0  0  0  0  0  0
  151.8945  143.4429  158.9998 C   0  0  0  0  0  0  0  0  0  0  0  0
  151.9989  144.9251  159.3167 C   0  0  0  0  0  0  0  0  0  0  0  0
  151.2929  143.0552  157.7809 C   0  0  0  0  0  0  0  0  0  0  0  0
  151.2126  141.6905  157.5150 C   0  0  0  0  0  0  0  0  0  0  0  0
  145.9033  143.3644  159.3422 C   0  0  0  0  0  0  0  0  0  0  0  0
  143.8048  146.4280  157.8863 H   0  0  0  0  0  0  0  0  0  0  0  0
  143.2298  144.8549  158.4247 H   0  0  0  0  0  0  0  0  0  0  0  0
  144.7316  144.9876  157.5085 H   0  0  0  0  0  0  0  0  0  0  0  0
  145.7851  146.2486  159.4329 H   0  0  0  0  0  0  0  0  0  0  0  0
  144.2562  146.2142  160.2709 H   0  0  0  0  0  0  0  0  0  0  0  0
  145.5376  145.2511  162.1394 H   0  0  0  0  0  0  0  0  0  0  0  0
  145.9270  143.5528  162.0536 H   0  0  0  0  0  0  0  0  0  0  0  0
  147.5850  145.7944  160.7587 H   0  0  0  0  0  0  0  0  0  0  0  0
  148.0228  144.8629  162.1750 H   0  0  0  0  0  0  0  0  0  0  0  0
  147.4975  144.6547  158.6465 H   0  0  0  0  0  0  0  0  0  0  0  0
  149.2184  142.9419  158.2666 H   0  0  0  0  0  0  0  0  0  0  0  0
  148.1106  141.6865  158.7647 H   0  0  0  0  0  0  0  0  0  0  0  0
  148.1256  143.2658  156.3400 H   0  0  0  0  0  0  0  0  0  0  0  0
  148.1786  140.5652  157.0572 H   0  0  0  0  0  0  0  0  0  0  0  0
  146.7625  140.8894  156.0882 H   0  0  0  0  0  0  0  0  0  0  0  0
  148.1772  141.9886  154.3730 H   0  0  0  0  0  0  0  0  0  0  0  0
  147.9712  140.0955  153.6697 H   0  0  0  0  0  0  0  0  0  0  0  0
  150.6982  141.4873  154.4145 H   0  0  0  0  0  0  0  0  0  0  0  0
  150.1700  142.7400  155.5127 H   0  0  0  0  0  0  0  0  0  0  0  0
  150.5497  138.8347  155.9846 H   0  0  0  0  0  0  0  0  0  0  0  0
  152.6758  140.3503  160.3131 H   0  0  0  0  0  0  0  0  0  0  0  0
  152.3409  143.4961  161.8126 H   0  0  0  0  0  0  0  0  0  0  0  0
  153.9279  143.5003  161.0272 H   0  0  0  0  0  0  0  0  0  0  0  0
  153.3339  142.0414  161.8167 H   0  0  0  0  0  0  0  0  0  0  0  0
  151.6054  145.5361  158.5036 H   0  0  0  0  0  0  0  0  0  0  0  0
  153.0390  145.2118  159.4735 H   0  0  0  0  0  0  0  0  0  0  0  0
  151.4331  145.1640  160.2178 H   0  0  0  0  0  0  0  0  0  0  0  0
  150.9143  143.7913  157.0871 H   0  0  0  0  0  0  0  0  0  0  0  0
  145.7956  142.3830  159.8054 H   0  0  0  0  0  0  0  0  0  0  0  0
  145.3987  143.2990  158.3791 H   0  0  0  0  0  0  0  0  0  0  0  0
  144.3468  143.9407  160.4928 H   0  0  0  0  0  0  0  0  0  0  0  0
  151.7093  138.5809  158.2619 H   0  0  0  0  0  0  0  0  0  0  0  0
  1  2  1  0  0  0  0
  1 26  1  0  0  0  0
  1 27  1  0  0  0  0
  1 28  1  0  0  0  0
  2  3  1  0  0  0  0
  2 29  1  0  0  0  0
  2 30  1  0  0  0  0
  3 25  1  0  0  0  0
  3  4  1  0  0  0  0
  3 56  1  0  0  0  0
  4  5  1  0  0  0  0
  4 31  1  0  0  0  0
  4 32  1  0  0  0  0
  5  6  1  0  0  0  0
  5 33  1  0  0  0  0
  5 34  1  0  0  0  0
  6  7  1  0  0  0  0
  7  8  1  0  0  0  0
  7 25  1  0  0  0  0
  7 35  1  0  0  0  0
  8  9  1  0  0  0  0
  8 36  1  0  0  0  0
  8 37  1  0  0  0  0
  9 10  1  0  0  0  0
  9 38  1  0  0  0  0
 10 11  1  0  0  0  0
 10 39  1  0  0  0  0
 10 40  1  0  0  0  0
 11 12  1  0  0  0  0
 11 13  1  0  0  0  0
 11 41  1  0  0  0  0
 12 42  1  0  0  0  0
 13 14  1  0  0  0  0
 13 43  1  0  0  0  0
 13 44  1  0  0  0  0
 14 24  1  0  0  0  0
 14 15  1  0  0  0  0
 15 16  2  0  0  0  0
 15 45  1  0  0  0  0
 16 17  1  0  0  0  0
 16 57  1  0  0  0  0
 17 24  2  0  0  0  0
 17 18  1  0  0  0  0
 18 19  2  0  0  0  0
 18 46  1  0  0  0  0
 19 20  1  0  0  0  0
 19 21  1  0  0  0  0
 20 47  1  0  0  0  0
 20 48  1  0  0  0  0
 20 49  1  0  0  0  0
 21 22  1  0  0  0  0
 21 23  2  0  0  0  0
 22 50  1  0  0  0  0
 22 51  1  0  0  0  0
 22 52  1  0  0  0  0
 23 24  1  0  0  0  0
 23 53  1  0  0  0  0
 25 54  1  0  0  0  0
 25 55  1  0  0  0  0
M  CHG  1   3   1
M  CHG  1  16   1
M  END
> <s_m_source_file>
AV-unprocessed.smi

> <i_m_source_file_index>
1047

> <i_lp_mmshare_version>
43012

> <i_f3d_flags>
0

> <s_epik_input>
W0NIM11bQ0gyXU4xW0NIMl1bQ0gyXU9bQ0BIXShbQ0gyXTEpW0NIMl1bTkhdW0NIMl1bQ0BIXShbT0hdKVtDSDJdbihbY0hdbjIpYyhjMjMpW2NIXWMoW0NIM10pYyhbY0hdMylbQ0gzXQ==

> <s_epik_cmdline>
J2VwaWtfcHl0aG9uJywgJy1waCcsICc3LjAnLCAnLXRuJywgJzgnLCAnLW1hJywgJzIwMCcsICctbWV0YWxfYmluZGluZycsICctaW1hZScsICc8aW5maWxlLm1hZT4nLCAnLW9tYWUnLCAnPG91dGZpbGUubWFlPic=

> <r_epik_Ionization_Penalty>
2.03028

> <r_epik_Ionization_Penalty_Charging>
1.21256

> <r_epik_Ionization_Penalty_Neutral>
0.817715

> <r_epik_State_Penalty>
2.54959

> <r_epik_Charging_Adjusted_Penalty>
3.76215

> <i_epik_Tot_Q>
2

> <i_epik_Tot_abs_Q>
2

> <r_epik_Metal_State_Penalty>
6.52811

> <b_epik_Metal_Only>
0

> <s_lp_Force_Field>
OPLS_2005

> <r_lp_Energy>
43.5189

> <b_lp_Chiralities_Consistent>
1

> <s_lp_Variant>
AV-unprocessed.smi:1047-38

> <Gold.Version>
5.8.1

> <Gold.Id.Protein>
6NUR|6NUR_protein|mol2

> <Gold.PLP.Fitness>
52.3468

> <Gold.PLP.PLP>
-47.7201

> <Gold.PLP.part.hbond>
-2.0000

> <Gold.PLP.part.metal>
0.0000

> <Gold.PLP.part.buried>
-4.9830

> <Gold.PLP.part.nonpolar>
-39.2930

> <Gold.PLP.part.repulsive>
0.1952

> <Gold.PLP.ligand.clash>
0.0000

> <Gold.PLP.ligand.torsion>
0.7411

> <Gold.PLP.Chemscore.Hbond>
2.0000

> <Gold.PLP.Chemscore.CHOScore>
0.0000

> <Gold.PLP.Chemscore.Metal>
0.0000

> <Gold.Chemscore.Hbonds>
donor molecule, donor type, donor heavy atom, donor atom, acceptor molecule, acceptor atom, score
      L1  H     9    38       P1  8028  1.00
      P1  H  6933  6944       L1     6  1.00

> <Gold.PLP.Chemscore.Internal.Correction>
0.1089

> <Gold.Rescore>
     Score         DG    S(hbond)    S(metal)    S(lipo)     H(rot)  DE(clash)    DE(int)     intcor
     16.52     -17.39       1.52        0.00     117.72       2.71       0.11       0.75       ----

> <Gold.Chemscore.Fitness>
16.5244

> <Gold.Chemscore.DG>
-17.3880

> <Gold.Chemscore.ZeroCoef>
-5.4800

> <Gold.Chemscore.Hbond>
1.5179

> <Gold.Chemscore.Metal>
0.0000

> <Gold.Chemscore.Lipo>
117.7168

> <Gold.Chemscore.Internal_Hbond>
0.0000

> <Gold.Chemscore.DEClash>
0.1101

> <Gold.Chemscore.DEInternal>
0.7535

> <Gold.Chemscore.Rot>
2.7088

> <Gold.Chemscore.Internal.Correction>
   9.000000E+99

> <Gold.Chemscore.Hbonds>
donor molecule, donor type, donor heavy atom, donor atom, acceptor molecule, acceptor atom, score
      L1  H     9    38       P1  8028  0.35
      P1  H  6933  6944       L1     6  0.73

> <Gold.Chemscore.Hbond.Weighted>
-5.0698

> <Gold.Chemscore.Metal.Weighted>
-0.0000

> <Gold.Chemscore.Lipo.Weighted>
-13.7729

> <Gold.Chemscore.Internal_Hbond.Weighted>
0.0000

> <Gold.Chemscore.DEClash.Weighted>
0.1101

> <Gold.Chemscore.DEInternal.Weighted>
0.7535

> <Gold.Chemscore.Rot.Weighted>
6.9346

> <Gold.Chemscore.Internal.Correction.Weighted>
   9.000000E+99

> <Gold.Protein.RotatedTorsions>
[ 6907 6896 6895 6894 ] final -132.58 input  -60.11 | X-H torsion
[ 7974 7965 7964 7962 ] final  -76.06 input  175.53 | X-H torsion
[ 8008 7997 7996 7995 ] final  -29.60 input   59.86 | X-H torsion
[ 10167 10162 10161 10158 ] final -104.73 input  -65.29 | X-H torsion
[ 10718 10713 10712 10709 ] final  106.93 input   66.30 | X-H torsion
[ 10763 10752 10751 10750 ] final -159.38 input  -60.55 | X-H torsion
[ 11005 11000 10999 10996 ] final  144.26 input  -57.11 | X-H torsion

> <Gold.Protein.ActiveResidues>
 VAL166  LYS551  ARG553  GLY616  TRP617  ASP618  TYR619  PRO620  LYS621  CYS622 
 ASP623  PHE694  ASN695  SER759  ASP760  ASP761  ALA762  ILE779  LEU786  VAL792 
 PHE793  MET794  SER795  GLU796  ALA797  LYS798  CYS799  TRP800  GLU811  SER814 

> <Gold.Protein.RotatedAtoms>
  150.9640  133.6414  159.2749 H   0  0  0  0  0  0  0  0  0  0  0  0  # atno 6907 bound_to 6896
  151.3727  135.0924  159.9480 H   0  0  0  0  0  0  0  0  0  0  0  0  # atno 6908 bound_to 6896
  152.5158  133.9191  159.7580 H   0  0  0  0  0  0  0  0  0  0  0  0  # atno 6909 bound_to 6896
  145.6179  140.9370  143.1154 H   0  0  0  0  0  0  0  0  0  0  0  0  # atno 7974 bound_to 7965
  154.4283  140.1814  156.1273 H   0  0  0  0  0  0  0  0  0  0  0  0  # atno 8008 bound_to 7997
  156.0095  140.3352  155.6902 H   0  0  0  0  0  0  0  0  0  0  0  0  # atno 8009 bound_to 7997
  155.6130  140.0652  157.2691 H   0  0  0  0  0  0  0  0  0  0  0  0  # atno 8010 bound_to 7997
  140.2062  143.3781  152.1089 H   0  0  0  0  0  0  0  0  0  0  0  0  # atno 10167 bound_to 10162
  157.6648  131.0862  150.6081 H   0  0  0  0  0  0  0  0  0  0  0  0  # atno 10718 bound_to 10713
  154.7480  135.3085  154.8610 H   0  0  0  0  0  0  0  0  0  0  0  0  # atno 10763 bound_to 10752
  153.9406  135.6775  153.4748 H   0  0  0  0  0  0  0  0  0  0  0  0  # atno 10764 bound_to 10752
  153.1076  135.4882  154.8905 H   0  0  0  0  0  0  0  0  0  0  0  0  # atno 10765 bound_to 10752
  140.0618  134.9200  157.1198 H   0  0  0  0  0  0  0  0  0  0  0  0  # atno 11005 bound_to 11000
  144.7243  139.7927  143.7370 LP  0  0  0  0  0  0  0  0  0  0  0  0  # atno 17320 bound_to 7965
  146.1454  139.4522  143.0082 LP  0  0  0  0  0  0  0  0  0  0  0  0  # atno 17321 bound_to 7965
  139.5198  144.7024  151.5455 LP  0  0  0  0  0  0  0  0  0  0  0  0  # atno 17342 bound_to 10162
  140.6356  143.8991  150.6644 LP  0  0  0  0  0  0  0  0  0  0  0  0  # atno 17343 bound_to 10162
  156.6382  130.4451  149.5762 LP  0  0  0  0  0  0  0  0  0  0  0  0  # atno 17370 bound_to 10713
  156.2229  130.6748  151.1387 LP  0  0  0  0  0  0  0  0  0  0  0  0  # atno 17371 bound_to 10713
  140.3758  134.2341  155.7174 LP  0  0  0  0  0  0  0  0  0  0  0  0  # atno 17394 bound_to 11000
  141.1976  133.8054  157.0619 LP  0  0  0  0  0  0  0  0  0  0  0  0  # atno 17395 bound_to 11000

$$$$
