AV-unprocessed.smi:1000|AV-procd|sdf|4356|dock4
  -GOLD-   22720 2253D 1   1.00000     0.00000
 Structure written by MMmdl.
 40 41  0  0  0  0  0  0  0  0  1 V2000
  150.8632  137.2409  158.2122 C   0  0  0  0  0  0  0  0  0  0  0  0
  152.3461  137.2727  157.0981 S   0  0  1  0  0  0  0  0  0  0  0  0
  152.4907  135.8709  156.5021 O   0  0  0  0  0  0  0  0  0  0  0  0
  151.5297  138.2450  155.7833 C   0  0  0  0  0  0  0  0  0  0  0  0
  151.5684  139.5787  155.7099 N   0  0  0  0  0  0  0  0  0  0  0  0
  150.8349  139.8949  154.5818 N   0  0  0  0  0  0  0  0  0  0  0  0
  150.4342  138.7180  154.0969 C   0  0  0  0  0  0  0  0  0  0  0  0
  150.8355  137.6455  154.7975 N   0  0  0  0  0  0  0  0  0  0  0  0
  150.5725  136.2406  154.5420 C   0  0  0  0  0  0  0  0  0  0  0  0
  149.1109  135.8965  154.8268 C   0  0  0  0  0  0  0  0  0  0  0  0
  148.6096  136.2041  155.9074 O   0  0  0  0  0  0  0  0  0  0  0  0
  148.4449  135.2596  153.8506 N   0  0  0  0  0  0  0  0  0  0  0  0
  147.0501  134.8308  153.9106 C   0  0  0  0  0  0  0  0  0  0  0  0
  146.1968  135.4878  152.8088 C   0  0  0  0  0  0  0  0  0  0  0  0
  145.5682  134.4912  151.8474 C   0  0  0  0  0  0  0  0  0  0  0  0
  144.2337  134.4043  151.6829 C   0  0  0  0  0  0  0  0  0  0  0  0
  143.5553  133.4598  150.7072 C   0  0  0  0  0  0  0  0  0  0  0  0
  144.5411  132.8743  149.6826 C   0  0  0  0  0  0  0  0  0  0  0  0
  145.8430  132.4312  150.3615 C   0  0  0  0  0  0  0  0  0  0  0  0
  146.5374  133.6103  151.0660 C   0  0  0  0  0  0  0  0  0  0  0  0
  150.2182  138.1021  158.0370 H   0  0  0  0  0  0  0  0  0  0  0  0
  151.1808  137.2584  159.2546 H   0  0  0  0  0  0  0  0  0  0  0  0
  150.2840  136.3332  158.0423 H   0  0  0  0  0  0  0  0  0  0  0  0
  149.8300  138.6371  153.2052 H   0  0  0  0  0  0  0  0  0  0  0  0
  150.8172  136.0156  153.5030 H   0  0  0  0  0  0  0  0  0  0  0  0
  151.2312  135.6320  155.1627 H   0  0  0  0  0  0  0  0  0  0  0  0
  148.9443  135.0514  152.9982 H   0  0  0  0  0  0  0  0  0  0  0  0
  146.9684  133.7434  153.8757 H   0  0  0  0  0  0  0  0  0  0  0  0
  146.6617  135.1275  154.8850 H   0  0  0  0  0  0  0  0  0  0  0  0
  145.3973  136.0729  153.2641 H   0  0  0  0  0  0  0  0  0  0  0  0
  146.8090  136.1989  152.2523 H   0  0  0  0  0  0  0  0  0  0  0  0
  143.5788  135.0366  152.2643 H   0  0  0  0  0  0  0  0  0  0  0  0
  143.0855  132.6602  151.2808 H   0  0  0  0  0  0  0  0  0  0  0  0
  142.7568  133.9916  150.1894 H   0  0  0  0  0  0  0  0  0  0  0  0
  144.0809  132.0369  149.1573 H   0  0  0  0  0  0  0  0  0  0  0  0
  144.7707  133.6263  148.9263 H   0  0  0  0  0  0  0  0  0  0  0  0
  145.6179  131.6525  151.0914 H   0  0  0  0  0  0  0  0  0  0  0  0
  146.5188  131.9839  149.6321 H   0  0  0  0  0  0  0  0  0  0  0  0
  147.0453  134.2297  150.3270 H   0  0  0  0  0  0  0  0  0  0  0  0
  147.3071  133.2288  151.7376 H   0  0  0  0  0  0  0  0  0  0  0  0
  1  2  1  0  0  0  0
  1 21  1  0  0  0  0
  1 22  1  0  0  0  0
  1 23  1  0  0  0  0
  2  3  2  0  0  0  0
  2  4  1  0  0  0  0
  4  8  1  0  0  0  0
  4  5  2  0  0  0  0
  5  6  1  0  0  0  0
  6  7  2  0  0  0  0
  7  8  1  0  0  0  0
  7 24  1  0  0  0  0
  8  9  1  0  0  0  0
  9 10  1  0  0  0  0
  9 25  1  0  0  0  0
  9 26  1  0  0  0  0
 10 11  2  0  0  0  0
 10 12  1  0  0  0  0
 12 13  1  0  0  0  0
 12 27  1  0  0  0  0
 13 14  1  0  0  0  0
 13 28  1  0  0  0  0
 13 29  1  0  0  0  0
 14 15  1  0  0  0  0
 14 30  1  0  0  0  0
 14 31  1  0  0  0  0
 15 20  1  0  0  0  0
 15 16  2  0  0  0  0
 16 17  1  0  0  0  0
 16 32  1  0  0  0  0
 17 18  1  0  0  0  0
 17 33  1  0  0  0  0
 17 34  1  0  0  0  0
 18 19  1  0  0  0  0
 18 35  1  0  0  0  0
 18 36  1  0  0  0  0
 19 20  1  0  0  0  0
 19 37  1  0  0  0  0
 19 38  1  0  0  0  0
 20 39  1  0  0  0  0
 20 40  1  0  0  0  0
M  END
> <s_m_source_file>
AV-unprocessed.smi

> <i_m_source_file_index>
1000

> <i_lp_mmshare_version>
43012

> <i_f3d_flags>
0

> <s_epik_input>
W0NIM11bU0BdKD1PKWMxbm5bY0hdbjFbQ0gyXUMoPU8pW05IXVtDSDJdW0NIMl1DMj1bQ0hdW0NIMl1bQ0gyXVtDSDJdW0NIMl0y

> <s_epik_cmdline>
J2VwaWtfcHl0aG9uJywgJy1waCcsICc3LjAnLCAnLXRuJywgJzgnLCAnLW1hJywgJzIwMCcsICctbWV0YWxfYmluZGluZycsICctaW1hZScsICc8aW5maWxlLm1hZT4nLCAnLW9tYWUnLCAnPG91dGZpbGUubWFlPic=

> <r_lp_tautomer_probability>
1

> <r_epik_Ionization_Penalty>
9.22166e-08

> <r_epik_Ionization_Penalty_Charging>
0

> <r_epik_Ionization_Penalty_Neutral>
9.22166e-08

> <r_epik_State_Penalty>
-0

> <r_epik_Charging_Adjusted_Penalty>
0

> <i_epik_Tot_Q>
0

> <i_epik_Tot_abs_Q>
0

> <r_epik_Metal_State_Penalty>
-0

> <b_epik_Metal_Only>
0

> <s_lp_Force_Field>
OPLS_2005

> <r_lp_Energy>
7.40605

> <b_lp_Chiralities_Consistent>
1

> <s_lp_Variant>
AV-unprocessed.smi:1000-2

> <Gold.Version>
5.8.1

> <Gold.Id.Protein>
6NUR|6NUR_protein|mol2

> <Gold.PLP.Fitness>
40.9441

> <Gold.PLP.PLP>
-30.6452

> <Gold.PLP.part.hbond>
-3.0136

> <Gold.PLP.part.metal>
0.0000

> <Gold.PLP.part.buried>
-3.1696

> <Gold.PLP.part.nonpolar>
-23.5162

> <Gold.PLP.part.repulsive>
0.1838

> <Gold.PLP.ligand.clash>
0.0000

> <Gold.PLP.ligand.torsion>
1.4036

> <Gold.PLP.Chemscore.Hbond>
2.2304

> <Gold.PLP.Chemscore.CHOScore>
1.7670

> <Gold.PLP.Chemscore.Metal>
0.0000

> <Gold.Chemscore.Hbonds>
donor molecule, donor type, donor heavy atom, donor atom, acceptor molecule, acceptor atom, score
      L1  H    12    27       P1  7948  0.33
      P1  H  7989  7998       L1     6  1.00
      P1  H 10752 10763       L1     3  1.00
      L1  C     7    24       P1  7948  0.20
      L1  C     7    24       P1  7957  1.00

> <Gold.PLP.Chemscore.Internal.Correction>
1.1140

> <Gold.Rescore>
     Score         DG    S(hbond)    S(metal)    S(lipo)     H(rot)  DE(clash)    DE(int)     intcor
      9.73     -12.96       1.95        0.00      57.77       2.26       0.15       3.08       ----

> <Gold.Chemscore.Fitness>
9.7294

> <Gold.Chemscore.DG>
-12.9624

> <Gold.Chemscore.ZeroCoef>
-5.4800

> <Gold.Chemscore.Hbond>
1.9516

> <Gold.Chemscore.Metal>
0.0000

> <Gold.Chemscore.Lipo>
57.7747

> <Gold.Chemscore.Internal_Hbond>
0.0000

> <Gold.Chemscore.DEClash>
0.1488

> <Gold.Chemscore.DEInternal>
3.0841

> <Gold.Chemscore.Rot>
2.2640

> <Gold.Chemscore.Internal.Correction>
   9.000000E+99

> <Gold.Chemscore.Hbonds>
donor molecule, donor type, donor heavy atom, donor atom, acceptor molecule, acceptor atom, score
      L1  H    12    27       P1  7948  0.06
      P1  H  7989  7998       L1     6  0.80
      P1  H 10752 10763       L1     3  0.99

> <Gold.Chemscore.Hbond.Weighted>
-6.5185

> <Gold.Chemscore.Metal.Weighted>
-0.0000

> <Gold.Chemscore.Lipo.Weighted>
-6.7596

> <Gold.Chemscore.Internal_Hbond.Weighted>
0.0000

> <Gold.Chemscore.DEClash.Weighted>
0.1488

> <Gold.Chemscore.DEInternal.Weighted>
3.0841

> <Gold.Chemscore.Rot.Weighted>
5.7957

> <Gold.Chemscore.Internal.Correction.Weighted>
   9.000000E+99

> <Gold.Protein.RotatedTorsions>
[ 6907 6896 6895 6894 ] final   69.89 input  -60.11 | X-H torsion
[ 7974 7965 7964 7962 ] final -148.54 input  175.53 | X-H torsion
[ 8008 7997 7996 7995 ] final -137.02 input   59.86 | X-H torsion
[ 10167 10162 10161 10158 ] final -120.93 input  -65.29 | X-H torsion
[ 10718 10713 10712 10709 ] final  -42.07 input   66.30 | X-H torsion
[ 10763 10752 10751 10750 ] final  116.63 input  -60.55 | X-H torsion
[ 11005 11000 10999 10996 ] final  -26.69 input  -57.11 | X-H torsion

> <Gold.Protein.ActiveResidues>
 VAL166  LYS551  ARG553  GLY616  TRP617  ASP618  TYR619  PRO620  LYS621  CYS622 
 ASP623  PHE694  ASN695  SER759  ASP760  ASP761  ALA762  ILE779  LEU786  VAL792 
 PHE793  MET794  SER795  GLU796  ALA797  LYS798  CYS799  TRP800  GLU811  SER814 

> <Gold.Protein.RotatedAtoms>
  152.4715  134.4949  159.9706 H   0  0  0  0  0  0  0  0  0  0  0  0  # atno 6907 bound_to 6896
  151.4975  133.3505  159.2871 H   0  0  0  0  0  0  0  0  0  0  0  0  # atno 6908 bound_to 6896
  150.8727  134.8132  159.7228 H   0  0  0  0  0  0  0  0  0  0  0  0  # atno 6909 bound_to 6896
  144.8023  140.5183  143.5699 H   0  0  0  0  0  0  0  0  0  0  0  0  # atno 7974 bound_to 7965
  155.4048  140.0508  157.3035 H   0  0  0  0  0  0  0  0  0  0  0  0  # atno 8008 bound_to 7997
  154.4973  140.2143  155.9379 H   0  0  0  0  0  0  0  0  0  0  0  0  # atno 8009 bound_to 7997
  156.1422  140.3152  155.8519 H   0  0  0  0  0  0  0  0  0  0  0  0  # atno 8010 bound_to 7997
  140.0305  143.5253  152.2179 H   0  0  0  0  0  0  0  0  0  0  0  0  # atno 10167 bound_to 10162
  156.2635  130.4199  149.8516 H   0  0  0  0  0  0  0  0  0  0  0  0  # atno 10718 bound_to 10713
  153.5402  135.3560  155.2715 H   0  0  0  0  0  0  0  0  0  0  0  0  # atno 10763 bound_to 10752
  154.8718  135.4089  154.3053 H   0  0  0  0  0  0  0  0  0  0  0  0  # atno 10764 bound_to 10752
  153.3758  135.7066  153.6671 H   0  0  0  0  0  0  0  0  0  0  0  0  # atno 10765 bound_to 10752
  140.9052  133.7497  156.0596 H   0  0  0  0  0  0  0  0  0  0  0  0  # atno 11005 bound_to 11000
  145.5523  139.1477  143.3387 LP  0  0  0  0  0  0  0  0  0  0  0  0  # atno 17320 bound_to 7965
  146.2307  140.5661  142.8976 LP  0  0  0  0  0  0  0  0  0  0  0  0  # atno 17321 bound_to 7965
  139.6079  144.7601  151.3018 LP  0  0  0  0  0  0  0  0  0  0  0  0  # atno 17342 bound_to 10162
  140.7304  143.6880  150.7945 LP  0  0  0  0  0  0  0  0  0  0  0  0  # atno 17343 bound_to 10162
  156.6022  130.8551  151.3434 LP  0  0  0  0  0  0  0  0  0  0  0  0  # atno 17370 bound_to 10713
  157.7259  130.9622  150.1634 LP  0  0  0  0  0  0  0  0  0  0  0  0  # atno 17371 bound_to 10713
  140.8180  134.3322  157.5391 LP  0  0  0  0  0  0  0  0  0  0  0  0  # atno 17394 bound_to 11000
  139.8748  134.9293  156.3472 LP  0  0  0  0  0  0  0  0  0  0  0  0  # atno 17395 bound_to 11000

$$$$
