AV-unprocessed.smi:160|AV-procd|sdf|1371|dock2
  -GOLD-   2262019 93D 1   1.00000     0.00000
 Structure written by MMmdl.
 28 29  0  0  0  0  0  0  0  0  2 V2000
  153.0314  138.7352  157.9645 N   0  5  0  0  0  0  0  0  0  0  0  0
  152.9745  137.7430  157.0496 C   0  0  0  0  0  0  0  0  0  0  0  0
  153.7640  136.8050  156.9439 O   0  0  0  0  0  0  0  0  0  0  0  0
  151.8122  137.8401  156.0902 C   0  0  0  0  0  0  0  0  0  0  0  0
  151.9260  137.3759  154.8085 N   0  0  0  0  0  0  0  0  0  0  0  0
  150.7085  137.6647  154.3693 C   0  0  0  0  0  0  0  0  0  0  0  0
  149.9188  138.2388  155.2811 N   0  0  0  0  0  0  0  0  0  0  0  0
  148.5063  138.7180  155.1629 C   0  0  2  0  0  0  0  0  0  0  0  0
  148.0966  138.4984  153.8465 O   0  0  0  0  0  0  0  0  0  0  0  0
  147.4793  139.6685  153.3154 C   0  0  2  0  0  0  0  0  0  0  0  0
  147.6031  139.7088  151.7819 C   0  0  0  0  0  0  0  0  0  0  0  0
  147.6339  138.3967  151.2611 O   0  0  0  0  0  0  0  0  0  0  0  0
  148.1565  140.8237  154.0664 C   0  0  2  0  0  0  0  0  0  0  0  0
  149.3795  141.1882  153.4499 O   0  0  0  0  0  0  0  0  0  0  0  0
  148.3494  140.2245  155.4541 C   0  0  2  0  0  0  0  0  0  0  0  0
  149.3969  140.8305  156.1933 O   0  0  0  0  0  0  0  0  0  0  0  0
  150.6334  138.3734  156.4250 N   0  0  0  0  0  0  0  0  0  0  0  0
  147.9468  138.0895  155.8569 H   0  0  0  0  0  0  0  0  0  0  0  0
  146.4270  139.6548  153.6059 H   0  0  0  0  0  0  0  0  0  0  0  0
  147.5221  141.7099  154.0997 H   0  0  0  0  0  0  0  0  0  0  0  0
  147.4221  140.3415  156.0164 H   0  0  0  0  0  0  0  0  0  0  0  0
  152.7858  138.5166  158.9375 H   0  0  0  0  0  0  0  0  0  0  0  0
  150.3850  137.4519  153.3611 H   0  0  0  0  0  0  0  0  0  0  0  0
  146.7374  140.2095  151.3476 H   0  0  0  0  0  0  0  0  0  0  0  0
  148.4899  140.2617  151.4698 H   0  0  0  0  0  0  0  0  0  0  0  0
  148.1208  137.8498  151.8583 H   0  0  0  0  0  0  0  0  0  0  0  0
  149.5648  140.5652  152.7634 H   0  0  0  0  0  0  0  0  0  0  0  0
  149.2425  140.6814  157.1134 H   0  0  0  0  0  0  0  0  0  0  0  0
  1  2  1  0  0  0  0
  1 22  1  0  0  0  0
  2  3  2  0  0  0  0
  2  4  1  0  0  0  0
  4 17  2  0  0  0  0
  4  5  1  0  0  0  0
  5  6  2  0  0  0  0
  6  7  1  0  0  0  0
  6 23  1  0  0  0  0
  7  8  1  0  0  0  0
  7 17  1  0  0  0  0
  8 18  1  0  0  0  0
  8 15  1  0  0  0  0
  8  9  1  0  0  0  0
  9 10  1  0  0  0  0
 10 19  1  0  0  0  0
 10 11  1  0  0  0  0
 10 13  1  0  0  0  0
 11 12  1  0  0  0  0
 11 24  1  0  0  0  0
 11 25  1  0  0  0  0
 12 26  1  0  0  0  0
 13 20  1  0  0  0  0
 13 14  1  0  0  0  0
 13 15  1  0  0  0  0
 14 27  1  0  0  0  0
 15 21  1  0  0  0  0
 15 16  1  0  0  0  0
 16 28  1  0  0  0  0
M  CHG  1   1  -1
M  END
> <s_m_source_file>
AV-unprocessed.smi

> <i_m_source_file_index>
160

> <i_lp_mmshare_version>
43012

> <i_f3d_flags>
0

> <s_epik_input>
W05IMl1DKD1PKWMxbltjSF1uKG4xKVtDQEBIXTJPW0NASF0oW0NIMl1bT0hdKVtDQEBIXShbT0hdKVtDQEhdMltPSF0=

> <s_epik_cmdline>
J2VwaWtfcHl0aG9uJywgJy1waCcsICc3LjAnLCAnLXRuJywgJzgnLCAnLW1hJywgJzIwMCcsICctbWV0YWxfYmluZGluZycsICctaW1hZScsICc8aW5maWxlLm1hZT4nLCAnLW9tYWUnLCAnPG91dGZpbGUubWFlPic=

> <r_lp_tautomer_probability>
1

> <r_epik_Ionization_Penalty>
6.6993

> <r_epik_Ionization_Penalty_Charging>
6.6993

> <r_epik_Ionization_Penalty_Neutral>
6.01698e-06

> <r_epik_State_Penalty>
6.69929

> <r_epik_Charging_Adjusted_Penalty>
13.3986

> <i_epik_Tot_Q>
-1

> <i_epik_Tot_abs_Q>
1

> <r_epik_Metal_State_Penalty>
2.62798

> <b_epik_Metal_Only>
1

> <s_epik_Chemistry_Notes>
This compound contains an acetal/aminal-like group ( X-CH(R)-Y where X, Y are N, S, or O) that may be acid/base labile, releasing an aldehyde.

> <s_lp_Force_Field>
OPLS_2005

> <r_lp_Energy>
51.4861

> <b_lp_Chiralities_Consistent>
1

> <s_lp_Variant>
AV-unprocessed.smi:160-29

> <Gold.Version>
5.8.1

> <Gold.Id.Protein>
6NUR|6NUR_protein|mol2

> <Gold.PLP.Fitness>
44.4749

> <Gold.PLP.PLP>
-21.4685

> <Gold.PLP.part.hbond>
-8.4930

> <Gold.PLP.part.metal>
0.0000

> <Gold.PLP.part.buried>
-0.1889

> <Gold.PLP.part.nonpolar>
-14.4265

> <Gold.PLP.part.repulsive>
0.2859

> <Gold.PLP.ligand.clash>
0.0000

> <Gold.PLP.ligand.torsion>
0.8025

> <Gold.PLP.Chemscore.Hbond>
7.1216

> <Gold.PLP.Chemscore.CHOScore>
1.0790

> <Gold.PLP.Chemscore.Metal>
0.0000

> <Gold.Chemscore.Hbonds>
donor molecule, donor type, donor heavy atom, donor atom, acceptor molecule, acceptor atom, score
      L1  H    12    26       P1  7948  0.75
      L1  H    14    27       P1  7957  1.00
      P1  H  7954  7966       L1    12  1.00
      P1  H  7997  8008       L1     1  0.91
      P1  H  8011  8017       L1    14  0.35
      P1  H 10752 10763       L1     3  0.43
      P1  H 10752 10765       L1     5  0.70
      L1  C     6    23       P1  7948  0.71
      L1  C     6    23       P1  7949  0.38

> <Gold.PLP.Chemscore.Internal.Correction>
0.0097

> <Gold.Rescore>
     Score         DG    S(hbond)    S(metal)    S(lipo)     H(rot)  DE(clash)    DE(int)     intcor
      9.67     -13.36       4.51        0.00      27.06       4.04       1.52       2.18       ----

> <Gold.Chemscore.Fitness>
9.6676

> <Gold.Chemscore.DG>
-13.3644

> <Gold.Chemscore.ZeroCoef>
-5.4800

> <Gold.Chemscore.Hbond>
4.5093

> <Gold.Chemscore.Metal>
0.0000

> <Gold.Chemscore.Lipo>
27.0626

> <Gold.Chemscore.Internal_Hbond>
0.0000

> <Gold.Chemscore.DEClash>
1.5214

> <Gold.Chemscore.DEInternal>
2.1755

> <Gold.Chemscore.Rot>
4.0403

> <Gold.Chemscore.Internal.Correction>
   9.000000E+99

> <Gold.Chemscore.Hbonds>
donor molecule, donor type, donor heavy atom, donor atom, acceptor molecule, acceptor atom, score
      L1  H    12    26       P1  7948  0.74
      L1  H    14    27       P1  7957  0.98
      P1  H  7954  7966       L1    12  0.23
      P1  H  7997  8008       L1     1  0.09
      P1  H  8011  8017       L1    14  0.01
      P1  H 10752 10763       L1     3  0.43
      P1  H 10752 10765       L1     5  0.68

> <Gold.Chemscore.Hbond.Weighted>
-15.0612

> <Gold.Chemscore.Metal.Weighted>
-0.0000

> <Gold.Chemscore.Lipo.Weighted>
-3.1663

> <Gold.Chemscore.Internal_Hbond.Weighted>
0.0000

> <Gold.Chemscore.DEClash.Weighted>
1.5214

> <Gold.Chemscore.DEInternal.Weighted>
2.1755

> <Gold.Chemscore.Rot.Weighted>
10.3431

> <Gold.Chemscore.Internal.Correction.Weighted>
   9.000000E+99

> <Gold.Protein.RotatedTorsions>
[ 6907 6896 6895 6894 ] final  103.47 input  -60.11 | X-H torsion
[ 7974 7965 7964 7962 ] final  -25.66 input  175.53 | X-H torsion
[ 8008 7997 7996 7995 ] final  -79.03 input   59.86 | X-H torsion
[ 10167 10162 10161 10158 ] final  -88.14 input  -65.29 | X-H torsion
[ 10718 10713 10712 10709 ] final   30.05 input   66.30 | X-H torsion
[ 10763 10752 10751 10750 ] final  154.08 input  -60.55 | X-H torsion
[ 11005 11000 10999 10996 ] final -108.18 input  -57.11 | X-H torsion

> <Gold.Protein.ActiveResidues>
 VAL166  LYS551  ARG553  GLY616  TRP617  ASP618  TYR619  PRO620  LYS621  CYS622 
 ASP623  PHE694  ASN695  SER759  ASP760  ASP761  ALA762  ILE779  LEU786  VAL792 
 PHE793  MET794  SER795  GLU796  ALA797  LYS798  CYS799  TRP800  GLU811  SER814 

> <Gold.Protein.RotatedAtoms>
  152.5294  133.9821  159.7811 H   0  0  0  0  0  0  0  0  0  0  0  0  # atno 6907 bound_to 6896
  151.0073  133.5991  159.2694 H   0  0  0  0  0  0  0  0  0  0  0  0  # atno 6908 bound_to 6896
  151.3078  135.0792  159.9315 H   0  0  0  0  0  0  0  0  0  0  0  0  # atno 6909 bound_to 6896
  146.1477  140.4915  142.8625 H   0  0  0  0  0  0  0  0  0  0  0  0  # atno 7974 bound_to 7965
  154.5746  140.0685  156.9014 H   0  0  0  0  0  0  0  0  0  0  0  0  # atno 8008 bound_to 7997
  155.2573  140.3356  155.4258 H   0  0  0  0  0  0  0  0  0  0  0  0  # atno 8009 bound_to 7997
  156.2144  140.1772  156.7608 H   0  0  0  0  0  0  0  0  0  0  0  0  # atno 8010 bound_to 7997
  140.3775  143.2764  151.9424 H   0  0  0  0  0  0  0  0  0  0  0  0  # atno 10167 bound_to 10162
  157.2545  130.7131  149.6422 H   0  0  0  0  0  0  0  0  0  0  0  0  # atno 10718 bound_to 10713
  154.1466  135.2817  155.3146 H   0  0  0  0  0  0  0  0  0  0  0  0  # atno 10763 bound_to 10752
  154.6248  135.5455  153.7618 H   0  0  0  0  0  0  0  0  0  0  0  0  # atno 10764 bound_to 10752
  153.0234  135.6448  154.1611 H   0  0  0  0  0  0  0  0  0  0  0  0  # atno 10765 bound_to 10752
  141.0915  133.9046  157.2064 H   0  0  0  0  0  0  0  0  0  0  0  0  # atno 11005 bound_to 11000
  144.7866  140.5948  143.6570 LP  0  0  0  0  0  0  0  0  0  0  0  0  # atno 17320 bound_to 7965
  145.4899  139.1489  143.3715 LP  0  0  0  0  0  0  0  0  0  0  0  0  # atno 17321 bound_to 7965
  139.4798  144.5849  151.7870 LP  0  0  0  0  0  0  0  0  0  0  0  0  # atno 17342 bound_to 10162
  140.4971  144.1225  150.5962 LP  0  0  0  0  0  0  0  0  0  0  0  0  # atno 17343 bound_to 10162
  155.9665  130.4417  150.5351 LP  0  0  0  0  0  0  0  0  0  0  0  0  # atno 17370 bound_to 10713
  157.3242  131.0687  151.1909 LP  0  0  0  0  0  0  0  0  0  0  0  0  # atno 17371 bound_to 10713
  139.9742  135.0119  156.9589 LP  0  0  0  0  0  0  0  0  0  0  0  0  # atno 17394 bound_to 11000
  140.5241  134.0879  155.7299 LP  0  0  0  0  0  0  0  0  0  0  0  0  # atno 17395 bound_to 11000

$$$$
