AV-unprocessed.smi:1109|AV-procd|sdf|4789|dock9
  -GOLD-   22720 3333D 1   1.00000     0.00000
 Structure written by MMmdl.
 45 46  0  0  0  0  0  0  0  0  1 V2000
  146.1549  134.2197  161.3206 C   0  0  0  0  0  0  0  0  0  0  0  0
  146.7151  135.4409  160.8730 O   0  0  0  0  0  0  0  0  0  0  0  0
  146.8963  135.4741  159.4660 C   0  0  0  0  0  0  0  0  0  0  0  0
  147.8379  134.3353  159.0441 C   0  0  0  0  0  0  0  0  0  0  0  0
  148.5318  134.6433  157.7892 N   0  0  0  0  0  0  0  0  0  0  0  0
  148.1646  135.8539  157.2336 N   0  0  0  0  0  0  0  0  0  0  0  0
  148.6856  136.2546  156.1221 C   0  0  0  0  0  0  0  0  0  0  0  0
  148.3519  137.5771  155.5010 C   0  0  0  0  0  0  0  0  0  0  0  0
  147.1631  137.8331  155.2997 O   0  0  0  0  0  0  0  0  0  0  0  0
  149.3469  138.4341  155.1060 N   0  0  0  0  0  0  0  0  0  0  0  0
  150.7139  138.4494  155.6767 C   0  0  0  0  0  0  0  0  0  0  0  0
  151.0742  139.7045  156.4940 C   0  0  0  0  0  0  0  0  0  0  0  0
  150.2635  140.0845  157.4872 N   0  0  0  0  0  0  0  0  0  0  0  0
  152.0895  140.3369  156.2149 O   0  0  0  0  0  0  0  0  0  0  0  0
  149.0774  139.5865  154.2087 C   0  0  0  0  0  0  0  0  0  0  0  0
  148.6784  140.8801  154.9548 C   0  0  0  0  0  0  0  0  0  0  0  0
  147.2939  141.2693  154.4276 C   0  0  0  0  0  0  0  0  0  0  0  0
  147.2215  140.6579  153.0304 C   0  0  0  0  0  0  0  0  0  0  0  0
  147.9817  139.3361  153.1467 C   0  0  0  0  0  0  0  0  0  0  0  0
  149.6845  135.4433  155.4449 C   0  0  0  0  0  0  0  0  0  0  0  0
  150.0527  134.2713  156.0080 C   0  0  0  0  0  0  0  0  0  0  0  0
  149.4740  133.8022  157.2681 C   0  0  0  0  0  0  0  0  0  0  0  0
  149.8057  132.7492  157.8117 O   0  0  0  0  0  0  0  0  0  0  0  0
  146.0385  134.2452  162.4040 H   0  0  0  0  0  0  0  0  0  0  0  0
  146.7992  133.3759  161.0708 H   0  0  0  0  0  0  0  0  0  0  0  0
  145.1714  134.0523  160.8800 H   0  0  0  0  0  0  0  0  0  0  0  0
  145.9371  135.3887  158.9530 H   0  0  0  0  0  0  0  0  0  0  0  0
  147.3332  136.4318  159.1799 H   0  0  0  0  0  0  0  0  0  0  0  0
  148.5611  134.1432  159.8385 H   0  0  0  0  0  0  0  0  0  0  0  0
  147.2707  133.4080  158.9432 H   0  0  0  0  0  0  0  0  0  0  0  0
  150.8319  137.5865  156.3340 H   0  0  0  0  0  0  0  0  0  0  0  0
  151.4744  138.2915  154.9112 H   0  0  0  0  0  0  0  0  0  0  0  0
  150.4875  140.9015  158.0364 H   0  0  0  0  0  0  0  0  0  0  0  0
  149.4317  139.5487  157.6881 H   0  0  0  0  0  0  0  0  0  0  0  0
  149.9842  139.8216  153.6484 H   0  0  0  0  0  0  0  0  0  0  0  0
  148.6807  140.7757  156.0403 H   0  0  0  0  0  0  0  0  0  0  0  0
  149.3927  141.6688  154.7155 H   0  0  0  0  0  0  0  0  0  0  0  0
  146.5204  140.8305  155.0588 H   0  0  0  0  0  0  0  0  0  0  0  0
  147.1383  142.3483  154.4200 H   0  0  0  0  0  0  0  0  0  0  0  0
  146.1967  140.5229  152.6838 H   0  0  0  0  0  0  0  0  0  0  0  0
  147.7300  141.3108  152.3200 H   0  0  0  0  0  0  0  0  0  0  0  0
  148.4051  139.0273  152.1905 H   0  0  0  0  0  0  0  0  0  0  0  0
  147.2855  138.5532  153.4455 H   0  0  0  0  0  0  0  0  0  0  0  0
  150.1232  135.7629  154.5104 H   0  0  0  0  0  0  0  0  0  0  0  0
  150.7933  133.6598  155.5139 H   0  0  0  0  0  0  0  0  0  0  0  0
  1  2  1  0  0  0  0
  1 24  1  0  0  0  0
  1 25  1  0  0  0  0
  1 26  1  0  0  0  0
  2  3  1  0  0  0  0
  3  4  1  0  0  0  0
  3 27  1  0  0  0  0
  3 28  1  0  0  0  0
  4  5  1  0  0  0  0
  4 29  1  0  0  0  0
  4 30  1  0  0  0  0
  5 22  1  0  0  0  0
  5  6  1  0  0  0  0
  6  7  2  0  0  0  0
  7  8  1  0  0  0  0
  7 20  1  0  0  0  0
  8  9  2  0  0  0  0
  8 10  1  0  0  0  0
 10 11  1  0  0  0  0
 10 15  1  0  0  0  0
 11 12  1  0  0  0  0
 11 31  1  0  0  0  0
 11 32  1  0  0  0  0
 12 13  1  0  0  0  0
 12 14  2  0  0  0  0
 13 33  1  0  0  0  0
 13 34  1  0  0  0  0
 15 19  1  0  0  0  0
 15 16  1  0  0  0  0
 15 35  1  0  0  0  0
 16 17  1  0  0  0  0
 16 36  1  0  0  0  0
 16 37  1  0  0  0  0
 17 18  1  0  0  0  0
 17 38  1  0  0  0  0
 17 39  1  0  0  0  0
 18 19  1  0  0  0  0
 18 40  1  0  0  0  0
 18 41  1  0  0  0  0
 19 42  1  0  0  0  0
 19 43  1  0  0  0  0
 20 21  2  0  0  0  0
 20 44  1  0  0  0  0
 21 22  1  0  0  0  0
 21 45  1  0  0  0  0
 22 23  2  0  0  0  0
M  END
> <s_m_source_file>
AV-unprocessed.smi

> <i_m_source_file_index>
1109

> <i_lp_mmshare_version>
43012

> <i_f3d_flags>
0

> <s_epik_input>
W0NIM11PW0NIMl1bQ0gyXW4xbmMoW2NIXVtjSF1jMT1PKUMoPU8pTihbQ0gyXUMoPU8pW05IMl0pW0NIXTJbQ0gyXVtDSDJdW0NIMl1bQ0gyXTI=

> <s_epik_cmdline>
J2VwaWtfcHl0aG9uJywgJy1waCcsICc3LjAnLCAnLXRuJywgJzgnLCAnLW1hJywgJzIwMCcsICctbWV0YWxfYmluZGluZycsICctaW1hZScsICc8aW5maWxlLm1hZT4nLCAnLW9tYWUnLCAnPG91dGZpbGUubWFlPic=

> <r_lp_tautomer_probability>
1

> <r_epik_Ionization_Penalty>
6.63696e-08

> <r_epik_Ionization_Penalty_Charging>
1.13312e-09

> <r_epik_Ionization_Penalty_Neutral>
6.52365e-08

> <r_epik_State_Penalty>
-0

> <r_epik_Charging_Adjusted_Penalty>
1.13312e-09

> <i_epik_Tot_Q>
0

> <i_epik_Tot_abs_Q>
0

> <r_epik_Metal_State_Penalty>
-0

> <b_epik_Metal_Only>
0

> <s_lp_Force_Field>
OPLS_2005

> <r_lp_Energy>
53.0262

> <b_lp_Chiralities_Consistent>
1

> <s_lp_Variant>
AV-unprocessed.smi:1109-1

> <Gold.Version>
5.8.1

> <Gold.Id.Protein>
6NUR|6NUR_protein|mol2

> <Gold.PLP.Fitness>
39.1774

> <Gold.PLP.PLP>
-32.1767

> <Gold.PLP.part.hbond>
-3.8997

> <Gold.PLP.part.metal>
0.0000

> <Gold.PLP.part.buried>
-2.2145

> <Gold.PLP.part.nonpolar>
-26.7988

> <Gold.PLP.part.repulsive>
0.1100

> <Gold.PLP.ligand.clash>
0.0000

> <Gold.PLP.ligand.torsion>
1.9885

> <Gold.PLP.Chemscore.Hbond>
3.4863

> <Gold.PLP.Chemscore.CHOScore>
0.0000

> <Gold.PLP.Chemscore.Metal>
0.0000

> <Gold.Chemscore.Hbonds>
donor molecule, donor type, donor heavy atom, donor atom, acceptor molecule, acceptor atom, score
      P1  H  6896  6907       L1    23  0.80
      P1  H  7997  8008       L1    14  0.24

> <Gold.PLP.Chemscore.Internal.Correction>
0.5189

> <Gold.Rescore>
     Score         DG    S(hbond)    S(metal)    S(lipo)     H(rot)  DE(clash)    DE(int)     intcor
      8.18     -13.60       1.96        0.00      70.46       2.61       2.69       2.73       ----

> <Gold.Chemscore.Fitness>
8.1802

> <Gold.Chemscore.DG>
-13.6049

> <Gold.Chemscore.ZeroCoef>
-5.4800

> <Gold.Chemscore.Hbond>
1.9615

> <Gold.Chemscore.Metal>
0.0000

> <Gold.Chemscore.Lipo>
70.4636

> <Gold.Chemscore.Internal_Hbond>
0.0000

> <Gold.Chemscore.DEClash>
2.6900

> <Gold.Chemscore.DEInternal>
2.7347

> <Gold.Chemscore.Rot>
2.6057

> <Gold.Chemscore.Internal.Correction>
   9.000000E+99

> <Gold.Chemscore.Hbonds>
donor molecule, donor type, donor heavy atom, donor atom, acceptor molecule, acceptor atom, score
      P1  H  6896  6907       L1    23  0.11
      P1  H  7997  8008       L1    14  0.25

> <Gold.Chemscore.Hbond.Weighted>
-6.5513

> <Gold.Chemscore.Metal.Weighted>
-0.0000

> <Gold.Chemscore.Lipo.Weighted>
-8.2442

> <Gold.Chemscore.Internal_Hbond.Weighted>
0.0000

> <Gold.Chemscore.DEClash.Weighted>
2.6900

> <Gold.Chemscore.DEInternal.Weighted>
2.7347

> <Gold.Chemscore.Rot.Weighted>
6.6707

> <Gold.Chemscore.Internal.Correction.Weighted>
   9.000000E+99

> <Gold.Protein.RotatedTorsions>
[ 6907 6896 6895 6894 ] final -134.82 input  -60.11 | X-H torsion
[ 7974 7965 7964 7962 ] final  -12.99 input  175.53 | X-H torsion
[ 8008 7997 7996 7995 ] final  -22.40 input   59.86 | X-H torsion
[ 10167 10162 10161 10158 ] final -115.01 input  -65.29 | X-H torsion
[ 10718 10713 10712 10709 ] final   42.56 input   66.30 | X-H torsion
[ 10763 10752 10751 10750 ] final   37.05 input  -60.55 | X-H torsion
[ 11005 11000 10999 10996 ] final  -65.66 input  -57.11 | X-H torsion

> <Gold.Protein.ActiveResidues>
 VAL166  LYS551  ARG553  GLY616  TRP617  ASP618  TYR619  PRO620  LYS621  CYS622 
 ASP623  PHE694  ASN695  SER759  ASP760  ASP761  ALA762  ILE779  LEU786  VAL792 
 PHE793  MET794  SER795  GLU796  ALA797  LYS798  CYS799  TRP800  GLU811  SER814 

> <Gold.Protein.RotatedAtoms>
  150.9905  133.6155  159.2708 H   0  0  0  0  0  0  0  0  0  0  0  0  # atno 6907 bound_to 6896
  151.3377  135.0855  159.9370 H   0  0  0  0  0  0  0  0  0  0  0  0  # atno 6908 bound_to 6896
  152.5244  133.9522  159.7731 H   0  0  0  0  0  0  0  0  0  0  0  0  # atno 6909 bound_to 6896
  146.2131  140.3137  142.8384 H   0  0  0  0  0  0  0  0  0  0  0  0  # atno 7974 bound_to 7965
  154.4646  140.2008  156.0152 H   0  0  0  0  0  0  0  0  0  0  0  0  # atno 8008 bound_to 7997
  156.0903  140.3259  155.7779 H   0  0  0  0  0  0  0  0  0  0  0  0  # atno 8009 bound_to 7997
  155.4967  140.0550  157.2936 H   0  0  0  0  0  0  0  0  0  0  0  0  # atno 8010 bound_to 7997
  140.0948  143.4667  152.1848 H   0  0  0  0  0  0  0  0  0  0  0  0  # atno 10167 bound_to 10162
  157.4062  130.7888  149.7390 H   0  0  0  0  0  0  0  0  0  0  0  0  # atno 10718 bound_to 10713
  153.0052  135.6288  154.2084 H   0  0  0  0  0  0  0  0  0  0  0  0  # atno 10763 bound_to 10752
  154.1827  135.2812  155.3048 H   0  0  0  0  0  0  0  0  0  0  0  0  # atno 10764 bound_to 10752
  154.5822  135.5644  153.7256 H   0  0  0  0  0  0  0  0  0  0  0  0  # atno 10765 bound_to 10752
  141.1460  133.6685  156.6020 H   0  0  0  0  0  0  0  0  0  0  0  0  # atno 11005 bound_to 11000
  144.8969  140.7595  143.5891 LP  0  0  0  0  0  0  0  0  0  0  0  0  # atno 17320 bound_to 7965
  145.3062  139.1834  143.4663 LP  0  0  0  0  0  0  0  0  0  0  0  0  # atno 17321 bound_to 7965
  139.5704  144.7459  151.3906 LP  0  0  0  0  0  0  0  0  0  0  0  0  # atno 17342 bound_to 10162
  140.7009  143.7633  150.7402 LP  0  0  0  0  0  0  0  0  0  0  0  0  # atno 17343 bound_to 10162
  155.9837  130.3998  150.3350 LP  0  0  0  0  0  0  0  0  0  0  0  0  # atno 17370 bound_to 10713
  157.1483  131.0314  151.2897 LP  0  0  0  0  0  0  0  0  0  0  0  0  # atno 17371 bound_to 10713
  140.3681  134.7629  157.4580 LP  0  0  0  0  0  0  0  0  0  0  0  0  # atno 17394 bound_to 11000
  140.0732  134.5834  155.8619 LP  0  0  0  0  0  0  0  0  0  0  0  0  # atno 17395 bound_to 11000

$$$$
