AV-unprocessed.smi:21|AV-procd|sdf|124|dock2
  -GOLD-   2262015303D 1   1.00000     0.00000
 Structure written by MMmdl.
 62 65  0  0  0  0  0  0  0  0  2 V2000
  146.0129  131.8647  152.2411 C   0  0  0  0  0  0  0  0  0  0  0  0
  145.9507  132.6798  153.4006 O   0  0  0  0  0  0  0  0  0  0  0  0
  146.7126  133.8740  153.2976 C   0  0  2  0  0  0  0  0  0  0  0  0
  146.5435  134.7946  154.4998 C   0  0  0  0  0  0  0  0  0  0  0  0
  146.8966  136.1901  153.9604 C   0  0  2  0  0  0  0  0  0  0  0  0
  146.2384  137.3575  154.7452 C   0  0  0  0  0  0  0  0  0  0  0  0
  147.0395  138.5839  154.7606 N   0  0  0  0  0  0  0  0  0  0  0  0
  147.0657  139.3792  153.5353 C   0  0  0  0  0  0  0  0  0  0  0  0
  148.1200  138.6474  155.5880 C   0  0  0  0  0  0  0  0  0  0  0  0
  148.4171  137.5694  156.3637 N   0  0  0  0  0  0  0  0  0  0  0  0
  149.4250  137.6145  157.2386 C   0  0  0  0  0  0  0  0  0  0  0  0
  150.2516  138.6258  157.5047 N   0  0  0  0  0  0  0  0  0  0  0  0
  149.9766  139.7052  156.7195 C   0  0  0  0  0  0  0  0  0  0  0  0
  148.9512  139.7984  155.7349 C   0  0  0  0  0  0  0  0  0  0  0  0
  149.0018  141.0504  155.1303 N   0  0  0  0  0  0  0  0  0  0  0  0
  149.9772  141.6673  155.7385 C   0  0  0  0  0  0  0  0  0  0  0  0
  150.6035  140.9376  156.7214 N   0  0  0  0  0  0  0  0  0  0  0  0
  151.6934  141.3748  157.5735 C   0  0  0  0  0  0  0  0  0  0  0  0
  151.3055  142.5267  158.5399 C   0  0  2  0  0  0  0  0  0  0  0  0
  150.9602  143.8386  157.7883 C   0  0  0  0  0  0  0  0  0  0  0  0
  150.2891  144.7686  158.6146 O   0  0  0  0  0  0  0  0  0  0  0  0
  152.4309  142.7623  159.5811 C   0  0  2  0  0  0  0  0  0  0  0  0
  152.9372  141.5071  160.2727 C   0  0  0  0  0  0  0  0  0  0  0  0
  153.6312  142.0753  161.5036 C   0  0  0  0  0  0  0  0  0  0  0  0
  152.8513  143.2012  161.8825 O   0  0  0  0  0  0  0  0  0  0  0  0
  152.0193  143.6038  160.7981 C   0  0  0  0  0  0  0  0  0  0  0  0
  146.5866  136.1365  152.4994 N   0  3  2  0  0  0  0  0  0  0  0  0
  145.6610  137.1546  151.9484 C   0  0  0  0  0  0  0  0  0  0  0  0
  146.1890  134.7500  152.1635 C   0  0  0  0  0  0  0  0  0  0  0  0
  147.7687  133.6540  153.1305 H   0  0  0  0  0  0  0  0  0  0  0  0
  147.9796  136.3068  154.0154 H   0  0  0  0  0  0  0  0  0  0  0  0
  145.3827  130.9864  152.3803 H   0  0  0  0  0  0  0  0  0  0  0  0
  147.0278  131.5156  152.0484 H   0  0  0  0  0  0  0  0  0  0  0  0
  145.6538  132.4005  151.3617 H   0  0  0  0  0  0  0  0  0  0  0  0
  145.5019  134.7694  154.8228 H   0  0  0  0  0  0  0  0  0  0  0  0
  147.1661  134.4989  155.3444 H   0  0  0  0  0  0  0  0  0  0  0  0
  145.2916  137.6203  154.2738 H   0  0  0  0  0  0  0  0  0  0  0  0
  145.9767  137.0427  155.7520 H   0  0  0  0  0  0  0  0  0  0  0  0
  147.3335  140.4145  153.7504 H   0  0  0  0  0  0  0  0  0  0  0  0
  146.0859  139.3854  153.0572 H   0  0  0  0  0  0  0  0  0  0  0  0
  147.7865  138.9748  152.8237 H   0  0  0  0  0  0  0  0  0  0  0  0
  149.5855  136.7152  157.8150 H   0  0  0  0  0  0  0  0  0  0  0  0
  150.2577  142.6821  155.4965 H   0  0  0  0  0  0  0  0  0  0  0  0
  152.0330  140.5007  158.1288 H   0  0  0  0  0  0  0  0  0  0  0  0
  152.5271  141.6810  156.9402 H   0  0  0  0  0  0  0  0  0  0  0  0
  150.4183  142.2178  159.0953 H   0  0  0  0  0  0  0  0  0  0  0  0
  151.8601  144.3412  157.4371 H   0  0  0  0  0  0  0  0  0  0  0  0
  150.3547  143.6310  156.9056 H   0  0  0  0  0  0  0  0  0  0  0  0
  149.5195  145.0733  158.1585 H   0  0  0  0  0  0  0  0  0  0  0  0
  153.2781  143.2485  159.0942 H   0  0  0  0  0  0  0  0  0  0  0  0
  152.1027  140.8714  160.5729 H   0  0  0  0  0  0  0  0  0  0  0  0
  153.6143  140.9161  159.6555 H   0  0  0  0  0  0  0  0  0  0  0  0
  153.7110  141.3504  162.3140 H   0  0  0  0  0  0  0  0  0  0  0  0
  154.6364  142.4149  161.2506 H   0  0  0  0  0  0  0  0  0  0  0  0
  152.1215  144.6737  160.6153 H   0  0  0  0  0  0  0  0  0  0  0  0
  150.9829  143.4078  161.0761 H   0  0  0  0  0  0  0  0  0  0  0  0
  144.6791  137.1006  152.4202 H   0  0  0  0  0  0  0  0  0  0  0  0
  145.5259  136.9953  150.8781 H   0  0  0  0  0  0  0  0  0  0  0  0
  146.0602  138.1607  152.0756 H   0  0  0  0  0  0  0  0  0  0  0  0
  146.5711  134.4459  151.1886 H   0  0  0  0  0  0  0  0  0  0  0  0
  145.0998  134.6824  152.1300 H   0  0  0  0  0  0  0  0  0  0  0  0
  147.4723  136.2888  152.0377 H   0  0  0  0  0  0  0  0  0  0  0  0
  1  2  1  0  0  0  0
  1 32  1  0  0  0  0
  1 33  1  0  0  0  0
  1 34  1  0  0  0  0
  2  3  1  0  0  0  0
  3 30  1  0  0  0  0
  3 29  1  0  0  0  0
  3  4  1  0  0  0  0
  4  5  1  0  0  0  0
  4 35  1  0  0  0  0
  4 36  1  0  0  0  0
  5 31  1  0  0  0  0
  5  6  1  0  0  0  0
  5 27  1  0  0  0  0
  6  7  1  0  0  0  0
  6 37  1  0  0  0  0
  6 38  1  0  0  0  0
  7  8  1  0  0  0  0
  7  9  1  0  0  0  0
  8 39  1  0  0  0  0
  8 40  1  0  0  0  0
  8 41  1  0  0  0  0
  9 14  1  0  0  0  0
  9 10  2  0  0  0  0
 10 11  1  0  0  0  0
 11 12  2  0  0  0  0
 11 42  1  0  0  0  0
 12 13  1  0  0  0  0
 13 17  1  0  0  0  0
 13 14  2  0  0  0  0
 14 15  1  0  0  0  0
 15 16  2  0  0  0  0
 16 17  1  0  0  0  0
 16 43  1  0  0  0  0
 17 18  1  0  0  0  0
 18 19  1  0  0  0  0
 18 44  1  0  0  0  0
 18 45  1  0  0  0  0
 19 20  1  0  0  0  0
 19 22  1  0  0  0  0
 19 46  1  0  0  0  0
 20 21  1  0  0  0  0
 20 47  1  0  0  0  0
 20 48  1  0  0  0  0
 21 49  1  0  0  0  0
 22 26  1  0  0  0  0
 22 23  1  0  0  0  0
 22 50  1  0  0  0  0
 23 24  1  0  0  0  0
 23 51  1  0  0  0  0
 23 52  1  0  0  0  0
 24 25  1  0  0  0  0
 24 53  1  0  0  0  0
 24 54  1  0  0  0  0
 25 26  1  0  0  0  0
 26 55  1  0  0  0  0
 26 56  1  0  0  0  0
 27 28  1  0  0  0  0
 27 29  1  0  0  0  0
 27 62  1  0  0  0  0
 28 57  1  0  0  0  0
 28 58  1  0  0  0  0
 28 59  1  0  0  0  0
 29 60  1  0  0  0  0
 29 61  1  0  0  0  0
M  CHG  1  27   1
M  END
> <s_m_source_file>
AV-unprocessed.smi

> <i_m_source_file_index>
21

> <i_lp_mmshare_version>
43012

> <i_f3d_flags>
0

> <s_epik_input>
W0NIM11PW0NASF0xW0NIMl1bQ0BIXShOKFtDSDNdKVtDSDJdMSlbQ0gyXU4oW0NIM10pYyhuW2NIXW4yKWMoYzIzKW5bY0hdbjNbQ0gyXVtDQEhdKFtDSDJdW09IXSlbQ0BASF00W0NIMl1bQ0gyXU9bQ0gyXTQ=

> <s_epik_cmdline>
J2VwaWtfcHl0aG9uJywgJy1waCcsICc3LjAnLCAnLXRuJywgJzgnLCAnLW1hJywgJzIwMCcsICctbWV0YWxfYmluZGluZycsICctaW1hZScsICc8aW5maWxlLm1hZT4nLCAnLW9tYWUnLCAnPG91dGZpbGUubWFlPic=

> <r_lp_tautomer_probability>
1

> <r_epik_Ionization_Penalty>
0.0157465

> <r_epik_Ionization_Penalty_Charging>
0.015354

> <r_epik_Ionization_Penalty_Neutral>
0.000392529

> <r_epik_State_Penalty>
0.0120612

> <r_epik_Charging_Adjusted_Penalty>
0.0274152

> <i_epik_Tot_Q>
1

> <i_epik_Tot_abs_Q>
1

> <r_epik_Metal_State_Penalty>
0.0121253

> <b_epik_Metal_Only>
0

> <s_lp_Force_Field>
OPLS_2005

> <r_lp_Energy>
59.9963

> <b_lp_Chiralities_Consistent>
1

> <s_lp_Variant>
AV-unprocessed.smi:21-4

> <Gold.Version>
5.8.1

> <Gold.Id.Protein>
6NUR|6NUR_protein|mol2

> <Gold.PLP.Fitness>
48.0577

> <Gold.PLP.PLP>
-36.7101

> <Gold.PLP.part.hbond>
-2.4558

> <Gold.PLP.part.metal>
0.0000

> <Gold.PLP.part.buried>
-3.2904

> <Gold.PLP.part.nonpolar>
-31.7744

> <Gold.PLP.part.repulsive>
0.3741

> <Gold.PLP.ligand.clash>
0.0000

> <Gold.PLP.ligand.torsion>
1.0367

> <Gold.PLP.Chemscore.Hbond>
3.0000

> <Gold.PLP.Chemscore.CHOScore>
0.9713

> <Gold.PLP.Chemscore.Metal>
0.0000

> <Gold.Chemscore.Hbonds>
donor molecule, donor type, donor heavy atom, donor atom, acceptor molecule, acceptor atom, score
      L1  H    21    49       P1  8029  0.99
      L1  H    27    62       P1  7948  1.72
      L1  C    16    43       P1  8028  0.97

> <Gold.PLP.Chemscore.Internal.Correction>
1.5071

> <Gold.Rescore>
     Score         DG    S(hbond)    S(metal)    S(lipo)     H(rot)  DE(clash)    DE(int)     intcor
     12.77     -15.28       1.84        0.00      98.57       3.08       0.25       2.26       ----

> <Gold.Chemscore.Fitness>
12.7686

> <Gold.Chemscore.DG>
-15.2841

> <Gold.Chemscore.ZeroCoef>
-5.4800

> <Gold.Chemscore.Hbond>
1.8401

> <Gold.Chemscore.Metal>
0.0000

> <Gold.Chemscore.Lipo>
98.5653

> <Gold.Chemscore.Internal_Hbond>
0.0000

> <Gold.Chemscore.DEClash>
0.2521

> <Gold.Chemscore.DEInternal>
2.2633

> <Gold.Chemscore.Rot>
3.0758

> <Gold.Chemscore.Internal.Correction>
   9.000000E+99

> <Gold.Chemscore.Hbonds>
donor molecule, donor type, donor heavy atom, donor atom, acceptor molecule, acceptor atom, score
      L1  H    21    49       P1  8029  0.28
      L1  H    27    62       P1  7948  0.83

> <Gold.Chemscore.Hbond.Weighted>
-6.1461

> <Gold.Chemscore.Metal.Weighted>
-0.0000

> <Gold.Chemscore.Lipo.Weighted>
-11.5321

> <Gold.Chemscore.Internal_Hbond.Weighted>
0.0000

> <Gold.Chemscore.DEClash.Weighted>
0.2521

> <Gold.Chemscore.DEInternal.Weighted>
2.2633

> <Gold.Chemscore.Rot.Weighted>
7.8741

> <Gold.Chemscore.Internal.Correction.Weighted>
   9.000000E+99

> <Gold.Protein.RotatedTorsions>
[ 6907 6896 6895 6894 ] final  176.29 input  -60.11 | X-H torsion
[ 7974 7965 7964 7962 ] final  112.99 input  175.53 | X-H torsion
[ 8008 7997 7996 7995 ] final  129.23 input   59.86 | X-H torsion
[ 10167 10162 10161 10158 ] final -106.33 input  -65.29 | X-H torsion
[ 10718 10713 10712 10709 ] final -123.50 input   66.30 | X-H torsion
[ 10763 10752 10751 10750 ] final  157.06 input  -60.55 | X-H torsion
[ 11005 11000 10999 10996 ] final  125.56 input  -57.11 | X-H torsion

> <Gold.Protein.ActiveResidues>
 VAL166  LYS551  ARG553  GLY616  TRP617  ASP618  TYR619  PRO620  LYS621  CYS622 
 ASP623  PHE694  ASN695  SER759  ASP760  ASP761  ALA762  ILE779  LEU786  VAL792 
 PHE793  MET794  SER795  GLU796  ALA797  LYS798  CYS799  TRP800  GLU811  SER814 

> <Gold.Protein.RotatedAtoms>
  151.7226  133.3315  159.3318 H   0  0  0  0  0  0  0  0  0  0  0  0  # atno 6907 bound_to 6896
  150.7646  134.6435  159.6259 H   0  0  0  0  0  0  0  0  0  0  0  0  # atno 6908 bound_to 6896
  152.3643  134.6830  160.0249 H   0  0  0  0  0  0  0  0  0  0  0  0  # atno 6909 bound_to 6896
  145.2225  139.2855  143.4210 H   0  0  0  0  0  0  0  0  0  0  0  0  # atno 7974 bound_to 7965
  156.2932  140.2625  156.2565 H   0  0  0  0  0  0  0  0  0  0  0  0  # atno 8008 bound_to 7997
  154.9831  140.0389  157.2305 H   0  0  0  0  0  0  0  0  0  0  0  0  # atno 8009 bound_to 7997
  154.7754  140.2785  155.6110 H   0  0  0  0  0  0  0  0  0  0  0  0  # atno 8010 bound_to 7997
  140.1889  143.3908  152.1222 H   0  0  0  0  0  0  0  0  0  0  0  0  # atno 10167 bound_to 10162
  156.1507  130.6532  150.9909 H   0  0  0  0  0  0  0  0  0  0  0  0  # atno 10718 bound_to 10713
  154.1943  135.2793  155.3012 H   0  0  0  0  0  0  0  0  0  0  0  0  # atno 10763 bound_to 10752
  154.5904  135.5561  153.7276 H   0  0  0  0  0  0  0  0  0  0  0  0  # atno 10764 bound_to 10752
  153.0104  135.6367  154.2081 H   0  0  0  0  0  0  0  0  0  0  0  0  # atno 10765 bound_to 10752
  139.9412  134.9635  156.8576 H   0  0  0  0  0  0  0  0  0  0  0  0  # atno 11005 bound_to 11000
  146.3372  140.2536  142.8599 LP  0  0  0  0  0  0  0  0  0  0  0  0  # atno 17320 bound_to 7965
  144.9752  140.8407  143.5431 LP  0  0  0  0  0  0  0  0  0  0  0  0  # atno 17321 bound_to 7965
  139.5264  144.7107  151.5213 LP  0  0  0  0  0  0  0  0  0  0  0  0  # atno 17342 bound_to 10162
  140.6469  143.8776  150.6746 LP  0  0  0  0  0  0  0  0  0  0  0  0  # atno 17343 bound_to 10162
  157.6654  131.0872  150.7739 LP  0  0  0  0  0  0  0  0  0  0  0  0  # atno 17370 bound_to 10713
  156.7808  130.4858  149.5401 LP  0  0  0  0  0  0  0  0  0  0  0  0  # atno 17371 bound_to 10713
  140.5946  134.0229  155.7513 LP  0  0  0  0  0  0  0  0  0  0  0  0  # atno 17394 bound_to 11000
  141.1047  133.9712  157.3017 LP  0  0  0  0  0  0  0  0  0  0  0  0  # atno 17395 bound_to 11000

$$$$
