AV-unprocessed.smi:3249|AV-procd|sdf|12420|dock6
  -GOLD-   2272018303D 1   1.00000     0.00000
 Structure written by MMmdl.
 44 45  0  0  0  0  0  0  0  0  2 V2000
  150.7756  142.2608  158.2040 C   0  0  0  0  0  0  0  0  0  0  0  0
  150.6998  141.4423  156.9475 C   0  0  0  0  0  0  0  0  0  0  0  0
  150.2508  141.8546  155.6608 C   0  0  0  0  0  0  0  0  0  0  0  0
  150.3086  140.8859  154.7622 N   0  0  0  0  0  0  0  0  0  0  0  0
  150.7971  139.8225  155.4387 N   0  0  0  0  0  0  0  0  0  0  0  0
  150.9953  138.5485  154.7589 C   0  0  1  0  0  0  0  0  0  0  0  0
  152.4607  138.0970  154.9082 C   0  0  0  0  0  0  0  0  0  0  0  0
  149.9806  137.4709  155.2284 C   0  0  1  0  0  0  0  0  0  0  0  0
  148.5179  137.8482  154.9314 C   0  0  0  0  0  0  0  0  0  0  0  0
  150.2766  136.1695  154.5882 N   0  3  0  0  0  0  0  0  0  0  0  0
  150.1627  134.9975  155.4812 C   0  0  0  0  0  0  0  0  0  0  0  0
  149.7269  133.7413  154.7120 C   0  0  2  0  0  0  0  0  0  0  0  0
  148.2644  133.8155  154.2255 C   0  0  0  0  0  0  0  0  0  0  0  0
  147.8518  132.5005  153.5540 C   0  0  0  0  0  0  0  0  0  0  0  0
  148.1426  131.3260  154.4939 C   0  0  0  0  0  0  0  0  0  0  0  0
  149.6017  131.3751  154.9742 C   0  0  0  0  0  0  0  0  0  0  0  0
  149.8668  132.6303  155.5938 O   0  0  0  0  0  0  0  0  0  0  0  0
  151.0381  140.1320  156.7612 C   0  0  0  0  0  0  0  0  0  0  0  0
  150.5840  143.3168  158.0126 H   0  0  0  0  0  0  0  0  0  0  0  0
  151.7586  142.1927  158.6703 H   0  0  0  0  0  0  0  0  0  0  0  0
  150.0451  141.9308  158.9426 H   0  0  0  0  0  0  0  0  0  0  0  0
  149.8858  142.8244  155.3556 H   0  0  0  0  0  0  0  0  0  0  0  0
  150.8177  138.7337  153.6982 H   0  0  0  0  0  0  0  0  0  0  0  0
  152.6763  137.2247  154.2914 H   0  0  0  0  0  0  0  0  0  0  0  0
  152.6974  137.8400  155.9411 H   0  0  0  0  0  0  0  0  0  0  0  0
  153.1460  138.8865  154.5980 H   0  0  0  0  0  0  0  0  0  0  0  0
  150.0679  137.3624  156.3112 H   0  0  0  0  0  0  0  0  0  0  0  0
  148.2140  138.7492  155.4646 H   0  0  0  0  0  0  0  0  0  0  0  0
  147.8392  137.0525  155.2401 H   0  0  0  0  0  0  0  0  0  0  0  0
  148.3621  138.0235  153.8664 H   0  0  0  0  0  0  0  0  0  0  0  0
  149.6331  136.0422  153.8200 H   0  0  0  0  0  0  0  0  0  0  0  0
  151.1341  134.8184  155.9438 H   0  0  0  0  0  0  0  0  0  0  0  0
  149.4611  135.2135  156.2880 H   0  0  0  0  0  0  0  0  0  0  0  0
  150.3966  133.5971  153.8619 H   0  0  0  0  0  0  0  0  0  0  0  0
  147.6041  134.0142  155.0707 H   0  0  0  0  0  0  0  0  0  0  0  0
  148.1346  134.6419  153.5264 H   0  0  0  0  0  0  0  0  0  0  0  0
  146.7944  132.5227  153.2888 H   0  0  0  0  0  0  0  0  0  0  0  0
  148.4066  132.3724  152.6238 H   0  0  0  0  0  0  0  0  0  0  0  0
  147.4742  131.3706  155.3547 H   0  0  0  0  0  0  0  0  0  0  0  0
  147.9416  130.3803  153.9899 H   0  0  0  0  0  0  0  0  0  0  0  0
  149.7849  130.5801  155.6972 H   0  0  0  0  0  0  0  0  0  0  0  0
  150.2909  131.2143  154.1437 H   0  0  0  0  0  0  0  0  0  0  0  0
  151.4276  139.4018  157.4554 H   0  0  0  0  0  0  0  0  0  0  0  0
  151.2153  136.2044  154.2169 H   0  0  0  0  0  0  0  0  0  0  0  0
  1  2  1  0  0  0  0
  1 19  1  0  0  0  0
  1 20  1  0  0  0  0
  1 21  1  0  0  0  0
  2 18  2  0  0  0  0
  2  3  1  0  0  0  0
  3  4  2  0  0  0  0
  3 22  1  0  0  0  0
  4  5  1  0  0  0  0
  5  6  1  0  0  0  0
  5 18  1  0  0  0  0
  6  7  1  0  0  0  0
  6  8  1  0  0  0  0
  6 23  1  0  0  0  0
  7 24  1  0  0  0  0
  7 25  1  0  0  0  0
  7 26  1  0  0  0  0
  8  9  1  0  0  0  0
  8 10  1  0  0  0  0
  8 27  1  0  0  0  0
  9 28  1  0  0  0  0
  9 29  1  0  0  0  0
  9 30  1  0  0  0  0
 10 11  1  0  0  0  0
 10 31  1  0  0  0  0
 10 44  1  0  0  0  0
 11 12  1  0  0  0  0
 11 32  1  0  0  0  0
 11 33  1  0  0  0  0
 12 17  1  0  0  0  0
 12 13  1  0  0  0  0
 12 34  1  0  0  0  0
 13 14  1  0  0  0  0
 13 35  1  0  0  0  0
 13 36  1  0  0  0  0
 14 15  1  0  0  0  0
 14 37  1  0  0  0  0
 14 38  1  0  0  0  0
 15 16  1  0  0  0  0
 15 39  1  0  0  0  0
 15 40  1  0  0  0  0
 16 17  1  0  0  0  0
 16 41  1  0  0  0  0
 16 42  1  0  0  0  0
 18 43  1  0  0  0  0
M  CHG  1  10   1
M  END
> <s_m_source_file>
AV-unprocessed.smi

> <i_m_source_file_index>
3249

> <i_lp_mmshare_version>
43012

> <i_f3d_flags>
0

> <s_epik_input>
W0NIM11jMVtjSF1ubihbY0hdMSlbQ0BIXShbQ0gzXSlbQ0BIXShbQ0gzXSlbTkhdW0NIMl1bQ0BASF0yW0NIMl1bQ0gyXVtDSDJdW0NIMl1PMg==

> <s_epik_cmdline>
J2VwaWtfcHl0aG9uJywgJy1waCcsICc3LjAnLCAnLXRuJywgJzgnLCAnLW1hJywgJzIwMCcsICctbWV0YWxfYmluZGluZycsICctaW1hZScsICc8aW5maWxlLm1hZT4nLCAnLW9tYWUnLCAnPG91dGZpbGUubWFlPic=

> <r_lp_tautomer_probability>
1

> <r_epik_Ionization_Penalty>
0.00659207

> <r_epik_Ionization_Penalty_Charging>
0.00656881

> <r_epik_Ionization_Penalty_Neutral>
2.32662e-05

> <r_epik_State_Penalty>
0.0048654

> <r_epik_Charging_Adjusted_Penalty>
0.0114342

> <i_epik_Tot_Q>
1

> <i_epik_Tot_abs_Q>
1

> <r_epik_Metal_State_Penalty>
-0

> <b_epik_Metal_Only>
0

> <s_lp_Force_Field>
OPLS_2005

> <r_lp_Energy>
19.2424

> <b_lp_Chiralities_Consistent>
1

> <s_lp_Variant>
AV-unprocessed.smi:3249-4

> <Gold.Version>
5.8.1

> <Gold.Id.Protein>
6NUR|6NUR_protein|mol2

> <Gold.PLP.Fitness>
42.4802

> <Gold.PLP.PLP>
-33.0849

> <Gold.PLP.part.hbond>
-3.0000

> <Gold.PLP.part.metal>
0.0000

> <Gold.PLP.part.buried>
-1.5729

> <Gold.PLP.part.nonpolar>
-28.7985

> <Gold.PLP.part.repulsive>
0.1665

> <Gold.PLP.ligand.clash>
0.0000

> <Gold.PLP.ligand.torsion>
0.9344

> <Gold.PLP.Chemscore.Hbond>
2.7200

> <Gold.PLP.Chemscore.CHOScore>
1.0000

> <Gold.PLP.Chemscore.Metal>
0.0000

> <Gold.Chemscore.Hbonds>
donor molecule, donor type, donor heavy atom, donor atom, acceptor molecule, acceptor atom, score
      L1  H    10    31       P1  7948  1.92
      P1  H  7989  7998       L1     4  0.60
      L1  C     3    22       P1  8028  1.00

> <Gold.PLP.Chemscore.Internal.Correction>
0.1040

> <Gold.Rescore>
     Score         DG    S(hbond)    S(metal)    S(lipo)     H(rot)  DE(clash)    DE(int)     intcor
     13.13     -14.22       1.06        0.00      77.96       1.53       0.18       0.91       ----

> <Gold.Chemscore.Fitness>
13.1273

> <Gold.Chemscore.DG>
-14.2193

> <Gold.Chemscore.ZeroCoef>
-5.4800

> <Gold.Chemscore.Hbond>
1.0609

> <Gold.Chemscore.Metal>
0.0000

> <Gold.Chemscore.Lipo>
77.9590

> <Gold.Chemscore.Internal_Hbond>
0.0000

> <Gold.Chemscore.DEClash>
0.1827

> <Gold.Chemscore.DEInternal>
0.9093

> <Gold.Chemscore.Rot>
1.5333

> <Gold.Chemscore.Internal.Correction>
   9.000000E+99

> <Gold.Chemscore.Hbonds>
donor molecule, donor type, donor heavy atom, donor atom, acceptor molecule, acceptor atom, score
      L1  H    10    31       P1  7948  0.35
      P1  H  7989  7998       L1     4  0.09

> <Gold.Chemscore.Hbond.Weighted>
-3.5433

> <Gold.Chemscore.Metal.Weighted>
-0.0000

> <Gold.Chemscore.Lipo.Weighted>
-9.1212

> <Gold.Chemscore.Internal_Hbond.Weighted>
0.0000

> <Gold.Chemscore.DEClash.Weighted>
0.1827

> <Gold.Chemscore.DEInternal.Weighted>
0.9093

> <Gold.Chemscore.Rot.Weighted>
3.9252

> <Gold.Chemscore.Internal.Correction.Weighted>
   9.000000E+99

> <Gold.Protein.RotatedTorsions>
[ 6907 6896 6895 6894 ] final -101.10 input  -60.11 | X-H torsion
[ 7974 7965 7964 7962 ] final  -14.92 input  175.53 | X-H torsion
[ 8008 7997 7996 7995 ] final  -19.00 input   59.86 | X-H torsion
[ 10167 10162 10161 10158 ] final   22.73 input  -65.29 | X-H torsion
[ 10718 10713 10712 10709 ] final  137.23 input   66.30 | X-H torsion
[ 10763 10752 10751 10750 ] final  169.93 input  -60.55 | X-H torsion
[ 11005 11000 10999 10996 ] final -121.71 input  -57.11 | X-H torsion

> <Gold.Protein.ActiveResidues>
 VAL166  LYS551  ARG553  GLY616  TRP617  ASP618  TYR619  PRO620  LYS621  CYS622 
 ASP623  PHE694  ASN695  SER759  ASP760  ASP761  ALA762  ILE779  LEU786  VAL792 
 PHE793  MET794  SER795  GLU796  ALA797  LYS798  CYS799  TRP800  GLU811  SER814 

> <Gold.Protein.RotatedAtoms>
  150.7141  134.0785  159.3889 H   0  0  0  0  0  0  0  0  0  0  0  0  # atno 6907 bound_to 6896
  151.8769  135.0466  160.0494 H   0  0  0  0  0  0  0  0  0  0  0  0  # atno 6908 bound_to 6896
  152.2599  133.5252  159.5412 H   0  0  0  0  0  0  0  0  0  0  0  0  # atno 6909 bound_to 6896
  146.2054  140.3417  142.8409 H   0  0  0  0  0  0  0  0  0  0  0  0  # atno 7974 bound_to 7965
  154.4867  140.2101  155.9639 H   0  0  0  0  0  0  0  0  0  0  0  0  # atno 8008 bound_to 7997
  156.1246  140.3207  155.8227 H   0  0  0  0  0  0  0  0  0  0  0  0  # atno 8009 bound_to 7997
  155.4406  140.0510  157.3001 H   0  0  0  0  0  0  0  0  0  0  0  0  # atno 8010 bound_to 7997
  140.5325  143.9816  150.6473 H   0  0  0  0  0  0  0  0  0  0  0  0  # atno 10167 bound_to 10162
  157.4383  131.1055  151.0173 H   0  0  0  0  0  0  0  0  0  0  0  0  # atno 10718 bound_to 10713
  154.3903  135.2754  155.2158 H   0  0  0  0  0  0  0  0  0  0  0  0  # atno 10763 bound_to 10752
  154.4228  135.5996  153.6023 H   0  0  0  0  0  0  0  0  0  0  0  0  # atno 10764 bound_to 10752
  152.9832  135.5976  154.4157 H   0  0  0  0  0  0  0  0  0  0  0  0  # atno 10765 bound_to 10752
  141.0050  134.0348  157.3489 H   0  0  0  0  0  0  0  0  0  0  0  0  # atno 11005 bound_to 11000
  144.8780  140.7363  143.6004 LP  0  0  0  0  0  0  0  0  0  0  0  0  # atno 17320 bound_to 7965
  145.3337  139.1752  143.4523 LP  0  0  0  0  0  0  0  0  0  0  0  0  # atno 17321 bound_to 7965
  140.3195  143.3146  152.0798 LP  0  0  0  0  0  0  0  0  0  0  0  0  # atno 17342 bound_to 10162
  139.4959  144.6583  151.6522 LP  0  0  0  0  0  0  0  0  0  0  0  0  # atno 17343 bound_to 10162
  157.1045  130.5995  149.5467 LP  0  0  0  0  0  0  0  0  0  0  0  0  # atno 17370 bound_to 10713
  155.9939  130.5001  150.7398 LP  0  0  0  0  0  0  0  0  0  0  0  0  # atno 17371 bound_to 10713
  139.9058  135.0179  156.7480 LP  0  0  0  0  0  0  0  0  0  0  0  0  # atno 17394 bound_to 11000
  140.6828  133.9459  155.7920 LP  0  0  0  0  0  0  0  0  0  0  0  0  # atno 17395 bound_to 11000

$$$$
