AV-unprocessed.smi:1209|AV-procd|sdf|5074|dock5
  -GOLD-   22720 4123D 1   1.00000     0.00000
 Structure written by MMmdl.
 49 51  0  0  0  0  0  0  0  0  2 V2000
  149.6453  132.1383  154.1742 C   0  0  0  0  0  0  0  0  0  0  0  0
  149.1971  133.5193  154.5103 C   0  0  0  0  0  0  0  0  0  0  0  0
  149.8625  134.6997  154.6825 C   0  0  0  0  0  0  0  0  0  0  0  0
  148.8284  135.6264  154.9893 C   0  0  0  0  0  0  0  0  0  0  0  0
  148.9523  137.0967  155.2801 C   0  0  0  0  0  0  0  0  0  0  0  0
  149.8522  137.7698  154.3079 N   0  3  2  0  0  0  0  0  0  0  0  0
  151.2666  137.3523  154.4566 C   0  0  0  0  0  0  0  0  0  0  0  0
  149.7072  139.2482  154.3058 C   0  0  0  0  0  0  0  0  0  0  0  0
  149.9910  139.8657  155.6893 C   0  0  2  0  0  0  0  0  0  0  0  0
  149.1187  140.9618  155.8859 O   0  0  0  0  0  0  0  0  0  0  0  0
  151.4486  140.3480  155.8149 C   0  0  0  0  0  0  0  0  0  0  0  0
  151.9087  140.3551  157.1918 N   0  0  0  0  0  0  0  0  0  0  0  0
  152.4317  139.3247  157.8841 C   0  0  0  0  0  0  0  0  0  0  0  0
  152.7949  139.5593  159.1418 N   0  0  0  0  0  0  0  0  0  0  0  0
  152.4614  140.8952  159.2852 C   0  0  0  0  0  0  0  0  0  0  0  0
  152.5942  141.7610  160.3926 C   0  0  0  0  0  0  0  0  0  0  0  0
  152.1822  143.1105  160.3110 C   0  0  0  0  0  0  0  0  0  0  0  0
  152.3468  144.0073  161.5251 C   0  0  0  0  0  0  0  0  0  0  0  0
  151.6234  143.6117  159.1077 C   0  0  0  0  0  0  0  0  0  0  0  0
  151.1727  145.0574  158.9973 C   0  0  0  0  0  0  0  0  0  0  0  0
  151.4825  142.7601  157.9924 C   0  0  0  0  0  0  0  0  0  0  0  0
  151.9005  141.4208  158.0848 C   0  0  0  0  0  0  0  0  0  0  0  0
  147.6380  135.0495  154.9951 N   0  0  0  0  0  0  0  0  0  0  0  0
  147.8640  133.7023  154.6920 O   0  0  0  0  0  0  0  0  0  0  0  0
  150.7255  132.0414  154.2846 H   0  0  0  0  0  0  0  0  0  0  0  0
  149.3862  131.8888  153.1452 H   0  0  0  0  0  0  0  0  0  0  0  0
  149.1724  131.4066  154.8294 H   0  0  0  0  0  0  0  0  0  0  0  0
  150.9254  134.8726  154.6018 H   0  0  0  0  0  0  0  0  0  0  0  0
  147.9576  137.5389  155.2443 H   0  0  0  0  0  0  0  0  0  0  0  0
  149.3163  137.2694  156.2946 H   0  0  0  0  0  0  0  0  0  0  0  0
  151.6634  137.6580  155.4257 H   0  0  0  0  0  0  0  0  0  0  0  0
  151.8848  137.8002  153.6779 H   0  0  0  0  0  0  0  0  0  0  0  0
  151.3751  136.2713  154.3687 H   0  0  0  0  0  0  0  0  0  0  0  0
  150.3710  139.6711  153.5500 H   0  0  0  0  0  0  0  0  0  0  0  0
  148.6949  139.5255  154.0065 H   0  0  0  0  0  0  0  0  0  0  0  0
  149.7968  139.1382  156.4767 H   0  0  0  0  0  0  0  0  0  0  0  0
  148.5666  141.0472  155.1228 H   0  0  0  0  0  0  0  0  0  0  0  0
  152.1114  139.6978  155.2425 H   0  0  0  0  0  0  0  0  0  0  0  0
  151.5593  141.3510  155.4000 H   0  0  0  0  0  0  0  0  0  0  0  0
  152.5586  138.3484  157.4388 H   0  0  0  0  0  0  0  0  0  0  0  0
  153.0180  141.3786  161.3096 H   0  0  0  0  0  0  0  0  0  0  0  0
  151.3790  144.3863  161.8543 H   0  0  0  0  0  0  0  0  0  0  0  0
  152.9899  144.8556  161.2893 H   0  0  0  0  0  0  0  0  0  0  0  0
  152.7970  143.4690  162.3598 H   0  0  0  0  0  0  0  0  0  0  0  0
  150.7611  145.2717  158.0105 H   0  0  0  0  0  0  0  0  0  0  0  0
  152.0126  145.7321  159.1634 H   0  0  0  0  0  0  0  0  0  0  0  0
  150.4009  145.2755  159.7357 H   0  0  0  0  0  0  0  0  0  0  0  0
  151.0578  143.1290  157.0707 H   0  0  0  0  0  0  0  0  0  0  0  0
  149.5655  137.4667  153.3875 H   0  0  0  0  0  0  0  0  0  0  0  0
  1  2  1  0  0  0  0
  1 25  1  0  0  0  0
  1 26  1  0  0  0  0
  1 27  1  0  0  0  0
  2 24  1  0  0  0  0
  2  3  2  0  0  0  0
  3  4  1  0  0  0  0
  3 28  1  0  0  0  0
  4  5  1  0  0  0  0
  4 23  2  0  0  0  0
  5  6  1  0  0  0  0
  5 29  1  0  0  0  0
  5 30  1  0  0  0  0
  6  7  1  0  0  0  0
  6  8  1  0  0  0  0
  6 49  1  0  0  0  0
  7 31  1  0  0  0  0
  7 32  1  0  0  0  0
  7 33  1  0  0  0  0
  8  9  1  0  0  0  0
  8 34  1  0  0  0  0
  8 35  1  0  0  0  0
  9 10  1  0  0  0  0
  9 11  1  0  0  0  0
  9 36  1  0  0  0  0
 10 37  1  0  0  0  0
 11 12  1  0  0  0  0
 11 38  1  0  0  0  0
 11 39  1  0  0  0  0
 12 22  1  0  0  0  0
 12 13  1  0  0  0  0
 13 14  2  0  0  0  0
 13 40  1  0  0  0  0
 14 15  1  0  0  0  0
 15 22  2  0  0  0  0
 15 16  1  0  0  0  0
 16 17  2  0  0  0  0
 16 41  1  0  0  0  0
 17 18  1  0  0  0  0
 17 19  1  0  0  0  0
 18 42  1  0  0  0  0
 18 43  1  0  0  0  0
 18 44  1  0  0  0  0
 19 20  1  0  0  0  0
 19 21  2  0  0  0  0
 20 45  1  0  0  0  0
 20 46  1  0  0  0  0
 20 47  1  0  0  0  0
 21 22  1  0  0  0  0
 21 48  1  0  0  0  0
 23 24  1  0  0  0  0
M  CHG  1   6   1
M  END
> <s_m_source_file>
AV-unprocessed.smi

> <i_m_source_file_index>
1209

> <i_lp_mmshare_version>
43012

> <i_f3d_flags>
0

> <s_epik_input>
W0NIM11jMVtjSF1jKG5vMSlbQ0gyXU4oW0NIM10pW0NIMl1bQ0BIXShbT0hdKVtDSDJdbihbY0hdbjIpYyhjMjMpW2NIXWMoW0NIM10pYyhbY0hdMylbQ0gzXQ==

> <s_epik_cmdline>
J2VwaWtfcHl0aG9uJywgJy1waCcsICc3LjAnLCAnLXRuJywgJzgnLCAnLW1hJywgJzIwMCcsICctbWV0YWxfYmluZGluZycsICctaW1hZScsICc8aW5maWxlLm1hZT4nLCAnLW9tYWUnLCAnPG91dGZpbGUubWFlPic=

> <r_epik_Ionization_Penalty>
2.05249

> <r_epik_Ionization_Penalty_Charging>
1.96618

> <r_epik_Ionization_Penalty_Neutral>
0.0863156

> <r_epik_State_Penalty>
2.19215

> <r_epik_Charging_Adjusted_Penalty>
4.15833

> <i_epik_Tot_Q>
1

> <i_epik_Tot_abs_Q>
1

> <r_epik_Metal_State_Penalty>
2.17654

> <b_epik_Metal_Only>
0

> <s_lp_Force_Field>
OPLS_2005

> <r_lp_Energy>
8.61119

> <b_lp_Chiralities_Consistent>
1

> <s_lp_Variant>
AV-unprocessed.smi:1209-6

> <Gold.Version>
5.8.1

> <Gold.Id.Protein>
6NUR|6NUR_protein|mol2

> <Gold.PLP.Fitness>
49.9411

> <Gold.PLP.PLP>
-46.4574

> <Gold.PLP.part.hbond>
-1.0000

> <Gold.PLP.part.metal>
0.0000

> <Gold.PLP.part.buried>
-4.5919

> <Gold.PLP.part.nonpolar>
-40.8972

> <Gold.PLP.part.repulsive>
0.1592

> <Gold.PLP.ligand.clash>
0.0000

> <Gold.PLP.ligand.torsion>
1.4158

> <Gold.PLP.Chemscore.Hbond>
1.9825

> <Gold.PLP.Chemscore.CHOScore>
0.0000

> <Gold.PLP.Chemscore.Metal>
0.0000

> <Gold.Chemscore.Hbonds>
donor molecule, donor type, donor heavy atom, donor atom, acceptor molecule, acceptor atom, score
      L1  H     6    49       P1  7948  2.00

> <Gold.PLP.Chemscore.Internal.Correction>
0.3678

> <Gold.Rescore>
     Score         DG    S(hbond)    S(metal)    S(lipo)     H(rot)  DE(clash)    DE(int)     intcor
     15.01     -17.38       0.96        0.00     129.84       2.53       0.04       2.33       ----

> <Gold.Chemscore.Fitness>
15.0067

> <Gold.Chemscore.DG>
-17.3771

> <Gold.Chemscore.ZeroCoef>
-5.4800

> <Gold.Chemscore.Hbond>
0.9555

> <Gold.Chemscore.Metal>
0.0000

> <Gold.Chemscore.Lipo>
129.8374

> <Gold.Chemscore.Internal_Hbond>
0.0000

> <Gold.Chemscore.DEClash>
0.0440

> <Gold.Chemscore.DEInternal>
2.3263

> <Gold.Chemscore.Rot>
2.5332

> <Gold.Chemscore.Internal.Correction>
   9.000000E+99

> <Gold.Chemscore.Hbonds>
donor molecule, donor type, donor heavy atom, donor atom, acceptor molecule, acceptor atom, score
      L1  H     6    49       P1  7948  0.80

> <Gold.Chemscore.Hbond.Weighted>
-3.1912

> <Gold.Chemscore.Metal.Weighted>
-0.0000

> <Gold.Chemscore.Lipo.Weighted>
-15.1910

> <Gold.Chemscore.Internal_Hbond.Weighted>
0.0000

> <Gold.Chemscore.DEClash.Weighted>
0.0440

> <Gold.Chemscore.DEInternal.Weighted>
2.3263

> <Gold.Chemscore.Rot.Weighted>
6.4851

> <Gold.Chemscore.Internal.Correction.Weighted>
   9.000000E+99

> <Gold.Protein.RotatedTorsions>
[ 6907 6896 6895 6894 ] final  -39.41 input  -60.11 | X-H torsion
[ 7974 7965 7964 7962 ] final  133.84 input  175.53 | X-H torsion
[ 8008 7997 7996 7995 ] final -177.81 input   59.86 | X-H torsion
[ 10167 10162 10161 10158 ] final  136.32 input  -65.29 | X-H torsion
[ 10718 10713 10712 10709 ] final  -64.33 input   66.30 | X-H torsion
[ 10763 10752 10751 10750 ] final   39.33 input  -60.55 | X-H torsion
[ 11005 11000 10999 10996 ] final  -67.05 input  -57.11 | X-H torsion

> <Gold.Protein.ActiveResidues>
 VAL166  LYS551  ARG553  GLY616  TRP617  ASP618  TYR619  PRO620  LYS621  CYS622 
 ASP623  PHE694  ASN695  SER759  ASP760  ASP761  ALA762  ILE779  LEU786  VAL792 
 PHE793  MET794  SER795  GLU796  ALA797  LYS798  CYS799  TRP800  GLU811  SER814 

> <Gold.Protein.RotatedAtoms>
  150.9906  134.9242  159.7897 H   0  0  0  0  0  0  0  0  0  0  0  0  # atno 6907 bound_to 6896
  152.5250  134.3286  159.9185 H   0  0  0  0  0  0  0  0  0  0  0  0  # atno 6908 bound_to 6896
  151.3292  133.3966  159.2695 H   0  0  0  0  0  0  0  0  0  0  0  0  # atno 6909 bound_to 6896
  144.9824  139.4490  143.5379 H   0  0  0  0  0  0  0  0  0  0  0  0  # atno 7974 bound_to 7965
  156.0113  140.1241  157.0450 H   0  0  0  0  0  0  0  0  0  0  0  0  # atno 8008 bound_to 7997
  154.4277  140.1087  156.5903 H   0  0  0  0  0  0  0  0  0  0  0  0  # atno 8009 bound_to 7997
  155.6075  140.3471  155.4614 H   0  0  0  0  0  0  0  0  0  0  0  0  # atno 8010 bound_to 7997
  139.5184  144.6471  151.5409 H   0  0  0  0  0  0  0  0  0  0  0  0  # atno 10167 bound_to 10162
  156.0735  130.4232  150.1405 H   0  0  0  0  0  0  0  0  0  0  0  0  # atno 10718 bound_to 10713
  152.9971  135.6223  154.2448 H   0  0  0  0  0  0  0  0  0  0  0  0  # atno 10763 bound_to 10752
  154.2188  135.2797  155.2934 H   0  0  0  0  0  0  0  0  0  0  0  0  # atno 10764 bound_to 10752
  154.5546  135.5723  153.7011 H   0  0  0  0  0  0  0  0  0  0  0  0  # atno 10765 bound_to 10752
  141.1498  133.6711  156.6233 H   0  0  0  0  0  0  0  0  0  0  0  0  # atno 11005 bound_to 11000
  146.3411  139.9106  142.8781 LP  0  0  0  0  0  0  0  0  0  0  0  0  # atno 17320 bound_to 7965
  145.2401  141.0006  143.3940 LP  0  0  0  0  0  0  0  0  0  0  0  0  # atno 17321 bound_to 7965
  140.6260  143.9168  150.6565 LP  0  0  0  0  0  0  0  0  0  0  0  0  # atno 17342 bound_to 10162
  140.2456  143.3631  152.1449 LP  0  0  0  0  0  0  0  0  0  0  0  0  # atno 17343 bound_to 10162
  156.9451  130.9757  151.3509 LP  0  0  0  0  0  0  0  0  0  0  0  0  # atno 17370 bound_to 10713
  157.5819  130.8382  149.8534 LP  0  0  0  0  0  0  0  0  0  0  0  0  # atno 17371 bound_to 10713
  140.3524  134.7757  157.4476 LP  0  0  0  0  0  0  0  0  0  0  0  0  # atno 17394 bound_to 11000
  140.0850  134.5678  155.8501 LP  0  0  0  0  0  0  0  0  0  0  0  0  # atno 17395 bound_to 11000

$$$$
