AV-unprocessed.smi:2315|AV-procd|sdf|9268|dock1
  -GOLD-   2272012493D 1   1.00000     0.00000
 Structure written by MMmdl.
 40 41  0  0  0  0  0  0  0  0  1 V2000
  144.6946  137.0450  152.3104 O   0  0  0  0  0  0  0  0  0  0  0  0
  145.8999  136.8116  152.2217 C   0  0  0  0  0  0  0  0  0  0  0  0
  146.8486  137.6678  152.6275 N   0  0  0  0  0  0  0  0  0  0  0  0
  146.5990  138.9825  153.2087 C   0  0  0  0  0  0  0  0  0  0  0  0
  147.6213  140.0259  152.7125 C   0  0  0  0  0  0  0  0  0  0  0  0
  148.3665  140.7550  153.8448 C   0  0  0  0  0  0  0  0  0  0  0  0
  148.2843  141.9822  153.9192 O   0  0  0  0  0  0  0  0  0  0  0  0
  149.0890  140.0260  154.7309 N   0  0  0  0  0  0  0  0  0  0  0  0
  149.8964  140.5733  155.8303 C   0  0  0  0  0  0  0  0  0  0  0  0
  151.3867  140.3844  155.4928 C   0  0  0  0  0  0  0  0  0  0  0  0
  151.7054  138.9008  155.2271 C   0  0  0  0  0  0  0  0  0  0  0  0
  150.7262  138.2815  154.2121 C   0  0  0  0  0  0  0  0  0  0  0  0
  149.2655  138.5730  154.6044 C   0  0  0  0  0  0  0  0  0  0  0  0
  146.4429  135.6827  151.7339 N   0  0  0  0  0  0  0  0  0  0  0  0
  145.7945  134.5365  151.1967 C   0  0  0  0  0  0  0  0  0  0  0  0
  144.5679  134.5711  150.4894 C   0  0  0  0  0  0  0  0  0  0  0  0
  144.0411  133.3621  149.9916 C   0  0  0  0  0  0  0  0  0  0  0  0
  144.6473  132.1662  150.1467 N   0  0  0  0  0  0  0  0  0  0  0  0
  145.8220  132.1382  150.8105 C   0  0  0  0  0  0  0  0  0  0  0  0
  146.4354  133.2881  151.3469 C   0  0  0  0  0  0  0  0  0  0  0  0
  147.6196  133.1896  151.9985 F   0  0  0  0  0  0  0  0  0  0  0  0
  147.8147  137.3939  152.5227 H   0  0  0  0  0  0  0  0  0  0  0  0
  145.5887  139.2806  152.9259 H   0  0  0  0  0  0  0  0  0  0  0  0
  146.6115  138.9148  154.2982 H   0  0  0  0  0  0  0  0  0  0  0  0
  148.3561  139.5322  152.0753 H   0  0  0  0  0  0  0  0  0  0  0  0
  147.1066  140.7684  152.1013 H   0  0  0  0  0  0  0  0  0  0  0  0
  149.6947  141.6211  156.0461 H   0  0  0  0  0  0  0  0  0  0  0  0
  149.6543  140.0393  156.7504 H   0  0  0  0  0  0  0  0  0  0  0  0
  151.6390  140.9775  154.6127 H   0  0  0  0  0  0  0  0  0  0  0  0
  152.0073  140.7586  156.3074 H   0  0  0  0  0  0  0  0  0  0  0  0
  152.7321  138.7918  154.8764 H   0  0  0  0  0  0  0  0  0  0  0  0
  151.6401  138.3492  156.1658 H   0  0  0  0  0  0  0  0  0  0  0  0
  150.9231  138.6887  153.2194 H   0  0  0  0  0  0  0  0  0  0  0  0
  150.8905  137.2058  154.1440 H   0  0  0  0  0  0  0  0  0  0  0  0
  149.0299  138.0960  155.5568 H   0  0  0  0  0  0  0  0  0  0  0  0
  148.5903  138.1246  153.8747 H   0  0  0  0  0  0  0  0  0  0  0  0
  147.4479  135.6125  151.7987 H   0  0  0  0  0  0  0  0  0  0  0  0
  144.0306  135.4886  150.3080 H   0  0  0  0  0  0  0  0  0  0  0  0
  143.1081  133.3575  149.4477 H   0  0  0  0  0  0  0  0  0  0  0  0
  146.2890  131.1703  150.9156 H   0  0  0  0  0  0  0  0  0  0  0  0
  1  2  2  0  0  0  0
  2  3  1  0  0  0  0
  2 14  1  0  0  0  0
  3  4  1  0  0  0  0
  3 22  1  0  0  0  0
  4  5  1  0  0  0  0
  4 23  1  0  0  0  0
  4 24  1  0  0  0  0
  5  6  1  0  0  0  0
  5 25  1  0  0  0  0
  5 26  1  0  0  0  0
  6  7  2  0  0  0  0
  6  8  1  0  0  0  0
  8 13  1  0  0  0  0
  8  9  1  0  0  0  0
  9 10  1  0  0  0  0
  9 27  1  0  0  0  0
  9 28  1  0  0  0  0
 10 11  1  0  0  0  0
 10 29  1  0  0  0  0
 10 30  1  0  0  0  0
 11 12  1  0  0  0  0
 11 31  1  0  0  0  0
 11 32  1  0  0  0  0
 12 13  1  0  0  0  0
 12 33  1  0  0  0  0
 12 34  1  0  0  0  0
 13 35  1  0  0  0  0
 13 36  1  0  0  0  0
 14 15  1  0  0  0  0
 14 37  1  0  0  0  0
 15 20  1  0  0  0  0
 15 16  2  0  0  0  0
 16 17  1  0  0  0  0
 16 38  1  0  0  0  0
 17 18  2  0  0  0  0
 17 39  1  0  0  0  0
 18 19  1  0  0  0  0
 19 20  2  0  0  0  0
 19 40  1  0  0  0  0
 20 21  1  0  0  0  0
M  END
> <s_m_source_file>
AV-unprocessed.smi

> <i_m_source_file_index>
2315

> <i_lp_mmshare_version>
43012

> <i_f3d_flags>
0

> <s_epik_input>
RmMxW2NIXW5bY0hdW2NIXWMxW05IXUMoPU8pW05IXVtDSDJdW0NIMl1DKD1PKU4yW0NIMl1bQ0gyXVtDSDJdW0NIMl1bQ0gyXTI=

> <s_epik_cmdline>
J2VwaWtfcHl0aG9uJywgJy1waCcsICc3LjAnLCAnLXRuJywgJzgnLCAnLW1hJywgJzIwMCcsICctbWV0YWxfYmluZGluZycsICctaW1hZScsICc8aW5maWxlLm1hZT4nLCAnLW9tYWUnLCAnPG91dGZpbGUubWFlPic=

> <r_epik_Ionization_Penalty>
0.00291221

> <r_epik_Ionization_Penalty_Charging>
0

> <r_epik_Ionization_Penalty_Neutral>
0.00291221

> <r_epik_State_Penalty>
0.0020173

> <r_epik_Charging_Adjusted_Penalty>
0.0020173

> <i_epik_Tot_Q>
0

> <i_epik_Tot_abs_Q>
0

> <r_epik_Metal_State_Penalty>
-0

> <b_epik_Metal_Only>
0

> <s_lp_Force_Field>
OPLS_2005

> <r_lp_Energy>
31.5376

> <b_lp_Chiralities_Consistent>
1

> <s_lp_Variant>
AV-unprocessed.smi:2315-1

> <Gold.Version>
5.8.1

> <Gold.Id.Protein>
6NUR|6NUR_protein|mol2

> <Gold.PLP.Fitness>
45.4890

> <Gold.PLP.PLP>
-36.1920

> <Gold.PLP.part.hbond>
-2.9092

> <Gold.PLP.part.metal>
0.0000

> <Gold.PLP.part.buried>
3.3554

> <Gold.PLP.part.nonpolar>
-36.3500

> <Gold.PLP.part.repulsive>
0.7303

> <Gold.PLP.ligand.clash>
0.0000

> <Gold.PLP.ligand.torsion>
0.7238

> <Gold.PLP.Chemscore.Hbond>
2.0902

> <Gold.PLP.Chemscore.CHOScore>
1.4803

> <Gold.PLP.Chemscore.Metal>
0.0000

> <Gold.Chemscore.Hbonds>
donor molecule, donor type, donor heavy atom, donor atom, acceptor molecule, acceptor atom, score
      L1  H     3    22       P1  7948  0.94
      L1  H    14    37       P1  7948  1.00
      P1  H  8011  8017       L1     7  0.18
      L1  C    17    39       P1 10186  1.00
      L1  C    19    40       P1 10747  0.31

> <Gold.PLP.Chemscore.Internal.Correction>
0.0331

> <Gold.Rescore>
     Score         DG    S(hbond)    S(metal)    S(lipo)     H(rot)  DE(clash)    DE(int)     intcor
     15.17     -17.37       1.89        0.00      82.09       1.57       1.41       0.79       ----

> <Gold.Chemscore.Fitness>
15.1650

> <Gold.Chemscore.DG>
-17.3666

> <Gold.Chemscore.ZeroCoef>
-5.4800

> <Gold.Chemscore.Hbond>
1.8890

> <Gold.Chemscore.Metal>
0.0000

> <Gold.Chemscore.Lipo>
82.0882

> <Gold.Chemscore.Internal_Hbond>
0.0000

> <Gold.Chemscore.DEClash>
1.4084

> <Gold.Chemscore.DEInternal>
0.7931

> <Gold.Chemscore.Rot>
1.5731

> <Gold.Chemscore.Internal.Correction>
   9.000000E+99

> <Gold.Chemscore.Hbonds>
donor molecule, donor type, donor heavy atom, donor atom, acceptor molecule, acceptor atom, score
      L1  H     3    22       P1  7948  0.91
      L1  H    14    37       P1  7948  0.96
      P1  H  8011  8017       L1     7  0.03

> <Gold.Chemscore.Hbond.Weighted>
-6.3093

> <Gold.Chemscore.Metal.Weighted>
-0.0000

> <Gold.Chemscore.Lipo.Weighted>
-9.6043

> <Gold.Chemscore.Internal_Hbond.Weighted>
0.0000

> <Gold.Chemscore.DEClash.Weighted>
1.4084

> <Gold.Chemscore.DEInternal.Weighted>
0.7931

> <Gold.Chemscore.Rot.Weighted>
4.0271

> <Gold.Chemscore.Internal.Correction.Weighted>
   9.000000E+99

> <Gold.Protein.RotatedTorsions>
[ 6907 6896 6895 6894 ] final  104.00 input  -60.11 | X-H torsion
[ 7974 7965 7964 7962 ] final  -88.80 input  175.53 | X-H torsion
[ 8008 7997 7996 7995 ] final   -1.28 input   59.86 | X-H torsion
[ 10167 10162 10161 10158 ] final   35.01 input  -65.29 | X-H torsion
[ 10718 10713 10712 10709 ] final -122.42 input   66.30 | X-H torsion
[ 10763 10752 10751 10750 ] final   14.80 input  -60.55 | X-H torsion
[ 11005 11000 10999 10996 ] final  142.62 input  -57.11 | X-H torsion

> <Gold.Protein.ActiveResidues>
 VAL166  LYS551  ARG553  GLY616  TRP617  ASP618  TYR619  PRO620  LYS621  CYS622 
 ASP623  PHE694  ASN695  SER759  ASP760  ASP761  ALA762  ILE779  LEU786  VAL792 
 PHE793  MET794  SER795  GLU796  ALA797  LYS798  CYS799  TRP800  GLU811  SER814 

> <Gold.Protein.RotatedAtoms>
  152.5278  133.9742  159.7775 H   0  0  0  0  0  0  0  0  0  0  0  0  # atno 6907 bound_to 6896
  151.0008  133.6050  159.2702 H   0  0  0  0  0  0  0  0  0  0  0  0  # atno 6908 bound_to 6896
  151.3160  135.0813  159.9342 H   0  0  0  0  0  0  0  0  0  0  0  0  # atno 6909 bound_to 6896
  145.4483  140.9560  143.2037 H   0  0  0  0  0  0  0  0  0  0  0  0  # atno 7974 bound_to 7965
  154.6486  140.2563  155.7240 H   0  0  0  0  0  0  0  0  0  0  0  0  # atno 8008 bound_to 7997
  156.2564  140.2872  156.0831 H   0  0  0  0  0  0  0  0  0  0  0  0  # atno 8009 bound_to 7997
  155.1486  140.0382  157.2806 H   0  0  0  0  0  0  0  0  0  0  0  0  # atno 8010 bound_to 7997
  140.4261  144.1390  150.6153 H   0  0  0  0  0  0  0  0  0  0  0  0  # atno 10167 bound_to 10162
  156.1417  130.6470  150.9781 H   0  0  0  0  0  0  0  0  0  0  0  0  # atno 10718 bound_to 10713
  153.1586  135.6792  153.8775 H   0  0  0  0  0  0  0  0  0  0  0  0  # atno 10763 bound_to 10752
  153.8178  135.3134  155.3408 H   0  0  0  0  0  0  0  0  0  0  0  0  # atno 10764 bound_to 10752
  154.7916  135.4831  154.0154 H   0  0  0  0  0  0  0  0  0  0  0  0  # atno 10765 bound_to 10752
  140.0491  134.9265  157.0983 H   0  0  0  0  0  0  0  0  0  0  0  0  # atno 11005 bound_to 11000
  144.8078  139.6019  143.7043 LP  0  0  0  0  0  0  0  0  0  0  0  0  # atno 17320 bound_to 7965
  146.2519  139.6217  142.9421 LP  0  0  0  0  0  0  0  0  0  0  0  0  # atno 17321 bound_to 7965
  140.4479  143.2499  151.9387 LP  0  0  0  0  0  0  0  0  0  0  0  0  # atno 17342 bound_to 10162
  139.4783  144.5591  151.8267 LP  0  0  0  0  0  0  0  0  0  0  0  0  # atno 17343 bound_to 10162
  157.6581  131.0886  150.7901 LP  0  0  0  0  0  0  0  0  0  0  0  0  # atno 17370 bound_to 10713
  156.7976  130.4910  149.5375 LP  0  0  0  0  0  0  0  0  0  0  0  0  # atno 17371 bound_to 10713
  140.3947  134.2147  155.7165 LP  0  0  0  0  0  0  0  0  0  0  0  0  # atno 17394 bound_to 11000
  141.1921  133.8180  157.0852 LP  0  0  0  0  0  0  0  0  0  0  0  0  # atno 17395 bound_to 11000

$$$$
