AV-unprocessed.smi:72|AV-procd|sdf|692|dock6
  -GOLD-   2262017 03D 1   1.00000     0.00000
 Structure written by MMmdl.
 29 30  0  0  0  0  0  0  0  0  1 V2000
  152.8944  136.8451  156.1792 N   0  0  0  0  0  0  0  0  0  0  0  0
  152.1488  137.8197  155.7989 C   0  0  0  0  0  0  0  0  0  0  0  0
  151.4233  137.8670  154.5997 N   0  0  0  0  0  0  0  0  0  0  0  0
  150.6969  138.9131  154.3526 C   0  0  0  0  0  0  0  0  0  0  0  0
  150.5954  140.0290  155.2858 N   0  0  0  0  0  0  0  0  0  0  0  0
  149.7575  141.2660  155.0039 C   0  0  1  0  0  0  0  0  0  0  0  0
  149.1198  141.1389  153.7648 O   0  0  0  0  0  0  0  0  0  0  0  0
  147.7772  140.7017  153.9551 C   0  0  2  0  0  0  0  0  0  0  0  0
  146.9242  140.9516  152.6997 C   0  0  0  0  0  0  0  0  0  0  0  0
  147.1447  139.9234  151.7582 O   0  0  0  0  0  0  0  0  0  0  0  0
  147.3675  141.4828  155.2070 C   0  0  2  0  0  0  0  0  0  0  0  0
  146.9997  142.8092  154.8641 O   0  0  0  0  0  0  0  0  0  0  0  0
  148.6373  141.4255  156.0562 C   0  0  2  0  0  0  0  0  0  0  0  0
  148.7925  142.5692  156.8755 O   0  0  0  0  0  0  0  0  0  0  0  0
  151.3551  140.0090  156.4822 C   0  0  0  0  0  0  0  0  0  0  0  0
  151.3427  140.9414  157.2859 O   0  0  0  0  0  0  0  0  0  0  0  0
  152.0934  138.8980  156.6899 N   0  0  0  0  0  0  0  0  0  0  0  0
  150.4684  142.0935  154.9675 H   0  0  0  0  0  0  0  0  0  0  0  0
  147.7710  139.6385  154.2029 H   0  0  0  0  0  0  0  0  0  0  0  0
  146.5230  141.0175  155.7165 H   0  0  0  0  0  0  0  0  0  0  0  0
  148.6036  140.5359  156.6873 H   0  0  0  0  0  0  0  0  0  0  0  0
  153.3081  137.0553  157.0763 H   0  0  0  0  0  0  0  0  0  0  0  0
  150.1232  139.0123  153.4312 H   0  0  0  0  0  0  0  0  0  0  0  0
  145.8647  140.9381  152.9572 H   0  0  0  0  0  0  0  0  0  0  0  0
  147.1402  141.9234  152.2544 H   0  0  0  0  0  0  0  0  0  0  0  0
  148.0361  139.9872  151.4506 H   0  0  0  0  0  0  0  0  0  0  0  0
  147.7490  143.3686  155.0021 H   0  0  0  0  0  0  0  0  0  0  0  0
  148.7393  143.3378  156.3273 H   0  0  0  0  0  0  0  0  0  0  0  0
  152.6397  138.8495  157.5377 H   0  0  0  0  0  0  0  0  0  0  0  0
  1  2  2  0  0  0  0
  1 22  1  0  0  0  0
  2 17  1  0  0  0  0
  2  3  1  0  0  0  0
  3  4  2  0  0  0  0
  4  5  1  0  0  0  0
  4 23  1  0  0  0  0
  5  6  1  0  0  0  0
  5 15  1  0  0  0  0
  6 18  1  0  0  0  0
  6 13  1  0  0  0  0
  6  7  1  0  0  0  0
  7  8  1  0  0  0  0
  8 19  1  0  0  0  0
  8  9  1  0  0  0  0
  8 11  1  0  0  0  0
  9 10  1  0  0  0  0
  9 24  1  0  0  0  0
  9 25  1  0  0  0  0
 10 26  1  0  0  0  0
 11 20  1  0  0  0  0
 11 12  1  0  0  0  0
 11 13  1  0  0  0  0
 12 27  1  0  0  0  0
 13 21  1  0  0  0  0
 13 14  1  0  0  0  0
 14 28  1  0  0  0  0
 15 16  2  0  0  0  0
 15 17  1  0  0  0  0
 17 29  1  0  0  0  0
M  END
> <s_m_source_file>
AV-unprocessed.smi

> <i_m_source_file_index>
72

> <i_lp_mmshare_version>
43012

> <i_f3d_flags>
0

> <s_epik_input>
W05IMl1jMW5bY0hdbihjKD1PKW4xKVtDQEBIXTJPW0NASF0oW0NIMl1bT0hdKVtDQEBIXShbT0hdKVtDQEhdMltPSF0=

> <s_epik_cmdline>
J2VwaWtfcHl0aG9uJywgJy1waCcsICc3LjAnLCAnLXRuJywgJzgnLCAnLW1hJywgJzIwMCcsICctbWV0YWxfYmluZGluZycsICctaW1hZScsICc8aW5maWxlLm1hZT4nLCAnLW9tYWUnLCAnPG91dGZpbGUubWFlPic=

> <r_lp_tautomer_probability>
7.17554e-07

> <r_epik_Ionization_Penalty>
0.0066451

> <r_epik_Ionization_Penalty_Charging>
0.00663793

> <r_epik_Ionization_Penalty_Neutral>
7.17052e-06

> <r_epik_State_Penalty>
0.419231

> <r_epik_Charging_Adjusted_Penalty>
0.425868

> <i_epik_Tot_Q>
0

> <i_epik_Tot_abs_Q>
0

> <r_epik_Metal_State_Penalty>
1.44144

> <b_epik_Metal_Only>
0

> <s_epik_Chemistry_Notes>
This compound contains an acetal/aminal-like group ( X-CH(R)-Y where X, Y are N, S, or O) that may be acid/base labile, releasing an aldehyde.

> <s_lp_Force_Field>
OPLS_2005

> <r_lp_Energy>
42.1685

> <b_lp_Chiralities_Consistent>
1

> <s_lp_Variant>
AV-unprocessed.smi:72-30

> <Gold.Version>
5.8.1

> <Gold.Id.Protein>
6NUR|6NUR_protein|mol2

> <Gold.PLP.Fitness>
40.6394

> <Gold.PLP.PLP>
-23.9018

> <Gold.PLP.part.hbond>
-5.5391

> <Gold.PLP.part.metal>
0.0000

> <Gold.PLP.part.buried>
-2.9812

> <Gold.PLP.part.nonpolar>
-16.6033

> <Gold.PLP.part.repulsive>
2.0792

> <Gold.PLP.ligand.clash>
0.0000

> <Gold.PLP.ligand.torsion>
0.1861

> <Gold.PLP.Chemscore.Hbond>
4.6960

> <Gold.PLP.Chemscore.CHOScore>
0.9998

> <Gold.PLP.Chemscore.Metal>
0.0000

> <Gold.Chemscore.Hbonds>
donor molecule, donor type, donor heavy atom, donor atom, acceptor molecule, acceptor atom, score
      L1  H    10    26       P1  7957  1.00
      L1  H    12    27       P1  8028  1.00
      L1  H    14    28       P1  8028  1.00
      P1  H  8011  8017       L1     7  0.92
      P1  H 10752 10765       L1     1  0.78
      L1  C     4    23       P1  7957  0.99

> <Gold.PLP.Chemscore.Internal.Correction>
0.0223

> <Gold.Rescore>
     Score         DG    S(hbond)    S(metal)    S(lipo)     H(rot)  DE(clash)    DE(int)     intcor
      9.54     -11.08       3.98        0.00      23.10       4.06       0.59       0.95       ----

> <Gold.Chemscore.Fitness>
9.5379

> <Gold.Chemscore.DG>
-11.0804

> <Gold.Chemscore.ZeroCoef>
-5.4800

> <Gold.Chemscore.Hbond>
3.9793

> <Gold.Chemscore.Metal>
0.0000

> <Gold.Chemscore.Lipo>
23.1036

> <Gold.Chemscore.Internal_Hbond>
0.0000

> <Gold.Chemscore.DEClash>
0.5948

> <Gold.Chemscore.DEInternal>
0.9478

> <Gold.Chemscore.Rot>
4.0600

> <Gold.Chemscore.Internal.Correction>
   9.000000E+99

> <Gold.Chemscore.Hbonds>
donor molecule, donor type, donor heavy atom, donor atom, acceptor molecule, acceptor atom, score
      L1  H    10    26       P1  7957  0.96
      L1  H    12    27       P1  8028  0.45
      L1  H    14    28       P1  8028  0.88
      P1  H  8011  8017       L1     7  0.75
      P1  H 10752 10765       L1     1  0.76

> <Gold.Chemscore.Hbond.Weighted>
-13.2909

> <Gold.Chemscore.Metal.Weighted>
-0.0000

> <Gold.Chemscore.Lipo.Weighted>
-2.7031

> <Gold.Chemscore.Internal_Hbond.Weighted>
0.0000

> <Gold.Chemscore.DEClash.Weighted>
0.5948

> <Gold.Chemscore.DEInternal.Weighted>
0.9478

> <Gold.Chemscore.Rot.Weighted>
10.3936

> <Gold.Chemscore.Internal.Correction.Weighted>
   9.000000E+99

> <Gold.Protein.RotatedTorsions>
[ 6907 6896 6895 6894 ] final  141.94 input  -60.11 | X-H torsion
[ 7974 7965 7964 7962 ] final  -85.87 input  175.53 | X-H torsion
[ 8008 7997 7996 7995 ] final  -61.05 input   59.86 | X-H torsion
[ 10167 10162 10161 10158 ] final  -87.96 input  -65.29 | X-H torsion
[ 10718 10713 10712 10709 ] final   66.50 input   66.30 | X-H torsion
[ 10763 10752 10751 10750 ] final -147.80 input  -60.55 | X-H torsion
[ 11005 11000 10999 10996 ] final -159.99 input  -57.11 | X-H torsion

> <Gold.Protein.ActiveResidues>
 VAL166  LYS551  ARG553  GLY616  TRP617  ASP618  TYR619  PRO620  LYS621  CYS622 
 ASP623  PHE694  ASN695  SER759  ASP760  ASP761  ALA762  ILE779  LEU786  VAL792 
 PHE793  MET794  SER795  GLU796  ALA797  LYS798  CYS799  TRP800  GLU811  SER814 

> <Gold.Protein.RotatedAtoms>
  152.2248  133.5012  159.5182 H   0  0  0  0  0  0  0  0  0  0  0  0  # atno 6907 bound_to 6896
  150.7022  134.1294  159.4073 H   0  0  0  0  0  0  0  0  0  0  0  0  # atno 6908 bound_to 6896
  151.9215  135.0296  160.0573 H   0  0  0  0  0  0  0  0  0  0  0  0  # atno 6909 bound_to 6896
  145.4875  140.9554  143.1830 H   0  0  0  0  0  0  0  0  0  0  0  0  # atno 7974 bound_to 7965
  154.4428  140.1026  156.6370 H   0  0  0  0  0  0  0  0  0  0  0  0  # atno 8008 bound_to 7997
  155.5543  140.3486  155.4457 H   0  0  0  0  0  0  0  0  0  0  0  0  # atno 8009 bound_to 7997
  156.0506  140.1303  157.0043 H   0  0  0  0  0  0  0  0  0  0  0  0  # atno 8010 bound_to 7997
  140.3793  143.2756  151.9403 H   0  0  0  0  0  0  0  0  0  0  0  0  # atno 10167 bound_to 10162
  157.6173  130.9271  150.0117 H   0  0  0  0  0  0  0  0  0  0  0  0  # atno 10718 bound_to 10713
  154.8267  135.3351  154.6874 H   0  0  0  0  0  0  0  0  0  0  0  0  # atno 10763 bound_to 10752
  153.7499  135.6940  153.4952 H   0  0  0  0  0  0  0  0  0  0  0  0  # atno 10764 bound_to 10752
  153.2183  135.4457  155.0411 H   0  0  0  0  0  0  0  0  0  0  0  0  # atno 10765 bound_to 10752
  140.6364  134.4597  157.5232 H   0  0  0  0  0  0  0  0  0  0  0  0  # atno 11005 bound_to 11000
  144.7853  139.6440  143.7137 LP  0  0  0  0  0  0  0  0  0  0  0  0  # atno 17320 bound_to 7965
  146.2304  139.5803  142.9559 LP  0  0  0  0  0  0  0  0  0  0  0  0  # atno 17321 bound_to 7965
  139.4797  144.5833  151.7895 LP  0  0  0  0  0  0  0  0  0  0  0  0  # atno 17342 bound_to 10162
  140.4954  144.1249  150.5959 LP  0  0  0  0  0  0  0  0  0  0  0  0  # atno 17343 bound_to 10162
  156.1301  130.3643  149.9746 LP  0  0  0  0  0  0  0  0  0  0  0  0  # atno 17370 bound_to 10713
  156.7809  130.9221  151.3646 LP  0  0  0  0  0  0  0  0  0  0  0  0  # atno 17371 bound_to 10713
  139.9096  134.8373  156.1576 LP  0  0  0  0  0  0  0  0  0  0  0  0  # atno 17394 bound_to 11000
  141.0638  133.6829  156.2004 LP  0  0  0  0  0  0  0  0  0  0  0  0  # atno 17395 bound_to 11000

$$$$
