#       Name:                AV-unprocessed.smi:1483
#       Creating user name   scv26
#       Creation time:       Fri Mar 27 06:08:28 2020


#       File generated by GOLD software.
#

@<TRIPOS>MOLECULE
AV-unprocessed.smi:1483
    52    53     1
SMALL
NO_CHARGES


@<TRIPOS>ATOM
      1 ****        -5.4666   0.6862  -4.1466 C.3            1 S1                 0.0000
      2 ****        -5.0352   0.9393  -2.7171 C.ar           1 S1                 0.0000
      3 ****        -5.0791   2.2375  -2.1665 C.ar           1 S1                 0.0000
      4 ****        -4.6704   2.4135  -0.8306 C.ar           1 S1                 0.0000
      5 ****        -4.2343   1.2897  -0.0987 C.ar           1 S1                 0.0000
      6 ****        -3.7783   1.4281   1.3422 C.3            1 S1                 0.0000
      7 ****        -2.2780   1.7142   1.3888 C.2            1 S1                 0.0000
      8 ****        -1.8718   2.8758   1.3728 O.2            1 S1                 0.0000
      9 ****        -1.4661   0.6463   1.4287 N.am           1 S1                 0.0000
     10 ****        -0.0082   0.7015   1.4262 C.3            1 S1                 0.0000
     11 ****         0.5268   0.8278  -0.0112 C.3            1 S1                 0.0000
     12 ****         2.0631   0.7808  -0.0385 C.3            1 S1                 0.0000
     13 ****         2.5778  -0.4563   0.6038 N.4            1 S1                 1.0000
     14 ****         4.0520  -0.5844   0.4666 C.3            1 S1                 0.0000
     15 ****         4.5531  -2.0397   0.5906 C.3            1 S1                 0.0000
     16 ****         6.0882  -2.0813   0.5790 C.3            1 S1                 0.0000
     17 ****         3.9839  -2.9411  -0.5179 C.3            1 S1                 0.0000
     18 ****         2.1020  -0.5777   2.0080 C.3            1 S1                 0.0000
     19 ****         0.5657  -0.5667   2.0761 C.3            1 S1                 0.0000
     20 ****        -4.2282   0.0348  -0.7440 C.ar           1 S1                 0.0000
     21 ****        -4.6164  -0.1433  -2.0247 N.ar           1 S1                 0.0000
     22 ****        -5.8504   1.5950  -4.6109 H              1 S1                 0.0000
     23 ****        -6.2533  -0.0682  -4.1778 H              1 S1                 0.0000
     24 ****        -4.6242   0.3303  -4.7403 H              1 S1                 0.0000
     25 ****        -5.4181   3.0803  -2.7509 H              1 S1                 0.0000
     26 ****        -4.6893   3.3944  -0.3785 H              1 S1                 0.0000
     27 ****        -4.3222   2.2393   1.8285 H              1 S1                 0.0000
     28 ****        -4.0082   0.5170   1.8966 H              1 S1                 0.0000
     29 ****        -1.8907  -0.2700   1.4384 H              1 S1                 0.0000
     30 ****         0.3217   1.5642   2.0087 H              1 S1                 0.0000
     31 ****         0.1280   0.0206  -0.6278 H              1 S1                 0.0000
     32 ****         0.1815   1.7593  -0.4615 H              1 S1                 0.0000
     33 ****         2.4005   0.8271  -1.0747 H              1 S1                 0.0000
     34 ****         2.4755   1.6544   0.4686 H              1 S1                 0.0000
     35 ****         4.3606  -0.2035  -0.5083 H              1 S1                 0.0000
     36 ****         4.5366   0.0548   1.2067 H              1 S1                 0.0000
     37 ****         4.2378  -2.4499   1.5492 H              1 S1                 0.0000
     38 ****         6.4896  -1.6959  -0.3589 H              1 S1                 0.0000
     39 ****         6.4551  -3.1004   0.7039 H              1 S1                 0.0000
     40 ****         6.5043  -1.4824   1.3895 H              1 S1                 0.0000
     41 ****         4.2666  -2.5809  -1.5076 H              1 S1                 0.0000
     42 ****         2.8954  -2.9870  -0.4781 H              1 S1                 0.0000
     43 ****         4.3538  -3.9624  -0.4196 H              1 S1                 0.0000
     44 ****         2.4646  -1.5013   2.4568 H              1 S1                 0.0000
     45 ****         2.5081   0.2414   2.6038 H              1 S1                 0.0000
     46 ****         0.2425  -0.6331   3.1157 H              1 S1                 0.0000
     47 ****         0.1746  -1.4531   1.5739 H              1 S1                 0.0000
     48 ****        -3.8971  -0.8502  -0.2206 H              1 S1                 0.0000
     49 ****         2.1774  -1.2269   0.0879 H              1 S1                 0.0000
     50 ****        -2.5237   3.6329   1.3293 LP             1 S1                 0.0000
     51 ****        -0.8899   3.0626   1.4033 LP             1 S1                 0.0000
     52 ****        -4.5948  -1.0489  -2.4483 LP             1 S1                 0.0000
@<TRIPOS>BOND
    1    1    2 1     
    2    1   22 1     
    3    1   23 1     
    4    1   24 1     
    5    2   21 ar    
    6    2    3 ar    
    7    3    4 ar    
    8    3   25 1     
    9    4    5 ar    
   10    4   26 1     
   11    5    6 1     
   12    5   20 ar    
   13    6    7 1     
   14    6   27 1     
   15    6   28 1     
   16    7    8 2     
   17    7    9 am    
   18    9   10 1     
   19    9   29 1     
   20   10   19 1     
   21   10   11 1     
   22   10   30 1     
   23   11   12 1     
   24   11   31 1     
   25   11   32 1     
   26   12   13 1     
   27   12   33 1     
   28   12   34 1     
   29   13   14 1     
   30   13   18 1     
   31   13   49 1     
   32   14   15 1     
   33   14   35 1     
   34   14   36 1     
   35   15   16 1     
   36   15   17 1     
   37   15   37 1     
   38   16   38 1     
   39   16   39 1     
   40   16   40 1     
   41   17   41 1     
   42   17   42 1     
   43   17   43 1     
   44   18   19 1     
   45   18   44 1     
   46   18   45 1     
   47   19   46 1     
   48   19   47 1     
   49   20   21 ar    
   50   20   48 1     
   51    8   50 1     
   52    8   51 1     
   53   21   52 1     
@<TRIPOS>SUBSTRUCTURE
      1 S1             1
@<TRIPOS>SET
LONE_PAIRS      STATIC     ATOMS    <user>   **** ""
3 50 51 52
DONOR_HYDROGENS      STATIC     ATOMS    <user>   **** ""
2 29 49
ATOM$BLUE        STATIC     ATOMS    COLORGROUP SYSTEM
3 50 51 52
ATOM$RED        STATIC     ATOMS    COLORGROUP SYSTEM
2 29 49
