AV-unprocessed.smi:2386|AV-procd|sdf|9467|dock2
  -GOLD-   2272013 93D 1   1.00000     0.00000
 Structure written by MMmdl.
 43 44  0  0  0  0  0  0  0  0  2 V2000
  153.1726  141.9093  161.0870 C   0  0  0  0  0  0  0  0  0  0  0  0
  152.3762  143.0071  160.4139 C   0  0  0  0  0  0  0  0  0  0  0  0
  152.3090  144.2995  160.9702 C   0  0  0  0  0  0  0  0  0  0  0  0
  151.5534  145.2738  160.2939 C   0  0  0  0  0  0  0  0  0  0  0  0
  150.9021  144.9185  159.0970 C   0  0  0  0  0  0  0  0  0  0  0  0
  151.0209  143.5989  158.6061 C   0  0  0  0  0  0  0  0  0  0  0  0
  150.3289  143.3443  157.3923 N   0  0  0  0  0  0  0  0  0  0  0  0
  150.0132  142.1557  156.8485 C   0  0  0  0  0  0  0  0  0  0  0  0
  150.2716  141.0554  157.3371 O   0  0  0  0  0  0  0  0  0  0  0  0
  149.3614  142.3121  155.6871 N   0  0  0  0  0  0  0  0  0  0  0  0
  148.8828  141.2261  154.8372 C   0  0  0  0  0  0  0  0  0  0  0  0
  147.4373  141.4362  154.3459 C   0  0  0  0  0  0  0  0  0  0  0  0
  147.1740  140.8769  152.9348 C   0  0  0  0  0  0  0  0  0  0  0  0
  146.4461  139.5840  152.9697 N   0  3  0  0  0  0  0  0  0  0  0  0
  146.6451  138.7868  151.7357 C   0  0  0  0  0  0  0  0  0  0  0  0
  145.8337  137.4820  151.7992 C   0  0  0  0  0  0  0  0  0  0  0  0
  146.2095  136.7427  152.9540 O   0  0  0  0  0  0  0  0  0  0  0  0
  145.9414  137.4586  154.1530 C   0  0  0  0  0  0  0  0  0  0  0  0
  146.7528  138.7653  154.1692 C   0  0  0  0  0  0  0  0  0  0  0  0
  151.7502  142.6656  159.2668 N   0  0  0  0  0  0  0  0  0  0  0  0
  153.6313  142.2624  162.0109 H   0  0  0  0  0  0  0  0  0  0  0  0
  153.9654  141.5573  160.4265 H   0  0  0  0  0  0  0  0  0  0  0  0
  152.5260  141.0654  161.3291 H   0  0  0  0  0  0  0  0  0  0  0  0
  152.8217  144.5412  161.8897 H   0  0  0  0  0  0  0  0  0  0  0  0
  151.4745  146.2774  160.6853 H   0  0  0  0  0  0  0  0  0  0  0  0
  150.3190  145.6558  158.5647 H   0  0  0  0  0  0  0  0  0  0  0  0
  150.0468  144.1638  156.8756 H   0  0  0  0  0  0  0  0  0  0  0  0
  149.1969  143.2523  155.3581 H   0  0  0  0  0  0  0  0  0  0  0  0
  149.5540  141.1479  153.9815 H   0  0  0  0  0  0  0  0  0  0  0  0
  148.9615  140.2799  155.3751 H   0  0  0  0  0  0  0  0  0  0  0  0
  146.7685  140.9652  155.0656 H   0  0  0  0  0  0  0  0  0  0  0  0
  147.1948  142.4994  154.3654 H   0  0  0  0  0  0  0  0  0  0  0  0
  146.5726  141.6014  152.3843 H   0  0  0  0  0  0  0  0  0  0  0  0
  148.1064  140.7669  152.3791 H   0  0  0  0  0  0  0  0  0  0  0  0
  146.3347  139.3661  150.8653 H   0  0  0  0  0  0  0  0  0  0  0  0
  147.7055  138.5624  151.6115 H   0  0  0  0  0  0  0  0  0  0  0  0
  144.7624  137.6889  151.8166 H   0  0  0  0  0  0  0  0  0  0  0  0
  146.0265  136.8761  150.9139 H   0  0  0  0  0  0  0  0  0  0  0  0
  144.8729  137.6619  154.2393 H   0  0  0  0  0  0  0  0  0  0  0  0
  146.2163  136.8358  155.0043 H   0  0  0  0  0  0  0  0  0  0  0  0
  147.8196  138.5375  154.1942 H   0  0  0  0  0  0  0  0  0  0  0  0
  146.5239  139.3190  155.0791 H   0  0  0  0  0  0  0  0  0  0  0  0
  145.4614  139.8068  153.0047 H   0  0  0  0  0  0  0  0  0  0  0  0
  1  2  1  0  0  0  0
  1 21  1  0  0  0  0
  1 22  1  0  0  0  0
  1 23  1  0  0  0  0
  2 20  1  0  0  0  0
  2  3  2  0  0  0  0
  3  4  1  0  0  0  0
  3 24  1  0  0  0  0
  4  5  2  0  0  0  0
  4 25  1  0  0  0  0
  5  6  1  0  0  0  0
  5 26  1  0  0  0  0
  6  7  1  0  0  0  0
  6 20  2  0  0  0  0
  7  8  1  0  0  0  0
  7 27  1  0  0  0  0
  8  9  2  0  0  0  0
  8 10  1  0  0  0  0
 10 11  1  0  0  0  0
 10 28  1  0  0  0  0
 11 12  1  0  0  0  0
 11 29  1  0  0  0  0
 11 30  1  0  0  0  0
 12 13  1  0  0  0  0
 12 31  1  0  0  0  0
 12 32  1  0  0  0  0
 13 14  1  0  0  0  0
 13 33  1  0  0  0  0
 13 34  1  0  0  0  0
 14 19  1  0  0  0  0
 14 15  1  0  0  0  0
 14 43  1  0  0  0  0
 15 16  1  0  0  0  0
 15 35  1  0  0  0  0
 15 36  1  0  0  0  0
 16 17  1  0  0  0  0
 16 37  1  0  0  0  0
 16 38  1  0  0  0  0
 17 18  1  0  0  0  0
 18 19  1  0  0  0  0
 18 39  1  0  0  0  0
 18 40  1  0  0  0  0
 19 41  1  0  0  0  0
 19 42  1  0  0  0  0
M  CHG  1  14   1
M  END
> <s_m_source_file>
AV-unprocessed.smi

> <i_m_source_file_index>
2386

> <i_lp_mmshare_version>
43012

> <i_f3d_flags>
0

> <s_epik_input>
W0NIM11jMVtjSF1bY0hdW2NIXWMobjEpW05IXUMoPU8pW05IXVtDSDJdW0NIMl1bQ0gyXU4yW0NIMl1bQ0gyXU9bQ0gyXVtDSDJdMg==

> <s_epik_cmdline>
J2VwaWtfcHl0aG9uJywgJy1waCcsICc3LjAnLCAnLXRuJywgJzgnLCAnLW1hJywgJzIwMCcsICctbWV0YWxfYmluZGluZycsICctaW1hZScsICc8aW5maWxlLm1hZT4nLCAnLW9tYWUnLCAnPG91dGZpbGUubWFlPic=

> <r_epik_Ionization_Penalty>
0.270568

> <r_epik_Ionization_Penalty_Charging>
0.270496

> <r_epik_Ionization_Penalty_Neutral>
7.21828e-05

> <r_epik_State_Penalty>
0.262618

> <r_epik_Charging_Adjusted_Penalty>
0.533114

> <i_epik_Tot_Q>
1

> <i_epik_Tot_abs_Q>
1

> <r_epik_Metal_State_Penalty>
0.26262

> <b_epik_Metal_Only>
0

> <s_lp_Force_Field>
OPLS_2005

> <r_lp_Energy>
18.5564

> <b_lp_Chiralities_Consistent>
1

> <s_lp_Variant>
AV-unprocessed.smi:2386-1

> <Gold.Version>
5.8.1

> <Gold.Id.Protein>
6NUR|6NUR_protein|mol2

> <Gold.PLP.Fitness>
49.7839

> <Gold.PLP.PLP>
-39.8801

> <Gold.PLP.part.hbond>
-3.0000

> <Gold.PLP.part.metal>
0.0000

> <Gold.PLP.part.buried>
-5.8406

> <Gold.PLP.part.nonpolar>
-32.5039

> <Gold.PLP.part.repulsive>
0.3148

> <Gold.PLP.ligand.clash>
0.0000

> <Gold.PLP.ligand.torsion>
0.9539

> <Gold.PLP.Chemscore.Hbond>
3.9120

> <Gold.PLP.Chemscore.CHOScore>
0.0000

> <Gold.PLP.Chemscore.Metal>
0.0000

> <Gold.Chemscore.Hbonds>
donor molecule, donor type, donor heavy atom, donor atom, acceptor molecule, acceptor atom, score
      L1  H     7    27       P1  8028  0.88
      L1  H    10    28       P1  8028  0.99
      L1  H    14    43       P1 10175  2.00

> <Gold.PLP.Chemscore.Internal.Correction>
0.0756

> <Gold.Rescore>
     Score         DG    S(hbond)    S(metal)    S(lipo)     H(rot)  DE(clash)    DE(int)     intcor
     19.30     -21.56       2.77        0.00      96.88       1.76       0.04       2.22       ----

> <Gold.Chemscore.Fitness>
19.3017

> <Gold.Chemscore.DG>
-21.5640

> <Gold.Chemscore.ZeroCoef>
-5.4800

> <Gold.Chemscore.Hbond>
2.7703

> <Gold.Chemscore.Metal>
0.0000

> <Gold.Chemscore.Lipo>
96.8817

> <Gold.Chemscore.Internal_Hbond>
0.0000

> <Gold.Chemscore.DEClash>
0.0404

> <Gold.Chemscore.DEInternal>
2.2219

> <Gold.Chemscore.Rot>
1.7593

> <Gold.Chemscore.Internal.Correction>
   9.000000E+99

> <Gold.Chemscore.Hbonds>
donor molecule, donor type, donor heavy atom, donor atom, acceptor molecule, acceptor atom, score
      L1  H     7    27       P1  8028  0.82
      L1  H    10    28       P1  8028  0.88
      L1  H    14    43       P1 10175  0.97

> <Gold.Chemscore.Hbond.Weighted>
-9.2528

> <Gold.Chemscore.Metal.Weighted>
-0.0000

> <Gold.Chemscore.Lipo.Weighted>
-11.3352

> <Gold.Chemscore.Internal_Hbond.Weighted>
0.0000

> <Gold.Chemscore.DEClash.Weighted>
0.0404

> <Gold.Chemscore.DEInternal.Weighted>
2.2219

> <Gold.Chemscore.Rot.Weighted>
4.5039

> <Gold.Chemscore.Internal.Correction.Weighted>
   9.000000E+99

> <Gold.Protein.RotatedTorsions>
[ 6907 6896 6895 6894 ] final  135.27 input  -60.11 | X-H torsion
[ 7974 7965 7964 7962 ] final   79.22 input  175.53 | X-H torsion
[ 8008 7997 7996 7995 ] final   37.70 input   59.86 | X-H torsion
[ 10167 10162 10161 10158 ] final   83.27 input  -65.29 | X-H torsion
[ 10718 10713 10712 10709 ] final  101.67 input   66.30 | X-H torsion
[ 10763 10752 10751 10750 ] final   89.93 input  -60.55 | X-H torsion
[ 11005 11000 10999 10996 ] final    5.89 input  -57.11 | X-H torsion

> <Gold.Protein.ActiveResidues>
 VAL166  LYS551  ARG553  GLY616  TRP617  ASP618  TYR619  PRO620  LYS621  CYS622 
 ASP623  PHE694  ASN695  SER759  ASP760  ASP761  ALA762  ILE779  LEU786  VAL792 
 PHE793  MET794  SER795  GLU796  ALA797  LYS798  CYS799  TRP800  GLU811  SER814 

> <Gold.Protein.RotatedAtoms>
  152.3022  133.5667  159.5625 H   0  0  0  0  0  0  0  0  0  0  0  0  # atno 6907 bound_to 6896
  150.7283  134.0274  159.3731 H   0  0  0  0  0  0  0  0  0  0  0  0  # atno 6908 bound_to 6896
  151.8173  135.0663  160.0471 H   0  0  0  0  0  0  0  0  0  0  0  0  # atno 6909 bound_to 6896
  145.6670  139.2486  143.1890 H   0  0  0  0  0  0  0  0  0  0  0  0  # atno 7974 bound_to 7965
  155.2081  140.3321  155.4333 H   0  0  0  0  0  0  0  0  0  0  0  0  # atno 8008 bound_to 7997
  156.2381  140.1882  156.7113 H   0  0  0  0  0  0  0  0  0  0  0  0  # atno 8009 bound_to 7997
  154.6096  140.0611  156.9462 H   0  0  0  0  0  0  0  0  0  0  0  0  # atno 8010 bound_to 7997
  139.9202  144.6217  150.8448 H   0  0  0  0  0  0  0  0  0  0  0  0  # atno 10167 bound_to 10162
  157.6823  131.0732  150.5287 H   0  0  0  0  0  0  0  0  0  0  0  0  # atno 10718 bound_to 10713
  153.1923  135.4452  155.0164 H   0  0  0  0  0  0  0  0  0  0  0  0  # atno 10763 bound_to 10752
  154.8097  135.3289  154.7339 H   0  0  0  0  0  0  0  0  0  0  0  0  # atno 10764 bound_to 10752
  153.7792  135.6979  153.4947 H   0  0  0  0  0  0  0  0  0  0  0  0  # atno 10765 bound_to 10752
  140.5657  134.0150  155.7989 H   0  0  0  0  0  0  0  0  0  0  0  0  # atno 11005 bound_to 11000
  146.1078  140.7466  142.9518 LP  0  0  0  0  0  0  0  0  0  0  0  0  # atno 17320 bound_to 7965
  144.7070  140.3889  143.7110 LP  0  0  0  0  0  0  0  0  0  0  0  0  # atno 17321 bound_to 7965
  140.7664  143.3303  151.2426 LP  0  0  0  0  0  0  0  0  0  0  0  0  # atno 17342 bound_to 10162
  139.6868  143.9760  152.2838 LP  0  0  0  0  0  0  0  0  0  0  0  0  # atno 17343 bound_to 10162
  156.5598  130.4252  149.6068 LP  0  0  0  0  0  0  0  0  0  0  0  0  # atno 17370 bound_to 10713
  156.2831  130.7082  151.1911 LP  0  0  0  0  0  0  0  0  0  0  0  0  # atno 17371 bound_to 10713
  141.1087  133.9651  157.2949 LP  0  0  0  0  0  0  0  0  0  0  0  0  # atno 17394 bound_to 11000
  139.9386  135.0194  156.8636 LP  0  0  0  0  0  0  0  0  0  0  0  0  # atno 17395 bound_to 11000

$$$$
