AV-unprocessed.smi:1045|AV-procd|sdf|4547|dock1
  -GOLD-   22720 2573D 1   1.00000     0.00000
 Structure written by MMmdl.
 43 44  0  0  0  0  0  0  0  0  2 V2000
  143.9593  134.7368  151.3834 C   0  0  0  0  0  0  0  0  0  0  0  0
  144.4811  135.7021  150.4871 O   0  0  0  0  0  0  0  0  0  0  0  0
  145.7699  136.1574  150.8698 C   0  0  0  0  0  0  0  0  0  0  0  0
  145.6500  137.4224  151.7350 C   0  0  1  0  0  0  0  0  0  0  0  0
  144.6486  137.2556  152.8872 C   0  0  0  0  0  0  0  0  0  0  0  0
  146.9620  137.7941  152.2613 N   0  0  0  0  0  0  0  0  0  0  0  0
  147.2030  138.7363  153.1839 C   0  0  0  0  0  0  0  0  0  0  0  0
  146.3248  139.4189  153.7105 O   0  0  0  0  0  0  0  0  0  0  0  0
  148.5156  138.8150  153.4627 N   0  0  0  0  0  0  0  0  0  0  0  0
  149.1743  139.6890  154.3690 C   0  0  0  0  0  0  0  0  0  0  0  0
  150.3323  139.2115  155.0197 C   0  0  0  0  0  0  0  0  0  0  0  0
  151.0278  140.0492  155.9156 C   0  0  0  0  0  0  0  0  0  0  0  0
  150.5590  141.3644  156.1407 C   0  0  0  0  0  0  0  0  0  0  0  0
  151.1791  142.2773  157.0052 N   0  0  0  0  0  0  0  0  0  0  0  0
  150.2707  143.0542  157.8319 C   0  0  0  0  0  0  0  0  0  0  0  0
  151.1352  143.6423  158.9501 C   0  0  0  0  0  0  0  0  0  0  0  0
  152.3736  142.7398  159.0071 C   0  0  0  0  0  0  0  0  0  0  0  0
  152.1460  141.6894  157.9169 C   0  0  0  0  0  0  0  0  0  0  0  0
  149.4556  141.7894  155.4880 N   0  3  0  0  0  0  0  0  0  0  0  0
  148.7583  141.0186  154.6252 C   0  0  0  0  0  0  0  0  0  0  0  0
  142.9720  134.4204  151.0472 H   0  0  0  0  0  0  0  0  0  0  0  0
  143.8571  135.1465  152.3891 H   0  0  0  0  0  0  0  0  0  0  0  0
  144.5986  133.8540  151.4281 H   0  0  0  0  0  0  0  0  0  0  0  0
  146.2897  135.3753  151.4259 H   0  0  0  0  0  0  0  0  0  0  0  0
  146.3672  136.3717  149.9819 H   0  0  0  0  0  0  0  0  0  0  0  0
  145.2703  138.2159  151.0892 H   0  0  0  0  0  0  0  0  0  0  0  0
  143.6589  136.9950  152.5110 H   0  0  0  0  0  0  0  0  0  0  0  0
  144.5507  138.1798  153.4578 H   0  0  0  0  0  0  0  0  0  0  0  0
  144.9592  136.4702  153.5772 H   0  0  0  0  0  0  0  0  0  0  0  0
  147.7506  137.2874  151.8863 H   0  0  0  0  0  0  0  0  0  0  0  0
  149.1062  138.1338  153.0083 H   0  0  0  0  0  0  0  0  0  0  0  0
  150.6872  138.2072  154.8392 H   0  0  0  0  0  0  0  0  0  0  0  0
  151.9110  139.6816  156.4170 H   0  0  0  0  0  0  0  0  0  0  0  0
  149.7832  143.8365  157.2493 H   0  0  0  0  0  0  0  0  0  0  0  0
  149.4940  142.4164  158.2558 H   0  0  0  0  0  0  0  0  0  0  0  0
  151.4306  144.6634  158.7051 H   0  0  0  0  0  0  0  0  0  0  0  0
  150.5982  143.6706  159.8985 H   0  0  0  0  0  0  0  0  0  0  0  0
  153.2687  143.3243  158.7904 H   0  0  0  0  0  0  0  0  0  0  0  0
  152.5076  142.2788  159.9862 H   0  0  0  0  0  0  0  0  0  0  0  0
  151.7510  140.7726  158.3567 H   0  0  0  0  0  0  0  0  0  0  0  0
  153.0734  141.4417  157.3994 H   0  0  0  0  0  0  0  0  0  0  0  0
  147.9086  141.5043  154.1698 H   0  0  0  0  0  0  0  0  0  0  0  0
  149.1325  142.7431  155.6525 H   0  0  0  0  0  0  0  0  0  0  0  0
  1  2  1  0  0  0  0
  1 21  1  0  0  0  0
  1 22  1  0  0  0  0
  1 23  1  0  0  0  0
  2  3  1  0  0  0  0
  3  4  1  0  0  0  0
  3 24  1  0  0  0  0
  3 25  1  0  0  0  0
  4  5  1  0  0  0  0
  4  6  1  0  0  0  0
  4 26  1  0  0  0  0
  5 27  1  0  0  0  0
  5 28  1  0  0  0  0
  5 29  1  0  0  0  0
  6  7  1  0  0  0  0
  6 30  1  0  0  0  0
  7  8  2  0  0  0  0
  7  9  1  0  0  0  0
  9 10  1  0  0  0  0
  9 31  1  0  0  0  0
 10 20  1  0  0  0  0
 10 11  2  0  0  0  0
 11 12  1  0  0  0  0
 11 32  1  0  0  0  0
 12 13  2  0  0  0  0
 12 33  1  0  0  0  0
 13 14  1  0  0  0  0
 13 19  1  0  0  0  0
 14 18  1  0  0  0  0
 14 15  1  0  0  0  0
 15 16  1  0  0  0  0
 15 34  1  0  0  0  0
 15 35  1  0  0  0  0
 16 17  1  0  0  0  0
 16 36  1  0  0  0  0
 16 37  1  0  0  0  0
 17 18  1  0  0  0  0
 17 38  1  0  0  0  0
 17 39  1  0  0  0  0
 18 40  1  0  0  0  0
 18 41  1  0  0  0  0
 19 20  2  0  0  0  0
 19 43  1  0  0  0  0
 20 42  1  0  0  0  0
M  CHG  1  19   1
M  END
> <s_m_source_file>
AV-unprocessed.smi

> <i_m_source_file_index>
1045

> <i_lp_mmshare_version>
43012

> <i_f3d_flags>
0

> <s_epik_input>
W0NIM11PW0NIMl1bQ0BIXShbQ0gzXSlbTkhdQyg9TylbTkhdYzFbY0hdW2NIXWMobltjSF0xKU4yW0NIMl1bQ0gyXVtDSDJdW0NIMl0y

> <s_epik_cmdline>
J2VwaWtfcHl0aG9uJywgJy1waCcsICc3LjAnLCAnLXRuJywgJzgnLCAnLW1hJywgJzIwMCcsICctbWV0YWxfYmluZGluZycsICctaW1hZScsICc8aW5maWxlLm1hZT4nLCAnLW9tYWUnLCAnPG91dGZpbGUubWFlPic=

> <r_lp_tautomer_probability>
0.999994

> <r_epik_Ionization_Penalty>
1.10308

> <r_epik_Ionization_Penalty_Charging>
1.10306

> <r_epik_Ionization_Penalty_Neutral>
1.99752e-05

> <r_epik_State_Penalty>
1.16038

> <r_epik_Charging_Adjusted_Penalty>
2.26344

> <i_epik_Tot_Q>
1

> <i_epik_Tot_abs_Q>
1

> <r_epik_Metal_State_Penalty>
1.24746

> <b_epik_Metal_Only>
0

> <s_lp_Force_Field>
OPLS_2005

> <r_lp_Energy>
39.8804

> <b_lp_Chiralities_Consistent>
1

> <s_lp_Variant>
AV-unprocessed.smi:1045-4

> <Gold.Version>
5.8.1

> <Gold.Id.Protein>
6NUR|6NUR_protein|mol2

> <Gold.PLP.Fitness>
41.0823

> <Gold.PLP.PLP>
-32.5559

> <Gold.PLP.part.hbond>
-3.9538

> <Gold.PLP.part.metal>
0.0000

> <Gold.PLP.part.buried>
-3.1409

> <Gold.PLP.part.nonpolar>
-27.9537

> <Gold.PLP.part.repulsive>
1.2464

> <Gold.PLP.ligand.clash>
0.0000

> <Gold.PLP.ligand.torsion>
1.0179

> <Gold.PLP.Chemscore.Hbond>
3.5002

> <Gold.PLP.Chemscore.CHOScore>
0.0000

> <Gold.PLP.Chemscore.Metal>
0.0000

> <Gold.Chemscore.Hbonds>
donor molecule, donor type, donor heavy atom, donor atom, acceptor molecule, acceptor atom, score
      L1  H     6    30       P1  7948  1.00
      L1  H     9    31       P1  7948  0.49
      L1  H    19    43       P1  8028  2.00

> <Gold.PLP.Chemscore.Internal.Correction>
0.0614

> <Gold.Rescore>
     Score         DG    S(hbond)    S(metal)    S(lipo)     H(rot)  DE(clash)    DE(int)     intcor
     16.54     -19.43       2.46        0.00      84.73       1.64       0.45       2.44       ----

> <Gold.Chemscore.Fitness>
16.5439

> <Gold.Chemscore.DG>
-19.4335

> <Gold.Chemscore.ZeroCoef>
-5.4800

> <Gold.Chemscore.Hbond>
2.4647

> <Gold.Chemscore.Metal>
0.0000

> <Gold.Chemscore.Lipo>
84.7315

> <Gold.Chemscore.Internal_Hbond>
0.0000

> <Gold.Chemscore.DEClash>
0.4467

> <Gold.Chemscore.DEInternal>
2.4429

> <Gold.Chemscore.Rot>
1.6376

> <Gold.Chemscore.Internal.Correction>
   9.000000E+99

> <Gold.Chemscore.Hbonds>
donor molecule, donor type, donor heavy atom, donor atom, acceptor molecule, acceptor atom, score
      L1  H     6    30       P1  7948  0.97
      L1  H     9    31       P1  7948  0.47
      L1  H    19    43       P1  8028  0.97

> <Gold.Chemscore.Hbond.Weighted>
-8.2323

> <Gold.Chemscore.Metal.Weighted>
-0.0000

> <Gold.Chemscore.Lipo.Weighted>
-9.9136

> <Gold.Chemscore.Internal_Hbond.Weighted>
0.0000

> <Gold.Chemscore.DEClash.Weighted>
0.4467

> <Gold.Chemscore.DEInternal.Weighted>
2.4429

> <Gold.Chemscore.Rot.Weighted>
4.1924

> <Gold.Chemscore.Internal.Correction.Weighted>
   9.000000E+99

> <Gold.Protein.RotatedTorsions>
[ 6907 6896 6895 6894 ] final -177.77 input  -60.11 | X-H torsion
[ 7974 7965 7964 7962 ] final -120.77 input  175.53 | X-H torsion
[ 8008 7997 7996 7995 ] final   21.76 input   59.86 | X-H torsion
[ 10167 10162 10161 10158 ] final  100.49 input  -65.29 | X-H torsion
[ 10718 10713 10712 10709 ] final -165.10 input   66.30 | X-H torsion
[ 10763 10752 10751 10750 ] final -171.93 input  -60.55 | X-H torsion
[ 11005 11000 10999 10996 ] final  157.19 input  -57.11 | X-H torsion

> <Gold.Protein.ActiveResidues>
 VAL166  LYS551  ARG553  GLY616  TRP617  ASP618  TYR619  PRO620  LYS621  CYS622 
 ASP623  PHE694  ASN695  SER759  ASP760  ASP761  ALA762  ILE779  LEU786  VAL792 
 PHE793  MET794  SER795  GLU796  ALA797  LYS798  CYS799  TRP800  GLU811  SER814 

> <Gold.Protein.RotatedAtoms>
  151.6265  133.3335  159.3099 H   0  0  0  0  0  0  0  0  0  0  0  0  # atno 6907 bound_to 6896
  150.8079  134.7219  159.6672 H   0  0  0  0  0  0  0  0  0  0  0  0  # atno 6908 bound_to 6896
  152.4175  134.6020  160.0054 H   0  0  0  0  0  0  0  0  0  0  0  0  # atno 6909 bound_to 6896
  145.0477  140.8194  143.4228 H   0  0  0  0  0  0  0  0  0  0  0  0  # atno 7974 bound_to 7965
  154.9555  140.3071  155.5055 H   0  0  0  0  0  0  0  0  0  0  0  0  # atno 8008 bound_to 7997
  156.2983  140.2311  156.4574 H   0  0  0  0  0  0  0  0  0  0  0  0  # atno 8009 bound_to 7997
  154.8014  140.0434  157.1264 H   0  0  0  0  0  0  0  0  0  0  0  0  # atno 8010 bound_to 7997
  139.7523  144.6980  151.0414 H   0  0  0  0  0  0  0  0  0  0  0  0  # atno 10167 bound_to 10162
  156.6486  130.8998  151.3009 H   0  0  0  0  0  0  0  0  0  0  0  0  # atno 10718 bound_to 10713
  154.6250  135.2879  155.0283 H   0  0  0  0  0  0  0  0  0  0  0  0  # atno 10763 bound_to 10752
  154.1464  135.6510  153.4957 H   0  0  0  0  0  0  0  0  0  0  0  0  # atno 10764 bound_to 10752
  153.0253  135.5345  154.7054 H   0  0  0  0  0  0  0  0  0  0  0  0  # atno 10765 bound_to 10752
  140.1746  134.8519  157.2731 H   0  0  0  0  0  0  0  0  0  0  0  0  # atno 11005 bound_to 11000
  145.1567  139.2482  143.5413 LP  0  0  0  0  0  0  0  0  0  0  0  0  # atno 17320 bound_to 7965
  146.3515  140.1283  142.8598 LP  0  0  0  0  0  0  0  0  0  0  0  0  # atno 17321 bound_to 7965
  140.7799  143.4795  151.0038 LP  0  0  0  0  0  0  0  0  0  0  0  0  # atno 17342 bound_to 10162
  139.8482  143.7473  152.3179 LP  0  0  0  0  0  0  0  0  0  0  0  0  # atno 17343 bound_to 10162
  157.7148  130.9484  150.1217 LP  0  0  0  0  0  0  0  0  0  0  0  0  # atno 17370 bound_to 10713
  156.2102  130.3666  149.8679 LP  0  0  0  0  0  0  0  0  0  0  0  0  # atno 17371 bound_to 10713
  140.2338  134.3877  155.7510 LP  0  0  0  0  0  0  0  0  0  0  0  0  # atno 17394 bound_to 11000
  141.2219  133.7229  156.8682 LP  0  0  0  0  0  0  0  0  0  0  0  0  # atno 17395 bound_to 11000

$$$$
