AV-unprocessed.smi:1983|AV-procd|sdf|8031|dock1
  -GOLD-   2272010223D 1   1.00000     0.00000
 Structure written by MMmdl.
 49 50  0  0  0  0  0  0  0  0  1 V2000
  147.5723  134.5051  155.9510 C   0  0  0  0  0  0  0  0  0  0  0  0
  148.9928  134.2358  155.4320 C   0  0  1  0  0  0  0  0  0  0  0  0
  149.0741  132.9413  154.5977 C   0  0  0  0  0  0  0  0  0  0  0  0
  148.3734  133.0918  153.3813 O   0  0  0  0  0  0  0  0  0  0  0  0
  149.4365  135.3808  154.6413 N   0  0  0  0  0  0  0  0  0  0  0  0
  150.5491  136.0937  154.8681 C   0  0  0  0  0  0  0  0  0  0  0  0
  151.3414  135.8649  155.7824 O   0  0  0  0  0  0  0  0  0  0  0  0
  150.7017  137.0790  153.9723 N   0  0  0  0  0  0  0  0  0  0  0  0
  151.8368  137.9937  153.9340 C   0  0  0  0  0  0  0  0  0  0  0  0
  151.8199  138.9979  155.0728 C   0  0  0  0  0  0  0  0  0  0  0  0
  150.8826  140.0492  155.0990 C   0  0  0  0  0  0  0  0  0  0  0  0
  150.9137  140.9634  156.1691 C   0  0  0  0  0  0  0  0  0  0  0  0
  151.8860  140.8028  157.1844 C   0  0  0  0  0  0  0  0  0  0  0  0
  151.9347  141.7122  158.2614 N   0  0  0  0  0  0  0  0  0  0  0  0
  152.3862  141.2165  159.5581 C   0  0  0  0  0  0  0  0  0  0  0  0
  152.6952  142.3930  160.5005 C   0  0  2  0  0  0  0  0  0  0  0  0
  153.0522  141.9170  161.9123 C   0  0  0  0  0  0  0  0  0  0  0  0
  151.5517  143.2417  160.5949 O   0  0  0  0  0  0  0  0  0  0  0  0
  151.0923  143.7695  159.3480 C   0  0  1  0  0  0  0  0  0  0  0  0
  152.0436  144.8392  158.7826 C   0  0  0  0  0  0  0  0  0  0  0  0
  150.7993  142.6244  158.3581 C   0  0  0  0  0  0  0  0  0  0  0  0
  152.7891  139.7916  157.1526 N   0  0  0  0  0  0  0  0  0  0  0  0
  152.7521  138.9153  156.1267 C   0  0  0  0  0  0  0  0  0  0  0  0
  147.2228  133.6910  156.5863 H   0  0  0  0  0  0  0  0  0  0  0  0
  146.8632  134.6135  155.1298 H   0  0  0  0  0  0  0  0  0  0  0  0
  147.5379  135.4192  156.5445 H   0  0  0  0  0  0  0  0  0  0  0  0
  149.6554  134.1425  156.2948 H   0  0  0  0  0  0  0  0  0  0  0  0
  150.1101  132.6696  154.3929 H   0  0  0  0  0  0  0  0  0  0  0  0
  148.6233  132.1054  155.1337 H   0  0  0  0  0  0  0  0  0  0  0  0
  147.4473  133.0307  153.5592 H   0  0  0  0  0  0  0  0  0  0  0  0
  148.8522  135.6468  153.8623 H   0  0  0  0  0  0  0  0  0  0  0  0
  149.9963  137.1929  153.2593 H   0  0  0  0  0  0  0  0  0  0  0  0
  152.7526  137.4062  154.0029 H   0  0  0  0  0  0  0  0  0  0  0  0
  151.8732  138.5085  152.9723 H   0  0  0  0  0  0  0  0  0  0  0  0
  150.1532  140.1577  154.3099 H   0  0  0  0  0  0  0  0  0  0  0  0
  150.2084  141.7809  156.1930 H   0  0  0  0  0  0  0  0  0  0  0  0
  151.6114  140.5808  159.9888 H   0  0  0  0  0  0  0  0  0  0  0  0
  153.2807  140.6041  159.4365 H   0  0  0  0  0  0  0  0  0  0  0  0
  153.5424  142.9592  160.1126 H   0  0  0  0  0  0  0  0  0  0  0  0
  153.9328  141.2743  161.8981 H   0  0  0  0  0  0  0  0  0  0  0  0
  152.2326  141.3533  162.3587 H   0  0  0  0  0  0  0  0  0  0  0  0
  153.2689  142.7629  162.5651 H   0  0  0  0  0  0  0  0  0  0  0  0
  150.1480  144.2710  159.5614 H   0  0  0  0  0  0  0  0  0  0  0  0
  151.6079  145.3172  157.9050 H   0  0  0  0  0  0  0  0  0  0  0  0
  153.0033  144.4218  158.4791 H   0  0  0  0  0  0  0  0  0  0  0  0
  152.2349  145.6178  159.5212 H   0  0  0  0  0  0  0  0  0  0  0  0
  150.5277  143.0406  157.3886 H   0  0  0  0  0  0  0  0  0  0  0  0
  149.9362  142.0547  158.7050 H   0  0  0  0  0  0  0  0  0  0  0  0
  153.4943  138.1309  156.1462 H   0  0  0  0  0  0  0  0  0  0  0  0
  1  2  1  0  0  0  0
  1 24  1  0  0  0  0
  1 25  1  0  0  0  0
  1 26  1  0  0  0  0
  2  3  1  0  0  0  0
  2  5  1  0  0  0  0
  2 27  1  0  0  0  0
  3  4  1  0  0  0  0
  3 28  1  0  0  0  0
  3 29  1  0  0  0  0
  4 30  1  0  0  0  0
  5  6  1  0  0  0  0
  5 31  1  0  0  0  0
  6  7  2  0  0  0  0
  6  8  1  0  0  0  0
  8  9  1  0  0  0  0
  8 32  1  0  0  0  0
  9 10  1  0  0  0  0
  9 33  1  0  0  0  0
  9 34  1  0  0  0  0
 10 23  1  0  0  0  0
 10 11  2  0  0  0  0
 11 12  1  0  0  0  0
 11 35  1  0  0  0  0
 12 13  2  0  0  0  0
 12 36  1  0  0  0  0
 13 14  1  0  0  0  0
 13 22  1  0  0  0  0
 14 21  1  0  0  0  0
 14 15  1  0  0  0  0
 15 16  1  0  0  0  0
 15 37  1  0  0  0  0
 15 38  1  0  0  0  0
 16 17  1  0  0  0  0
 16 18  1  0  0  0  0
 16 39  1  0  0  0  0
 17 40  1  0  0  0  0
 17 41  1  0  0  0  0
 17 42  1  0  0  0  0
 18 19  1  0  0  0  0
 19 20  1  0  0  0  0
 19 21  1  0  0  0  0
 19 43  1  0  0  0  0
 20 44  1  0  0  0  0
 20 45  1  0  0  0  0
 20 46  1  0  0  0  0
 21 47  1  0  0  0  0
 21 48  1  0  0  0  0
 22 23  2  0  0  0  0
 23 49  1  0  0  0  0
M  END
> <s_m_source_file>
AV-unprocessed.smi

> <i_m_source_file_index>
1983

> <i_lp_mmshare_version>
43012

> <i_f3d_flags>
0

> <s_epik_input>
W09IXVtDSDJdW0NAQEhdKFtDSDNdKVtOSF1DKD1PKVtOSF1bQ0gyXWMxW2NIXVtjSF1jKG5bY0hdMSlOMltDSDJdW0NAQEhdKFtDSDNdKU9bQ0BASF0oW0NIM10pW0NIMl0y

> <s_epik_cmdline>
J2VwaWtfcHl0aG9uJywgJy1waCcsICc3LjAnLCAnLXRuJywgJzgnLCAnLW1hJywgJzIwMCcsICctbWV0YWxfYmluZGluZycsICctaW1hZScsICc8aW5maWxlLm1hZT4nLCAnLW9tYWUnLCAnPG91dGZpbGUubWFlPic=

> <r_lp_tautomer_probability>
1

> <r_epik_Ionization_Penalty>
0.00801967

> <r_epik_Ionization_Penalty_Charging>
0

> <r_epik_Ionization_Penalty_Neutral>
0.00801967

> <r_epik_State_Penalty>
0.00598289

> <r_epik_Charging_Adjusted_Penalty>
0.00598289

> <i_epik_Tot_Q>
0

> <i_epik_Tot_abs_Q>
0

> <r_epik_Metal_State_Penalty>
0.00590297

> <b_epik_Metal_Only>
0

> <s_lp_Force_Field>
OPLS_2005

> <r_lp_Energy>
16.1949

> <b_lp_Chiralities_Consistent>
1

> <s_lp_Variant>
AV-unprocessed.smi:1983-4

> <Gold.Version>
5.8.1

> <Gold.Id.Protein>
6NUR|6NUR_protein|mol2

> <Gold.PLP.Fitness>
51.6747

> <Gold.PLP.PLP>
-43.4120

> <Gold.PLP.part.hbond>
-5.6494

> <Gold.PLP.part.metal>
0.0000

> <Gold.PLP.part.buried>
-0.3454

> <Gold.PLP.part.nonpolar>
-35.5065

> <Gold.PLP.part.repulsive>
0.2630

> <Gold.PLP.ligand.clash>
0.0000

> <Gold.PLP.ligand.torsion>
0.7138

> <Gold.PLP.Chemscore.Hbond>
3.0900

> <Gold.PLP.Chemscore.CHOScore>
0.0000

> <Gold.PLP.Chemscore.Metal>
0.0000

> <Gold.Chemscore.Hbonds>
donor molecule, donor type, donor heavy atom, donor atom, acceptor molecule, acceptor atom, score
      L1  H     5    31       P1  7948  0.74
      L1  H     8    32       P1  7948  0.86
      P1  H  7997  8010       L1    22  0.50
      P1  H 10752 10764       L1     7  0.90

> <Gold.PLP.Chemscore.Internal.Correction>
0.4202

> <Gold.Rescore>
     Score         DG    S(hbond)    S(metal)    S(lipo)     H(rot)  DE(clash)    DE(int)     intcor
     17.70     -18.78       2.03        0.00     112.96       2.61       0.38       0.71       ----

> <Gold.Chemscore.Fitness>
17.6971

> <Gold.Chemscore.DG>
-18.7795

> <Gold.Chemscore.ZeroCoef>
-5.4800

> <Gold.Chemscore.Hbond>
2.0252

> <Gold.Chemscore.Metal>
0.0000

> <Gold.Chemscore.Lipo>
112.9601

> <Gold.Chemscore.Internal_Hbond>
0.0000

> <Gold.Chemscore.DEClash>
0.3756

> <Gold.Chemscore.DEInternal>
0.7068

> <Gold.Chemscore.Rot>
2.6097

> <Gold.Chemscore.Internal.Correction>
   9.000000E+99

> <Gold.Chemscore.Hbonds>
donor molecule, donor type, donor heavy atom, donor atom, acceptor molecule, acceptor atom, score
      L1  H     5    31       P1  7948  0.67
      L1  H     8    32       P1  7948  0.22
      P1  H  7997  8010       L1    22  0.02
      P1  H 10752 10764       L1     7  0.17

> <Gold.Chemscore.Hbond.Weighted>
-6.7641

> <Gold.Chemscore.Metal.Weighted>
-0.0000

> <Gold.Chemscore.Lipo.Weighted>
-13.2163

> <Gold.Chemscore.Internal_Hbond.Weighted>
0.0000

> <Gold.Chemscore.DEClash.Weighted>
0.3756

> <Gold.Chemscore.DEInternal.Weighted>
0.7068

> <Gold.Chemscore.Rot.Weighted>
6.6809

> <Gold.Chemscore.Internal.Correction.Weighted>
   9.000000E+99

> <Gold.Protein.RotatedTorsions>
[ 6907 6896 6895 6894 ] final -148.00 input  -60.11 | X-H torsion
[ 7974 7965 7964 7962 ] final -159.31 input  175.53 | X-H torsion
[ 8008 7997 7996 7995 ] final   44.58 input   59.86 | X-H torsion
[ 10167 10162 10161 10158 ] final   -5.60 input  -65.29 | X-H torsion
[ 10718 10713 10712 10709 ] final  137.68 input   66.30 | X-H torsion
[ 10763 10752 10751 10750 ] final  -55.32 input  -60.55 | X-H torsion
[ 11005 11000 10999 10996 ] final  173.52 input  -57.11 | X-H torsion

> <Gold.Protein.ActiveResidues>
 VAL166  LYS551  ARG553  GLY616  TRP617  ASP618  TYR619  PRO620  LYS621  CYS622 
 ASP623  PHE694  ASN695  SER759  ASP760  ASP761  ALA762  ILE779  LEU786  VAL792 
 PHE793  MET794  SER795  GLU796  ALA797  LYS798  CYS799  TRP800  GLU811  SER814 

> <Gold.Protein.RotatedAtoms>
  151.1636  133.4829  159.2593 H   0  0  0  0  0  0  0  0  0  0  0  0  # atno 6907 bound_to 6896
  151.1429  135.0188  159.8644 H   0  0  0  0  0  0  0  0  0  0  0  0  # atno 6908 bound_to 6896
  152.5462  134.1528  159.8578 H   0  0  0  0  0  0  0  0  0  0  0  0  # atno 6909 bound_to 6896
  144.7470  140.3703  143.6077 H   0  0  0  0  0  0  0  0  0  0  0  0  # atno 7974 bound_to 7965
  155.3217  140.3397  155.4241 H   0  0  0  0  0  0  0  0  0  0  0  0  # atno 8008 bound_to 7997
  156.1906  140.1696  156.8137 H   0  0  0  0  0  0  0  0  0  0  0  0  # atno 8009 bound_to 7997
  154.5437  140.0719  156.8536 H   0  0  0  0  0  0  0  0  0  0  0  0  # atno 8010 bound_to 7997
  140.6968  143.6290  150.8541 H   0  0  0  0  0  0  0  0  0  0  0  0  # atno 10167 bound_to 10162
  157.4335  131.1051  151.0224 H   0  0  0  0  0  0  0  0  0  0  0  0  # atno 10718 bound_to 10713
  154.1888  135.6431  153.5054 H   0  0  0  0  0  0  0  0  0  0  0  0  # atno 10763 bound_to 10752
  153.0040  135.5424  154.6436 H   0  0  0  0  0  0  0  0  0  0  0  0  # atno 10764 bound_to 10752
  154.5820  135.2926  155.0696 H   0  0  0  0  0  0  0  0  0  0  0  0  # atno 10765 bound_to 10752
  140.3414  134.7273  157.4205 H   0  0  0  0  0  0  0  0  0  0  0  0  # atno 11005 bound_to 11000
  145.7084  139.1678  143.2553 LP  0  0  0  0  0  0  0  0  0  0  0  0  # atno 17320 bound_to 7965
  146.1365  140.7116  142.9387 LP  0  0  0  0  0  0  0  0  0  0  0  0  # atno 17321 bound_to 7965
  140.0009  143.5746  152.2876 LP  0  0  0  0  0  0  0  0  0  0  0  0  # atno 17342 bound_to 10162
  139.6434  144.7656  151.2292 LP  0  0  0  0  0  0  0  0  0  0  0  0  # atno 17343 bound_to 10162
  157.1112  130.6022  149.5482 LP  0  0  0  0  0  0  0  0  0  0  0  0  # atno 17370 bound_to 10713
  155.9922  130.4979  150.7329 LP  0  0  0  0  0  0  0  0  0  0  0  0  # atno 17371 bound_to 10713
  140.0778  134.5773  155.8573 LP  0  0  0  0  0  0  0  0  0  0  0  0  # atno 17394 bound_to 11000
  141.2037  133.6634  156.6080 LP  0  0  0  0  0  0  0  0  0  0  0  0  # atno 17395 bound_to 11000

$$$$
