AV-unprocessed.smi:2807|AV-procd|sdf|10820|dock5
  -GOLD-   2272015253D 1   1.00000     0.00000
 Structure written by MMmdl.
 31 32  0  0  0  0  0  0  0  0  2 V2000
  151.6194  140.0588  155.1584 O   0  0  0  0  0  0  0  0  0  0  0  0
  150.8547  140.4375  156.0536 C   0  0  0  0  0  0  0  0  0  0  0  0
  149.5889  140.9381  155.9651 N   0  5  0  0  0  0  0  0  0  0  0  0
  148.8911  141.1792  154.7028 C   0  0  2  0  0  0  0  0  0  0  0  0
  147.6538  142.0662  154.8957 C   0  0  0  0  0  0  0  0  0  0  0  0
  146.6972  141.6984  153.7489 C   0  0  0  0  0  0  0  0  0  0  0  0
  147.1972  140.3633  153.1725 C   0  0  0  0  0  0  0  0  0  0  0  0
  148.2940  139.8876  154.1342 C   0  0  1  0  0  0  0  0  0  0  0  0
  149.2667  139.0995  153.4810 O   0  0  0  0  0  0  0  0  0  0  0  0
  151.3560  140.3894  157.5126 C   0  0  0  0  0  0  0  0  0  0  0  0
  150.4712  139.7447  158.2813 F   0  0  0  0  0  0  0  0  0  0  0  0
  152.4966  139.6959  157.5519 F   0  0  0  0  0  0  0  0  0  0  0  0
  151.6161  141.8016  158.0350 C   0  0  0  0  0  0  0  0  0  0  0  0
  152.2853  142.0015  159.2644 C   0  0  0  0  0  0  0  0  0  0  0  0
  152.5247  143.3194  159.6979 C   0  0  0  0  0  0  0  0  0  0  0  0
  152.0888  144.3884  158.8925 C   0  0  0  0  0  0  0  0  0  0  0  0
  151.4303  144.0894  157.6836 C   0  0  0  0  0  0  0  0  0  0  0  0
  151.1948  142.8298  157.2598 N   0  0  0  0  0  0  0  0  0  0  0  0
  149.5323  141.6343  153.9452 H   0  0  0  0  0  0  0  0  0  0  0  0
  147.1699  141.8412  155.8479 H   0  0  0  0  0  0  0  0  0  0  0  0
  147.9049  143.1274  154.9018 H   0  0  0  0  0  0  0  0  0  0  0  0
  145.6741  141.6121  154.1167 H   0  0  0  0  0  0  0  0  0  0  0  0
  146.6972  142.4681  152.9754 H   0  0  0  0  0  0  0  0  0  0  0  0
  146.3968  139.6288  153.0779 H   0  0  0  0  0  0  0  0  0  0  0  0
  147.5997  140.5288  152.1704 H   0  0  0  0  0  0  0  0  0  0  0  0
  147.8386  139.3008  154.9343 H   0  0  0  0  0  0  0  0  0  0  0  0
  149.6012  139.6032  152.7542 H   0  0  0  0  0  0  0  0  0  0  0  0
  152.6171  141.1614  159.8563 H   0  0  0  0  0  0  0  0  0  0  0  0
  153.0365  143.5064  160.6301 H   0  0  0  0  0  0  0  0  0  0  0  0
  152.2568  145.4122  159.1923 H   0  0  0  0  0  0  0  0  0  0  0  0
  151.0830  144.8838  157.0398 H   0  0  0  0  0  0  0  0  0  0  0  0
  1  2  2  0  0  0  0
  2  3  1  0  0  0  0
  2 10  1  0  0  0  0
  3  4  1  0  0  0  0
  4  8  1  0  0  0  0
  4  5  1  0  0  0  0
  4 19  1  0  0  0  0
  5  6  1  0  0  0  0
  5 20  1  0  0  0  0
  5 21  1  0  0  0  0
  6  7  1  0  0  0  0
  6 22  1  0  0  0  0
  6 23  1  0  0  0  0
  7  8  1  0  0  0  0
  7 24  1  0  0  0  0
  7 25  1  0  0  0  0
  8  9  1  0  0  0  0
  8 26  1  0  0  0  0
  9 27  1  0  0  0  0
 10 11  1  0  0  0  0
 10 12  1  0  0  0  0
 10 13  1  0  0  0  0
 13 18  1  0  0  0  0
 13 14  2  0  0  0  0
 14 15  1  0  0  0  0
 14 28  1  0  0  0  0
 15 16  2  0  0  0  0
 15 29  1  0  0  0  0
 16 17  1  0  0  0  0
 16 30  1  0  0  0  0
 17 18  2  0  0  0  0
 17 31  1  0  0  0  0
M  CHG  1   3  -1
M  END
> <s_m_source_file>
AV-unprocessed.smi

> <i_m_source_file_index>
2807

> <i_lp_mmshare_version>
43012

> <i_f3d_flags>
0

> <s_epik_input>
bjFbY0hdW2NIXVtjSF1bY0hdYzFDKEYpKEYpQyg9TylbTkhdW0NAQEhdMltDSDJdW0NIMl1bQ0gyXVtDQEhdMltPSF0=

> <s_epik_cmdline>
J2VwaWtfcHl0aG9uJywgJy1waCcsICc3LjAnLCAnLXRuJywgJzgnLCAnLW1hJywgJzIwMCcsICctbWV0YWxfYmluZGluZycsICctaW1hZScsICc8aW5maWxlLm1hZT4nLCAnLW9tYWUnLCAnPG91dGZpbGUubWFlPic=

> <r_lp_tautomer_probability>
1

> <r_epik_Ionization_Penalty>
5.72231

> <r_epik_Ionization_Penalty_Charging>
5.72231

> <r_epik_Ionization_Penalty_Neutral>
5.49816e-06

> <r_epik_State_Penalty>
5.72227

> <r_epik_Charging_Adjusted_Penalty>
11.4446

> <i_epik_Tot_Q>
-1

> <i_epik_Tot_abs_Q>
1

> <r_epik_Metal_State_Penalty>
1.70075

> <b_epik_Metal_Only>
1

> <s_lp_Force_Field>
OPLS_2005

> <r_lp_Energy>
34.3832

> <b_lp_Chiralities_Consistent>
1

> <s_lp_Variant>
AV-unprocessed.smi:2807-5

> <Gold.Version>
5.8.1

> <Gold.Id.Protein>
6NUR|6NUR_protein|mol2

> <Gold.PLP.Fitness>
45.6820

> <Gold.PLP.PLP>
-38.4804

> <Gold.PLP.part.hbond>
-2.2237

> <Gold.PLP.part.metal>
0.0000

> <Gold.PLP.part.buried>
-2.0321

> <Gold.PLP.part.nonpolar>
-34.8218

> <Gold.PLP.part.repulsive>
0.2029

> <Gold.PLP.ligand.clash>
0.0000

> <Gold.PLP.ligand.torsion>
0.7409

> <Gold.PLP.Chemscore.Hbond>
2.0000

> <Gold.PLP.Chemscore.CHOScore>
0.8726

> <Gold.PLP.Chemscore.Metal>
0.0000

> <Gold.Chemscore.Hbonds>
donor molecule, donor type, donor heavy atom, donor atom, acceptor molecule, acceptor atom, score
      L1  H     9    27       P1  7957  1.00
      P1  H  7989  7998       L1     1  1.00
      L1  C    17    31       P1  8028  0.83

> <Gold.PLP.Chemscore.Internal.Correction>
0.0656

> <Gold.Rescore>
     Score         DG    S(hbond)    S(metal)    S(lipo)     H(rot)  DE(clash)    DE(int)     intcor
     16.08     -18.05       1.95        0.00      95.58       2.00       0.17       1.80       ----

> <Gold.Chemscore.Fitness>
16.0804

> <Gold.Chemscore.DG>
-18.0481

> <Gold.Chemscore.ZeroCoef>
-5.4800

> <Gold.Chemscore.Hbond>
1.9451

> <Gold.Chemscore.Metal>
0.0000

> <Gold.Chemscore.Lipo>
95.5764

> <Gold.Chemscore.Internal_Hbond>
0.0000

> <Gold.Chemscore.DEClash>
0.1697

> <Gold.Chemscore.DEInternal>
1.7980

> <Gold.Chemscore.Rot>
1.9964

> <Gold.Chemscore.Internal.Correction>
   9.000000E+99

> <Gold.Chemscore.Hbonds>
donor molecule, donor type, donor heavy atom, donor atom, acceptor molecule, acceptor atom, score
      L1  H     9    27       P1  7957  0.96
      P1  H  7989  7998       L1     1  0.93

> <Gold.Chemscore.Hbond.Weighted>
-6.4965

> <Gold.Chemscore.Metal.Weighted>
-0.0000

> <Gold.Chemscore.Lipo.Weighted>
-11.1824

> <Gold.Chemscore.Internal_Hbond.Weighted>
0.0000

> <Gold.Chemscore.DEClash.Weighted>
0.1697

> <Gold.Chemscore.DEInternal.Weighted>
1.7980

> <Gold.Chemscore.Rot.Weighted>
5.1108

> <Gold.Chemscore.Internal.Correction.Weighted>
   9.000000E+99

> <Gold.Protein.RotatedTorsions>
[ 6907 6896 6895 6894 ] final  139.86 input  -60.11 | X-H torsion
[ 7974 7965 7964 7962 ] final   76.04 input  175.53 | X-H torsion
[ 8008 7997 7996 7995 ] final  -83.26 input   59.86 | X-H torsion
[ 10167 10162 10161 10158 ] final   58.89 input  -65.29 | X-H torsion
[ 10718 10713 10712 10709 ] final  166.90 input   66.30 | X-H torsion
[ 10763 10752 10751 10750 ] final   53.66 input  -60.55 | X-H torsion
[ 11005 11000 10999 10996 ] final  -84.06 input  -57.11 | X-H torsion

> <Gold.Protein.ActiveResidues>
 VAL166  LYS551  ARG553  GLY616  TRP617  ASP618  TYR619  PRO620  LYS621  CYS622 
 ASP623  PHE694  ASN695  SER759  ASP760  ASP761  ALA762  ILE779  LEU786  VAL792 
 PHE793  MET794  SER795  GLU796  ALA797  LYS798  CYS799  TRP800  GLU811  SER814 

> <Gold.Protein.RotatedAtoms>
  152.2499  133.5206  159.5318 H   0  0  0  0  0  0  0  0  0  0  0  0  # atno 6907 bound_to 6896
  150.7090  134.0974  159.3962 H   0  0  0  0  0  0  0  0  0  0  0  0  # atno 6908 bound_to 6896
  151.8894  135.0422  160.0547 H   0  0  0  0  0  0  0  0  0  0  0  0  # atno 6909 bound_to 6896
  145.7079  139.2604  143.1667 H   0  0  0  0  0  0  0  0  0  0  0  0  # atno 7974 bound_to 7965
  154.6172  140.0621  156.9569 H   0  0  0  0  0  0  0  0  0  0  0  0  # atno 8008 bound_to 7997
  155.1876  140.3304  155.4346 H   0  0  0  0  0  0  0  0  0  0  0  0  # atno 8009 bound_to 7997
  156.2411  140.1886  156.6968 H   0  0  0  0  0  0  0  0  0  0  0  0  # atno 8010 bound_to 7997
  140.1823  144.4169  150.6609 H   0  0  0  0  0  0  0  0  0  0  0  0  # atno 10167 bound_to 10162
  157.0592  131.0335  151.2653 H   0  0  0  0  0  0  0  0  0  0  0  0  # atno 10718 bound_to 10713
  152.9797  135.5771  154.4777 H   0  0  0  0  0  0  0  0  0  0  0  0  # atno 10763 bound_to 10752
  154.4330  135.2774  155.1901 H   0  0  0  0  0  0  0  0  0  0  0  0  # atno 10764 bound_to 10752
  154.3601  135.6190  153.5740 H   0  0  0  0  0  0  0  0  0  0  0  0  # atno 10765 bound_to 10752
  141.1653  133.7326  156.8812 H   0  0  0  0  0  0  0  0  0  0  0  0  # atno 11005 bound_to 11000
  146.0739  140.7839  142.9674 LP  0  0  0  0  0  0  0  0  0  0  0  0  # atno 17320 bound_to 7965
  144.6950  140.3384  143.7203 LP  0  0  0  0  0  0  0  0  0  0  0  0  # atno 17321 bound_to 7965
  140.6511  143.2225  151.6074 LP  0  0  0  0  0  0  0  0  0  0  0  0  # atno 17342 bound_to 10162
  139.5291  144.2970  152.1105 LP  0  0  0  0  0  0  0  0  0  0  0  0  # atno 17343 bound_to 10162
  157.4968  130.7856  149.7564 LP  0  0  0  0  0  0  0  0  0  0  0  0  # atno 17370 bound_to 10713
  155.9984  130.3894  150.2704 LP  0  0  0  0  0  0  0  0  0  0  0  0  # atno 17371 bound_to 10713
  140.1713  134.9098  157.2837 LP  0  0  0  0  0  0  0  0  0  0  0  0  # atno 17394 bound_to 11000
  140.2498  134.3696  155.7446 LP  0  0  0  0  0  0  0  0  0  0  0  0  # atno 17395 bound_to 11000

$$$$
