AV-unprocessed.smi:831|AV-procd|sdf|3875|dock8
  -GOLD-   22720 1333D 1   1.00000     0.00000
 Structure written by MMmdl.
 50 51  0  0  0  0  0  0  0  0  1 V2000
  147.5373  132.3395  153.2114 C   0  0  0  0  0  0  0  0  0  0  0  0
  148.8706  132.5332  153.9509 C   0  0  0  0  0  0  0  0  0  0  0  0
  149.3716  131.2030  154.5318 C   0  0  0  0  0  0  0  0  0  0  0  0
  148.7542  133.6056  155.0458 C   0  0  0  0  0  0  0  0  0  0  0  0
  147.9242  134.6624  154.5773 O   0  0  0  0  0  0  0  0  0  0  0  0
  147.8872  135.8196  155.4064 C   0  0  1  0  0  0  0  0  0  0  0  0
  147.3941  135.3704  156.7899 C   0  0  0  0  0  0  0  0  0  0  0  0
  149.2963  136.4441  155.4987 C   0  0  0  0  0  0  0  0  0  0  0  0
  149.8743  136.4657  156.5838 O   0  0  0  0  0  0  0  0  0  0  0  0
  149.8885  136.9428  154.4004 N   0  0  0  0  0  0  0  0  0  0  0  0
  151.2058  137.5632  154.3105 C   0  0  0  0  0  0  0  0  0  0  0  0
  151.4058  138.7312  155.2647 C   0  0  0  0  0  0  0  0  0  0  0  0
  150.6145  139.8988  155.2133 C   0  0  0  0  0  0  0  0  0  0  0  0
  150.8624  140.9342  156.1346 C   0  0  0  0  0  0  0  0  0  0  0  0
  151.8941  140.7776  157.0906 C   0  0  0  0  0  0  0  0  0  0  0  0
  152.1627  141.8058  158.0199 N   0  0  0  0  0  0  0  0  0  0  0  0
  152.2092  141.3925  159.4205 C   0  0  0  0  0  0  0  0  0  0  0  0
  152.7997  142.5144  160.2919 C   0  0  0  0  0  0  0  0  0  0  0  0
  152.0637  143.7169  160.0945 O   0  0  0  0  0  0  0  0  0  0  0  0
  152.1290  144.1609  158.7434 C   0  0  0  0  0  0  0  0  0  0  0  0
  151.5109  143.0989  157.8186 C   0  0  0  0  0  0  0  0  0  0  0  0
  152.6415  139.6475  157.1469 N   0  0  0  0  0  0  0  0  0  0  0  0
  152.4011  138.6592  156.2600 C   0  0  0  0  0  0  0  0  0  0  0  0
  146.7525  132.0040  153.8902 H   0  0  0  0  0  0  0  0  0  0  0  0
  147.6314  131.5974  152.4183 H   0  0  0  0  0  0  0  0  0  0  0  0
  147.2015  133.2689  152.7505 H   0  0  0  0  0  0  0  0  0  0  0  0
  149.6115  132.8727  153.2260 H   0  0  0  0  0  0  0  0  0  0  0  0
  148.6748  130.8048  155.2701 H   0  0  0  0  0  0  0  0  0  0  0  0
  150.3391  131.3258  155.0196 H   0  0  0  0  0  0  0  0  0  0  0  0
  149.4925  130.4534  153.7492 H   0  0  0  0  0  0  0  0  0  0  0  0
  148.3585  133.1606  155.9595 H   0  0  0  0  0  0  0  0  0  0  0  0
  149.7413  134.0062  155.2818 H   0  0  0  0  0  0  0  0  0  0  0  0
  147.1510  136.5167  155.0080 H   0  0  0  0  0  0  0  0  0  0  0  0
  147.3460  136.2101  157.4841 H   0  0  0  0  0  0  0  0  0  0  0  0
  148.0459  134.6115  157.2245 H   0  0  0  0  0  0  0  0  0  0  0  0
  146.3935  134.9428  156.7222 H   0  0  0  0  0  0  0  0  0  0  0  0
  149.3695  136.8794  153.5367 H   0  0  0  0  0  0  0  0  0  0  0  0
  151.9747  136.8179  154.5189 H   0  0  0  0  0  0  0  0  0  0  0  0
  151.3633  137.9207  153.2917 H   0  0  0  0  0  0  0  0  0  0  0  0
  149.8233  140.0099  154.4869 H   0  0  0  0  0  0  0  0  0  0  0  0
  150.2521  141.8244  156.1071 H   0  0  0  0  0  0  0  0  0  0  0  0
  151.1967  141.1579  159.7515 H   0  0  0  0  0  0  0  0  0  0  0  0
  152.8034  140.4900  159.5554 H   0  0  0  0  0  0  0  0  0  0  0  0
  152.7502  142.2368  161.3449 H   0  0  0  0  0  0  0  0  0  0  0  0
  153.8526  142.6768  160.0554 H   0  0  0  0  0  0  0  0  0  0  0  0
  151.5842  145.1004  158.6516 H   0  0  0  0  0  0  0  0  0  0  0  0
  153.1645  144.3649  158.4655 H   0  0  0  0  0  0  0  0  0  0  0  0
  151.6168  143.4176  156.7809 H   0  0  0  0  0  0  0  0  0  0  0  0
  150.4438  143.0021  158.0236 H   0  0  0  0  0  0  0  0  0  0  0  0
  153.0267  137.7830  156.3476 H   0  0  0  0  0  0  0  0  0  0  0  0
  1  2  1  0  0  0  0
  1 24  1  0  0  0  0
  1 25  1  0  0  0  0
  1 26  1  0  0  0  0
  2  3  1  0  0  0  0
  2  4  1  0  0  0  0
  2 27  1  0  0  0  0
  3 28  1  0  0  0  0
  3 29  1  0  0  0  0
  3 30  1  0  0  0  0
  4  5  1  0  0  0  0
  4 31  1  0  0  0  0
  4 32  1  0  0  0  0
  5  6  1  0  0  0  0
  6  7  1  0  0  0  0
  6  8  1  0  0  0  0
  6 33  1  0  0  0  0
  7 34  1  0  0  0  0
  7 35  1  0  0  0  0
  7 36  1  0  0  0  0
  8  9  2  0  0  0  0
  8 10  1  0  0  0  0
 10 11  1  0  0  0  0
 10 37  1  0  0  0  0
 11 12  1  0  0  0  0
 11 38  1  0  0  0  0
 11 39  1  0  0  0  0
 12 23  1  0  0  0  0
 12 13  2  0  0  0  0
 13 14  1  0  0  0  0
 13 40  1  0  0  0  0
 14 15  2  0  0  0  0
 14 41  1  0  0  0  0
 15 16  1  0  0  0  0
 15 22  1  0  0  0  0
 16 21  1  0  0  0  0
 16 17  1  0  0  0  0
 17 18  1  0  0  0  0
 17 42  1  0  0  0  0
 17 43  1  0  0  0  0
 18 19  1  0  0  0  0
 18 44  1  0  0  0  0
 18 45  1  0  0  0  0
 19 20  1  0  0  0  0
 20 21  1  0  0  0  0
 20 46  1  0  0  0  0
 20 47  1  0  0  0  0
 21 48  1  0  0  0  0
 21 49  1  0  0  0  0
 22 23  2  0  0  0  0
 23 50  1  0  0  0  0
M  END
> <s_m_source_file>
AV-unprocessed.smi

> <i_m_source_file_index>
831

> <i_lp_mmshare_version>
43012

> <i_f3d_flags>
0

> <s_epik_input>
W0NIM11bQ0hdKFtDSDNdKVtDSDJdT1tDQEhdKFtDSDNdKUMoPU8pW05IXVtDSDJdYzFbY0hdW2NIXWMobltjSF0xKU4yW0NIMl1bQ0gyXU9bQ0gyXVtDSDJdMg==

> <s_epik_cmdline>
J2VwaWtfcHl0aG9uJywgJy1waCcsICc3LjAnLCAnLXRuJywgJzgnLCAnLW1hJywgJzIwMCcsICctbWV0YWxfYmluZGluZycsICctaW1hZScsICc8aW5maWxlLm1hZT4nLCAnLW9tYWUnLCAnPG91dGZpbGUubWFlPic=

> <r_lp_tautomer_probability>
1

> <r_epik_Ionization_Penalty>
0.00456501

> <r_epik_Ionization_Penalty_Charging>
0

> <r_epik_Ionization_Penalty_Neutral>
0.00456501

> <r_epik_State_Penalty>
0.00329791

> <r_epik_Charging_Adjusted_Penalty>
0.00329791

> <i_epik_Tot_Q>
0

> <i_epik_Tot_abs_Q>
0

> <r_epik_Metal_State_Penalty>
-0

> <b_epik_Metal_Only>
0

> <s_lp_Force_Field>
OPLS_2005

> <r_lp_Energy>
24.1479

> <b_lp_Chiralities_Consistent>
1

> <s_lp_Variant>
AV-unprocessed.smi:831-2

> <Gold.Version>
5.8.1

> <Gold.Id.Protein>
6NUR|6NUR_protein|mol2

> <Gold.PLP.Fitness>
46.5311

> <Gold.PLP.PLP>
-40.9835

> <Gold.PLP.part.hbond>
-2.3282

> <Gold.PLP.part.metal>
0.0000

> <Gold.PLP.part.buried>
-3.6037

> <Gold.PLP.part.nonpolar>
-35.7101

> <Gold.PLP.part.repulsive>
0.2063

> <Gold.PLP.ligand.clash>
0.0000

> <Gold.PLP.ligand.torsion>
0.4149

> <Gold.PLP.Chemscore.Hbond>
2.0000

> <Gold.PLP.Chemscore.CHOScore>
0.0000

> <Gold.PLP.Chemscore.Metal>
0.0000

> <Gold.Chemscore.Hbonds>
donor molecule, donor type, donor heavy atom, donor atom, acceptor molecule, acceptor atom, score
      L1  H    10    37       P1  7948  1.00
      P1  H  7997  8009       L1    22  1.00

> <Gold.PLP.Chemscore.Internal.Correction>
0.3773

> <Gold.Rescore>
     Score         DG    S(hbond)    S(metal)    S(lipo)     H(rot)  DE(clash)    DE(int)     intcor
     16.21     -16.70       1.16        0.00     104.84       1.92       0.06       0.43       ----

> <Gold.Chemscore.Fitness>
16.2120

> <Gold.Chemscore.DG>
-16.7046

> <Gold.Chemscore.ZeroCoef>
-5.4800

> <Gold.Chemscore.Hbond>
1.1565

> <Gold.Chemscore.Metal>
0.0000

> <Gold.Chemscore.Lipo>
104.8437

> <Gold.Chemscore.Internal_Hbond>
0.0000

> <Gold.Chemscore.DEClash>
0.0588

> <Gold.Chemscore.DEInternal>
0.4337

> <Gold.Chemscore.Rot>
1.9159

> <Gold.Chemscore.Internal.Correction>
   9.000000E+99

> <Gold.Chemscore.Hbonds>
donor molecule, donor type, donor heavy atom, donor atom, acceptor molecule, acceptor atom, score
      L1  H    10    37       P1  7948  0.93
      P1  H  7997  8009       L1    22  0.17

> <Gold.Chemscore.Hbond.Weighted>
-3.8627

> <Gold.Chemscore.Metal.Weighted>
-0.0000

> <Gold.Chemscore.Lipo.Weighted>
-12.2667

> <Gold.Chemscore.Internal_Hbond.Weighted>
0.0000

> <Gold.Chemscore.DEClash.Weighted>
0.0588

> <Gold.Chemscore.DEInternal.Weighted>
0.4337

> <Gold.Chemscore.Rot.Weighted>
4.9047

> <Gold.Chemscore.Internal.Correction.Weighted>
   9.000000E+99

> <Gold.Protein.RotatedTorsions>
[ 6907 6896 6895 6894 ] final   75.94 input  -60.11 | X-H torsion
[ 7974 7965 7964 7962 ] final -109.70 input  175.53 | X-H torsion
[ 8008 7997 7996 7995 ] final  179.31 input   59.86 | X-H torsion
[ 10167 10162 10161 10158 ] final   81.65 input  -65.29 | X-H torsion
[ 10718 10713 10712 10709 ] final  110.44 input   66.30 | X-H torsion
[ 10763 10752 10751 10750 ] final -134.94 input  -60.55 | X-H torsion
[ 11005 11000 10999 10996 ] final  103.27 input  -57.11 | X-H torsion

> <Gold.Protein.ActiveResidues>
 VAL166  LYS551  ARG553  GLY616  TRP617  ASP618  TYR619  PRO620  LYS621  CYS622 
 ASP623  PHE694  ASN695  SER759  ASP760  ASP761  ALA762  ILE779  LEU786  VAL792 
 PHE793  MET794  SER795  GLU796  ALA797  LYS798  CYS799  TRP800  GLU811  SER814 

> <Gold.Protein.RotatedAtoms>
  152.5050  134.4044  159.9427 H   0  0  0  0  0  0  0  0  0  0  0  0  # atno 6907 bound_to 6896
  151.4009  133.3751  159.2740 H   0  0  0  0  0  0  0  0  0  0  0  0  # atno 6908 bound_to 6896
  150.9362  134.8795  159.7642 H   0  0  0  0  0  0  0  0  0  0  0  0  # atno 6909 bound_to 6896
  145.1773  140.8954  143.3500 H   0  0  0  0  0  0  0  0  0  0  0  0  # atno 7974 bound_to 7965
  156.0449  140.1312  157.0115 H   0  0  0  0  0  0  0  0  0  0  0  0  # atno 8008 bound_to 7997
  154.4407  140.1023  156.6361 H   0  0  0  0  0  0  0  0  0  0  0  0  # atno 8009 bound_to 7997
  155.5612  140.3465  155.4494 H   0  0  0  0  0  0  0  0  0  0  0  0  # atno 8010 bound_to 7997
  139.9370  144.6114  150.8288 H   0  0  0  0  0  0  0  0  0  0  0  0  # atno 10167 bound_to 10162
  157.6494  131.0933  150.6602 H   0  0  0  0  0  0  0  0  0  0  0  0  # atno 10718 bound_to 10713
  154.8711  135.3719  154.4817 H   0  0  0  0  0  0  0  0  0  0  0  0  # atno 10763 bound_to 10752
  153.5470  135.7025  153.5614 H   0  0  0  0  0  0  0  0  0  0  0  0  # atno 10764 bound_to 10752
  153.3750  135.4011  155.1780 H   0  0  0  0  0  0  0  0  0  0  0  0  # atno 10765 bound_to 10752
  139.8782  134.9257  156.5185 H   0  0  0  0  0  0  0  0  0  0  0  0  # atno 11005 bound_to 11000
  145.0171  139.3457  143.6091 LP  0  0  0  0  0  0  0  0  0  0  0  0  # atno 17320 bound_to 7965
  146.3459  139.9457  142.8735 LP  0  0  0  0  0  0  0  0  0  0  0  0  # atno 17321 bound_to 7965
  140.7621  143.3191  151.2663 LP  0  0  0  0  0  0  0  0  0  0  0  0  # atno 17342 bound_to 10162
  139.6735  143.9978  152.2767 LP  0  0  0  0  0  0  0  0  0  0  0  0  # atno 17343 bound_to 10162
  156.6915  130.4596  149.5598 LP  0  0  0  0  0  0  0  0  0  0  0  0  # atno 17370 bound_to 10713
  156.1858  130.6528  151.1005 LP  0  0  0  0  0  0  0  0  0  0  0  0  # atno 17371 bound_to 10713
  140.8468  133.8162  155.9129 LP  0  0  0  0  0  0  0  0  0  0  0  0  # atno 17394 bound_to 11000
  140.9183  134.2173  157.4942 LP  0  0  0  0  0  0  0  0  0  0  0  0  # atno 17395 bound_to 11000

$$$$
