AV-unprocessed.smi:3030|AV-procd|sdf|11536|dock7
  -GOLD-   2272016483D 1   1.00000     0.00000
 Structure written by MMmdl.
 52 53  0  0  0  0  0  0  0  0  1 V2000
  148.5409  131.4790  161.5403 C   0  0  0  0  0  0  0  0  0  0  0  0
  147.8775  132.3338  160.4544 C   0  0  0  0  0  0  0  0  0  0  0  0
  147.7433  133.7232  160.8675 N   0  0  0  0  0  0  0  0  0  0  0  0
  147.0296  134.0720  162.0093 C   0  0  0  0  0  0  0  0  0  0  0  0
  146.8182  135.3409  162.4086 C   0  0  0  0  0  0  0  0  0  0  0  0
  147.3613  136.4531  161.6028 C   0  0  0  0  0  0  0  0  0  0  0  0
  147.1881  137.6245  161.9395 O   0  0  0  0  0  0  0  0  0  0  0  0
  148.1191  136.0812  160.3788 C   0  0  0  0  0  0  0  0  0  0  0  0
  148.6401  137.1460  159.6248 N   0  0  0  0  0  0  0  0  0  0  0  0
  149.7504  137.1932  158.8661 C   0  0  0  0  0  0  0  0  0  0  0  0
  150.5303  136.2624  158.6658 O   0  0  0  0  0  0  0  0  0  0  0  0
  149.9090  138.4124  158.3322 N   0  0  0  0  0  0  0  0  0  0  0  0
  151.0120  138.8269  157.4633 C   0  0  1  0  0  0  0  0  0  0  0  0
  150.5240  139.0170  156.0113 C   0  0  0  0  0  0  0  0  0  0  0  0
  149.6131  140.2468  155.8506 C   0  0  2  0  0  0  0  0  0  0  0  0
  149.1508  140.4171  154.3965 C   0  0  0  0  0  0  0  0  0  0  0  0
  150.3369  141.5011  156.3641 C   0  0  0  0  0  0  0  0  0  0  0  0
  150.8000  141.3350  157.8198 C   0  0  0  0  0  0  0  0  0  0  0  0
  151.7155  140.0998  158.0154 C   0  0  1  0  0  0  0  0  0  0  0  0
  152.2143  139.9521  159.4865 C   0  0  0  0  0  0  0  0  0  0  0  0
  152.9550  141.2059  159.9901 C   0  0  0  0  0  0  0  0  0  0  0  0
  153.1267  138.7259  159.6851 C   0  0  0  0  0  0  0  0  0  0  0  0
  148.2600  134.7609  160.0943 C   0  0  0  0  0  0  0  0  0  0  0  0
  148.6355  130.4433  161.2141 H   0  0  0  0  0  0  0  0  0  0  0  0
  147.9559  131.4866  162.4606 H   0  0  0  0  0  0  0  0  0  0  0  0
  149.5406  131.8466  161.7739 H   0  0  0  0  0  0  0  0  0  0  0  0
  148.4625  132.2829  159.5354 H   0  0  0  0  0  0  0  0  0  0  0  0
  146.8938  131.9293  160.2130 H   0  0  0  0  0  0  0  0  0  0  0  0
  146.6524  133.2310  162.5730 H   0  0  0  0  0  0  0  0  0  0  0  0
  146.2604  135.5641  163.3060 H   0  0  0  0  0  0  0  0  0  0  0  0
  148.0885  137.9911  159.6619 H   0  0  0  0  0  0  0  0  0  0  0  0
  149.2183  139.1161  158.5486 H   0  0  0  0  0  0  0  0  0  0  0  0
  151.7478  138.0223  157.4351 H   0  0  0  0  0  0  0  0  0  0  0  0
  151.3916  139.1253  155.3591 H   0  0  0  0  0  0  0  0  0  0  0  0
  150.0051  138.1198  155.6706 H   0  0  0  0  0  0  0  0  0  0  0  0
  148.7208  140.0968  156.4602 H   0  0  0  0  0  0  0  0  0  0  0  0
  149.9965  140.5738  153.7263 H   0  0  0  0  0  0  0  0  0  0  0  0
  148.4823  141.2725  154.2950 H   0  0  0  0  0  0  0  0  0  0  0  0
  148.6110  139.5349  154.0506 H   0  0  0  0  0  0  0  0  0  0  0  0
  151.1997  141.7152  155.7315 H   0  0  0  0  0  0  0  0  0  0  0  0
  149.6784  142.3673  156.2895 H   0  0  0  0  0  0  0  0  0  0  0  0
  151.3197  142.2487  158.1040 H   0  0  0  0  0  0  0  0  0  0  0  0
  149.9301  141.2607  158.4737 H   0  0  0  0  0  0  0  0  0  0  0  0
  152.5993  140.2609  157.3958 H   0  0  0  0  0  0  0  0  0  0  0  0
  151.3472  139.8162  160.1339 H   0  0  0  0  0  0  0  0  0  0  0  0
  153.7837  141.4692  159.3321 H   0  0  0  0  0  0  0  0  0  0  0  0
  153.3650  141.0460  160.9877 H   0  0  0  0  0  0  0  0  0  0  0  0
  152.2947  142.0689  160.0655 H   0  0  0  0  0  0  0  0  0  0  0  0
  153.9823  138.7552  159.0098 H   0  0  0  0  0  0  0  0  0  0  0  0
  152.5957  137.7894  159.5171 H   0  0  0  0  0  0  0  0  0  0  0  0
  153.5118  138.6825  160.7043 H   0  0  0  0  0  0  0  0  0  0  0  0
  148.8067  134.3982  159.2389 H   0  0  0  0  0  0  0  0  0  0  0  0
  1  2  1  0  0  0  0
  1 24  1  0  0  0  0
  1 25  1  0  0  0  0
  1 26  1  0  0  0  0
  2  3  1  0  0  0  0
  2 27  1  0  0  0  0
  2 28  1  0  0  0  0
  3 23  1  0  0  0  0
  3  4  1  0  0  0  0
  4  5  2  0  0  0  0
  4 29  1  0  0  0  0
  5  6  1  0  0  0  0
  5 30  1  0  0  0  0
  6  7  2  0  0  0  0
  6  8  1  0  0  0  0
  8  9  1  0  0  0  0
  8 23  2  0  0  0  0
  9 10  1  0  0  0  0
  9 31  1  0  0  0  0
 10 11  2  0  0  0  0
 10 12  1  0  0  0  0
 12 13  1  0  0  0  0
 12 32  1  0  0  0  0
 13 19  1  0  0  0  0
 13 14  1  0  0  0  0
 13 33  1  0  0  0  0
 14 15  1  0  0  0  0
 14 34  1  0  0  0  0
 14 35  1  0  0  0  0
 15 16  1  0  0  0  0
 15 17  1  0  0  0  0
 15 36  1  0  0  0  0
 16 37  1  0  0  0  0
 16 38  1  0  0  0  0
 16 39  1  0  0  0  0
 17 18  1  0  0  0  0
 17 40  1  0  0  0  0
 17 41  1  0  0  0  0
 18 19  1  0  0  0  0
 18 42  1  0  0  0  0
 18 43  1  0  0  0  0
 19 20  1  0  0  0  0
 19 44  1  0  0  0  0
 20 21  1  0  0  0  0
 20 22  1  0  0  0  0
 20 45  1  0  0  0  0
 21 46  1  0  0  0  0
 21 47  1  0  0  0  0
 21 48  1  0  0  0  0
 22 49  1  0  0  0  0
 22 50  1  0  0  0  0
 22 51  1  0  0  0  0
 23 52  1  0  0  0  0
M  END
> <s_m_source_file>
AV-unprocessed.smi

> <i_m_source_file_index>
3030

> <i_lp_mmshare_version>
43012

> <i_f3d_flags>
0

> <s_epik_input>
W0NIM11bQ0gyXW4xW2NIXVtjSF1jKD1PKWMoW2NIXTEpW05IXUMoPU8pW05IXVtDQEBIXTJbQ0gyXVtDQEBIXShbQ0gzXSlbQ0gyXVtDSDJdW0NASF0yW0NIXShbQ0gzXSlbQ0gzXQ==

> <s_epik_cmdline>
J2VwaWtfcHl0aG9uJywgJy1waCcsICc3LjAnLCAnLXRuJywgJzgnLCAnLW1hJywgJzIwMCcsICctbWV0YWxfYmluZGluZycsICctaW1hZScsICc8aW5maWxlLm1hZT4nLCAnLW9tYWUnLCAnPG91dGZpbGUubWFlPic=

> <r_lp_tautomer_probability>
1

> <r_epik_Ionization_Penalty>
0.00147933

> <r_epik_Ionization_Penalty_Charging>
0.00145753

> <r_epik_Ionization_Penalty_Neutral>
2.17987e-05

> <r_epik_State_Penalty>
0.00097457

> <r_epik_Charging_Adjusted_Penalty>
0.0024321

> <i_epik_Tot_Q>
0

> <i_epik_Tot_abs_Q>
0

> <r_epik_Metal_State_Penalty>
-0

> <b_epik_Metal_Only>
0

> <s_lp_Force_Field>
OPLS_2005

> <r_lp_Energy>
8.95674

> <b_lp_Chiralities_Consistent>
1

> <s_lp_Variant>
AV-unprocessed.smi:3030-4

> <Gold.Version>
5.8.1

> <Gold.Id.Protein>
6NUR|6NUR_protein|mol2

> <Gold.PLP.Fitness>
46.8234

> <Gold.PLP.PLP>
-40.4839

> <Gold.PLP.part.hbond>
-2.9774

> <Gold.PLP.part.metal>
0.0000

> <Gold.PLP.part.buried>
-4.2136

> <Gold.PLP.part.nonpolar>
-34.0181

> <Gold.PLP.part.repulsive>
0.3762

> <Gold.PLP.ligand.clash>
0.0000

> <Gold.PLP.ligand.torsion>
0.2945

> <Gold.PLP.Chemscore.Hbond>
2.2880

> <Gold.PLP.Chemscore.CHOScore>
0.0000

> <Gold.PLP.Chemscore.Metal>
0.0000

> <Gold.Chemscore.Hbonds>
donor molecule, donor type, donor heavy atom, donor atom, acceptor molecule, acceptor atom, score
      P1  H  6896  6909       L1    11  0.96
      P1  H  6931  6943       L1     7  0.64
      P1  H  6934  6947       L1     7  0.69

> <Gold.PLP.Chemscore.Internal.Correction>
0.0645

> <Gold.Rescore>
     Score         DG    S(hbond)    S(metal)    S(lipo)     H(rot)  DE(clash)    DE(int)     intcor
     20.13     -20.55       2.37        0.00      89.01       1.27       0.00       0.41       ----

> <Gold.Chemscore.Fitness>
20.1335

> <Gold.Chemscore.DG>
-20.5481

> <Gold.Chemscore.ZeroCoef>
-5.4800

> <Gold.Chemscore.Hbond>
2.3656

> <Gold.Chemscore.Metal>
0.0000

> <Gold.Chemscore.Lipo>
89.0105

> <Gold.Chemscore.Internal_Hbond>
0.0000

> <Gold.Chemscore.DEClash>
0.0000

> <Gold.Chemscore.DEInternal>
0.4145

> <Gold.Chemscore.Rot>
1.2685

> <Gold.Chemscore.Internal.Correction>
   9.000000E+99

> <Gold.Chemscore.Hbonds>
donor molecule, donor type, donor heavy atom, donor atom, acceptor molecule, acceptor atom, score
      P1  H  6896  6909       L1    11  0.92
      P1  H  6931  6943       L1     7  0.19
      P1  H  6934  6947       L1     7  0.68

> <Gold.Chemscore.Hbond.Weighted>
-7.9013

> <Gold.Chemscore.Metal.Weighted>
-0.0000

> <Gold.Chemscore.Lipo.Weighted>
-10.4142

> <Gold.Chemscore.Internal_Hbond.Weighted>
0.0000

> <Gold.Chemscore.DEClash.Weighted>
0.0000

> <Gold.Chemscore.DEInternal.Weighted>
0.4145

> <Gold.Chemscore.Rot.Weighted>
3.2474

> <Gold.Chemscore.Internal.Correction.Weighted>
   9.000000E+99

> <Gold.Protein.RotatedTorsions>
[ 6907 6896 6895 6894 ] final   77.24 input  -60.11 | X-H torsion
[ 7974 7965 7964 7962 ] final   25.17 input  175.53 | X-H torsion
[ 8008 7997 7996 7995 ] final -127.37 input   59.86 | X-H torsion
[ 10167 10162 10161 10158 ] final  -68.91 input  -65.29 | X-H torsion
[ 10718 10713 10712 10709 ] final  153.43 input   66.30 | X-H torsion
[ 10763 10752 10751 10750 ] final   81.70 input  -60.55 | X-H torsion
[ 11005 11000 10999 10996 ] final  179.44 input  -57.11 | X-H torsion

> <Gold.Protein.ActiveResidues>
 VAL166  LYS551  ARG553  GLY616  TRP617  ASP618  TYR619  PRO620  LYS621  CYS622 
 ASP623  PHE694  ASN695  SER759  ASP760  ASP761  ALA762  ILE779  LEU786  VAL792 
 PHE793  MET794  SER795  GLU796  ALA797  LYS798  CYS799  TRP800  GLU811  SER814 

> <Gold.Protein.RotatedAtoms>
  152.5109  134.3847  159.9363 H   0  0  0  0  0  0  0  0  0  0  0  0  # atno 6907 bound_to 6896
  151.3806  133.3816  159.2717 H   0  0  0  0  0  0  0  0  0  0  0  0  # atno 6908 bound_to 6896
  150.9508  134.8928  159.7729 H   0  0  0  0  0  0  0  0  0  0  0  0  # atno 6909 bound_to 6896
  146.1902  139.7503  142.8837 H   0  0  0  0  0  0  0  0  0  0  0  0  # atno 7974 bound_to 7965
  155.2451  140.0430  157.2980 H   0  0  0  0  0  0  0  0  0  0  0  0  # atno 8008 bound_to 7997
  154.5804  140.2399  155.8032 H   0  0  0  0  0  0  0  0  0  0  0  0  # atno 8009 bound_to 7997
  156.2188  140.2976  155.9912 H   0  0  0  0  0  0  0  0  0  0  0  0  # atno 8010 bound_to 7997
  140.5471  143.2313  151.6980 H   0  0  0  0  0  0  0  0  0  0  0  0  # atno 10167 bound_to 10162
  157.2448  131.0766  151.1769 H   0  0  0  0  0  0  0  0  0  0  0  0  # atno 10718 bound_to 10713
  153.1139  135.4755  154.9083 H   0  0  0  0  0  0  0  0  0  0  0  0  # atno 10763 bound_to 10752
  154.7509  135.3106  154.8562 H   0  0  0  0  0  0  0  0  0  0  0  0  # atno 10764 bound_to 10752
  153.9143  135.6862  153.4803 H   0  0  0  0  0  0  0  0  0  0  0  0  # atno 10765 bound_to 10752
  140.4062  134.6733  157.4589 H   0  0  0  0  0  0  0  0  0  0  0  0  # atno 11005 bound_to 11000
  145.3816  141.0359  143.3174 LP  0  0  0  0  0  0  0  0  0  0  0  0  # atno 17320 bound_to 7965
  144.8472  139.5378  143.6873 LP  0  0  0  0  0  0  0  0  0  0  0  0  # atno 17321 bound_to 7965
  139.5012  144.3877  152.0312 LP  0  0  0  0  0  0  0  0  0  0  0  0  # atno 17342 bound_to 10162
  140.2990  144.3668  150.6066 LP  0  0  0  0  0  0  0  0  0  0  0  0  # atno 17343 bound_to 10162
  157.3341  130.7000  149.6342 LP  0  0  0  0  0  0  0  0  0  0  0  0  # atno 17370 bound_to 10713
  155.9668  130.4299  150.4853 LP  0  0  0  0  0  0  0  0  0  0  0  0  # atno 17371 bound_to 10713
  140.0301  134.6419  155.9119 LP  0  0  0  0  0  0  0  0  0  0  0  0  # atno 17394 bound_to 11000
  141.1838  133.6551  156.5133 LP  0  0  0  0  0  0  0  0  0  0  0  0  # atno 17395 bound_to 11000

$$$$
