#       Name:                AV-unprocessed.smi:1933
#       Creating user name   scv26
#       Creation time:       Fri Mar 27 09:56:19 2020


#       File generated by GOLD software.
#

@<TRIPOS>MOLECULE
AV-unprocessed.smi:1933
    55    57     1
SMALL
NO_CHARGES


@<TRIPOS>ATOM
      1 ****        -0.6718   1.0597  -2.0745 O.2            1 S1                 0.0000
      2 ****        -1.2588   1.3867  -1.0425 C.2            1 S1                 0.0000
      3 ****        -1.4899   0.5416  -0.0273 N.am           1 S1                 0.0000
      4 ****        -1.0755  -0.8576   0.0003 C.3            1 S1                 0.0000
      5 ****         0.4374  -1.0355   0.3031 C.3            1 S1                 0.0000
      6 ****         0.8617  -0.3985   1.6584 C.3            1 S1                 0.0000
      7 ****         0.3742  -1.0081   2.9594 C.3            1 S1                 0.0000
      8 ****         1.2559  -0.2793   3.9682 C.3            1 S1                 0.0000
      9 ****         2.5083  -0.0947   3.3118 O.3            1 S1                 0.0000
     10 ****         2.3686  -0.3297   1.9115 C.3            1 S1                 0.0000
     11 ****         0.9552  -2.3959   0.0583 N.3            1 S1                 0.0000
     12 ****         0.1225  -3.4889   0.5679 C.3            1 S1                 0.0000
     13 ****         0.7919  -4.8560   0.3509 C.3            1 S1                 0.0000
     14 ****         1.0533  -5.0389  -1.0369 O.3            1 S1                 0.0000
     15 ****         1.8816  -4.0162  -1.5813 C.3            1 S1                 0.0000
     16 ****         1.2286  -2.6412  -1.3563 C.3            1 S1                 0.0000
     17 ****        -1.7447   2.6125  -0.7782 N.am           1 S1                 0.0000
     18 ****        -1.6782   3.7759  -1.5911 C.ar           1 S1                 0.0000
     19 ****        -2.2831   4.9279  -1.0394 C.ar           1 S1                 0.0000
     20 ****        -2.2659   6.1349  -1.7651 C.ar           1 S1                 0.0000
     21 ****        -1.6442   6.1589  -3.0261 C.ar           1 S1                 0.0000
     22 ****        -1.0676   4.9677  -3.5037 C.ar           1 S1                 0.0000
     23 ****        -1.0823   3.8102  -2.8095 N.ar           1 S1                 0.0000
     24 ****        -1.9809   0.8888   0.7835 H              1 S1                 0.0000
     25 ****        -1.6735  -1.3616   0.7597 H              1 S1                 0.0000
     26 ****        -1.3404  -1.3193  -0.9519 H              1 S1                 0.0000
     27 ****         0.9454  -0.3964  -0.4203 H              1 S1                 0.0000
     28 ****         0.5157   0.6363   1.6527 H              1 S1                 0.0000
     29 ****        -0.6914  -0.8642   3.1384 H              1 S1                 0.0000
     30 ****         0.6045  -2.0685   3.0225 H              1 S1                 0.0000
     31 ****         0.8362   0.6995   4.2042 H              1 S1                 0.0000
     32 ****         1.3709  -0.8323   4.9007 H              1 S1                 0.0000
     33 ****         2.8555  -1.2762   1.6737 H              1 S1                 0.0000
     34 ****         2.8517   0.4543   1.3278 H              1 S1                 0.0000
     35 ****        -0.1011  -3.3671   1.6224 H              1 S1                 0.0000
     36 ****        -0.8397  -3.4958   0.0546 H              1 S1                 0.0000
     37 ****         1.7209  -4.9272   0.9187 H              1 S1                 0.0000
     38 ****         0.1400  -5.6573   0.6987 H              1 S1                 0.0000
     39 ****         2.8680  -4.0541  -1.1167 H              1 S1                 0.0000
     40 ****         2.0218  -4.1998  -2.6465 H              1 S1                 0.0000
     41 ****         0.3054  -2.5823  -1.9334 H              1 S1                 0.0000
     42 ****         1.8906  -1.8683  -1.7481 H              1 S1                 0.0000
     43 ****        -2.2081   2.7299   0.1105 H              1 S1                 0.0000
     44 ****        -2.7562   4.8923  -0.0688 H              1 S1                 0.0000
     45 ****        -2.7217   7.0265  -1.3604 H              1 S1                 0.0000
     46 ****        -1.6101   7.0657  -3.6118 H              1 S1                 0.0000
     47 ****        -0.5813   4.9434  -4.4677 H              1 S1                 0.0000
     48 ****        -0.3407   0.1227  -2.1860 LP             1 S1                 0.0000
     49 ****        -0.5262   1.7311  -2.8011 LP             1 S1                 0.0000
     50 ****         3.1770  -0.7353   3.6894 LP             1 S1                 0.0000
     51 ****         2.8241   0.8425   3.4598 LP             1 S1                 0.0000
     52 ****         1.8048  -2.4052   0.5857 LP             1 S1                 0.0000
     53 ****         0.1826  -5.0406  -1.5287 LP             1 S1                 0.0000
     54 ****         1.5089  -5.9201  -1.1629 LP             1 S1                 0.0000
     55 ****        -0.6589   2.9875  -3.1888 LP             1 S1                 0.0000
@<TRIPOS>BOND
    1    1    2 2     
    2    2    3 am    
    3    2   17 am    
    4    3    4 1     
    5    3   24 1     
    6    4    5 1     
    7    4   25 1     
    8    4   26 1     
    9    5    6 1     
   10    5   11 1     
   11    5   27 1     
   12    6   10 1     
   13    6    7 1     
   14    6   28 1     
   15    7    8 1     
   16    7   29 1     
   17    7   30 1     
   18    8    9 1     
   19    8   31 1     
   20    8   32 1     
   21    9   10 1     
   22   10   33 1     
   23   10   34 1     
   24   11   16 1     
   25   11   12 1     
   26   12   13 1     
   27   12   35 1     
   28   12   36 1     
   29   13   14 1     
   30   13   37 1     
   31   13   38 1     
   32   14   15 1     
   33   15   16 1     
   34   15   39 1     
   35   15   40 1     
   36   16   41 1     
   37   16   42 1     
   38   17   18 1     
   39   17   43 1     
   40   18   23 ar    
   41   18   19 ar    
   42   19   20 ar    
   43   19   44 1     
   44   20   21 ar    
   45   20   45 1     
   46   21   22 ar    
   47   21   46 1     
   48   22   23 ar    
   49   22   47 1     
   50    1   48 1     
   51    1   49 1     
   52    9   50 1     
   53    9   51 1     
   54   11   52 1     
   55   14   53 1     
   56   14   54 1     
   57   23   55 1     
@<TRIPOS>SUBSTRUCTURE
      1 S1             1
@<TRIPOS>SET
LONE_PAIRS      STATIC     ATOMS    <user>   **** ""
8 48 49 50 51 52 53 54 55
DONOR_HYDROGENS      STATIC     ATOMS    <user>   **** ""
2 24 43
ATOM$BLUE        STATIC     ATOMS    COLORGROUP SYSTEM
8 48 49 50 51 52 53 54 55
ATOM$RED        STATIC     ATOMS    COLORGROUP SYSTEM
2 24 43
