AV-unprocessed.smi:2101|AV-procd|sdf|8580|dock10
  -GOLD-   2272011313D 1   1.00000     0.00000
 Structure written by MMmdl.
 42 43  0  0  0  0  0  0  0  0  2 V2000
  149.5282  132.7609  155.4262 C   0  0  0  0  0  0  0  0  0  0  0  0
  148.9604  133.7249  156.8863 S   0  0  0  0  0  0  0  0  0  0  0  0
  147.5645  133.3560  157.1674 O   0  0  0  0  0  0  0  0  0  0  0  0
  149.9750  133.6012  157.9442 O   0  0  0  0  0  0  0  0  0  0  0  0
  148.9739  135.3703  156.3236 N   0  0  0  0  0  0  0  0  0  0  0  0
  149.2096  136.4656  157.2925 C   0  0  0  0  0  0  0  0  0  0  0  0
  150.6318  137.0447  157.1611 C   0  0  0  0  0  0  0  0  0  0  0  0
  150.8516  137.4450  155.7652 N   0  0  0  0  0  0  0  0  0  0  0  0
  150.8223  138.7084  155.2738 C   0  0  0  0  0  0  0  0  0  0  0  0
  151.1787  138.9960  154.1301 O   0  0  0  0  0  0  0  0  0  0  0  0
  150.4126  139.6432  156.1487 N   0  0  0  0  0  0  0  0  0  0  0  0
  150.3100  141.0693  155.8612 C   0  0  0  0  0  0  0  0  0  0  0  0
  149.6918  141.8385  157.0409 C   0  0  0  0  0  0  0  0  0  0  0  0
  150.7363  142.5799  157.8516 C   0  0  0  0  0  0  0  0  0  0  0  0
  151.6697  141.9099  158.6721 C   0  0  0  0  0  0  0  0  0  0  0  0
  152.6188  142.6645  159.3935 C   0  0  0  0  0  0  0  0  0  0  0  0
  152.6138  144.0704  159.2800 C   0  0  0  0  0  0  0  0  0  0  0  0
  151.6596  144.6872  158.4451 C   0  0  0  0  0  0  0  0  0  0  0  0
  150.7679  143.9299  157.7690 N   0  3  0  0  0  0  0  0  0  0  0  0
  150.8195  136.2665  154.8971 C   0  0  0  0  0  0  0  0  0  0  0  0
  149.4052  135.6558  154.9358 C   0  0  0  0  0  0  0  0  0  0  0  0
  149.5540  131.7027  155.6853 H   0  0  0  0  0  0  0  0  0  0  0  0
  150.5281  133.0811  155.1376 H   0  0  0  0  0  0  0  0  0  0  0  0
  148.8377  132.9061  154.5966 H   0  0  0  0  0  0  0  0  0  0  0  0
  148.4765  137.2515  157.1064 H   0  0  0  0  0  0  0  0  0  0  0  0
  149.0359  136.1187  158.3106 H   0  0  0  0  0  0  0  0  0  0  0  0
  150.7626  137.8568  157.8761 H   0  0  0  0  0  0  0  0  0  0  0  0
  151.3745  136.2975  157.4411 H   0  0  0  0  0  0  0  0  0  0  0  0
  150.1534  139.3427  157.0772 H   0  0  0  0  0  0  0  0  0  0  0  0
  151.3107  141.4490  155.6526 H   0  0  0  0  0  0  0  0  0  0  0  0
  149.7253  141.2221  154.9524 H   0  0  0  0  0  0  0  0  0  0  0  0
  148.9562  142.5596  156.6813 H   0  0  0  0  0  0  0  0  0  0  0  0
  149.1524  141.1503  157.6931 H   0  0  0  0  0  0  0  0  0  0  0  0
  151.6621  140.8321  158.7473 H   0  0  0  0  0  0  0  0  0  0  0  0
  153.3424  142.1710  160.0261 H   0  0  0  0  0  0  0  0  0  0  0  0
  153.3315  144.6664  159.8247 H   0  0  0  0  0  0  0  0  0  0  0  0
  151.5830  145.7549  158.2983 H   0  0  0  0  0  0  0  0  0  0  0  0
  151.0960  136.4997  153.8680 H   0  0  0  0  0  0  0  0  0  0  0  0
  151.5599  135.5432  155.2390 H   0  0  0  0  0  0  0  0  0  0  0  0
  149.3680  134.7503  154.3308 H   0  0  0  0  0  0  0  0  0  0  0  0
  148.6935  136.3522  154.4908 H   0  0  0  0  0  0  0  0  0  0  0  0
  150.0868  144.3971  157.1696 H   0  0  0  0  0  0  0  0  0  0  0  0
  1  2  1  0  0  0  0
  1 22  1  0  0  0  0
  1 23  1  0  0  0  0
  1 24  1  0  0  0  0
  2  3  2  0  0  0  0
  2  4  2  0  0  0  0
  2  5  1  0  0  0  0
  5 21  1  0  0  0  0
  5  6  1  0  0  0  0
  6  7  1  0  0  0  0
  6 25  1  0  0  0  0
  6 26  1  0  0  0  0
  7  8  1  0  0  0  0
  7 27  1  0  0  0  0
  7 28  1  0  0  0  0
  8  9  1  0  0  0  0
  8 20  1  0  0  0  0
  9 10  2  0  0  0  0
  9 11  1  0  0  0  0
 11 12  1  0  0  0  0
 11 29  1  0  0  0  0
 12 13  1  0  0  0  0
 12 30  1  0  0  0  0
 12 31  1  0  0  0  0
 13 14  1  0  0  0  0
 13 32  1  0  0  0  0
 13 33  1  0  0  0  0
 14 19  1  0  0  0  0
 14 15  2  0  0  0  0
 15 16  1  0  0  0  0
 15 34  1  0  0  0  0
 16 17  2  0  0  0  0
 16 35  1  0  0  0  0
 17 18  1  0  0  0  0
 17 36  1  0  0  0  0
 18 19  2  0  0  0  0
 18 37  1  0  0  0  0
 19 42  1  0  0  0  0
 20 21  1  0  0  0  0
 20 38  1  0  0  0  0
 20 39  1  0  0  0  0
 21 40  1  0  0  0  0
 21 41  1  0  0  0  0
M  CHG  1  19   1
M  END
> <s_m_source_file>
AV-unprocessed.smi

> <i_m_source_file_index>
2101

> <i_lp_mmshare_version>
43012

> <i_f3d_flags>
0

> <s_epik_input>
W0NIM11TKD1PKSg9TylOMVtDSDJdW0NIMl1OKFtDSDJdW0NIMl0xKUMoPU8pW05IXVtDSDJdW0NIMl1jMltjSF1bY0hdW2NIXVtjSF1uMg==

> <s_epik_cmdline>
J2VwaWtfcHl0aG9uJywgJy1waCcsICc3LjAnLCAnLXRuJywgJzgnLCAnLW1hJywgJzIwMCcsICctbWV0YWxfYmluZGluZycsICctaW1hZScsICc8aW5maWxlLm1hZT4nLCAnLW9tYWUnLCAnPG91dGZpbGUubWFlPic=

> <r_epik_Ionization_Penalty>
1.56137

> <r_epik_Ionization_Penalty_Charging>
1.56133

> <r_epik_Ionization_Penalty_Neutral>
3.86464e-05

> <r_epik_State_Penalty>
1.65637

> <r_epik_Charging_Adjusted_Penalty>
3.2177

> <i_epik_Tot_Q>
1

> <i_epik_Tot_abs_Q>
1

> <r_epik_Metal_State_Penalty>
1.69784

> <b_epik_Metal_Only>
0

> <s_lp_Force_Field>
OPLS_2005

> <r_lp_Energy>
29.4976

> <b_lp_Chiralities_Consistent>
1

> <s_lp_Variant>
AV-unprocessed.smi:2101-2

> <Gold.Version>
5.8.1

> <Gold.Id.Protein>
6NUR|6NUR_protein|mol2

> <Gold.PLP.Fitness>
41.6829

> <Gold.PLP.PLP>
-31.0793

> <Gold.PLP.part.hbond>
-2.9164

> <Gold.PLP.part.metal>
0.0000

> <Gold.PLP.part.buried>
-2.4540

> <Gold.PLP.part.nonpolar>
-26.4410

> <Gold.PLP.part.repulsive>
0.2605

> <Gold.PLP.ligand.clash>
0.0000

> <Gold.PLP.ligand.torsion>
1.7594

> <Gold.PLP.Chemscore.Hbond>
4.0000

> <Gold.PLP.Chemscore.CHOScore>
0.0000

> <Gold.PLP.Chemscore.Metal>
0.0000

> <Gold.Chemscore.Hbonds>
donor molecule, donor type, donor heavy atom, donor atom, acceptor molecule, acceptor atom, score
      L1  H    19    42       P1  8028  2.00
      P1  H  6896  6909       L1     4  1.00
      P1  H  7989  7998       L1    10  1.00

> <Gold.PLP.Chemscore.Internal.Correction>
2.1224

> <Gold.Rescore>
     Score         DG    S(hbond)    S(metal)    S(lipo)     H(rot)  DE(clash)    DE(int)     intcor
     19.30     -21.48       2.77        0.00      89.73       1.47       0.30       1.89       ----

> <Gold.Chemscore.Fitness>
19.2951

> <Gold.Chemscore.DG>
-21.4769

> <Gold.Chemscore.ZeroCoef>
-5.4800

> <Gold.Chemscore.Hbond>
2.7741

> <Gold.Chemscore.Metal>
0.0000

> <Gold.Chemscore.Lipo>
89.7264

> <Gold.Chemscore.Internal_Hbond>
0.0000

> <Gold.Chemscore.DEClash>
0.2950

> <Gold.Chemscore.DEInternal>
1.8868

> <Gold.Chemscore.Rot>
1.4714

> <Gold.Chemscore.Internal.Correction>
   9.000000E+99

> <Gold.Chemscore.Hbonds>
donor molecule, donor type, donor heavy atom, donor atom, acceptor molecule, acceptor atom, score
      L1  H    19    42       P1  8028  0.60
      P1  H  6896  6909       L1     4  0.96
      P1  H  7989  7998       L1    10  0.92

> <Gold.Chemscore.Hbond.Weighted>
-9.2656

> <Gold.Chemscore.Metal.Weighted>
-0.0000

> <Gold.Chemscore.Lipo.Weighted>
-10.4980

> <Gold.Chemscore.Internal_Hbond.Weighted>
0.0000

> <Gold.Chemscore.DEClash.Weighted>
0.2950

> <Gold.Chemscore.DEInternal.Weighted>
1.8868

> <Gold.Chemscore.Rot.Weighted>
3.7667

> <Gold.Chemscore.Internal.Correction.Weighted>
   9.000000E+99

> <Gold.Protein.RotatedTorsions>
[ 6907 6896 6895 6894 ] final  -11.52 input  -60.11 | X-H torsion
[ 7974 7965 7964 7962 ] final -113.67 input  175.53 | X-H torsion
[ 8008 7997 7996 7995 ] final  -45.74 input   59.86 | X-H torsion
[ 10167 10162 10161 10158 ] final -104.98 input  -65.29 | X-H torsion
[ 10718 10713 10712 10709 ] final  -79.31 input   66.30 | X-H torsion
[ 10763 10752 10751 10750 ] final  165.20 input  -60.55 | X-H torsion
[ 11005 11000 10999 10996 ] final   36.50 input  -57.11 | X-H torsion

> <Gold.Protein.ActiveResidues>
 VAL166  LYS551  ARG553  GLY616  TRP617  ASP618  TYR619  PRO620  LYS621  CYS622 
 ASP623  PHE694  ASN695  SER759  ASP760  ASP761  ALA762  ILE779  LEU786  VAL792 
 PHE793  MET794  SER795  GLU796  ALA797  LYS798  CYS799  TRP800  GLU811  SER814 

> <Gold.Protein.RotatedAtoms>
  151.3849  135.0946  159.9507 H   0  0  0  0  0  0  0  0  0  0  0  0  # atno 6907 bound_to 6896
  152.5097  133.9036  159.7463 H   0  0  0  0  0  0  0  0  0  0  0  0  # atno 6908 bound_to 6896
  150.9477  133.6529  159.2807 H   0  0  0  0  0  0  0  0  0  0  0  0  # atno 6909 bound_to 6896
  145.1292  140.8715  143.3768 H   0  0  0  0  0  0  0  0  0  0  0  0  # atno 7974 bound_to 7965
  154.4003  140.1389  156.3897 H   0  0  0  0  0  0  0  0  0  0  0  0  # atno 8008 bound_to 7997
  155.7926  140.3478  155.5337 H   0  0  0  0  0  0  0  0  0  0  0  0  # atno 8009 bound_to 7997
  155.8564  140.0949  157.1632 H   0  0  0  0  0  0  0  0  0  0  0  0  # atno 8010 bound_to 7997
  140.2035  143.3800  152.1110 H   0  0  0  0  0  0  0  0  0  0  0  0  # atno 10167 bound_to 10162
  156.0096  130.4542  150.3629 H   0  0  0  0  0  0  0  0  0  0  0  0  # atno 10718 bound_to 10713
  154.3205  135.2756  155.2522 H   0  0  0  0  0  0  0  0  0  0  0  0  # atno 10763 bound_to 10752
  154.4878  135.5841  153.6440 H   0  0  0  0  0  0  0  0  0  0  0  0  # atno 10764 bound_to 10752
  152.9877  135.6127  154.3389 H   0  0  0  0  0  0  0  0  0  0  0  0  # atno 10765 bound_to 10752
  140.2319  134.3517  155.7960 H   0  0  0  0  0  0  0  0  0  0  0  0  # atno 11005 bound_to 11000
  145.0654  139.3073  143.5859 LP  0  0  0  0  0  0  0  0  0  0  0  0  # atno 17320 bound_to 7965
  146.3515  140.0110  142.8667 LP  0  0  0  0  0  0  0  0  0  0  0  0  # atno 17321 bound_to 7965
  139.5208  144.7037  151.5417 LP  0  0  0  0  0  0  0  0  0  0  0  0  # atno 17342 bound_to 10162
  140.6374  143.8957  150.6660 LP  0  0  0  0  0  0  0  0  0  0  0  0  # atno 17343 bound_to 10162
  157.1716  131.0370  151.2792 LP  0  0  0  0  0  0  0  0  0  0  0  0  # atno 17370 bound_to 10713
  157.4224  130.7445  149.6923 LP  0  0  0  0  0  0  0  0  0  0  0  0  # atno 17371 bound_to 10713
  141.2217  133.7250  156.8745 LP  0  0  0  0  0  0  0  0  0  0  0  0  # atno 17394 bound_to 11000
  140.1742  134.9079  157.2870 LP  0  0  0  0  0  0  0  0  0  0  0  0  # atno 17395 bound_to 11000

$$$$
