AV-unprocessed.smi:3006|AV-procd|sdf|11445|dock6
  -GOLD-   2272016373D 1   1.00000     0.00000
 Structure written by MMmdl.
 44 45  0  0  0  0  0  0  0  0  1 V2000
  153.4156  141.8502  161.3108 C   0  0  0  0  0  0  0  0  0  0  0  0
  152.7261  142.9092  160.5210 C   0  0  0  0  0  0  0  0  0  0  0  0
  152.4345  142.7856  159.2238 N   0  0  0  0  0  0  0  0  0  0  0  0
  151.7964  143.9168  158.7048 C   0  0  0  0  0  0  0  0  0  0  0  0
  151.4022  143.9578  157.2596 C   0  0  0  0  0  0  0  0  0  0  0  0
  151.3420  142.5544  156.6349 C   0  0  0  0  0  0  0  0  0  0  0  0
  150.1286  142.3702  155.8471 N   0  0  0  0  0  0  0  0  0  0  0  0
  149.8408  141.2858  155.1075 C   0  0  0  0  0  0  0  0  0  0  0  0
  150.5944  140.3130  155.0489 O   0  0  0  0  0  0  0  0  0  0  0  0
  148.6383  141.3316  154.4830 N   0  0  0  0  0  0  0  0  0  0  0  0
  148.1148  140.3646  153.5119 C   0  0  0  0  0  0  0  0  0  0  0  0
  147.0020  139.5384  154.1858 C   0  0  0  0  0  0  0  0  0  0  0  0
  145.9048  140.3999  154.6600 N   0  0  0  0  0  0  0  0  0  0  0  0
  144.8345  139.6077  155.2999 C   0  0  0  0  0  0  0  0  0  0  0  0
  143.6778  140.5055  155.7913 C   0  0  0  0  0  0  0  0  0  0  0  0
  145.3589  138.7898  156.5006 C   0  0  0  0  0  0  0  0  0  0  0  0
  146.4554  141.4126  155.5774 C   0  0  0  0  0  0  0  0  0  0  0  0
  147.5663  142.2352  154.8982 C   0  0  0  0  0  0  0  0  0  0  0  0
  151.6041  144.9050  159.6382 C   0  0  0  0  0  0  0  0  0  0  0  0
  152.2219  144.4512  161.2026 S   0  0  0  0  0  0  0  0  0  0  0  0
  152.9803  140.8744  161.0945 H   0  0  0  0  0  0  0  0  0  0  0  0
  153.3151  142.0478  162.3780 H   0  0  0  0  0  0  0  0  0  0  0  0
  154.4754  141.8269  161.0567 H   0  0  0  0  0  0  0  0  0  0  0  0
  150.4323  144.4453  157.1539 H   0  0  0  0  0  0  0  0  0  0  0  0
  152.1085  144.5756  156.7036 H   0  0  0  0  0  0  0  0  0  0  0  0
  152.2232  142.3732  156.0169 H   0  0  0  0  0  0  0  0  0  0  0  0
  151.3528  141.7964  157.4187 H   0  0  0  0  0  0  0  0  0  0  0  0
  149.4548  143.1219  155.8649 H   0  0  0  0  0  0  0  0  0  0  0  0
  147.7158  140.8985  152.6480 H   0  0  0  0  0  0  0  0  0  0  0  0
  148.8714  139.6894  153.1129 H   0  0  0  0  0  0  0  0  0  0  0  0
  146.6402  138.8251  153.4477 H   0  0  0  0  0  0  0  0  0  0  0  0
  147.4111  138.9626  155.0177 H   0  0  0  0  0  0  0  0  0  0  0  0
  144.4332  138.9078  154.5652 H   0  0  0  0  0  0  0  0  0  0  0  0
  142.9659  139.9346  156.3881 H   0  0  0  0  0  0  0  0  0  0  0  0
  143.1021  140.9320  154.9707 H   0  0  0  0  0  0  0  0  0  0  0  0
  144.0442  141.3223  156.4141 H   0  0  0  0  0  0  0  0  0  0  0  0
  144.5365  138.3321  157.0514 H   0  0  0  0  0  0  0  0  0  0  0  0
  145.9116  139.4172  157.2009 H   0  0  0  0  0  0  0  0  0  0  0  0
  146.0042  137.9674  156.1933 H   0  0  0  0  0  0  0  0  0  0  0  0
  145.6815  142.1128  155.8868 H   0  0  0  0  0  0  0  0  0  0  0  0
  146.8383  140.9326  156.4795 H   0  0  0  0  0  0  0  0  0  0  0  0
  147.9166  143.0147  155.5762 H   0  0  0  0  0  0  0  0  0  0  0  0
  147.1708  142.7588  154.0262 H   0  0  0  0  0  0  0  0  0  0  0  0
  151.1399  145.8703  159.4997 H   0  0  0  0  0  0  0  0  0  0  0  0
  1  2  1  0  0  0  0
  1 21  1  0  0  0  0
  1 22  1  0  0  0  0
  1 23  1  0  0  0  0
  2 20  1  0  0  0  0
  2  3  2  0  0  0  0
  3  4  1  0  0  0  0
  4  5  1  0  0  0  0
  4 19  2  0  0  0  0
  5  6  1  0  0  0  0
  5 24  1  0  0  0  0
  5 25  1  0  0  0  0
  6  7  1  0  0  0  0
  6 26  1  0  0  0  0
  6 27  1  0  0  0  0
  7  8  1  0  0  0  0
  7 28  1  0  0  0  0
  8  9  2  0  0  0  0
  8 10  1  0  0  0  0
 10 18  1  0  0  0  0
 10 11  1  0  0  0  0
 11 12  1  0  0  0  0
 11 29  1  0  0  0  0
 11 30  1  0  0  0  0
 12 13  1  0  0  0  0
 12 31  1  0  0  0  0
 12 32  1  0  0  0  0
 13 14  1  0  0  0  0
 13 17  1  0  0  0  0
 14 15  1  0  0  0  0
 14 16  1  0  0  0  0
 14 33  1  0  0  0  0
 15 34  1  0  0  0  0
 15 35  1  0  0  0  0
 15 36  1  0  0  0  0
 16 37  1  0  0  0  0
 16 38  1  0  0  0  0
 16 39  1  0  0  0  0
 17 18  1  0  0  0  0
 17 40  1  0  0  0  0
 17 41  1  0  0  0  0
 18 42  1  0  0  0  0
 18 43  1  0  0  0  0
 19 20  1  0  0  0  0
 19 44  1  0  0  0  0
M  END
> <s_m_source_file>
AV-unprocessed.smi

> <i_m_source_file_index>
3006

> <i_lp_mmshare_version>
43012

> <i_f3d_flags>
0

> <s_epik_input>
W0NIM11jMW5jKFtjSF1zMSlbQ0gyXVtDSDJdW05IXUMoPU8pTjJbQ0gyXVtDSDJdTihbQ0hdKFtDSDNdKVtDSDNdKVtDSDJdW0NIMl0y

> <s_epik_cmdline>
J2VwaWtfcHl0aG9uJywgJy1waCcsICc3LjAnLCAnLXRuJywgJzgnLCAnLW1hJywgJzIwMCcsICctbWV0YWxfYmluZGluZycsICctaW1hZScsICc8aW5maWxlLm1hZT4nLCAnLW9tYWUnLCAnPG91dGZpbGUubWFlPic=

> <r_epik_Ionization_Penalty>
0.875753

> <r_epik_Ionization_Penalty_Charging>
0

> <r_epik_Ionization_Penalty_Neutral>
0.875753

> <r_epik_State_Penalty>
0.930306

> <r_epik_Charging_Adjusted_Penalty>
0.930306

> <i_epik_Tot_Q>
0

> <i_epik_Tot_abs_Q>
0

> <r_epik_Metal_State_Penalty>
0.928801

> <b_epik_Metal_Only>
0

> <s_lp_Force_Field>
OPLS_2005

> <r_lp_Energy>
38.048

> <b_lp_Chiralities_Consistent>
1

> <s_lp_Variant>
AV-unprocessed.smi:3006-2

> <Gold.Version>
5.8.1

> <Gold.Id.Protein>
6NUR|6NUR_protein|mol2

> <Gold.PLP.Fitness>
41.3846

> <Gold.PLP.PLP>
-37.2731

> <Gold.PLP.part.hbond>
-2.0000

> <Gold.PLP.part.metal>
0.0000

> <Gold.PLP.part.buried>
0.0441

> <Gold.PLP.part.nonpolar>
-35.0114

> <Gold.PLP.part.repulsive>
0.3195

> <Gold.PLP.ligand.clash>
0.5178

> <Gold.PLP.ligand.torsion>
0.7115

> <Gold.PLP.Chemscore.Hbond>
1.9920

> <Gold.PLP.Chemscore.CHOScore>
0.0000

> <Gold.PLP.Chemscore.Metal>
0.0000

> <Gold.Chemscore.Hbonds>
donor molecule, donor type, donor heavy atom, donor atom, acceptor molecule, acceptor atom, score
      L1  H     7    28       P1  8028  1.00
      P1  H  7989  7998       L1     9  0.90

> <Gold.PLP.Chemscore.Internal.Correction>
0.0762

> <Gold.Rescore>
     Score         DG    S(hbond)    S(metal)    S(lipo)     H(rot)  DE(clash)    DE(int)     intcor
     16.03     -18.77       1.53        0.00     100.32       1.39       2.22       0.52       ----

> <Gold.Chemscore.Fitness>
16.0337

> <Gold.Chemscore.DG>
-18.7740

> <Gold.Chemscore.ZeroCoef>
-5.4800

> <Gold.Chemscore.Hbond>
1.5286

> <Gold.Chemscore.Metal>
0.0000

> <Gold.Chemscore.Lipo>
100.3169

> <Gold.Chemscore.Internal_Hbond>
0.0000

> <Gold.Chemscore.DEClash>
2.2227

> <Gold.Chemscore.DEInternal>
0.5176

> <Gold.Chemscore.Rot>
1.3861

> <Gold.Chemscore.Internal.Correction>
   9.000000E+99

> <Gold.Chemscore.Hbonds>
donor molecule, donor type, donor heavy atom, donor atom, acceptor molecule, acceptor atom, score
      L1  H     7    28       P1  8028  0.98
      P1  H  7989  7998       L1     9  0.17

> <Gold.Chemscore.Hbond.Weighted>
-5.1054

> <Gold.Chemscore.Metal.Weighted>
-0.0000

> <Gold.Chemscore.Lipo.Weighted>
-11.7371

> <Gold.Chemscore.Internal_Hbond.Weighted>
0.0000

> <Gold.Chemscore.DEClash.Weighted>
2.2227

> <Gold.Chemscore.DEInternal.Weighted>
0.5176

> <Gold.Chemscore.Rot.Weighted>
3.5484

> <Gold.Chemscore.Internal.Correction.Weighted>
   9.000000E+99

> <Gold.Protein.RotatedTorsions>
[ 6907 6896 6895 6894 ] final  -59.66 input  -60.11 | X-H torsion
[ 7974 7965 7964 7962 ] final  -30.23 input  175.53 | X-H torsion
[ 8008 7997 7996 7995 ] final -176.36 input   59.86 | X-H torsion
[ 10167 10162 10161 10158 ] final   33.57 input  -65.29 | X-H torsion
[ 10718 10713 10712 10709 ] final  -86.90 input   66.30 | X-H torsion
[ 10763 10752 10751 10750 ] final  152.38 input  -60.55 | X-H torsion
[ 11005 11000 10999 10996 ] final  115.90 input  -57.11 | X-H torsion

> <Gold.Protein.ActiveResidues>
 VAL166  LYS551  ARG553  GLY616  TRP617  ASP618  TYR619  PRO620  LYS621  CYS622 
 ASP623  PHE694  ASN695  SER759  ASP760  ASP761  ALA762  ILE779  LEU786  VAL792 
 PHE793  MET794  SER795  GLU796  ALA797  LYS798  CYS799  TRP800  GLU811  SER814 

> <Gold.Protein.RotatedAtoms>
  150.7914  134.6939  159.6512 H   0  0  0  0  0  0  0  0  0  0  0  0  # atno 6907 bound_to 6896
  152.4019  134.6268  160.0075 H   0  0  0  0  0  0  0  0  0  0  0  0  # atno 6908 bound_to 6896
  151.6536  133.3283  159.3194 H   0  0  0  0  0  0  0  0  0  0  0  0  # atno 6909 bound_to 6896
  146.1158  140.5514  142.8757 H   0  0  0  0  0  0  0  0  0  0  0  0  # atno 7974 bound_to 7965
  155.9939  140.1206  157.0612 H   0  0  0  0  0  0  0  0  0  0  0  0  # atno 8008 bound_to 7997
  154.4220  140.1120  156.5672 H   0  0  0  0  0  0  0  0  0  0  0  0  # atno 8009 bound_to 7997
  155.6304  140.3473  155.4683 H   0  0  0  0  0  0  0  0  0  0  0  0  # atno 8010 bound_to 7997
  140.4395  144.1208  150.6171 H   0  0  0  0  0  0  0  0  0  0  0  0  # atno 10167 bound_to 10162
  155.9987  130.4781  150.4785 H   0  0  0  0  0  0  0  0  0  0  0  0  # atno 10718 bound_to 10713
  154.1191  135.2834  155.3212 H   0  0  0  0  0  0  0  0  0  0  0  0  # atno 10763 bound_to 10752
  154.6436  135.5394  153.7821 H   0  0  0  0  0  0  0  0  0  0  0  0  # atno 10764 bound_to 10752
  153.0319  135.6492  154.1346 H   0  0  0  0  0  0  0  0  0  0  0  0  # atno 10765 bound_to 10752
  139.9024  134.9590  156.7115 H   0  0  0  0  0  0  0  0  0  0  0  0  # atno 11005 bound_to 11000
  144.7552  140.5289  143.6774 LP  0  0  0  0  0  0  0  0  0  0  0  0  # atno 17320 bound_to 7965
  145.5569  139.1478  143.3363 LP  0  0  0  0  0  0  0  0  0  0  0  0  # atno 17321 bound_to 7965
  140.4335  143.2558  151.9566 LP  0  0  0  0  0  0  0  0  0  0  0  0  # atno 17342 bound_to 10162
  139.4789  144.5722  151.8070 LP  0  0  0  0  0  0  0  0  0  0  0  0  # atno 17343 bound_to 10162
  157.2792  131.0603  151.2208 LP  0  0  0  0  0  0  0  0  0  0  0  0  # atno 17370 bound_to 10713
  157.3261  130.6961  149.6297 LP  0  0  0  0  0  0  0  0  0  0  0  0  # atno 17371 bound_to 10713
  140.7072  133.9255  155.8061 LP  0  0  0  0  0  0  0  0  0  0  0  0  # atno 17394 bound_to 11000
  141.0328  134.0732  157.3995 LP  0  0  0  0  0  0  0  0  0  0  0  0  # atno 17395 bound_to 11000

$$$$
