#       Name:                AV-unprocessed.smi:1240
#       Creating user name   scv26
#       Creation time:       Fri Mar 27 04:30:15 2020


#       File generated by GOLD software.
#

@<TRIPOS>MOLECULE
AV-unprocessed.smi:1240
    55    57     1
SMALL
NO_CHARGES


@<TRIPOS>ATOM
      1 ****        -0.9378   0.8525  -1.8745 O.2            1 S1                 0.0000
      2 ****        -1.4343   1.2431  -0.8183 C.2            1 S1                 0.0000
      3 ****        -1.5491   0.4686   0.2701 N.am           1 S1                 0.0000
      4 ****        -1.1293  -0.9267   0.3458 C.3            1 S1                 0.0000
      5 ****         0.4110  -1.1157   0.4584 C.3            1 S1                 0.0000
      6 ****         1.0192  -0.5538   1.7747 C.3            1 S1                 0.0000
      7 ****         2.5157  -0.7848   1.9134 C.3            1 S1                 0.0000
      8 ****         2.8989   0.2087   3.0032 C.3            1 S1                 0.0000
      9 ****         2.0343   1.3219   2.8174 O.3            1 S1                 0.0000
     10 ****         0.9689   0.9706   1.9407 C.3            1 S1                 0.0000
     11 ****         0.8068  -2.5463   0.2871 N.4            1 S1                 1.0000
     12 ****         0.1099  -3.5260   1.1593 C.3            1 S1                 0.0000
     13 ****         0.7423  -4.9177   0.9948 C.3            1 S1                 0.0000
     14 ****         0.6831  -5.3079  -0.3720 O.3            1 S1                 0.0000
     15 ****         1.4103  -4.4214  -1.2146 C.3            1 S1                 0.0000
     16 ****         0.8097  -3.0083  -1.1228 C.3            1 S1                 0.0000
     17 ****        -1.9033   2.4819  -0.5886 N.am           1 S1                 0.0000
     18 ****        -1.9766   3.5845  -1.4837 C.ar           1 S1                 0.0000
     19 ****        -2.1126   4.8733  -0.9209 C.ar           1 S1                 0.0000
     20 ****        -2.2067   5.9966  -1.7677 C.ar           1 S1                 0.0000
     21 ****        -2.1758   5.8330  -3.1075 N.pl3          1 S1                 1.0000
     22 ****        -2.0607   4.6214  -3.6923 C.ar           1 S1                 0.0000
     23 ****        -1.9623   3.4614  -2.8968 C.ar           1 S1                 0.0000
     24 ****        -1.9648   0.8658   1.1004 H              1 S1                 0.0000
     25 ****        -1.6262  -1.3623   1.2127 H              1 S1                 0.0000
     26 ****        -1.5251  -1.4495  -0.5255 H              1 S1                 0.0000
     27 ****         0.8823  -0.5686  -0.3595 H              1 S1                 0.0000
     28 ****         0.5206  -1.0024   2.6350 H              1 S1                 0.0000
     29 ****         2.7721  -1.8111   2.1777 H              1 S1                 0.0000
     30 ****         3.0288  -0.5337   0.9835 H              1 S1                 0.0000
     31 ****         2.7120  -0.2175   3.9895 H              1 S1                 0.0000
     32 ****         3.9473   0.5033   2.9523 H              1 S1                 0.0000
     33 ****         1.1371   1.4720   0.9867 H              1 S1                 0.0000
     34 ****         0.0161   1.3160   2.3421 H              1 S1                 0.0000
     35 ****         0.1708  -3.2210   2.2035 H              1 S1                 0.0000
     36 ****        -0.9476  -3.5813   0.8988 H              1 S1                 0.0000
     37 ****         1.7761  -4.9213   1.3443 H              1 S1                 0.0000
     38 ****         0.2006  -5.6494   1.5944 H              1 S1                 0.0000
     39 ****         2.4644  -4.4160  -0.9326 H              1 S1                 0.0000
     40 ****         1.3573  -4.7858  -2.2406 H              1 S1                 0.0000
     41 ****        -0.2054  -3.0146  -1.5205 H              1 S1                 0.0000
     42 ****         1.3924  -2.3243  -1.7408 H              1 S1                 0.0000
     43 ****        -2.2034   2.6729   0.3563 H              1 S1                 0.0000
     44 ****        -2.1407   5.0053   0.1510 H              1 S1                 0.0000
     45 ****        -2.3075   7.0130  -1.4159 H              1 S1                 0.0000
     46 ****        -2.0574   4.6146  -4.7725 H              1 S1                 0.0000
     47 ****        -1.8917   2.5033  -3.3883 H              1 S1                 0.0000
     48 ****         1.7766  -2.5767   0.5678 H              1 S1                 0.0000
     49 ****        -2.2478   6.6585  -3.7033 H              1 S1                 0.0000
     50 ****        -0.5959  -0.0842  -1.9500 LP             1 S1                 0.0000
     51 ****        -0.8762   1.4719  -2.6573 LP             1 S1                 0.0000
     52 ****         2.5519   2.0808   2.4220 LP             1 S1                 0.0000
     53 ****         1.6579   1.5999   3.7011 LP             1 S1                 0.0000
     54 ****        -0.2734  -5.3174  -0.6633 LP             1 S1                 0.0000
     55 ****         1.0681  -6.2264  -0.4619 LP             1 S1                 0.0000
@<TRIPOS>BOND
    1    1    2 2     
    2    2    3 am    
    3    2   17 am    
    4    3    4 1     
    5    3   24 1     
    6    4    5 1     
    7    4   25 1     
    8    4   26 1     
    9    5    6 1     
   10    5   11 1     
   11    5   27 1     
   12    6   10 1     
   13    6    7 1     
   14    6   28 1     
   15    7    8 1     
   16    7   29 1     
   17    7   30 1     
   18    8    9 1     
   19    8   31 1     
   20    8   32 1     
   21    9   10 1     
   22   10   33 1     
   23   10   34 1     
   24   11   16 1     
   25   11   12 1     
   26   11   48 1     
   27   12   13 1     
   28   12   35 1     
   29   12   36 1     
   30   13   14 1     
   31   13   37 1     
   32   13   38 1     
   33   14   15 1     
   34   15   16 1     
   35   15   39 1     
   36   15   40 1     
   37   16   41 1     
   38   16   42 1     
   39   17   18 1     
   40   17   43 1     
   41   18   23 ar    
   42   18   19 ar    
   43   19   20 ar    
   44   19   44 1     
   45   20   21 ar    
   46   20   45 1     
   47   21   22 ar    
   48   21   49 1     
   49   22   23 ar    
   50   22   46 1     
   51   23   47 1     
   52    1   50 1     
   53    1   51 1     
   54    9   52 1     
   55    9   53 1     
   56   14   54 1     
   57   14   55 1     
@<TRIPOS>SUBSTRUCTURE
      1 S1             1
@<TRIPOS>SET
LONE_PAIRS      STATIC     ATOMS    <user>   **** ""
6 50 51 52 53 54 55
DONOR_HYDROGENS      STATIC     ATOMS    <user>   **** ""
4 24 48 43 49
ATOM$BLUE        STATIC     ATOMS    COLORGROUP SYSTEM
6 50 51 52 53 54 55
ATOM$RED        STATIC     ATOMS    COLORGROUP SYSTEM
4 24 48 43 49
