AV-unprocessed.smi:3034|AV-procd|sdf|11578|dock2
  -GOLD-   2272016543D 1   1.00000     0.00000
 Structure written by MMmdl.
 32 32  0  0  0  0  0  0  0  0  1 V2000
  146.2154  142.9485  154.1160 C   0  0  0  0  0  0  0  0  0  0  0  0
  147.1200  142.0217  154.9348 C   0  0  0  0  0  0  0  0  0  0  0  0
  148.4686  141.7605  154.2493 C   0  0  0  0  0  0  0  0  0  0  0  0
  149.6694  140.9595  155.3970 S   0  0  0  0  0  0  0  0  0  0  0  0
  148.9302  140.2858  156.4760 O   0  0  0  0  0  0  0  0  0  0  0  0
  150.6683  140.2235  154.6076 O   0  0  0  0  0  0  0  0  0  0  0  0
  150.4733  142.3178  156.0877 N   0  0  0  0  0  0  0  0  0  0  0  0
  150.6250  142.3566  157.5423 C   0  0  0  0  0  0  0  0  0  0  0  0
  151.5572  143.5051  157.9661 C   0  0  1  0  0  0  0  0  0  0  0  0
  150.8377  144.7225  157.9055 O   0  0  0  0  0  0  0  0  0  0  0  0
  152.1413  143.2505  159.3504 C   0  0  0  0  0  0  0  0  0  0  0  0
  152.9623  142.1300  159.6164 C   0  0  0  0  0  0  0  0  0  0  0  0
  153.4856  141.9711  160.9140 C   0  0  0  0  0  0  0  0  0  0  0  0
  153.1771  142.9343  161.8932 C   0  0  0  0  0  0  0  0  0  0  0  0
  152.3564  144.0196  161.5288 C   0  0  0  0  0  0  0  0  0  0  0  0
  151.8500  144.1814  160.2877 N   0  0  0  0  0  0  0  0  0  0  0  0
  145.2683  143.1179  154.6284 H   0  0  0  0  0  0  0  0  0  0  0  0
  145.9927  142.5189  153.1390 H   0  0  0  0  0  0  0  0  0  0  0  0
  146.6860  143.9190  153.9575 H   0  0  0  0  0  0  0  0  0  0  0  0
  147.2903  142.4627  155.9173 H   0  0  0  0  0  0  0  0  0  0  0  0
  146.6034  141.0768  155.1048 H   0  0  0  0  0  0  0  0  0  0  0  0
  148.3285  141.0915  153.4001 H   0  0  0  0  0  0  0  0  0  0  0  0
  148.9137  142.6811  153.8715 H   0  0  0  0  0  0  0  0  0  0  0  0
  151.3678  142.4825  155.6262 H   0  0  0  0  0  0  0  0  0  0  0  0
  149.6471  142.4449  158.0175 H   0  0  0  0  0  0  0  0  0  0  0  0
  151.0493  141.4029  157.8595 H   0  0  0  0  0  0  0  0  0  0  0  0
  152.3859  143.5820  157.2602 H   0  0  0  0  0  0  0  0  0  0  0  0
  150.2043  144.6592  157.2073 H   0  0  0  0  0  0  0  0  0  0  0  0
  153.1938  141.4066  158.8487 H   0  0  0  0  0  0  0  0  0  0  0  0
  154.1149  141.1265  161.1531 H   0  0  0  0  0  0  0  0  0  0  0  0
  153.5616  142.8451  162.8984 H   0  0  0  0  0  0  0  0  0  0  0  0
  152.1014  144.7789  162.2531 H   0  0  0  0  0  0  0  0  0  0  0  0
  1  2  1  0  0  0  0
  1 17  1  0  0  0  0
  1 18  1  0  0  0  0
  1 19  1  0  0  0  0
  2  3  1  0  0  0  0
  2 20  1  0  0  0  0
  2 21  1  0  0  0  0
  3  4  1  0  0  0  0
  3 22  1  0  0  0  0
  3 23  1  0  0  0  0
  4  5  2  0  0  0  0
  4  6  2  0  0  0  0
  4  7  1  0  0  0  0
  7  8  1  0  0  0  0
  7 24  1  0  0  0  0
  8  9  1  0  0  0  0
  8 25  1  0  0  0  0
  8 26  1  0  0  0  0
  9 10  1  0  0  0  0
  9 11  1  0  0  0  0
  9 27  1  0  0  0  0
 10 28  1  0  0  0  0
 11 16  1  0  0  0  0
 11 12  2  0  0  0  0
 12 13  1  0  0  0  0
 12 29  1  0  0  0  0
 13 14  2  0  0  0  0
 13 30  1  0  0  0  0
 14 15  1  0  0  0  0
 14 31  1  0  0  0  0
 15 16  2  0  0  0  0
 15 32  1  0  0  0  0
M  END
> <s_m_source_file>
AV-unprocessed.smi

> <i_m_source_file_index>
3034

> <i_lp_mmshare_version>
43012

> <i_f3d_flags>
0

> <s_epik_input>
W0NIM11bQ0gyXVtDSDJdUyg9TykoPU8pW05IXVtDSDJdW0NASF0oW09IXSljMVtjSF1bY0hdW2NIXVtjSF1uMQ==

> <s_epik_cmdline>
J2VwaWtfcHl0aG9uJywgJy1waCcsICc3LjAnLCAnLXRuJywgJzgnLCAnLW1hJywgJzIwMCcsICctbWV0YWxfYmluZGluZycsICctaW1hZScsICc8aW5maWxlLm1hZT4nLCAnLW9tYWUnLCAnPG91dGZpbGUubWFlPic=

> <r_epik_Ionization_Penalty>
0.00187371

> <r_epik_Ionization_Penalty_Charging>
0

> <r_epik_Ionization_Penalty_Neutral>
0.00187371

> <r_epik_State_Penalty>
0.0012608

> <r_epik_Charging_Adjusted_Penalty>
0.0012608

> <i_epik_Tot_Q>
0

> <i_epik_Tot_abs_Q>
0

> <r_epik_Metal_State_Penalty>
0.0168387

> <b_epik_Metal_Only>
0

> <s_lp_Force_Field>
OPLS_2005

> <r_lp_Energy>
4.76334

> <b_lp_Chiralities_Consistent>
1

> <s_lp_Variant>
AV-unprocessed.smi:3034-2

> <Gold.Version>
5.8.1

> <Gold.Id.Protein>
6NUR|6NUR_protein|mol2

> <Gold.PLP.Fitness>
46.5944

> <Gold.PLP.PLP>
-42.3055

> <Gold.PLP.part.hbond>
-3.5534

> <Gold.PLP.part.metal>
0.0000

> <Gold.PLP.part.buried>
-5.6133

> <Gold.PLP.part.nonpolar>
-33.5284

> <Gold.PLP.part.repulsive>
0.1904

> <Gold.PLP.ligand.clash>
0.0000

> <Gold.PLP.ligand.torsion>
0.9663

> <Gold.PLP.Chemscore.Hbond>
2.0000

> <Gold.PLP.Chemscore.CHOScore>
0.0000

> <Gold.PLP.Chemscore.Metal>
0.0000

> <Gold.Chemscore.Hbonds>
donor molecule, donor type, donor heavy atom, donor atom, acceptor molecule, acceptor atom, score
      L1  H    10    28       P1  8028  1.00
      P1  H  7989  7998       L1     6  1.00

> <Gold.PLP.Chemscore.Internal.Correction>
0.2215

> <Gold.Rescore>
     Score         DG    S(hbond)    S(metal)    S(lipo)     H(rot)  DE(clash)    DE(int)     intcor
     15.43     -16.22       1.88        0.00      95.66       2.63       0.02       0.76       ----

> <Gold.Chemscore.Fitness>
15.4305

> <Gold.Chemscore.DG>
-16.2172

> <Gold.Chemscore.ZeroCoef>
-5.4800

> <Gold.Chemscore.Hbond>
1.8776

> <Gold.Chemscore.Metal>
0.0000

> <Gold.Chemscore.Lipo>
95.6623

> <Gold.Chemscore.Internal_Hbond>
0.0000

> <Gold.Chemscore.DEClash>
0.0247

> <Gold.Chemscore.DEInternal>
0.7621

> <Gold.Chemscore.Rot>
2.6275

> <Gold.Chemscore.Internal.Correction>
   9.000000E+99

> <Gold.Chemscore.Hbonds>
donor molecule, donor type, donor heavy atom, donor atom, acceptor molecule, acceptor atom, score
      L1  H    10    28       P1  8028  0.38
      P1  H  7989  7998       L1     6  0.98

> <Gold.Chemscore.Hbond.Weighted>
-6.2713

> <Gold.Chemscore.Metal.Weighted>
-0.0000

> <Gold.Chemscore.Lipo.Weighted>
-11.1925

> <Gold.Chemscore.Internal_Hbond.Weighted>
0.0000

> <Gold.Chemscore.DEClash.Weighted>
0.0247

> <Gold.Chemscore.DEInternal.Weighted>
0.7621

> <Gold.Chemscore.Rot.Weighted>
6.7265

> <Gold.Chemscore.Internal.Correction.Weighted>
   9.000000E+99

> <Gold.Protein.RotatedTorsions>
[ 6907 6896 6895 6894 ] final  -77.09 input  -60.11 | X-H torsion
[ 7974 7965 7964 7962 ] final  -70.45 input  175.53 | X-H torsion
[ 8008 7997 7996 7995 ] final -151.85 input   59.86 | X-H torsion
[ 10167 10162 10161 10158 ] final -149.72 input  -65.29 | X-H torsion
[ 10718 10713 10712 10709 ] final  -78.71 input   66.30 | X-H torsion
[ 10763 10752 10751 10750 ] final   60.60 input  -60.55 | X-H torsion
[ 11005 11000 10999 10996 ] final    8.51 input  -57.11 | X-H torsion

> <Gold.Protein.ActiveResidues>
 VAL166  LYS551  ARG553  GLY616  TRP617  ASP618  TYR619  PRO620  LYS621  CYS622 
 ASP623  PHE694  ASN695  SER759  ASP760  ASP761  ALA762  ILE779  LEU786  VAL792 
 PHE793  MET794  SER795  GLU796  ALA797  LYS798  CYS799  TRP800  GLU811  SER814 

> <Gold.Protein.RotatedAtoms>
  150.7008  134.4474  159.5320 H   0  0  0  0  0  0  0  0  0  0  0  0  # atno 6907 bound_to 6896
  152.2173  134.8443  160.0499 H   0  0  0  0  0  0  0  0  0  0  0  0  # atno 6908 bound_to 6896
  151.9306  133.3575  159.3966 H   0  0  0  0  0  0  0  0  0  0  0  0  # atno 6909 bound_to 6896
  145.6908  140.9153  143.0782 H   0  0  0  0  0  0  0  0  0  0  0  0  # atno 7974 bound_to 7965
  155.6460  140.0707  157.2603 H   0  0  0  0  0  0  0  0  0  0  0  0  # atno 8008 bound_to 7997
  154.4173  140.1742  156.1673 H   0  0  0  0  0  0  0  0  0  0  0  0  # atno 8009 bound_to 7997
  155.9816  140.3353  155.6672 H   0  0  0  0  0  0  0  0  0  0  0  0  # atno 8010 bound_to 7997
  139.7417  143.8652  152.2564 H   0  0  0  0  0  0  0  0  0  0  0  0  # atno 10167 bound_to 10162
  156.0110  130.4525  150.3538 H   0  0  0  0  0  0  0  0  0  0  0  0  # atno 10718 bound_to 10713
  152.9926  135.5530  154.5900 H   0  0  0  0  0  0  0  0  0  0  0  0  # atno 10763 bound_to 10752
  154.5264  135.2811  155.1220 H   0  0  0  0  0  0  0  0  0  0  0  0  # atno 10764 bound_to 10752
  154.2553  135.6391  153.5308 H   0  0  0  0  0  0  0  0  0  0  0  0  # atno 10765 bound_to 10752
  140.5362  134.0419  155.7889 H   0  0  0  0  0  0  0  0  0  0  0  0  # atno 11005 bound_to 11000
  144.6997  139.8819  143.7447 LP  0  0  0  0  0  0  0  0  0  0  0  0  # atno 17320 bound_to 7965
  146.0883  139.3872  143.0421 LP  0  0  0  0  0  0  0  0  0  0  0  0  # atno 17321 bound_to 7965
  139.8604  144.7120  150.9106 LP  0  0  0  0  0  0  0  0  0  0  0  0  # atno 17342 bound_to 10162
  140.7787  143.3822  151.1456 LP  0  0  0  0  0  0  0  0  0  0  0  0  # atno 17343 bound_to 10162
  157.1629  131.0349  151.2832 LP  0  0  0  0  0  0  0  0  0  0  0  0  # atno 17370 bound_to 10713
  157.4295  130.7482  149.6978 LP  0  0  0  0  0  0  0  0  0  0  0  0  # atno 17371 bound_to 10713
  141.1253  133.9393  157.2647 LP  0  0  0  0  0  0  0  0  0  0  0  0  # atno 17394 bound_to 11000
  139.9528  135.0172  156.9043 LP  0  0  0  0  0  0  0  0  0  0  0  0  # atno 17395 bound_to 11000

$$$$
