AV-unprocessed.smi:490|AV-procd|sdf|2703|dock4
  -GOLD-   2262023143D 1   1.00000     0.00000
 Structure written by MMmdl.
 49 51  0  0  0  0  0  0  0  0  1 V2000
  152.7307  141.4415  159.5979 C   0  0  0  0  0  0  0  0  0  0  0  0
  152.4528  140.6062  158.3599 C   0  0  0  0  0  0  0  0  0  0  0  0
  153.0004  139.3101  158.2743 C   0  0  0  0  0  0  0  0  0  0  0  0
  152.7619  138.5094  157.1438 C   0  0  0  0  0  0  0  0  0  0  0  0
  151.9814  139.0012  156.0799 C   0  0  0  0  0  0  0  0  0  0  0  0
  151.7304  138.1260  154.8661 C   0  0  0  0  0  0  0  0  0  0  0  0
  151.4419  140.3061  156.1482 C   0  0  0  0  0  0  0  0  0  0  0  0
  150.6939  140.7762  155.0995 O   0  0  0  0  0  0  0  0  0  0  0  0
  149.3134  140.9159  155.4038 C   0  0  0  0  0  0  0  0  0  0  0  0
  148.5993  141.5433  154.1990 C   0  0  2  0  0  0  0  0  0  0  0  0
  148.8211  142.9393  154.2213 O   0  0  0  0  0  0  0  0  0  0  0  0
  147.0856  141.2470  154.1946 C   0  0  0  0  0  0  0  0  0  0  0  0
  146.3399  142.1171  155.0937 N   0  0  0  0  0  0  0  0  0  0  0  0
  146.1465  141.9668  156.4283 C   0  0  0  0  0  0  0  0  0  0  0  0
  146.7355  140.8051  157.1782 C   0  0  0  0  0  0  0  0  0  0  0  0
  147.5660  141.1802  158.2586 O   0  0  0  0  0  0  0  0  0  0  0  0
  145.4193  142.9200  157.0160 N   0  0  0  0  0  0  0  0  0  0  0  0
  145.1121  143.7628  155.9661 C   0  0  0  0  0  0  0  0  0  0  0  0
  144.3600  144.9588  155.9387 C   0  0  0  0  0  0  0  0  0  0  0  0
  144.1799  145.6615  154.7293 C   0  0  0  0  0  0  0  0  0  0  0  0
  144.7484  145.1793  153.5326 C   0  0  0  0  0  0  0  0  0  0  0  0
  145.5004  143.9887  153.5377 C   0  0  0  0  0  0  0  0  0  0  0  0
  145.6766  143.2906  154.7476 C   0  0  0  0  0  0  0  0  0  0  0  0
  151.6574  141.1065  157.2987 C   0  0  0  0  0  0  0  0  0  0  0  0
  151.0386  142.4948  157.3931 C   0  0  0  0  0  0  0  0  0  0  0  0
  153.4785  140.9694  160.2360 H   0  0  0  0  0  0  0  0  0  0  0  0
  151.8205  141.5668  160.1842 H   0  0  0  0  0  0  0  0  0  0  0  0
  153.1057  142.4271  159.3213 H   0  0  0  0  0  0  0  0  0  0  0  0
  153.6050  138.9201  159.0799 H   0  0  0  0  0  0  0  0  0  0  0  0
  153.1836  137.5161  157.0970 H   0  0  0  0  0  0  0  0  0  0  0  0
  150.6758  138.1445  154.5902 H   0  0  0  0  0  0  0  0  0  0  0  0
  152.0080  137.0898  155.0608 H   0  0  0  0  0  0  0  0  0  0  0  0
  152.3149  138.4803  154.0172 H   0  0  0  0  0  0  0  0  0  0  0  0
  148.8661  139.9522  155.6533 H   0  0  0  0  0  0  0  0  0  0  0  0
  149.2028  141.5583  156.2790 H   0  0  0  0  0  0  0  0  0  0  0  0
  149.0540  141.1607  153.2851 H   0  0  0  0  0  0  0  0  0  0  0  0
  149.0297  143.1969  155.1061 H   0  0  0  0  0  0  0  0  0  0  0  0
  146.6794  141.3562  153.1888 H   0  0  0  0  0  0  0  0  0  0  0  0
  146.9015  140.2105  154.4797 H   0  0  0  0  0  0  0  0  0  0  0  0
  145.9353  140.1784  157.5701 H   0  0  0  0  0  0  0  0  0  0  0  0
  147.3166  140.1961  156.4853 H   0  0  0  0  0  0  0  0  0  0  0  0
  147.0214  141.3469  159.0123 H   0  0  0  0  0  0  0  0  0  0  0  0
  143.9209  145.3360  156.8505 H   0  0  0  0  0  0  0  0  0  0  0  0
  143.6025  146.5744  154.7201 H   0  0  0  0  0  0  0  0  0  0  0  0
  144.6057  145.7236  152.6105 H   0  0  0  0  0  0  0  0  0  0  0  0
  145.9338  143.6155  152.6220 H   0  0  0  0  0  0  0  0  0  0  0  0
  150.2276  142.6323  156.6789 H   0  0  0  0  0  0  0  0  0  0  0  0
  151.7945  143.2558  157.1990 H   0  0  0  0  0  0  0  0  0  0  0  0
  150.6195  142.6702  158.3836 H   0  0  0  0  0  0  0  0  0  0  0  0
  1  2  1  0  0  0  0
  1 26  1  0  0  0  0
  1 27  1  0  0  0  0
  1 28  1  0  0  0  0
  2 24  1  0  0  0  0
  2  3  2  0  0  0  0
  3  4  1  0  0  0  0
  3 29  1  0  0  0  0
  4  5  2  0  0  0  0
  4 30  1  0  0  0  0
  5  6  1  0  0  0  0
  5  7  1  0  0  0  0
  6 31  1  0  0  0  0
  6 32  1  0  0  0  0
  6 33  1  0  0  0  0
  7  8  1  0  0  0  0
  7 24  2  0  0  0  0
  8  9  1  0  0  0  0
  9 10  1  0  0  0  0
  9 34  1  0  0  0  0
  9 35  1  0  0  0  0
 10 11  1  0  0  0  0
 10 12  1  0  0  0  0
 10 36  1  0  0  0  0
 11 37  1  0  0  0  0
 12 13  1  0  0  0  0
 12 38  1  0  0  0  0
 12 39  1  0  0  0  0
 13 23  1  0  0  0  0
 13 14  1  0  0  0  0
 14 15  1  0  0  0  0
 14 17  2  0  0  0  0
 15 16  1  0  0  0  0
 15 40  1  0  0  0  0
 15 41  1  0  0  0  0
 16 42  1  0  0  0  0
 17 18  1  0  0  0  0
 18 23  2  0  0  0  0
 18 19  1  0  0  0  0
 19 20  2  0  0  0  0
 19 43  1  0  0  0  0
 20 21  1  0  0  0  0
 20 44  1  0  0  0  0
 21 22  2  0  0  0  0
 21 45  1  0  0  0  0
 22 23  1  0  0  0  0
 22 46  1  0  0  0  0
 24 25  1  0  0  0  0
 25 47  1  0  0  0  0
 25 48  1  0  0  0  0
 25 49  1  0  0  0  0
M  END
> <s_m_source_file>
AV-unprocessed.smi

> <i_m_source_file_index>
490

> <i_lp_mmshare_version>
43012

> <i_f3d_flags>
0

> <s_epik_input>
W0NIM11jMVtjSF1bY0hdYyhbQ0gzXSljKGMxW0NIM10pT1tDSDJdW0NASF0oW09IXSlbQ0gyXW4oYyhuMilbQ0gyXVtPSF0pYyhjMjMpW2NIXVtjSF1bY0hdW2NIXTM=

> <s_epik_cmdline>
J2VwaWtfcHl0aG9uJywgJy1waCcsICc3LjAnLCAnLXRuJywgJzgnLCAnLW1hJywgJzIwMCcsICctbWV0YWxfYmluZGluZycsICctaW1hZScsICc8aW5maWxlLm1hZT4nLCAnLW9tYWUnLCAnPG91dGZpbGUubWFlPic=

> <r_lp_tautomer_probability>
1

> <r_epik_Ionization_Penalty>
0.0555874

> <r_epik_Ionization_Penalty_Charging>
0

> <r_epik_Ionization_Penalty_Neutral>
0.0555874

> <r_epik_State_Penalty>
0.0478234

> <r_epik_Charging_Adjusted_Penalty>
0.0478234

> <i_epik_Tot_Q>
0

> <i_epik_Tot_abs_Q>
0

> <r_epik_Metal_State_Penalty>
4.98044e-05

> <b_epik_Metal_Only>
0

> <s_lp_Force_Field>
OPLS_2005

> <r_lp_Energy>
19.7492

> <b_lp_Chiralities_Consistent>
1

> <s_lp_Variant>
AV-unprocessed.smi:490-1

> <Gold.Version>
5.8.1

> <Gold.Id.Protein>
6NUR|6NUR_protein|mol2

> <Gold.PLP.Fitness>
53.1060

> <Gold.PLP.PLP>
-48.9469

> <Gold.PLP.part.hbond>
-3.7531

> <Gold.PLP.part.metal>
0.0000

> <Gold.PLP.part.buried>
-3.6332

> <Gold.PLP.part.nonpolar>
-41.3270

> <Gold.PLP.part.repulsive>
0.1682

> <Gold.PLP.ligand.clash>
0.0000

> <Gold.PLP.ligand.torsion>
0.8164

> <Gold.PLP.Chemscore.Hbond>
1.8580

> <Gold.PLP.Chemscore.CHOScore>
0.0000

> <Gold.PLP.Chemscore.Metal>
0.0000

> <Gold.Chemscore.Hbonds>
donor molecule, donor type, donor heavy atom, donor atom, acceptor molecule, acceptor atom, score
      L1  H    11    37       P1  8028  0.45
      P1  H  7989  7998       L1     8  0.85
      P1  H  8022  8030       L1    11  0.70

> <Gold.PLP.Chemscore.Internal.Correction>
0.2180

> <Gold.Rescore>
     Score         DG    S(hbond)    S(metal)    S(lipo)     H(rot)  DE(clash)    DE(int)     intcor
     15.67     -18.39       1.80        0.00     123.04       2.93       0.94       1.78       ----

> <Gold.Chemscore.Fitness>
15.6702

> <Gold.Chemscore.DG>
-18.3909

> <Gold.Chemscore.ZeroCoef>
-5.4800

> <Gold.Chemscore.Hbond>
1.7995

> <Gold.Chemscore.Metal>
0.0000

> <Gold.Chemscore.Lipo>
123.0431

> <Gold.Chemscore.Internal_Hbond>
0.0000

> <Gold.Chemscore.DEClash>
0.9416

> <Gold.Chemscore.DEInternal>
1.7791

> <Gold.Chemscore.Rot>
2.9279

> <Gold.Chemscore.Internal.Correction>
   9.000000E+99

> <Gold.Chemscore.Hbonds>
donor molecule, donor type, donor heavy atom, donor atom, acceptor molecule, acceptor atom, score
      L1  H    11    37       P1  8028  0.44
      P1  H  7989  7998       L1     8  0.75
      P1  H  8022  8030       L1    11  0.07

> <Gold.Chemscore.Hbond.Weighted>
-6.0102

> <Gold.Chemscore.Metal.Weighted>
-0.0000

> <Gold.Chemscore.Lipo.Weighted>
-14.3960

> <Gold.Chemscore.Internal_Hbond.Weighted>
0.0000

> <Gold.Chemscore.DEClash.Weighted>
0.9416

> <Gold.Chemscore.DEInternal.Weighted>
1.7791

> <Gold.Chemscore.Rot.Weighted>
7.4954

> <Gold.Chemscore.Internal.Correction.Weighted>
   9.000000E+99

> <Gold.Protein.RotatedTorsions>
[ 6907 6896 6895 6894 ] final  -97.33 input  -60.11 | X-H torsion
[ 7974 7965 7964 7962 ] final  -22.41 input  175.53 | X-H torsion
[ 8008 7997 7996 7995 ] final   84.57 input   59.86 | X-H torsion
[ 10167 10162 10161 10158 ] final -165.62 input  -65.29 | X-H torsion
[ 10718 10713 10712 10709 ] final  -45.40 input   66.30 | X-H torsion
[ 10763 10752 10751 10750 ] final   25.55 input  -60.55 | X-H torsion
[ 11005 11000 10999 10996 ] final  -85.58 input  -57.11 | X-H torsion

> <Gold.Protein.ActiveResidues>
 VAL166  LYS551  ARG553  GLY616  TRP617  ASP618  TYR619  PRO620  LYS621  CYS622 
 ASP623  PHE694  ASN695  SER759  ASP760  ASP761  ALA762  ILE779  LEU786  VAL792 
 PHE793  MET794  SER795  GLU796  ALA797  LYS798  CYS799  TRP800  GLU811  SER814 

> <Gold.Protein.RotatedAtoms>
  150.7013  134.1366  159.4089 H   0  0  0  0  0  0  0  0  0  0  0  0  # atno 6907 bound_to 6896
  151.9351  135.0236  160.0541 H   0  0  0  0  0  0  0  0  0  0  0  0  # atno 6908 bound_to 6896
  152.2142  133.4899  159.5163 H   0  0  0  0  0  0  0  0  0  0  0  0  # atno 6909 bound_to 6896
  146.1677  140.4476  142.8545 H   0  0  0  0  0  0  0  0  0  0  0  0  # atno 7974 bound_to 7965
  155.9387  140.3409  155.6309 H   0  0  0  0  0  0  0  0  0  0  0  0  # atno 8008 bound_to 7997
  155.7066  140.0766  157.2407 H   0  0  0  0  0  0  0  0  0  0  0  0  # atno 8009 bound_to 7997
  154.4098  140.1630  156.2237 H   0  0  0  0  0  0  0  0  0  0  0  0  # atno 8010 bound_to 7997
  139.6169  144.0701  152.1896 H   0  0  0  0  0  0  0  0  0  0  0  0  # atno 10167 bound_to 10162
  156.2288  130.4171  149.8901 H   0  0  0  0  0  0  0  0  0  0  0  0  # atno 10718 bound_to 10713
  153.0684  135.6580  154.0303 H   0  0  0  0  0  0  0  0  0  0  0  0  # atno 10763 bound_to 10752
  153.9954  135.2942  155.3409 H   0  0  0  0  0  0  0  0  0  0  0  0  # atno 10764 bound_to 10752
  154.7050  135.5229  153.8651 H   0  0  0  0  0  0  0  0  0  0  0  0  # atno 10765 bound_to 10752
  141.1640  133.7407  156.9035 H   0  0  0  0  0  0  0  0  0  0  0  0  # atno 11005 bound_to 11000
  144.8116  140.6396  143.6411 LP  0  0  0  0  0  0  0  0  0  0  0  0  # atno 17320 bound_to 7965
  145.4424  139.1534  143.3963 LP  0  0  0  0  0  0  0  0  0  0  0  0  # atno 17321 bound_to 7965
  140.0333  144.6064  150.7470 LP  0  0  0  0  0  0  0  0  0  0  0  0  # atno 17342 bound_to 10162
  140.7357  143.2744  151.3788 LP  0  0  0  0  0  0  0  0  0  0  0  0  # atno 17343 bound_to 10162
  156.6522  130.8748  151.3533 LP  0  0  0  0  0  0  0  0  0  0  0  0  # atno 17370 bound_to 10713
  157.7123  130.9455  150.1132 LP  0  0  0  0  0  0  0  0  0  0  0  0  # atno 17371 bound_to 10713
  140.1566  134.9194  157.2661 LP  0  0  0  0  0  0  0  0  0  0  0  0  # atno 17394 bound_to 11000
  140.2660  134.3515  155.7390 LP  0  0  0  0  0  0  0  0  0  0  0  0  # atno 17395 bound_to 11000

$$$$
