AV-unprocessed.smi:2061|AV-procd|sdf|8362|dock7
  -GOLD-   2272011 33D 1   1.00000     0.00000
 Structure written by MMmdl.
 45 46  0  0  0  0  0  0  0  0  1 V2000
  148.8295  130.8201  153.6627 C   0  0  0  0  0  0  0  0  0  0  0  0
  149.3079  132.1639  154.0958 C   0  0  0  0  0  0  0  0  0  0  0  0
  149.1363  133.4208  153.5873 C   0  0  0  0  0  0  0  0  0  0  0  0
  149.8701  134.2346  154.4909 C   0  0  0  0  0  0  0  0  0  0  0  0
  149.9478  135.6392  154.3088 N   0  0  0  0  0  0  0  0  0  0  0  0
  150.7602  136.5028  154.9413 C   0  0  0  0  0  0  0  0  0  0  0  0
  151.5828  136.1985  155.8055 O   0  0  0  0  0  0  0  0  0  0  0  0
  150.5631  137.7580  154.5135 N   0  0  0  0  0  0  0  0  0  0  0  0
  151.2690  138.9437  154.9961 C   0  0  0  0  0  0  0  0  0  0  0  0
  150.3192  139.9683  155.6715 C   0  0  2  0  0  0  0  0  0  0  0  0
  149.4808  140.6578  154.5714 C   0  0  0  0  0  0  0  0  0  0  0  0
  151.0025  140.9193  156.5763 N   0  0  0  0  0  0  0  0  0  0  0  0
  151.7293  140.2461  157.6547 C   0  0  0  0  0  0  0  0  0  0  0  0
  152.4662  141.2336  158.5774 C   0  0  2  0  0  0  0  0  0  0  0  0
  153.1551  140.5242  159.7479 C   0  0  0  0  0  0  0  0  0  0  0  0
  151.5348  142.1674  159.1148 O   0  0  0  0  0  0  0  0  0  0  0  0
  150.7629  142.8713  158.1436 C   0  0  1  0  0  0  0  0  0  0  0  0
  151.5928  143.9462  157.4208 C   0  0  0  0  0  0  0  0  0  0  0  0
  150.0764  141.8802  157.1827 C   0  0  0  0  0  0  0  0  0  0  0  0
  150.4358  133.5377  155.4646 N   0  0  0  0  0  0  0  0  0  0  0  0
  150.0790  132.2072  155.2158 O   0  0  0  0  0  0  0  0  0  0  0  0
  147.9332  130.9055  153.0481 H   0  0  0  0  0  0  0  0  0  0  0  0
  148.5892  130.1958  154.5235 H   0  0  0  0  0  0  0  0  0  0  0  0
  149.5945  130.3099  153.0772 H   0  0  0  0  0  0  0  0  0  0  0  0
  148.5781  133.7077  152.7086 H   0  0  0  0  0  0  0  0  0  0  0  0
  149.3208  136.0271  153.6197 H   0  0  0  0  0  0  0  0  0  0  0  0
  149.8581  137.9126  153.8077 H   0  0  0  0  0  0  0  0  0  0  0  0
  152.0693  138.6632  155.6829 H   0  0  0  0  0  0  0  0  0  0  0  0
  151.7879  139.3956  154.1515 H   0  0  0  0  0  0  0  0  0  0  0  0
  149.6173  139.3842  156.2688 H   0  0  0  0  0  0  0  0  0  0  0  0
  149.1001  139.9333  153.8511 H   0  0  0  0  0  0  0  0  0  0  0  0
  150.0693  141.3917  154.0197 H   0  0  0  0  0  0  0  0  0  0  0  0
  148.6073  141.1653  154.9793 H   0  0  0  0  0  0  0  0  0  0  0  0
  151.0385  139.6396  158.2425 H   0  0  0  0  0  0  0  0  0  0  0  0
  152.4752  139.5665  157.2463 H   0  0  0  0  0  0  0  0  0  0  0  0
  153.2269  141.7665  158.0064 H   0  0  0  0  0  0  0  0  0  0  0  0
  153.8947  139.8068  159.3920 H   0  0  0  0  0  0  0  0  0  0  0  0
  152.4340  139.9853  160.3629 H   0  0  0  0  0  0  0  0  0  0  0  0
  153.6692  141.2409  160.3888 H   0  0  0  0  0  0  0  0  0  0  0  0
  149.9821  143.3939  158.6968 H   0  0  0  0  0  0  0  0  0  0  0  0
  150.9602  144.5514  156.7712 H   0  0  0  0  0  0  0  0  0  0  0  0
  152.3749  143.5118  156.7985 H   0  0  0  0  0  0  0  0  0  0  0  0
  152.0678  144.6169  158.1368 H   0  0  0  0  0  0  0  0  0  0  0  0
  149.5656  142.4613  156.4166 H   0  0  0  0  0  0  0  0  0  0  0  0
  149.3024  141.3387  157.7287 H   0  0  0  0  0  0  0  0  0  0  0  0
  1  2  1  0  0  0  0
  1 22  1  0  0  0  0
  1 23  1  0  0  0  0
  1 24  1  0  0  0  0
  2 21  1  0  0  0  0
  2  3  2  0  0  0  0
  3  4  1  0  0  0  0
  3 25  1  0  0  0  0
  4  5  1  0  0  0  0
  4 20  2  0  0  0  0
  5  6  1  0  0  0  0
  5 26  1  0  0  0  0
  6  7  2  0  0  0  0
  6  8  1  0  0  0  0
  8  9  1  0  0  0  0
  8 27  1  0  0  0  0
  9 10  1  0  0  0  0
  9 28  1  0  0  0  0
  9 29  1  0  0  0  0
 10 11  1  0  0  0  0
 10 12  1  0  0  0  0
 10 30  1  0  0  0  0
 11 31  1  0  0  0  0
 11 32  1  0  0  0  0
 11 33  1  0  0  0  0
 12 19  1  0  0  0  0
 12 13  1  0  0  0  0
 13 14  1  0  0  0  0
 13 34  1  0  0  0  0
 13 35  1  0  0  0  0
 14 15  1  0  0  0  0
 14 16  1  0  0  0  0
 14 36  1  0  0  0  0
 15 37  1  0  0  0  0
 15 38  1  0  0  0  0
 15 39  1  0  0  0  0
 16 17  1  0  0  0  0
 17 18  1  0  0  0  0
 17 19  1  0  0  0  0
 17 40  1  0  0  0  0
 18 41  1  0  0  0  0
 18 42  1  0  0  0  0
 18 43  1  0  0  0  0
 19 44  1  0  0  0  0
 19 45  1  0  0  0  0
 20 21  1  0  0  0  0
M  END
> <s_m_source_file>
AV-unprocessed.smi

> <i_m_source_file_index>
2061

> <i_lp_mmshare_version>
43012

> <i_f3d_flags>
0

> <s_epik_input>
W0NIM11jMVtjSF1jKG5vMSlbTkhdQyg9TylbTkhdW0NIMl1bQ0BIXShbQ0gzXSlOMltDSDJdW0NAQEhdKFtDSDNdKU9bQ0BASF0oW0NIM10pW0NIMl0y

> <s_epik_cmdline>
J2VwaWtfcHl0aG9uJywgJy1waCcsICc3LjAnLCAnLXRuJywgJzgnLCAnLW1hJywgJzIwMCcsICctbWV0YWxfYmluZGluZycsICctaW1hZScsICc8aW5maWxlLm1hZT4nLCAnLW9tYWUnLCAnPG91dGZpbGUubWFlPic=

> <r_epik_Ionization_Penalty>
0.214073

> <r_epik_Ionization_Penalty_Charging>
0

> <r_epik_Ionization_Penalty_Neutral>
0.214073

> <r_epik_State_Penalty>
0.204211

> <r_epik_Charging_Adjusted_Penalty>
0.204211

> <i_epik_Tot_Q>
0

> <i_epik_Tot_abs_Q>
0

> <r_epik_Metal_State_Penalty>
0.217067

> <b_epik_Metal_Only>
0

> <s_lp_Force_Field>
OPLS_2005

> <r_lp_Energy>
31.3151

> <b_lp_Chiralities_Consistent>
1

> <s_lp_Variant>
AV-unprocessed.smi:2061-3

> <Gold.Version>
5.8.1

> <Gold.Id.Protein>
6NUR|6NUR_protein|mol2

> <Gold.PLP.Fitness>
42.6359

> <Gold.PLP.PLP>
-37.0388

> <Gold.PLP.part.hbond>
-2.6539

> <Gold.PLP.part.metal>
0.0000

> <Gold.PLP.part.buried>
-5.0332

> <Gold.PLP.part.nonpolar>
-30.6007

> <Gold.PLP.part.repulsive>
0.2097

> <Gold.PLP.ligand.clash>
0.0000

> <Gold.PLP.ligand.torsion>
0.1839

> <Gold.PLP.Chemscore.Hbond>
1.9760

> <Gold.PLP.Chemscore.CHOScore>
0.0000

> <Gold.PLP.Chemscore.Metal>
0.0000

> <Gold.Chemscore.Hbonds>
donor molecule, donor type, donor heavy atom, donor atom, acceptor molecule, acceptor atom, score
      L1  H     5    26       P1  7948  0.90
      P1  H 10752 10765       L1     7  1.00

> <Gold.PLP.Chemscore.Internal.Correction>
0.0369

> <Gold.Rescore>
     Score         DG    S(hbond)    S(metal)    S(lipo)     H(rot)  DE(clash)    DE(int)     intcor
     15.20     -16.61       1.52        0.00      85.52       1.55       0.01       1.39       ----

> <Gold.Chemscore.Fitness>
15.2000

> <Gold.Chemscore.DG>
-16.6050

> <Gold.Chemscore.ZeroCoef>
-5.4800

> <Gold.Chemscore.Hbond>
1.5212

> <Gold.Chemscore.Metal>
0.0000

> <Gold.Chemscore.Lipo>
85.5160

> <Gold.Chemscore.Internal_Hbond>
0.0000

> <Gold.Chemscore.DEClash>
0.0132

> <Gold.Chemscore.DEInternal>
1.3918

> <Gold.Chemscore.Rot>
1.5474

> <Gold.Chemscore.Internal.Correction>
   9.000000E+99

> <Gold.Chemscore.Hbonds>
donor molecule, donor type, donor heavy atom, donor atom, acceptor molecule, acceptor atom, score
      L1  H     5    26       P1  7948  0.66
      P1  H 10752 10765       L1     7  0.50

> <Gold.Chemscore.Hbond.Weighted>
-5.0809

> <Gold.Chemscore.Metal.Weighted>
-0.0000

> <Gold.Chemscore.Lipo.Weighted>
-10.0054

> <Gold.Chemscore.Internal_Hbond.Weighted>
0.0000

> <Gold.Chemscore.DEClash.Weighted>
0.0132

> <Gold.Chemscore.DEInternal.Weighted>
1.3918

> <Gold.Chemscore.Rot.Weighted>
3.9612

> <Gold.Chemscore.Internal.Correction.Weighted>
   9.000000E+99

> <Gold.Protein.RotatedTorsions>
[ 6907 6896 6895 6894 ] final -148.87 input  -60.11 | X-H torsion
[ 7974 7965 7964 7962 ] final   11.57 input  175.53 | X-H torsion
[ 8008 7997 7996 7995 ] final -132.13 input   59.86 | X-H torsion
[ 10167 10162 10161 10158 ] final  170.58 input  -65.29 | X-H torsion
[ 10718 10713 10712 10709 ] final  -62.86 input   66.30 | X-H torsion
[ 10763 10752 10751 10750 ] final -162.27 input  -60.55 | X-H torsion
[ 11005 11000 10999 10996 ] final  -47.68 input  -57.11 | X-H torsion

> <Gold.Protein.ActiveResidues>
 VAL166  LYS551  ARG553  GLY616  TRP617  ASP618  TYR619  PRO620  LYS621  CYS622 
 ASP623  PHE694  ASN695  SER759  ASP760  ASP761  ALA762  ILE779  LEU786  VAL792 
 PHE793  MET794  SER795  GLU796  ALA797  LYS798  CYS799  TRP800  GLU811  SER814 

> <Gold.Protein.RotatedAtoms>
  151.1760  133.4754  159.2593 H   0  0  0  0  0  0  0  0  0  0  0  0  # atno 6907 bound_to 6896
  151.1307  135.0128  159.8591 H   0  0  0  0  0  0  0  0  0  0  0  0  # atno 6908 bound_to 6896
  152.5460  134.1663  159.8632 H   0  0  0  0  0  0  0  0  0  0  0  0  # atno 6909 bound_to 6896
  146.2368  139.9465  142.8476 H   0  0  0  0  0  0  0  0  0  0  0  0  # atno 7974 bound_to 7965
  155.3238  140.0463  157.3040 H   0  0  0  0  0  0  0  0  0  0  0  0  # atno 8008 bound_to 7997
  154.5365  140.2274  155.8679 H   0  0  0  0  0  0  0  0  0  0  0  0  # atno 8009 bound_to 7997
  156.1840  140.3067  155.9209 H   0  0  0  0  0  0  0  0  0  0  0  0  # atno 8010 bound_to 7997
  139.5022  144.3581  151.9853 H   0  0  0  0  0  0  0  0  0  0  0  0  # atno 10167 bound_to 10162
  156.0828  130.4214  150.1195 H   0  0  0  0  0  0  0  0  0  0  0  0  # atno 10718 bound_to 10713
  154.7229  135.3029  154.9018 H   0  0  0  0  0  0  0  0  0  0  0  0  # atno 10763 bound_to 10752
  153.9884  135.6721  153.4757 H   0  0  0  0  0  0  0  0  0  0  0  0  # atno 10764 bound_to 10752
  153.0849  135.4989  154.8496 H   0  0  0  0  0  0  0  0  0  0  0  0  # atno 10765 bound_to 10752
  141.0655  133.6695  156.3332 H   0  0  0  0  0  0  0  0  0  0  0  0  # atno 11005 bound_to 11000
  145.1902  140.9808  143.4215 LP  0  0  0  0  0  0  0  0  0  0  0  0  # atno 17320 bound_to 7965
  144.9864  139.3732  143.6236 LP  0  0  0  0  0  0  0  0  0  0  0  0  # atno 17321 bound_to 7965
  140.3017  144.3639  150.6058 LP  0  0  0  0  0  0  0  0  0  0  0  0  # atno 17342 bound_to 10162
  140.5868  143.2169  151.7327 LP  0  0  0  0  0  0  0  0  0  0  0  0  # atno 17343 bound_to 10162
  156.9223  130.9687  151.3546 LP  0  0  0  0  0  0  0  0  0  0  0  0  # atno 17370 bound_to 10713
  157.5951  130.8471  149.8717 LP  0  0  0  0  0  0  0  0  0  0  0  0  # atno 17371 bound_to 10713
  140.5782  134.5772  157.5473 LP  0  0  0  0  0  0  0  0  0  0  0  0  # atno 17394 bound_to 11000
  139.9472  134.7680  156.0533 LP  0  0  0  0  0  0  0  0  0  0  0  0  # atno 17395 bound_to 11000

$$$$
