AV-unprocessed.smi:37|AV-procd|sdf|305|dock9
  -GOLD-   2262016113D 1   1.00000     0.00000
 Structure written by MMmdl.
 44 45  0  0  0  0  0  0  0  0  1 V2000
  147.0091  134.5193  162.5355 C   0  0  0  0  0  0  0  0  0  0  0  0
  146.5298  135.6940  161.6719 C   0  0  0  0  0  0  0  0  0  0  0  0
  147.6463  136.2715  160.8040 C   0  0  0  0  0  0  0  0  0  0  0  0
  148.6212  136.8330  161.3033 O   0  0  0  0  0  0  0  0  0  0  0  0
  147.4220  136.1047  159.4917 O   0  0  0  0  0  0  0  0  0  0  0  0
  148.5162  136.0501  158.5914 C   0  0  0  0  0  0  0  0  0  0  0  0
  148.1618  136.8331  157.3214 C   0  0  2  0  0  0  0  0  0  0  0  0
  146.8925  136.4313  156.8052 O   0  0  0  0  0  0  0  0  0  0  0  0
  146.9214  136.3869  155.4057 C   0  0  2  0  0  0  0  0  0  0  0  0
  146.7733  134.9529  154.9377 N   0  0  0  0  0  0  0  0  0  0  0  0
  147.7670  134.2945  154.2223 C   0  0  0  0  0  0  0  0  0  0  0  0
  147.6415  133.0170  153.7911 C   0  0  0  0  0  0  0  0  0  0  0  0
  148.6460  132.4474  153.1037 F   0  0  0  0  0  0  0  0  0  0  0  0
  146.4271  132.2540  154.0629 C   0  0  0  0  0  0  0  0  0  0  0  0
  146.2211  131.0936  153.7133 O   0  0  0  0  0  0  0  0  0  0  0  0
  145.4549  132.9549  154.7818 N   0  0  0  0  0  0  0  0  0  0  0  0
  145.5708  134.2712  155.2307 C   0  0  0  0  0  0  0  0  0  0  0  0
  144.6447  134.7947  155.8488 O   0  0  0  0  0  0  0  0  0  0  0  0
  148.2772  136.9462  154.9625 C   0  0  1  0  0  0  0  0  0  0  0  0
  148.1149  138.9179  154.6972 Br  0  0  0  0  0  0  0  0  0  0  0  0
  149.1436  136.6279  156.1690 C   0  0  1  0  0  0  0  0  0  0  0  0
  150.2727  137.4832  156.2810 O   0  0  0  0  0  0  0  0  0  0  0  0
  151.3795  137.2411  155.5587 C   0  0  0  0  0  0  0  0  0  0  0  0
  151.6028  136.2279  154.8960 O   0  0  0  0  0  0  0  0  0  0  0  0
  152.3843  138.3883  155.6242 C   0  0  0  0  0  0  0  0  0  0  0  0
  153.5475  138.1920  154.6422 C   0  0  0  0  0  0  0  0  0  0  0  0
  144.5953  132.4681  154.9912 H   0  0  0  0  0  0  0  0  0  0  0  0
  146.2025  134.1599  163.1746 H   0  0  0  0  0  0  0  0  0  0  0  0
  147.8367  134.8135  163.1817 H   0  0  0  0  0  0  0  0  0  0  0  0
  147.3410  133.6803  161.9230 H   0  0  0  0  0  0  0  0  0  0  0  0
  145.7115  135.3753  161.0265 H   0  0  0  0  0  0  0  0  0  0  0  0
  146.1368  136.4851  162.3109 H   0  0  0  0  0  0  0  0  0  0  0  0
  149.4113  136.4593  159.0607 H   0  0  0  0  0  0  0  0  0  0  0  0
  148.7220  135.0089  158.3402 H   0  0  0  0  0  0  0  0  0  0  0  0
  148.0811  137.8962  157.5546 H   0  0  0  0  0  0  0  0  0  0  0  0
  146.0601  136.9191  154.9974 H   0  0  0  0  0  0  0  0  0  0  0  0
  148.6888  134.8014  153.9851 H   0  0  0  0  0  0  0  0  0  0  0  0
  148.6353  136.5044  154.0320 H   0  0  0  0  0  0  0  0  0  0  0  0
  149.4396  135.5774  156.1433 H   0  0  0  0  0  0  0  0  0  0  0  0
  151.8678  139.3232  155.4054 H   0  0  0  0  0  0  0  0  0  0  0  0
  152.7639  138.4666  156.6432 H   0  0  0  0  0  0  0  0  0  0  0  0
  154.2280  139.0426  154.6771 H   0  0  0  0  0  0  0  0  0  0  0  0
  153.1886  138.0977  153.6166 H   0  0  0  0  0  0  0  0  0  0  0  0
  154.1253  137.2983  154.8804 H   0  0  0  0  0  0  0  0  0  0  0  0
  1  2  1  0  0  0  0
  1 28  1  0  0  0  0
  1 29  1  0  0  0  0
  1 30  1  0  0  0  0
  2  3  1  0  0  0  0
  2 31  1  0  0  0  0
  2 32  1  0  0  0  0
  3  4  2  0  0  0  0
  3  5  1  0  0  0  0
  5  6  1  0  0  0  0
  6  7  1  0  0  0  0
  6 33  1  0  0  0  0
  6 34  1  0  0  0  0
  7 21  1  0  0  0  0
  7  8  1  0  0  0  0
  7 35  1  0  0  0  0
  8  9  1  0  0  0  0
  9 10  1  0  0  0  0
  9 19  1  0  0  0  0
  9 36  1  0  0  0  0
 10 17  1  0  0  0  0
 10 11  1  0  0  0  0
 11 12  2  0  0  0  0
 11 37  1  0  0  0  0
 12 13  1  0  0  0  0
 12 14  1  0  0  0  0
 14 15  2  0  0  0  0
 14 16  1  0  0  0  0
 16 27  1  0  0  0  0
 16 17  1  0  0  0  0
 17 18  2  0  0  0  0
 19 20  1  0  0  0  0
 19 21  1  0  0  0  0
 19 38  1  0  0  0  0
 21 22  1  0  0  0  0
 21 39  1  0  0  0  0
 22 23  1  0  0  0  0
 23 24  2  0  0  0  0
 23 25  1  0  0  0  0
 25 26  1  0  0  0  0
 25 40  1  0  0  0  0
 25 41  1  0  0  0  0
 26 42  1  0  0  0  0
 26 43  1  0  0  0  0
 26 44  1  0  0  0  0
M  END
> <s_m_source_file>
AV-unprocessed.smi

> <i_m_source_file_index>
37

> <i_lp_mmshare_version>
43012

> <i_f3d_flags>
0

> <s_epik_input>
W0NIM11bQ0gyXUMoPU8pT1tDSDJdW0NAQEhdMU9bQ0BASF0objJbY0hdYyhGKWMoPU8pW25IXWMyPU8pW0NAQEhdKEJyKVtDQEhdMU9DKD1PKVtDSDJdW0NIM10=

> <s_epik_cmdline>
J2VwaWtfcHl0aG9uJywgJy1waCcsICc3LjAnLCAnLXRuJywgJzgnLCAnLW1hJywgJzIwMCcsICctbWV0YWxfYmluZGluZycsICctaW1hZScsICc8aW5maWxlLm1hZT4nLCAnLW9tYWUnLCAnPG91dGZpbGUubWFlPic=

> <r_lp_tautomer_probability>
0.999537

> <r_epik_Ionization_Penalty>
0.104106

> <r_epik_Ionization_Penalty_Charging>
0.104106

> <r_epik_Ionization_Penalty_Neutral>
3.94675e-16

> <r_epik_State_Penalty>
0.0940182

> <r_epik_Charging_Adjusted_Penalty>
0.198124

> <i_epik_Tot_Q>
0

> <i_epik_Tot_abs_Q>
0

> <r_epik_Metal_State_Penalty>
3.05314

> <b_epik_Metal_Only>
0

> <s_epik_Chemistry_Notes>
This compound has an ester and may undergo hydrolysis at high or low pH. This compound contains an acetal/aminal-like group ( X-CH(R)-Y where X, Y are N, S, or O) that may be acid/base labile, releasing an aldehyde.

> <s_lp_Force_Field>
OPLS_2005

> <r_lp_Energy>
22.9743

> <b_lp_Chiralities_Consistent>
1

> <s_lp_Variant>
AV-unprocessed.smi:37-3

> <Gold.Version>
5.8.1

> <Gold.Id.Protein>
6NUR|6NUR_protein|mol2

> <Gold.PLP.Fitness>
38.8146

> <Gold.PLP.PLP>
-28.8102

> <Gold.PLP.part.hbond>
-3.1577

> <Gold.PLP.part.metal>
0.0000

> <Gold.PLP.part.buried>
-5.0634

> <Gold.PLP.part.nonpolar>
-21.1829

> <Gold.PLP.part.repulsive>
0.4128

> <Gold.PLP.ligand.clash>
0.0000

> <Gold.PLP.ligand.torsion>
1.0678

> <Gold.PLP.Chemscore.Hbond>
3.0000

> <Gold.PLP.Chemscore.CHOScore>
0.9866

> <Gold.PLP.Chemscore.Metal>
0.0000

> <Gold.Chemscore.Hbonds>
donor molecule, donor type, donor heavy atom, donor atom, acceptor molecule, acceptor atom, score
      L1  H    16    27       P1 10957  0.98
      P1  H  6931  6943       L1     4  1.00
      P1  H 10752 10763       L1    24  0.94
      L1  C    11    37       P1  7948  0.82

> <Gold.PLP.Chemscore.Internal.Correction>
0.1802

> <Gold.Rescore>
     Score         DG    S(hbond)    S(metal)    S(lipo)     H(rot)  DE(clash)    DE(int)     intcor
     11.64     -12.87       2.98        0.00      50.91       3.33       0.05       1.18       ----

> <Gold.Chemscore.Fitness>
11.6410

> <Gold.Chemscore.DG>
-12.8663

> <Gold.Chemscore.ZeroCoef>
-5.4800

> <Gold.Chemscore.Hbond>
2.9805

> <Gold.Chemscore.Metal>
0.0000

> <Gold.Chemscore.Lipo>
50.9141

> <Gold.Chemscore.Internal_Hbond>
0.0000

> <Gold.Chemscore.DEClash>
0.0494

> <Gold.Chemscore.DEInternal>
1.1759

> <Gold.Chemscore.Rot>
3.3303

> <Gold.Chemscore.Internal.Correction>
   9.000000E+99

> <Gold.Chemscore.Hbonds>
donor molecule, donor type, donor heavy atom, donor atom, acceptor molecule, acceptor atom, score
      L1  H    16    27       P1 10957  0.84
      P1  H  6931  6943       L1     4  0.98
      P1  H 10752 10763       L1    24  0.90

> <Gold.Chemscore.Hbond.Weighted>
-9.9549

> <Gold.Chemscore.Metal.Weighted>
-0.0000

> <Gold.Chemscore.Lipo.Weighted>
-5.9569

> <Gold.Chemscore.Internal_Hbond.Weighted>
0.0000

> <Gold.Chemscore.DEClash.Weighted>
0.0494

> <Gold.Chemscore.DEInternal.Weighted>
1.1759

> <Gold.Chemscore.Rot.Weighted>
8.5256

> <Gold.Chemscore.Internal.Correction.Weighted>
   9.000000E+99

> <Gold.Protein.RotatedTorsions>
[ 6907 6896 6895 6894 ] final -106.10 input  -60.11 | X-H torsion
[ 7974 7965 7964 7962 ] final  -97.54 input  175.53 | X-H torsion
[ 8008 7997 7996 7995 ] final  126.92 input   59.86 | X-H torsion
[ 10167 10162 10161 10158 ] final    2.12 input  -65.29 | X-H torsion
[ 10718 10713 10712 10709 ] final  -22.50 input   66.30 | X-H torsion
[ 10763 10752 10751 10750 ] final   60.51 input  -60.55 | X-H torsion
[ 11005 11000 10999 10996 ] final -179.85 input  -57.11 | X-H torsion

> <Gold.Protein.ActiveResidues>
 VAL166  LYS551  ARG553  GLY616  TRP617  ASP618  TYR619  PRO620  LYS621  CYS622 
 ASP623  PHE694  ASN695  SER759  ASP760  ASP761  ALA762  ILE779  LEU786  VAL792 
 PHE793  MET794  SER795  GLU796  ALA797  LYS798  CYS799  TRP800  GLU811  SER814 

> <Gold.Protein.RotatedAtoms>
  150.7371  134.0026  159.3642 H   0  0  0  0  0  0  0  0  0  0  0  0  # atno 6907 bound_to 6896
  151.7981  135.0714  160.0406 H   0  0  0  0  0  0  0  0  0  0  0  0  # atno 6908 bound_to 6896
  152.3160  133.5766  159.5749 H   0  0  0  0  0  0  0  0  0  0  0  0  # atno 6909 bound_to 6896
  145.3324  140.9444  143.2654 H   0  0  0  0  0  0  0  0  0  0  0  0  # atno 7974 bound_to 7965
  156.2877  140.2681  156.2189 H   0  0  0  0  0  0  0  0  0  0  0  0  # atno 8008 bound_to 7997
  155.0188  140.0386  157.2447 H   0  0  0  0  0  0  0  0  0  0  0  0  # atno 8009 bound_to 7997
  154.7453  140.2733  155.6343 H   0  0  0  0  0  0  0  0  0  0  0  0  # atno 8010 bound_to 7997
  140.6650  143.7202  150.7810 H   0  0  0  0  0  0  0  0  0  0  0  0  # atno 10167 bound_to 10162
  156.5038  130.4594  149.6686 H   0  0  0  0  0  0  0  0  0  0  0  0  # atno 10718 bound_to 10713
  152.9923  135.5533  154.5885 H   0  0  0  0  0  0  0  0  0  0  0  0  # atno 10763 bound_to 10752
  154.5252  135.2810  155.1230 H   0  0  0  0  0  0  0  0  0  0  0  0  # atno 10764 bound_to 10752
  154.2568  135.6388  153.5312 H   0  0  0  0  0  0  0  0  0  0  0  0  # atno 10765 bound_to 10752
  140.4141  134.6665  157.4629 H   0  0  0  0  0  0  0  0  0  0  0  0  # atno 11005 bound_to 11000
  144.8853  139.4847  143.6703 LP  0  0  0  0  0  0  0  0  0  0  0  0  # atno 17320 bound_to 7965
  146.3040  139.7519  142.9070 LP  0  0  0  0  0  0  0  0  0  0  0  0  # atno 17321 bound_to 7965
  140.0878  143.4906  152.2495 LP  0  0  0  0  0  0  0  0  0  0  0  0  # atno 17342 bound_to 10162
  139.5896  144.7545  151.3433 LP  0  0  0  0  0  0  0  0  0  0  0  0  # atno 17343 bound_to 10162
  156.3307  130.7330  151.2259 LP  0  0  0  0  0  0  0  0  0  0  0  0  # atno 17370 bound_to 10713
  157.7459  131.0430  150.4725 LP  0  0  0  0  0  0  0  0  0  0  0  0  # atno 17371 bound_to 10713
  140.0247  134.6495  155.9190 LP  0  0  0  0  0  0  0  0  0  0  0  0  # atno 17394 bound_to 11000
  141.1810  133.6546  156.5019 LP  0  0  0  0  0  0  0  0  0  0  0  0  # atno 17395 bound_to 11000

$$$$
