AV-unprocessed.smi:44|AV-procd|sdf|402|dock6
  -GOLD-   2262016253D 1   1.00000     0.00000
 Structure written by MMmdl.
 29 31  0  0  0  0  0  0  0  0  3 V2000
  153.7095  138.2225  156.7680 O   0  0  0  0  0  0  0  0  0  0  0  0
  152.7726  138.3778  155.9875 C   0  0  0  0  0  0  0  0  0  0  0  0
  152.3537  137.5313  154.9921 N   0  5  0  0  0  0  0  0  0  0  0  0
  151.2673  137.8375  154.1797 C   0  0  0  0  0  0  0  0  0  0  0  0
  150.5307  138.8906  154.2234 N   0  0  0  0  0  0  0  0  0  0  0  0
  150.8821  139.8206  155.2130 C   0  0  0  0  0  0  0  0  0  0  0  0
  151.9379  139.6217  156.0716 C   0  0  0  0  0  0  0  0  0  0  0  0
  152.0452  140.6886  156.9223 N   0  3  0  0  0  0  0  0  0  0  0  0
  151.0482  141.4868  156.5405 C   0  0  0  0  0  0  0  0  0  0  0  0
  150.2911  141.0244  155.5003 N   0  0  0  0  0  0  0  0  0  0  0  0
  149.1184  141.6880  154.8543 C   0  0  2  0  0  0  0  0  0  0  0  0
  147.9232  141.6679  155.8083 C   0  0  0  0  0  0  0  0  0  0  0  0
  147.2262  140.3894  155.3981 C   0  0  0  0  0  0  0  0  0  0  0  0
  147.4516  140.3927  153.8865 C   0  0  2  0  0  0  0  0  0  0  0  0
  147.3660  138.9972  153.2510 C   0  0  0  0  0  0  0  0  0  0  0  0
  147.3801  139.1083  151.8447 O   0  0  0  0  0  0  0  0  0  0  0  0
  148.7631  140.9351  153.7310 O   0  0  0  0  0  0  0  0  0  0  0  0
  152.7187  140.8361  157.6631 H   0  0  0  0  0  0  0  0  0  0  0  0
  149.4695  142.6866  154.5922 H   0  0  0  0  0  0  0  0  0  0  0  0
  146.7321  141.0740  153.4284 H   0  0  0  0  0  0  0  0  0  0  0  0
  151.0737  137.0517  153.4451 H   0  0  0  0  0  0  0  0  0  0  0  0
  150.8516  142.4296  157.0170 H   0  0  0  0  0  0  0  0  0  0  0  0
  148.2288  141.6962  156.8551 H   0  0  0  0  0  0  0  0  0  0  0  0
  147.2932  142.5334  155.5984 H   0  0  0  0  0  0  0  0  0  0  0  0
  147.7082  139.5288  155.8636 H   0  0  0  0  0  0  0  0  0  0  0  0
  146.1703  140.3751  155.6691 H   0  0  0  0  0  0  0  0  0  0  0  0
  148.1777  138.3523  153.5878 H   0  0  0  0  0  0  0  0  0  0  0  0
  146.4295  138.5146  153.5324 H   0  0  0  0  0  0  0  0  0  0  0  0
  148.1739  139.5499  151.5842 H   0  0  0  0  0  0  0  0  0  0  0  0
  1  2  2  0  0  0  0
  2  7  1  0  0  0  0
  2  3  1  0  0  0  0
  3  4  1  0  0  0  0
  4 21  1  0  0  0  0
  4  5  2  0  0  0  0
  5  6  1  0  0  0  0
  6 10  1  0  0  0  0
  6  7  2  0  0  0  0
  7  8  1  0  0  0  0
  8  9  2  0  0  0  0
  8 18  1  0  0  0  0
  9 10  1  0  0  0  0
  9 22  1  0  0  0  0
 10 11  1  0  0  0  0
 11 19  1  0  0  0  0
 11 17  1  0  0  0  0
 11 12  1  0  0  0  0
 12 13  1  0  0  0  0
 12 23  1  0  0  0  0
 12 24  1  0  0  0  0
 13 14  1  0  0  0  0
 13 25  1  0  0  0  0
 13 26  1  0  0  0  0
 14 20  1  0  0  0  0
 14 15  1  0  0  0  0
 14 17  1  0  0  0  0
 15 16  1  0  0  0  0
 15 27  1  0  0  0  0
 15 28  1  0  0  0  0
 16 29  1  0  0  0  0
M  CHG  1   3  -1
M  CHG  1   8   1
M  END
> <s_m_source_file>
AV-unprocessed.smi

> <i_m_source_file_index>
44

> <i_lp_mmshare_version>
43012

> <i_f3d_flags>
0

> <s_epik_input>
bjFbY0hdW25IXWMoPU8pYyhjMTIpbltjSF1uMltDQEhdM1tDSDJdW0NIMl1bQ0BIXShPMylbQ0gyXVtPSF0=

> <s_epik_cmdline>
J2VwaWtfcHl0aG9uJywgJy1waCcsICc3LjAnLCAnLXRuJywgJzgnLCAnLW1hJywgJzIwMCcsICctbWV0YWxfYmluZGluZycsICctaW1hZScsICc8aW5maWxlLm1hZT4nLCAnLW9tYWUnLCAnPG91dGZpbGUubWFlPic=

> <r_lp_tautomer_probability>
0.144281

> <r_epik_Ionization_Penalty>
5.63685

> <r_epik_Ionization_Penalty_Charging>
5.58669

> <r_epik_Ionization_Penalty_Neutral>
0.0501585

> <r_epik_State_Penalty>
1.20809

> <r_epik_Charging_Adjusted_Penalty>
6.79478

> <i_epik_Tot_Q>
0

> <i_epik_Tot_abs_Q>
2

> <r_epik_Metal_State_Penalty>
1.52487

> <b_epik_Metal_Only>
0

> <s_epik_Chemistry_Notes>
This compound contains an acetal/aminal-like group ( X-CH(R)-Y where X, Y are N, S, or O) that may be acid/base labile, releasing an aldehyde.

> <s_lp_Force_Field>
OPLS_2005

> <r_lp_Energy>
43.1819

> <b_lp_Chiralities_Consistent>
1

> <s_lp_Variant>
AV-unprocessed.smi:44-8

> <Gold.Version>
5.8.1

> <Gold.Id.Protein>
6NUR|6NUR_protein|mol2

> <Gold.PLP.Fitness>
40.3501

> <Gold.PLP.PLP>
-27.5712

> <Gold.PLP.part.hbond>
-3.7134

> <Gold.PLP.part.metal>
0.0000

> <Gold.PLP.part.buried>
-1.6999

> <Gold.PLP.part.nonpolar>
-23.1487

> <Gold.PLP.part.repulsive>
2.2709

> <Gold.PLP.ligand.clash>
0.0000

> <Gold.PLP.ligand.torsion>
0.2127

> <Gold.PLP.Chemscore.Hbond>
3.3570

> <Gold.PLP.Chemscore.CHOScore>
1.0392

> <Gold.PLP.Chemscore.Metal>
0.0000

> <Gold.Chemscore.Hbonds>
donor molecule, donor type, donor heavy atom, donor atom, acceptor molecule, acceptor atom, score
      L1  H    16    29       P1  7957  1.00
      P1  H  7997  8008       L1     1  0.70
      P1  H  8011  8017       L1    17  0.22
      P1  H 10752 10765       L1     3  1.31
      L1  C     4    21       P1  7948  0.02
      L1  C     4    21       P1  7949  1.00

> <Gold.PLP.Chemscore.Internal.Correction>
0.0157

> <Gold.Rescore>
     Score         DG    S(hbond)    S(metal)    S(lipo)     H(rot)  DE(clash)    DE(int)     intcor
      7.35      -8.99       1.99        0.00      22.85       2.27       0.05       1.60       ----

> <Gold.Chemscore.Fitness>
7.3452

> <Gold.Chemscore.DG>
-8.9930

> <Gold.Chemscore.ZeroCoef>
-5.4800

> <Gold.Chemscore.Hbond>
1.9928

> <Gold.Chemscore.Metal>
0.0000

> <Gold.Chemscore.Lipo>
22.8488

> <Gold.Chemscore.Internal_Hbond>
0.0000

> <Gold.Chemscore.DEClash>
0.0471

> <Gold.Chemscore.DEInternal>
1.6006

> <Gold.Chemscore.Rot>
2.2720

> <Gold.Chemscore.Internal.Correction>
   9.000000E+99

> <Gold.Chemscore.Hbonds>
donor molecule, donor type, donor heavy atom, donor atom, acceptor molecule, acceptor atom, score
      L1  H    16    29       P1  7957  0.93
      P1  H  7997  8008       L1     1  0.27
      P1  H  8011  8017       L1    17  0.01
      P1  H 10752 10765       L1     3  0.40

> <Gold.Chemscore.Hbond.Weighted>
-6.6561

> <Gold.Chemscore.Metal.Weighted>
-0.0000

> <Gold.Chemscore.Lipo.Weighted>
-2.6733

> <Gold.Chemscore.Internal_Hbond.Weighted>
0.0000

> <Gold.Chemscore.DEClash.Weighted>
0.0471

> <Gold.Chemscore.DEInternal.Weighted>
1.6006

> <Gold.Chemscore.Rot.Weighted>
5.8164

> <Gold.Chemscore.Internal.Correction.Weighted>
   9.000000E+99

> <Gold.Protein.RotatedTorsions>
[ 6907 6896 6895 6894 ] final  -48.61 input  -60.11 | X-H torsion
[ 7974 7965 7964 7962 ] final  124.15 input  175.53 | X-H torsion
[ 8008 7997 7996 7995 ] final  -76.55 input   59.86 | X-H torsion
[ 10167 10162 10161 10158 ] final -142.63 input  -65.29 | X-H torsion
[ 10718 10713 10712 10709 ] final   59.64 input   66.30 | X-H torsion
[ 10763 10752 10751 10750 ] final  176.54 input  -60.55 | X-H torsion
[ 11005 11000 10999 10996 ] final   -9.32 input  -57.11 | X-H torsion

> <Gold.Protein.ActiveResidues>
 VAL166  LYS551  ARG553  GLY616  TRP617  ASP618  TYR619  PRO620  LYS621  CYS622 
 ASP623  PHE694  ASN695  SER759  ASP760  ASP761  ALA762  ILE779  LEU786  VAL792 
 PHE793  MET794  SER795  GLU796  ALA797  LYS798  CYS799  TRP800  GLU811  SER814 

> <Gold.Protein.RotatedAtoms>
  150.8888  134.8289  159.7278 H   0  0  0  0  0  0  0  0  0  0  0  0  # atno 6907 bound_to 6896
  152.4824  134.4681  159.9636 H   0  0  0  0  0  0  0  0  0  0  0  0  # atno 6908 bound_to 6896
  151.4746  133.3522  159.2864 H   0  0  0  0  0  0  0  0  0  0  0  0  # atno 6909 bound_to 6896
  145.0877  139.3610  143.4876 H   0  0  0  0  0  0  0  0  0  0  0  0  # atno 7974 bound_to 7965
  154.5516  140.0725  156.8676 H   0  0  0  0  0  0  0  0  0  0  0  0  # atno 8008 bound_to 7997
  155.2983  140.3382  155.4231 H   0  0  0  0  0  0  0  0  0  0  0  0  # atno 8009 bound_to 7997
  156.1966  140.1706  156.7972 H   0  0  0  0  0  0  0  0  0  0  0  0  # atno 8010 bound_to 7997
  139.8070  143.7754  152.2661 H   0  0  0  0  0  0  0  0  0  0  0  0  # atno 10167 bound_to 10162
  157.5691  130.8894  149.9237 H   0  0  0  0  0  0  0  0  0  0  0  0  # atno 10718 bound_to 10713
  154.4824  135.2775  155.1560 H   0  0  0  0  0  0  0  0  0  0  0  0  # atno 10763 bound_to 10752
  154.3265  135.6199  153.5535 H   0  0  0  0  0  0  0  0  0  0  0  0  # atno 10764 bound_to 10752
  152.9877  135.5755  154.5228 H   0  0  0  0  0  0  0  0  0  0  0  0  # atno 10765 bound_to 10752
  140.7328  133.8734  155.8906 H   0  0  0  0  0  0  0  0  0  0  0  0  # atno 11005 bound_to 11000
  146.3531  140.0697  142.8624 LP  0  0  0  0  0  0  0  0  0  0  0  0  # atno 17320 bound_to 7965
  145.1102  140.9400  143.4661 LP  0  0  0  0  0  0  0  0  0  0  0  0  # atno 17321 bound_to 7965
  139.7892  144.7416  150.9979 LP  0  0  0  0  0  0  0  0  0  0  0  0  # atno 17342 bound_to 10162
  140.7819  143.4460  151.0482 LP  0  0  0  0  0  0  0  0  0  0  0  0  # atno 17343 bound_to 10162
  156.0738  130.3681  150.0720 LP  0  0  0  0  0  0  0  0  0  0  0  0  # atno 17370 bound_to 10713
  156.8875  130.9577  151.3592 LP  0  0  0  0  0  0  0  0  0  0  0  0  # atno 17371 bound_to 10713
  140.9905  134.1284  157.4412 LP  0  0  0  0  0  0  0  0  0  0  0  0  # atno 17394 bound_to 11000
  139.8822  135.0039  156.6215 LP  0  0  0  0  0  0  0  0  0  0  0  0  # atno 17395 bound_to 11000

$$$$
