#       Name:                AV-unprocessed.smi:158
#       Creating user name   scv26
#       Creation time:       Thu Mar 26 19:02:45 2020


#       File generated by GOLD software.
#

@<TRIPOS>MOLECULE
AV-unprocessed.smi:158
    40    42     1
SMALL
NO_CHARGES


@<TRIPOS>ATOM
      1 ****        -4.9037   1.0365   0.2294 N.pl3          1 S1                 0.0000
      2 ****        -3.6505   1.5010   0.1311 C.ar           1 S1                 0.0000
      3 ****        -3.4647   2.7740  -0.2890 N.ar           1 S1                 0.0000
      4 ****        -2.2286   3.2772  -0.3979 C.ar           1 S1                 0.0000
      5 ****        -2.1110   4.9093  -0.9413 Cl             1 S1                 0.0000
      6 ****        -1.0736   2.6562  -0.1339 N.ar           1 S1                 0.0000
      7 ****        -1.2586   1.3713   0.2861 C.ar           1 S1                 0.0000
      8 ****        -2.5108   0.7225   0.4480 C.ar           1 S1                 0.0000
      9 ****        -2.3156  -0.5747   0.9010 N.2            1 S1                 0.0000
     10 ****        -1.0173  -0.6795   1.0026 C.2            1 S1                 0.0000
     11 ****        -0.3021   0.4416   0.6327 N.pl3          1 S1                 0.0000
     12 ****         1.1788   0.6717   0.6291 C.3            1 S1                 0.0000
     13 ****         1.7960  -0.4641   1.1687 O.3            1 S1                 0.0000
     14 ****         2.4645  -1.2214   0.1529 C.3            1 S1                 0.0000
     15 ****         2.2176  -2.7265   0.3430 C.3            1 S1                 0.0000
     16 ****         3.0704  -3.2331   1.3464 O.3            1 S1                 0.0000
     17 ****         1.8988  -0.6696  -1.1586 C.3            1 S1                 0.0000
     18 ****         2.7662  -0.8234  -2.2645 O.3            1 S1                 0.0000
     19 ****         1.6844   0.7905  -0.8096 C.3            1 S1                 0.0000
     20 ****         2.8358   1.4661  -0.7834 F              1 S1                 0.0000
     21 ****         1.3211   1.5630   1.2417 H              1 S1                 0.0000
     22 ****         3.5313  -0.9947   0.2058 H              1 S1                 0.0000
     23 ****         0.9399  -1.1380  -1.3862 H              1 S1                 0.0000
     24 ****         0.9905   1.3170  -1.4653 H              1 S1                 0.0000
     25 ****        -5.0652   0.0897   0.5421 H              1 S1                 0.0000
     26 ****        -5.6835   1.6326  -0.0083 H              1 S1                 0.0000
     27 ****        -0.5518  -1.5864   1.3567 H              1 S1                 0.0000
     28 ****         1.1774  -2.9395   0.5854 H              1 S1                 0.0000
     29 ****         2.4475  -3.2612  -0.5790 H              1 S1                 0.0000
     30 ****         2.9170  -4.1617   1.4320 H              1 S1                 0.0000
     31 ****         2.8993  -1.7463  -2.4175 H              1 S1                 0.0000
     32 ****        -4.2549   3.3420  -0.5194 LP             1 S1                 0.0000
     33 ****        -0.1758   3.0853  -0.2332 LP             1 S1                 0.0000
     34 ****        -3.0076  -1.2678   1.1027 LP             1 S1                 0.0000
     35 ****         1.1010  -1.0392   1.6003 LP             1 S1                 0.0000
     36 ****         2.4644  -0.1773   1.8550 LP             1 S1                 0.0000
     37 ****         2.8758  -2.7780   2.2153 LP             1 S1                 0.0000
     38 ****         4.0238  -3.0712   1.0916 LP             1 S1                 0.0000
     39 ****         3.6431  -0.3846  -2.0684 LP             1 S1                 0.0000
     40 ****         2.3570  -0.4033  -3.0745 LP             1 S1                 0.0000
@<TRIPOS>BOND
    1    1    2 1     
    2    1   25 1     
    3    1   26 1     
    4    2    8 ar    
    5    2    3 ar    
    6    3    4 ar    
    7    4    5 1     
    8    4    6 ar    
    9    6    7 ar    
   10    7   11 1     
   11    7    8 ar    
   12    8    9 1     
   13    9   10 2     
   14   10   11 1     
   15   10   27 1     
   16   11   12 1     
   17   12   21 1     
   18   12   19 1     
   19   12   13 1     
   20   13   14 1     
   21   14   22 1     
   22   14   15 1     
   23   14   17 1     
   24   15   16 1     
   25   15   28 1     
   26   15   29 1     
   27   16   30 1     
   28   17   23 1     
   29   17   18 1     
   30   17   19 1     
   31   18   31 1     
   32   19   24 1     
   33   19   20 1     
   34    3   32 1     
   35    6   33 1     
   36    9   34 1     
   37   13   35 1     
   38   13   36 1     
   39   16   37 1     
   40   16   38 1     
   41   18   39 1     
   42   18   40 1     
@<TRIPOS>SUBSTRUCTURE
      1 S1             1
@<TRIPOS>SET
LONE_PAIRS      STATIC     ATOMS    <user>   **** ""
9 32 33 34 35 36 37 38 39 40
DONOR_HYDROGENS      STATIC     ATOMS    <user>   **** ""
4 25 26 30 31
ATOM$BLUE        STATIC     ATOMS    COLORGROUP SYSTEM
9 32 33 34 35 36 37 38 39 40
ATOM$RED        STATIC     ATOMS    COLORGROUP SYSTEM
4 25 26 30 31
