AV-unprocessed.smi:34|AV-procd|sdf|226|dock3
  -GOLD-   2262015553D 1   1.00000     0.00000
 Structure written by MMmdl.
 55 59  0  0  0  0  0  0  0  0  1 V2000
  153.0840  139.8640  158.4120 O   0  0  0  0  0  0  0  0  0  0  0  0
  152.3797  140.7634  157.9522 C   0  0  0  0  0  0  0  0  0  0  0  0
  151.5434  140.5682  156.7812 N   0  0  0  0  0  0  0  0  0  0  0  0
  151.4398  139.4677  155.9997 C   0  0  0  0  0  0  0  0  0  0  0  0
  151.9367  139.4212  154.7361 N   0  0  0  0  0  0  0  0  0  0  0  0
  151.8078  138.3112  154.0050 C   0  0  0  0  0  0  0  0  0  0  0  0
  151.2334  137.1553  154.3421 N   0  0  0  0  0  0  0  0  0  0  0  0
  150.7391  137.1850  155.6147 C   0  0  0  0  0  0  0  0  0  0  0  0
  150.7975  138.3025  156.4946 C   0  0  0  0  0  0  0  0  0  0  0  0
  150.1752  137.9903  157.6946 N   0  0  0  0  0  0  0  0  0  0  0  0
  149.7696  136.7609  157.5283 C   0  0  0  0  0  0  0  0  0  0  0  0
  150.0993  136.1800  156.3209 N   0  0  0  0  0  0  0  0  0  0  0  0
  149.7477  134.7947  155.8433 C   0  0  1  0  0  0  0  0  0  0  0  0
  148.9383  134.1779  156.7962 O   0  0  0  0  0  0  0  0  0  0  0  0
  147.5828  134.4805  156.5029 C   0  0  2  0  0  0  0  0  0  0  0  0
  146.6285  133.5710  157.2899 C   0  0  0  0  0  0  0  0  0  0  0  0
  146.6177  133.9590  158.6572 O   0  0  0  0  0  0  0  0  0  0  0  0
  146.3840  135.2421  159.0109 C   0  0  0  0  0  0  0  0  0  0  0  0
  145.9945  136.1088  158.2257 O   0  0  0  0  0  0  0  0  0  0  0  0
  146.6299  135.4982  160.4588 C   0  0  0  0  0  0  0  0  0  0  0  0
  146.6938  136.8321  160.9248 C   0  0  0  0  0  0  0  0  0  0  0  0
  146.9070  137.1057  162.2896 C   0  0  0  0  0  0  0  0  0  0  0  0
  147.0583  136.0484  163.2052 C   0  0  0  0  0  0  0  0  0  0  0  0
  146.9959  134.7170  162.7545 C   0  0  0  0  0  0  0  0  0  0  0  0
  146.7831  134.4414  161.3898 C   0  0  0  0  0  0  0  0  0  0  0  0
  147.5709  134.2531  154.9958 C   0  0  1  0  0  0  0  0  0  0  0  0
  146.5345  134.8531  154.4095 F   0  0  0  0  0  0  0  0  0  0  0  0
  148.8980  134.8598  154.5536 C   0  0  2  0  0  0  0  0  0  0  0  0
  149.4624  134.1133  153.4957 O   0  0  0  0  0  0  0  0  0  0  0  0
  152.2775  142.1049  158.6188 C   0  0  0  0  0  0  0  0  0  0  0  0
  151.7108  143.1976  157.9244 C   0  0  0  0  0  0  0  0  0  0  0  0
  151.5978  144.4566  158.5457 C   0  0  0  0  0  0  0  0  0  0  0  0
  152.0431  144.6322  159.8692 C   0  0  0  0  0  0  0  0  0  0  0  0
  152.5975  143.5467  160.5728 C   0  0  0  0  0  0  0  0  0  0  0  0
  152.7112  142.2871  159.9526 C   0  0  0  0  0  0  0  0  0  0  0  0
  150.9845  141.3612  156.5017 H   0  0  0  0  0  0  0  0  0  0  0  0
  152.2258  138.3552  153.0100 H   0  0  0  0  0  0  0  0  0  0  0  0
  149.2176  136.2379  158.2959 H   0  0  0  0  0  0  0  0  0  0  0  0
  150.7093  134.2912  155.7384 H   0  0  0  0  0  0  0  0  0  0  0  0
  147.3774  135.5302  156.7240 H   0  0  0  0  0  0  0  0  0  0  0  0
  145.6150  133.6993  156.9098 H   0  0  0  0  0  0  0  0  0  0  0  0
  146.8800  132.5174  157.1593 H   0  0  0  0  0  0  0  0  0  0  0  0
  146.5775  137.6601  160.2403 H   0  0  0  0  0  0  0  0  0  0  0  0
  146.9536  138.1283  162.6337 H   0  0  0  0  0  0  0  0  0  0  0  0
  147.2207  136.2581  164.2522 H   0  0  0  0  0  0  0  0  0  0  0  0
  147.1095  133.9042  163.4568 H   0  0  0  0  0  0  0  0  0  0  0  0
  146.7345  133.4083  161.0781 H   0  0  0  0  0  0  0  0  0  0  0  0
  147.5223  133.1860  154.7715 H   0  0  0  0  0  0  0  0  0  0  0  0
  148.7512  135.8925  154.2368 H   0  0  0  0  0  0  0  0  0  0  0  0
  150.2944  133.7687  153.7830 H   0  0  0  0  0  0  0  0  0  0  0  0
  151.3629  143.0794  156.9083 H   0  0  0  0  0  0  0  0  0  0  0  0
  151.1683  145.2880  158.0063 H   0  0  0  0  0  0  0  0  0  0  0  0
  151.9562  145.5977  160.3455 H   0  0  0  0  0  0  0  0  0  0  0  0
  152.9341  143.6793  161.5904 H   0  0  0  0  0  0  0  0  0  0  0  0
  153.1317  141.4662  160.5150 H   0  0  0  0  0  0  0  0  0  0  0  0
  1  2  2  0  0  0  0
  2  3  1  0  0  0  0
  2 30  1  0  0  0  0
  3  4  1  0  0  0  0
  3 36  1  0  0  0  0
  4  9  1  0  0  0  0
  4  5  2  0  0  0  0
  5  6  1  0  0  0  0
  6  7  2  0  0  0  0
  6 37  1  0  0  0  0
  7  8  1  0  0  0  0
  8 12  1  0  0  0  0
  8  9  2  0  0  0  0
  9 10  1  0  0  0  0
 10 11  2  0  0  0  0
 11 12  1  0  0  0  0
 11 38  1  0  0  0  0
 12 13  1  0  0  0  0
 13 28  1  0  0  0  0
 13 14  1  0  0  0  0
 13 39  1  0  0  0  0
 14 15  1  0  0  0  0
 15 16  1  0  0  0  0
 15 26  1  0  0  0  0
 15 40  1  0  0  0  0
 16 17  1  0  0  0  0
 16 41  1  0  0  0  0
 16 42  1  0  0  0  0
 17 18  1  0  0  0  0
 18 19  2  0  0  0  0
 18 20  1  0  0  0  0
 20 25  1  0  0  0  0
 20 21  2  0  0  0  0
 21 22  1  0  0  0  0
 21 43  1  0  0  0  0
 22 23  2  0  0  0  0
 22 44  1  0  0  0  0
 23 24  1  0  0  0  0
 23 45  1  0  0  0  0
 24 25  2  0  0  0  0
 24 46  1  0  0  0  0
 25 47  1  0  0  0  0
 26 27  1  0  0  0  0
 26 28  1  0  0  0  0
 26 48  1  0  0  0  0
 28 29  1  0  0  0  0
 28 49  1  0  0  0  0
 29 50  1  0  0  0  0
 30 35  1  0  0  0  0
 30 31  2  0  0  0  0
 31 32  1  0  0  0  0
 31 51  1  0  0  0  0
 32 33  2  0  0  0  0
 32 52  1  0  0  0  0
 33 34  1  0  0  0  0
 33 53  1  0  0  0  0
 34 35  2  0  0  0  0
 34 54  1  0  0  0  0
 35 55  1  0  0  0  0
M  END
> <s_m_source_file>
AV-unprocessed.smi

> <i_m_source_file_index>
34

> <i_lp_mmshare_version>
43012

> <i_f3d_flags>
0

> <s_epik_input>
W2NIXTFbY0hdW2NIXVtjSF1bY0hdYzFDKD1PKVtOSF1jKG5bY0hdbjIpYyhjMjMpbltjSF1uM1tDQEBIXTRPW0NASF0oW0NAQEhdKEYpW0NASF00W09IXSlbQ0gyXU9DKD1PKWM1W2NIXVtjSF1bY0hdW2NIXVtjSF01

> <s_epik_cmdline>
J2VwaWtfcHl0aG9uJywgJy1waCcsICc3LjAnLCAnLXRuJywgJzgnLCAnLW1hJywgJzIwMCcsICctbWV0YWxfYmluZGluZycsICctaW1hZScsICc8aW5maWxlLm1hZT4nLCAnLW9tYWUnLCAnPG91dGZpbGUubWFlPic=

> <r_lp_tautomer_probability>
1

> <r_epik_Ionization_Penalty>
0.00257489

> <r_epik_Ionization_Penalty_Charging>
0

> <r_epik_Ionization_Penalty_Neutral>
0.00257489

> <r_epik_State_Penalty>
0.00519398

> <r_epik_Charging_Adjusted_Penalty>
0.00519398

> <i_epik_Tot_Q>
0

> <i_epik_Tot_abs_Q>
0

> <r_epik_Metal_State_Penalty>
0.335891

> <b_epik_Metal_Only>
0

> <s_epik_Chemistry_Notes>
This compound has an ester and may undergo hydrolysis at high or low pH. This compound contains an acetal/aminal-like group ( X-CH(R)-Y where X, Y are N, S, or O) that may be acid/base labile, releasing an aldehyde.

> <s_lp_Force_Field>
OPLS_2005

> <r_lp_Energy>
40.9193

> <b_lp_Chiralities_Consistent>
1

> <s_lp_Variant>
AV-unprocessed.smi:34-12

> <Gold.Version>
5.8.1

> <Gold.Id.Protein>
6NUR|6NUR_protein|mol2

> <Gold.PLP.Fitness>
59.5813

> <Gold.PLP.PLP>
-52.8547

> <Gold.PLP.part.hbond>
-4.4104

> <Gold.PLP.part.metal>
0.0000

> <Gold.PLP.part.buried>
-3.8736

> <Gold.PLP.part.nonpolar>
-43.7005

> <Gold.PLP.part.repulsive>
0.3345

> <Gold.PLP.ligand.clash>
0.0000

> <Gold.PLP.ligand.torsion>
1.0886

> <Gold.PLP.Chemscore.Hbond>
2.8437

> <Gold.PLP.Chemscore.CHOScore>
0.0000

> <Gold.PLP.Chemscore.Metal>
0.0000

> <Gold.Chemscore.Hbonds>
donor molecule, donor type, donor heavy atom, donor atom, acceptor molecule, acceptor atom, score
      P1  H  7989  7998       L1     5  0.96
      P1  H  7997  8008       L1     1  0.82
      P1  H 10752 10763       L1     7  0.37

> <Gold.PLP.Chemscore.Internal.Correction>
0.3727

> <Gold.Rescore>
     Score         DG    S(hbond)    S(metal)    S(lipo)     H(rot)  DE(clash)    DE(int)     intcor
     16.71     -19.49       1.74        0.00     129.62       2.72       1.62       1.16       ----

> <Gold.Chemscore.Fitness>
16.7062

> <Gold.Chemscore.DG>
-19.4912

> <Gold.Chemscore.ZeroCoef>
-5.4800

> <Gold.Chemscore.Hbond>
1.7403

> <Gold.Chemscore.Metal>
0.0000

> <Gold.Chemscore.Lipo>
129.6199

> <Gold.Chemscore.Internal_Hbond>
0.0000

> <Gold.Chemscore.DEClash>
1.6215

> <Gold.Chemscore.DEInternal>
1.1636

> <Gold.Chemscore.Rot>
2.7215

> <Gold.Chemscore.Internal.Correction>
   9.000000E+99

> <Gold.Chemscore.Hbonds>
donor molecule, donor type, donor heavy atom, donor atom, acceptor molecule, acceptor atom, score
      P1  H  7989  7998       L1     5  0.45
      P1  H  7997  8008       L1     1  0.23
      P1  H 10752 10763       L1     7  0.11

> <Gold.Chemscore.Hbond.Weighted>
-5.8127

> <Gold.Chemscore.Metal.Weighted>
-0.0000

> <Gold.Chemscore.Lipo.Weighted>
-15.1655

> <Gold.Chemscore.Internal_Hbond.Weighted>
0.0000

> <Gold.Chemscore.DEClash.Weighted>
1.6215

> <Gold.Chemscore.DEInternal.Weighted>
1.1636

> <Gold.Chemscore.Rot.Weighted>
6.9670

> <Gold.Chemscore.Internal.Correction.Weighted>
   9.000000E+99

> <Gold.Protein.RotatedTorsions>
[ 6907 6896 6895 6894 ] final -161.70 input  -60.11 | X-H torsion
[ 7974 7965 7964 7962 ] final -147.31 input  175.53 | X-H torsion
[ 8008 7997 7996 7995 ] final -101.14 input   59.86 | X-H torsion
[ 10167 10162 10161 10158 ] final   -4.44 input  -65.29 | X-H torsion
[ 10718 10713 10712 10709 ] final  115.99 input   66.30 | X-H torsion
[ 10763 10752 10751 10750 ] final   33.15 input  -60.55 | X-H torsion
[ 11005 11000 10999 10996 ] final -114.31 input  -57.11 | X-H torsion

> <Gold.Protein.ActiveResidues>
 VAL166  LYS551  ARG553  GLY616  TRP617  ASP618  TYR619  PRO620  LYS621  CYS622 
 ASP623  PHE694  ASN695  SER759  ASP760  ASP761  ALA762  ILE779  LEU786  VAL792 
 PHE793  MET794  SER795  GLU796  ALA797  LYS798  CYS799  TRP800  GLU811  SER814 

> <Gold.Protein.RotatedAtoms>
  151.3688  133.3862  159.2697 H   0  0  0  0  0  0  0  0  0  0  0  0  # atno 6907 bound_to 6896
  150.9668  134.9048  159.7774 H   0  0  0  0  0  0  0  0  0  0  0  0  # atno 6908 bound_to 6896
  152.5170  134.3648  159.9350 H   0  0  0  0  0  0  0  0  0  0  0  0  # atno 6909 bound_to 6896
  144.8102  140.5344  143.5648 H   0  0  0  0  0  0  0  0  0  0  0  0  # atno 7974 bound_to 7965
  154.8384  140.0436  157.1525 H   0  0  0  0  0  0  0  0  0  0  0  0  # atno 8008 bound_to 7997
  154.9074  140.3008  155.5264 H   0  0  0  0  0  0  0  0  0  0  0  0  # atno 8009 bound_to 7997
  156.2991  140.2364  156.4109 H   0  0  0  0  0  0  0  0  0  0  0  0  # atno 8010 bound_to 7997
  140.6927  143.6424  150.8424 H   0  0  0  0  0  0  0  0  0  0  0  0  # atno 10167 bound_to 10162
  157.6188  131.1019  150.7409 H   0  0  0  0  0  0  0  0  0  0  0  0  # atno 10718 bound_to 10713
  153.0226  135.6394  154.1466 H   0  0  0  0  0  0  0  0  0  0  0  0  # atno 10763 bound_to 10752
  154.1199  135.2847  155.3212 H   0  0  0  0  0  0  0  0  0  0  0  0  # atno 10764 bound_to 10752
  154.6271  135.5505  153.7701 H   0  0  0  0  0  0  0  0  0  0  0  0  # atno 10765 bound_to 10752
  141.0560  133.9612  157.2753 H   0  0  0  0  0  0  0  0  0  0  0  0  # atno 11005 bound_to 11000
  145.5342  139.1475  143.3482 LP  0  0  0  0  0  0  0  0  0  0  0  0  # atno 17320 bound_to 7965
  146.2399  140.5483  142.8938 LP  0  0  0  0  0  0  0  0  0  0  0  0  # atno 17321 bound_to 7965
  140.0138  143.5614  152.2828 LP  0  0  0  0  0  0  0  0  0  0  0  0  # atno 17342 bound_to 10162
  139.6347  144.7648  151.2462 LP  0  0  0  0  0  0  0  0  0  0  0  0  # atno 17343 bound_to 10162
  156.7770  130.4847  149.5408 LP  0  0  0  0  0  0  0  0  0  0  0  0  # atno 17370 bound_to 10713
  156.1323  130.6186  151.0351 LP  0  0  0  0  0  0  0  0  0  0  0  0  # atno 17371 bound_to 10713
  139.9390  135.0193  156.8649 LP  0  0  0  0  0  0  0  0  0  0  0  0  # atno 17394 bound_to 11000
  140.5963  134.0214  155.7519 LP  0  0  0  0  0  0  0  0  0  0  0  0  # atno 17395 bound_to 11000

$$$$
