AV-unprocessed.smi:55|AV-procd|sdf|576|dock2
  -GOLD-   2262016483D 1   1.00000     0.00000
 Structure written by MMmdl.
 30 31  0  0  0  0  0  0  0  0  2 V2000
  150.7844  143.0754  158.4892 C   0  0  0  0  0  0  0  0  0  0  0  0
  151.1423  141.8817  157.6212 C   0  0  0  0  0  0  0  0  0  0  0  0
  150.5406  141.6469  156.4341 C   0  0  0  0  0  0  0  0  0  0  0  0
  150.8690  140.5575  155.6457 N   0  0  0  0  0  0  0  0  0  0  0  0
  150.1746  140.3082  154.3226 C   0  0  1  0  0  0  0  0  0  0  0  0
  149.2471  139.0951  154.4289 C   0  0  0  0  0  0  0  0  0  0  0  0
  147.9113  139.7523  154.7065 C   0  0  2  0  0  0  0  0  0  0  0  0
  146.8449  138.9195  154.2993 O   0  0  0  0  0  0  0  0  0  0  0  0
  148.0119  141.0287  153.8677 C   0  0  1  0  0  0  0  0  0  0  0  0
  147.0928  142.1603  154.3535 C   0  0  0  0  0  0  0  0  0  0  0  0
  147.2213  142.3207  155.7499 O   0  0  0  0  0  0  0  0  0  0  0  0
  149.3807  141.4142  153.9970 O   0  0  0  0  0  0  0  0  0  0  0  0
  151.8517  139.6377  156.0977 C   0  0  0  0  0  0  0  0  0  0  0  0
  152.0991  138.6603  155.3909 O   0  0  0  0  0  0  0  0  0  0  0  0
  152.4693  139.8698  157.2909 N   0  5  0  0  0  0  0  0  0  0  0  0
  152.1742  140.9434  158.0786 C   0  0  0  0  0  0  0  0  0  0  0  0
  152.7427  141.1434  159.1516 O   0  0  0  0  0  0  0  0  0  0  0  0
  150.9657  140.1978  153.5795 H   0  0  0  0  0  0  0  0  0  0  0  0
  147.8210  139.9897  155.7675 H   0  0  0  0  0  0  0  0  0  0  0  0
  147.8178  140.7877  152.8204 H   0  0  0  0  0  0  0  0  0  0  0  0
  150.0000  143.6783  158.0310 H   0  0  0  0  0  0  0  0  0  0  0  0
  151.6568  143.7124  158.6379 H   0  0  0  0  0  0  0  0  0  0  0  0
  150.4290  142.7439  159.4653 H   0  0  0  0  0  0  0  0  0  0  0  0
  149.7783  142.3336  156.1016 H   0  0  0  0  0  0  0  0  0  0  0  0
  149.2414  138.5871  153.4632 H   0  0  0  0  0  0  0  0  0  0  0  0
  149.5659  138.3889  155.1966 H   0  0  0  0  0  0  0  0  0  0  0  0
  146.3502  139.3717  153.6328 H   0  0  0  0  0  0  0  0  0  0  0  0
  147.3817  143.1032  153.8886 H   0  0  0  0  0  0  0  0  0  0  0  0
  146.0522  141.9750  154.0879 H   0  0  0  0  0  0  0  0  0  0  0  0
  147.7168  143.1088  155.9138 H   0  0  0  0  0  0  0  0  0  0  0  0
  1  2  1  0  0  0  0
  1 21  1  0  0  0  0
  1 22  1  0  0  0  0
  1 23  1  0  0  0  0
  2 16  1  0  0  0  0
  2  3  2  0  0  0  0
  3  4  1  0  0  0  0
  3 24  1  0  0  0  0
  4  5  1  0  0  0  0
  4 13  1  0  0  0  0
  5 18  1  0  0  0  0
  5 12  1  0  0  0  0
  5  6  1  0  0  0  0
  6  7  1  0  0  0  0
  6 25  1  0  0  0  0
  6 26  1  0  0  0  0
  7 19  1  0  0  0  0
  7  8  1  0  0  0  0
  7  9  1  0  0  0  0
  8 27  1  0  0  0  0
  9 20  1  0  0  0  0
  9 10  1  0  0  0  0
  9 12  1  0  0  0  0
 10 11  1  0  0  0  0
 10 28  1  0  0  0  0
 10 29  1  0  0  0  0
 11 30  1  0  0  0  0
 13 14  2  0  0  0  0
 13 15  1  0  0  0  0
 15 16  1  0  0  0  0
 16 17  2  0  0  0  0
M  CHG  1  15  -1
M  END
> <s_m_source_file>
AV-unprocessed.smi

> <i_m_source_file_index>
55

> <i_lp_mmshare_version>
43012

> <i_f3d_flags>
0

> <s_epik_input>
Tz1jMVtuSF1jKD1PKW4oW2NIXWMxW0NIM10pW0NAQEhdMltDSDJdW0NAQEhdKFtPSF0pW0NAQEhdKE8yKVtDSDJdW09IXQ==

> <s_epik_cmdline>
J2VwaWtfcHl0aG9uJywgJy1waCcsICc3LjAnLCAnLXRuJywgJzgnLCAnLW1hJywgJzIwMCcsICctbWV0YWxfYmluZGluZycsICctaW1hZScsICc8aW5maWxlLm1hZT4nLCAnLW9tYWUnLCAnPG91dGZpbGUubWFlPic=

> <r_lp_tautomer_probability>
0.999537

> <r_epik_Ionization_Penalty>
3.66603

> <r_epik_Ionization_Penalty_Charging>
1.09773e-07

> <r_epik_Ionization_Penalty_Neutral>
3.66603

> <r_epik_State_Penalty>
3.66562

> <r_epik_Charging_Adjusted_Penalty>
3.66562

> <i_epik_Tot_Q>
-1

> <i_epik_Tot_abs_Q>
1

> <r_epik_Metal_State_Penalty>
0.234536

> <b_epik_Metal_Only>
1

> <s_epik_Chemistry_Notes>
This compound contains an acetal/aminal-like group ( X-CH(R)-Y where X, Y are N, S, or O) that may be acid/base labile, releasing an aldehyde.

> <s_lp_Force_Field>
OPLS_2005

> <r_lp_Energy>
34.1834

> <b_lp_Chiralities_Consistent>
1

> <s_lp_Variant>
AV-unprocessed.smi:55-16

> <Gold.Version>
5.8.1

> <Gold.Id.Protein>
6NUR|6NUR_protein|mol2

> <Gold.PLP.Fitness>
41.9371

> <Gold.PLP.PLP>
-28.0637

> <Gold.PLP.part.hbond>
-4.0000

> <Gold.PLP.part.metal>
0.0000

> <Gold.PLP.part.buried>
0.5380

> <Gold.PLP.part.nonpolar>
-24.6046

> <Gold.PLP.part.repulsive>
0.5194

> <Gold.PLP.ligand.clash>
0.0000

> <Gold.PLP.ligand.torsion>
0.2208

> <Gold.PLP.Chemscore.Hbond>
3.7680

> <Gold.PLP.Chemscore.CHOScore>
1.0000

> <Gold.PLP.Chemscore.Metal>
0.0000

> <Gold.Chemscore.Hbonds>
donor molecule, donor type, donor heavy atom, donor atom, acceptor molecule, acceptor atom, score
      L1  H    11    30       P1  8028  1.00
      P1  H  7997  8008       L1    15  2.00
      P1  H  8011  8017       L1    12  0.72
      L1  C     3    24       P1  8028  0.86

> <Gold.PLP.Chemscore.Internal.Correction>
0.0110

> <Gold.Rescore>
     Score         DG    S(hbond)    S(metal)    S(lipo)     H(rot)  DE(clash)    DE(int)     intcor
      7.33      -8.73       1.45        0.00      45.14       2.69       1.00       0.40       ----

> <Gold.Chemscore.Fitness>
7.3289

> <Gold.Chemscore.DG>
-8.7274

> <Gold.Chemscore.ZeroCoef>
-5.4800

> <Gold.Chemscore.Hbond>
1.4505

> <Gold.Chemscore.Metal>
0.0000

> <Gold.Chemscore.Lipo>
45.1435

> <Gold.Chemscore.Internal_Hbond>
0.0000

> <Gold.Chemscore.DEClash>
0.9982

> <Gold.Chemscore.DEInternal>
0.4003

> <Gold.Chemscore.Rot>
2.6871

> <Gold.Chemscore.Internal.Correction>
   9.000000E+99

> <Gold.Chemscore.Hbonds>
donor molecule, donor type, donor heavy atom, donor atom, acceptor molecule, acceptor atom, score
      L1  H    11    30       P1  8028  0.25
      P1  H  7997  8008       L1    15  0.20
      P1  H  8011  8017       L1    12  0.34

> <Gold.Chemscore.Hbond.Weighted>
-4.8447

> <Gold.Chemscore.Metal.Weighted>
-0.0000

> <Gold.Chemscore.Lipo.Weighted>
-5.2818

> <Gold.Chemscore.Internal_Hbond.Weighted>
0.0000

> <Gold.Chemscore.DEClash.Weighted>
0.9982

> <Gold.Chemscore.DEInternal.Weighted>
0.4003

> <Gold.Chemscore.Rot.Weighted>
6.8791

> <Gold.Chemscore.Internal.Correction.Weighted>
   9.000000E+99

> <Gold.Protein.RotatedTorsions>
[ 6907 6896 6895 6894 ] final  -46.26 input  -60.11 | X-H torsion
[ 7974 7965 7964 7962 ] final  123.32 input  175.53 | X-H torsion
[ 8008 7997 7996 7995 ] final  -65.33 input   59.86 | X-H torsion
[ 10167 10162 10161 10158 ] final  164.50 input  -65.29 | X-H torsion
[ 10718 10713 10712 10709 ] final   55.67 input   66.30 | X-H torsion
[ 10763 10752 10751 10750 ] final -132.79 input  -60.55 | X-H torsion
[ 11005 11000 10999 10996 ] final  139.27 input  -57.11 | X-H torsion

> <Gold.Protein.ActiveResidues>
 VAL166  LYS551  ARG553  GLY616  TRP617  ASP618  TYR619  PRO620  LYS621  CYS622 
 ASP623  PHE694  ASN695  SER759  ASP760  ASP761  ALA762  ILE779  LEU786  VAL792 
 PHE793  MET794  SER795  GLU796  ALA797  LYS798  CYS799  TRP800  GLU811  SER814 

> <Gold.Protein.RotatedAtoms>
  150.9132  134.8549  159.7438 H   0  0  0  0  0  0  0  0  0  0  0  0  # atno 6907 bound_to 6896
  152.4955  134.4328  159.9528 H   0  0  0  0  0  0  0  0  0  0  0  0  # atno 6908 bound_to 6896
  151.4369  133.3615  159.2811 H   0  0  0  0  0  0  0  0  0  0  0  0  # atno 6909 bound_to 6896
  145.0972  139.3544  143.4830 H   0  0  0  0  0  0  0  0  0  0  0  0  # atno 7974 bound_to 7965
  154.4665  140.0935  156.7035 H   0  0  0  0  0  0  0  0  0  0  0  0  # atno 8008 bound_to 7997
  155.4842  140.3468  155.4326 H   0  0  0  0  0  0  0  0  0  0  0  0  # atno 8009 bound_to 7997
  156.0966  140.1411  156.9512 H   0  0  0  0  0  0  0  0  0  0  0  0  # atno 8010 bound_to 7997
  139.4890  144.4229  151.9165 H   0  0  0  0  0  0  0  0  0  0  0  0  # atno 10167 bound_to 10162
  157.5365  130.8667  149.8761 H   0  0  0  0  0  0  0  0  0  0  0  0  # atno 10718 bound_to 10713
  154.8739  135.3786  154.4467 H   0  0  0  0  0  0  0  0  0  0  0  0  # atno 10763 bound_to 10752
  153.5147  135.7029  153.5767 H   0  0  0  0  0  0  0  0  0  0  0  0  # atno 10764 bound_to 10752
  153.4041  135.3941  155.1973 H   0  0  0  0  0  0  0  0  0  0  0  0  # atno 10765 bound_to 10752
  140.0242  134.9382  157.0536 H   0  0  0  0  0  0  0  0  0  0  0  0  # atno 11005 bound_to 11000
  146.3530  140.0833  142.8616 LP  0  0  0  0  0  0  0  0  0  0  0  0  # atno 17320 bound_to 7965
  145.0997  140.9338  143.4720 LP  0  0  0  0  0  0  0  0  0  0  0  0  # atno 17321 bound_to 7965
  140.3674  144.2898  150.5924 LP  0  0  0  0  0  0  0  0  0  0  0  0  # atno 17342 bound_to 10162
  140.5349  143.2235  151.8178 LP  0  0  0  0  0  0  0  0  0  0  0  0  # atno 17343 bound_to 10162
  156.0462  130.3727  150.1311 LP  0  0  0  0  0  0  0  0  0  0  0  0  # atno 17370 bound_to 10713
  156.9493  130.9769  151.3501 LP  0  0  0  0  0  0  0  0  0  0  0  0  # atno 17371 bound_to 10713
  140.4334  134.1756  155.7169 LP  0  0  0  0  0  0  0  0  0  0  0  0  # atno 17394 bound_to 11000
  141.1793  133.8448  157.1314 LP  0  0  0  0  0  0  0  0  0  0  0  0  # atno 17395 bound_to 11000

$$$$
