AV-unprocessed.smi:193|AV-procd|sdf|1508|dock3
  -GOLD-   2262019343D 1   1.00000     0.00000
 Structure written by MMmdl.
 62 66  0  0  0  0  0  0  0  0  2 V2000
  149.1566  133.3260  156.1775 C   0  0  0  0  0  0  0  0  0  0  0  0
  148.6727  134.6315  155.5252 C   0  0  2  0  0  0  0  0  0  0  0  0
  148.6760  135.7606  156.5780 C   0  0  0  0  0  0  0  0  0  0  0  0
  148.7159  137.1142  156.0202 N   0  0  0  0  0  0  0  0  0  0  0  0
  149.5435  138.0189  156.6079 C   0  0  0  0  0  0  0  0  0  0  0  0
  150.2341  137.6526  157.7207 N   0  0  0  0  0  0  0  0  0  0  0  0
  151.0482  138.5195  158.3298 C   0  0  0  0  0  0  0  0  0  0  0  0
  151.3187  139.7827  157.9990 N   0  0  0  0  0  0  0  0  0  0  0  0
  150.6378  140.1568  156.8786 C   0  0  0  0  0  0  0  0  0  0  0  0
  149.7388  139.3472  156.1271 C   0  0  0  0  0  0  0  0  0  0  0  0
  149.2508  140.0711  155.0443 N   0  0  0  0  0  0  0  0  0  0  0  0
  149.8178  141.2410  155.1570 C   0  0  0  0  0  0  0  0  0  0  0  0
  150.6709  141.3776  156.2280 N   0  0  0  0  0  0  0  0  0  0  0  0
  151.4337  142.5626  156.5897 C   0  0  0  0  0  0  0  0  0  0  0  0
  151.0580  143.1536  157.9710 C   0  0  0  0  0  0  0  0  0  0  0  0
  149.6451  143.1241  158.0797 O   0  0  0  0  0  0  0  0  0  0  0  0
  151.6520  142.2920  159.1031 C   0  0  0  0  0  0  0  0  0  0  0  0
  151.4475  142.9307  160.4883 C   0  0  0  0  0  0  0  0  0  0  0  0
  151.9856  144.2473  160.5024 O   0  0  0  0  0  0  0  0  0  0  0  0
  151.3340  145.1180  159.5857 C   0  0  0  0  0  0  0  0  0  0  0  0
  151.5309  144.6138  158.1449 C   0  0  0  0  0  0  0  0  0  0  0  0
  148.1227  137.4486  154.7253 C   0  0  0  0  0  0  0  0  0  0  0  0
  146.7524  136.7975  154.4975 C   0  0  0  0  0  0  0  0  0  0  0  0
  146.8877  135.4414  153.9164 N   0  3  2  0  0  0  0  0  0  0  0  0
  145.6739  135.0413  153.1691 C   0  0  1  0  0  0  0  0  0  0  0  0
  145.6761  135.4925  151.7264 C   0  0  0  0  0  0  0  0  0  0  0  0
  145.9371  134.0405  152.0647 C   0  0  2  0  0  0  0  0  0  0  0  0
  144.9115  132.9816  151.7240 C   0  0  0  0  0  0  0  0  0  0  0  0
  147.2731  134.4105  154.9104 C   0  0  0  0  0  0  0  0  0  0  0  0
  148.4953  133.0184  156.9883 H   0  0  0  0  0  0  0  0  0  0  0  0
  150.1594  133.4390  156.5911 H   0  0  0  0  0  0  0  0  0  0  0  0
  149.1967  132.5116  155.4534 H   0  0  0  0  0  0  0  0  0  0  0  0
  149.3856  134.8684  154.7339 H   0  0  0  0  0  0  0  0  0  0  0  0
  147.8145  135.6697  157.2405 H   0  0  0  0  0  0  0  0  0  0  0  0
  149.5573  135.6219  157.2056 H   0  0  0  0  0  0  0  0  0  0  0  0
  151.5554  138.1481  159.2082 H   0  0  0  0  0  0  0  0  0  0  0  0
  149.6342  142.0404  154.4536 H   0  0  0  0  0  0  0  0  0  0  0  0
  152.4942  142.3084  156.5605 H   0  0  0  0  0  0  0  0  0  0  0  0
  151.2822  143.3112  155.8110 H   0  0  0  0  0  0  0  0  0  0  0  0
  149.3779  143.7878  158.6970 H   0  0  0  0  0  0  0  0  0  0  0  0
  151.2245  141.2887  159.0862 H   0  0  0  0  0  0  0  0  0  0  0  0
  152.7231  142.1692  158.9375 H   0  0  0  0  0  0  0  0  0  0  0  0
  150.3912  142.9536  160.7601 H   0  0  0  0  0  0  0  0  0  0  0  0
  151.9552  142.3377  161.2491 H   0  0  0  0  0  0  0  0  0  0  0  0
  150.2745  145.1981  159.8333 H   0  0  0  0  0  0  0  0  0  0  0  0
  151.7573  146.1170  159.6909 H   0  0  0  0  0  0  0  0  0  0  0  0
  152.5910  144.6792  157.8973 H   0  0  0  0  0  0  0  0  0  0  0  0
  151.0130  145.2776  157.4516 H   0  0  0  0  0  0  0  0  0  0  0  0
  147.9768  138.5290  154.6827 H   0  0  0  0  0  0  0  0  0  0  0  0
  148.8145  137.1999  153.9196 H   0  0  0  0  0  0  0  0  0  0  0  0
  146.1442  136.7889  155.4035 H   0  0  0  0  0  0  0  0  0  0  0  0
  146.2171  137.4212  153.7802 H   0  0  0  0  0  0  0  0  0  0  0  0
  144.7449  135.0131  153.7363 H   0  0  0  0  0  0  0  0  0  0  0  0
  144.7160  135.7408  151.2784 H   0  0  0  0  0  0  0  0  0  0  0  0
  146.5186  136.0835  151.3716 H   0  0  0  0  0  0  0  0  0  0  0  0
  146.9653  133.7034  151.9427 H   0  0  0  0  0  0  0  0  0  0  0  0
  143.8993  133.3650  151.8575 H   0  0  0  0  0  0  0  0  0  0  0  0
  145.0419  132.1130  152.3700 H   0  0  0  0  0  0  0  0  0  0  0  0
  145.0295  132.6654  150.6873 H   0  0  0  0  0  0  0  0  0  0  0  0
  147.2685  133.4469  154.3989 H   0  0  0  0  0  0  0  0  0  0  0  0
  146.5139  134.3409  155.6910 H   0  0  0  0  0  0  0  0  0  0  0  0
  147.6318  135.4891  153.2351 H   0  0  0  0  0  0  0  0  0  0  0  0
  1  2  1  0  0  0  0
  1 30  1  0  0  0  0
  1 31  1  0  0  0  0
  1 32  1  0  0  0  0
  2 29  1  0  0  0  0
  2  3  1  0  0  0  0
  2 33  1  0  0  0  0
  3  4  1  0  0  0  0
  3 34  1  0  0  0  0
  3 35  1  0  0  0  0
  4  5  1  0  0  0  0
  4 22  1  0  0  0  0
  5 10  1  0  0  0  0
  5  6  2  0  0  0  0
  6  7  1  0  0  0  0
  7  8  2  0  0  0  0
  7 36  1  0  0  0  0
  8  9  1  0  0  0  0
  9 13  1  0  0  0  0
  9 10  2  0  0  0  0
 10 11  1  0  0  0  0
 11 12  2  0  0  0  0
 12 13  1  0  0  0  0
 12 37  1  0  0  0  0
 13 14  1  0  0  0  0
 14 15  1  0  0  0  0
 14 38  1  0  0  0  0
 14 39  1  0  0  0  0
 15 21  1  0  0  0  0
 15 16  1  0  0  0  0
 15 17  1  0  0  0  0
 16 40  1  0  0  0  0
 17 18  1  0  0  0  0
 17 41  1  0  0  0  0
 17 42  1  0  0  0  0
 18 19  1  0  0  0  0
 18 43  1  0  0  0  0
 18 44  1  0  0  0  0
 19 20  1  0  0  0  0
 20 21  1  0  0  0  0
 20 45  1  0  0  0  0
 20 46  1  0  0  0  0
 21 47  1  0  0  0  0
 21 48  1  0  0  0  0
 22 23  1  0  0  0  0
 22 49  1  0  0  0  0
 22 50  1  0  0  0  0
 23 24  1  0  0  0  0
 23 51  1  0  0  0  0
 23 52  1  0  0  0  0
 24 25  1  0  0  0  0
 24 29  1  0  0  0  0
 24 62  1  0  0  0  0
 25 27  1  0  0  0  0
 25 26  1  0  0  0  0
 25 53  1  0  0  0  0
 26 27  1  0  0  0  0
 26 54  1  0  0  0  0
 26 55  1  0  0  0  0
 27 28  1  0  0  0  0
 27 56  1  0  0  0  0
 28 57  1  0  0  0  0
 28 58  1  0  0  0  0
 28 59  1  0  0  0  0
 29 60  1  0  0  0  0
 29 61  1  0  0  0  0
M  CHG  1  24   1
M  END
> <s_m_source_file>
AV-unprocessed.smi

> <i_m_source_file_index>
193

> <i_lp_mmshare_version>
43012

> <i_f3d_flags>
0

> <s_epik_input>
W0NIM11bQ0BASF0xW0NIMl1bQ0BIXTFOKFtDSDJdMilbQ0gyXVtDSDJdTihbQ0gyXVtDQEhdMltDSDNdKWMobltjSF1uMyljKGMzNCluW2NIXW40W0NIMl1DNShbT0hdKVtDSDJdW0NIMl1PW0NIMl1bQ0gyXTU=

> <s_epik_cmdline>
J2VwaWtfcHl0aG9uJywgJy1waCcsICc3LjAnLCAnLXRuJywgJzgnLCAnLW1hJywgJzIwMCcsICctbWV0YWxfYmluZGluZycsICctaW1hZScsICc8aW5maWxlLm1hZT4nLCAnLW9tYWUnLCAnPG91dGZpbGUubWFlPic=

> <r_lp_tautomer_probability>
1

> <r_epik_Ionization_Penalty>
0.0540825

> <r_epik_Ionization_Penalty_Charging>
0.0538476

> <r_epik_Ionization_Penalty_Neutral>
0.000234891

> <r_epik_State_Penalty>
0.0200719

> <r_epik_Charging_Adjusted_Penalty>
0.0739194

> <i_epik_Tot_Q>
1

> <i_epik_Tot_abs_Q>
1

> <r_epik_Metal_State_Penalty>
0.0199414

> <b_epik_Metal_Only>
0

> <s_lp_Force_Field>
OPLS_2005

> <r_lp_Energy>
53.0882

> <b_lp_Chiralities_Consistent>
1

> <s_lp_Variant>
AV-unprocessed.smi:193-13

> <Gold.Version>
5.8.1

> <Gold.Id.Protein>
6NUR|6NUR_protein|mol2

> <Gold.PLP.Fitness>
49.2977

> <Gold.PLP.PLP>
-40.6865

> <Gold.PLP.part.hbond>
-1.0000

> <Gold.PLP.part.metal>
0.0000

> <Gold.PLP.part.buried>
-3.7149

> <Gold.PLP.part.nonpolar>
-35.9892

> <Gold.PLP.part.repulsive>
0.1376

> <Gold.PLP.ligand.clash>
0.0000

> <Gold.PLP.ligand.torsion>
0.8685

> <Gold.PLP.Chemscore.Hbond>
2.0000

> <Gold.PLP.Chemscore.CHOScore>
0.9999

> <Gold.PLP.Chemscore.Metal>
0.0000

> <Gold.Chemscore.Hbonds>
donor molecule, donor type, donor heavy atom, donor atom, acceptor molecule, acceptor atom, score
      L1  H    24    62       P1  7948  1.98

> <Gold.PLP.Chemscore.Internal.Correction>
1.3483

> <Gold.Rescore>
     Score         DG    S(hbond)    S(metal)    S(lipo)     H(rot)  DE(clash)    DE(int)     intcor
     11.38     -16.41       1.00        0.00     107.18       1.93       1.51       3.52       ----

> <Gold.Chemscore.Fitness>
11.3840

> <Gold.Chemscore.DG>
-16.4136

> <Gold.Chemscore.ZeroCoef>
-5.4800

> <Gold.Chemscore.Hbond>
0.9977

> <Gold.Chemscore.Metal>
0.0000

> <Gold.Chemscore.Lipo>
107.1763

> <Gold.Chemscore.Internal_Hbond>
0.0000

> <Gold.Chemscore.DEClash>
1.5085

> <Gold.Chemscore.DEInternal>
3.5211

> <Gold.Chemscore.Rot>
1.9290

> <Gold.Chemscore.Internal.Correction>
   9.000000E+99

> <Gold.Chemscore.Hbonds>
donor molecule, donor type, donor heavy atom, donor atom, acceptor molecule, acceptor atom, score
      L1  H    24    62       P1  7948  0.92

> <Gold.Chemscore.Hbond.Weighted>
-3.3323

> <Gold.Chemscore.Metal.Weighted>
-0.0000

> <Gold.Chemscore.Lipo.Weighted>
-12.5396

> <Gold.Chemscore.Internal_Hbond.Weighted>
0.0000

> <Gold.Chemscore.DEClash.Weighted>
1.5085

> <Gold.Chemscore.DEInternal.Weighted>
3.5211

> <Gold.Chemscore.Rot.Weighted>
4.9383

> <Gold.Chemscore.Internal.Correction.Weighted>
   9.000000E+99

> <Gold.Protein.RotatedTorsions>
[ 6907 6896 6895 6894 ] final  -34.75 input  -60.11 | X-H torsion
[ 7974 7965 7964 7962 ] final   14.16 input  175.53 | X-H torsion
[ 8008 7997 7996 7995 ] final   16.83 input   59.86 | X-H torsion
[ 10167 10162 10161 10158 ] final  -84.40 input  -65.29 | X-H torsion
[ 10718 10713 10712 10709 ] final -124.96 input   66.30 | X-H torsion
[ 10763 10752 10751 10750 ] final  169.02 input  -60.55 | X-H torsion
[ 11005 11000 10999 10996 ] final  -17.52 input  -57.11 | X-H torsion

> <Gold.Protein.ActiveResidues>
 VAL166  LYS551  ARG553  GLY616  TRP617  ASP618  TYR619  PRO620  LYS621  CYS622 
 ASP623  PHE694  ASN695  SER759  ASP760  ASP761  ALA762  ILE779  LEU786  VAL792 
 PHE793  MET794  SER795  GLU796  ALA797  LYS798  CYS799  TRP800  GLU811  SER814 

> <Gold.Protein.RotatedAtoms>
  151.0486  134.9657  159.8199 H   0  0  0  0  0  0  0  0  0  0  0  0  # atno 6907 bound_to 6896
  152.5377  134.2567  159.8929 H   0  0  0  0  0  0  0  0  0  0  0  0  # atno 6908 bound_to 6896
  151.2581  133.4273  159.2648 H   0  0  0  0  0  0  0  0  0  0  0  0  # atno 6909 bound_to 6896
  146.2312  139.9083  142.8528 H   0  0  0  0  0  0  0  0  0  0  0  0  # atno 7974 bound_to 7965
  154.8826  140.2975  155.5416 H   0  0  0  0  0  0  0  0  0  0  0  0  # atno 8008 bound_to 7997
  156.3022  140.2439  156.3765 H   0  0  0  0  0  0  0  0  0  0  0  0  # atno 8009 bound_to 7997
  154.8701  140.0402  157.1708 H   0  0  0  0  0  0  0  0  0  0  0  0  # atno 8010 bound_to 7997
  140.4136  143.2613  151.8985 H   0  0  0  0  0  0  0  0  0  0  0  0  # atno 10167 bound_to 10162
  156.1633  130.6617  151.0080 H   0  0  0  0  0  0  0  0  0  0  0  0  # atno 10718 bound_to 10713
  154.3770  135.2753  155.2233 H   0  0  0  0  0  0  0  0  0  0  0  0  # atno 10763 bound_to 10752
  154.4356  135.5966  153.6100 H   0  0  0  0  0  0  0  0  0  0  0  0  # atno 10764 bound_to 10752
  152.9836  135.6006  154.4008 H   0  0  0  0  0  0  0  0  0  0  0  0  # atno 10765 bound_to 10752
  140.8177  133.8092  155.9627 H   0  0  0  0  0  0  0  0  0  0  0  0  # atno 11005 bound_to 11000
  145.2255  140.9952  143.4021 LP  0  0  0  0  0  0  0  0  0  0  0  0  # atno 17320 bound_to 7965
  144.9574  139.4017  143.6372 LP  0  0  0  0  0  0  0  0  0  0  0  0  # atno 17321 bound_to 7965
  139.4782  144.5511  151.8384 LP  0  0  0  0  0  0  0  0  0  0  0  0  # atno 17342 bound_to 10162
  140.4611  144.1720  150.5906 LP  0  0  0  0  0  0  0  0  0  0  0  0  # atno 17343 bound_to 10162
  157.6749  131.0853  150.7519 LP  0  0  0  0  0  0  0  0  0  0  0  0  # atno 17370 bound_to 10713
  156.7581  130.4790  149.5442 LP  0  0  0  0  0  0  0  0  0  0  0  0  # atno 17371 bound_to 10713
  140.9132  134.2235  157.4973 LP  0  0  0  0  0  0  0  0  0  0  0  0  # atno 17394 bound_to 11000
  139.8710  134.9759  156.4902 LP  0  0  0  0  0  0  0  0  0  0  0  0  # atno 17395 bound_to 11000

$$$$
