AV-unprocessed.smi:3169|AV-procd|sdf|12105|dock8
  -GOLD-   2272017543D 1   1.00000     0.00000
 Structure written by MMmdl.
 35 36  0  0  0  0  0  0  0  0  1 V2000
  145.7129  138.1516  154.2744 O   0  0  0  0  0  0  0  0  0  0  0  0
  146.5513  137.5383  153.6139 C   0  0  0  0  0  0  0  0  0  0  0  0
  146.2554  136.7506  152.5716 N   0  0  0  0  0  0  0  0  0  0  0  0
  144.9129  136.5287  152.0435 C   0  0  0  0  0  0  0  0  0  0  0  0
  144.9326  135.8111  150.6808 C   0  0  0  0  0  0  0  0  0  0  0  0
  145.1807  134.3878  150.8143 N   0  0  0  0  0  0  0  0  0  0  0  0
  146.3673  133.7763  151.1966 C   0  0  0  0  0  0  0  0  0  0  0  0
  146.1350  132.4196  151.1736 C   0  0  0  0  0  0  0  0  0  0  0  0
  144.8204  132.1752  150.7835 N   0  0  0  0  0  0  0  0  0  0  0  0
  144.3174  133.3875  150.5900 C   0  0  0  0  0  0  0  0  0  0  0  0
  147.8705  137.5778  153.8457 N   0  0  0  0  0  0  0  0  0  0  0  0
  148.5187  138.3345  154.9114 C   0  0  0  0  0  0  0  0  0  0  0  0
  149.8999  138.8528  154.4784 C   0  0  2  0  0  0  0  0  0  0  0  0
  150.9958  137.7901  154.3958 C   0  0  0  0  0  0  0  0  0  0  0  0
  152.2413  138.6348  154.5342 C   0  0  0  0  0  0  0  0  0  0  0  0
  151.8026  139.6744  155.5627 C   0  0  0  0  0  0  0  0  0  0  0  0
  150.3894  139.8036  155.4197 O   0  0  0  0  0  0  0  0  0  0  0  0
  147.0143  136.2849  152.0957 H   0  0  0  0  0  0  0  0  0  0  0  0
  144.3518  135.9380  152.7681 H   0  0  0  0  0  0  0  0  0  0  0  0
  144.3904  137.4825  151.9555 H   0  0  0  0  0  0  0  0  0  0  0  0
  143.9735  135.9434  150.1791 H   0  0  0  0  0  0  0  0  0  0  0  0
  145.6889  136.2428  150.0238 H   0  0  0  0  0  0  0  0  0  0  0  0
  147.2539  134.3412  151.4439 H   0  0  0  0  0  0  0  0  0  0  0  0
  146.8078  131.6071  151.4051 H   0  0  0  0  0  0  0  0  0  0  0  0
  143.2986  133.5522  150.2705 H   0  0  0  0  0  0  0  0  0  0  0  0
  148.4743  137.0386  153.2428 H   0  0  0  0  0  0  0  0  0  0  0  0
  147.8746  139.1801  155.1543 H   0  0  0  0  0  0  0  0  0  0  0  0
  148.6002  137.7425  155.8247 H   0  0  0  0  0  0  0  0  0  0  0  0
  149.8207  139.3605  153.5157 H   0  0  0  0  0  0  0  0  0  0  0  0
  150.9215  137.0937  155.2325 H   0  0  0  0  0  0  0  0  0  0  0  0
  150.9675  137.2176  153.4686 H   0  0  0  0  0  0  0  0  0  0  0  0
  153.1162  138.0652  154.8483 H   0  0  0  0  0  0  0  0  0  0  0  0
  152.4705  139.1189  153.5840 H   0  0  0  0  0  0  0  0  0  0  0  0
  152.0159  139.3258  156.5738 H   0  0  0  0  0  0  0  0  0  0  0  0
  152.3054  140.6316  155.4223 H   0  0  0  0  0  0  0  0  0  0  0  0
  1  2  2  0  0  0  0
  2  3  1  0  0  0  0
  2 11  1  0  0  0  0
  3  4  1  0  0  0  0
  3 18  1  0  0  0  0
  4  5  1  0  0  0  0
  4 19  1  0  0  0  0
  4 20  1  0  0  0  0
  5  6  1  0  0  0  0
  5 21  1  0  0  0  0
  5 22  1  0  0  0  0
  6 10  1  0  0  0  0
  6  7  1  0  0  0  0
  7  8  2  0  0  0  0
  7 23  1  0  0  0  0
  8  9  1  0  0  0  0
  8 24  1  0  0  0  0
  9 10  2  0  0  0  0
 10 25  1  0  0  0  0
 11 12  1  0  0  0  0
 11 26  1  0  0  0  0
 12 13  1  0  0  0  0
 12 27  1  0  0  0  0
 12 28  1  0  0  0  0
 13 17  1  0  0  0  0
 13 14  1  0  0  0  0
 13 29  1  0  0  0  0
 14 15  1  0  0  0  0
 14 30  1  0  0  0  0
 14 31  1  0  0  0  0
 15 16  1  0  0  0  0
 15 32  1  0  0  0  0
 15 33  1  0  0  0  0
 16 17  1  0  0  0  0
 16 34  1  0  0  0  0
 16 35  1  0  0  0  0
M  END
> <s_m_source_file>
AV-unprocessed.smi

> <i_m_source_file_index>
3169

> <i_lp_mmshare_version>
43012

> <i_f3d_flags>
0

> <s_epik_input>
TzFbQ0gyXVtDSDJdW0NIMl1bQ0BIXTFbQ0gyXVtOSF1DKD1PKVtOSF1bQ0gyXVtDSDJdbjJbY0hdW2NIXW5bY0hdMg==

> <s_epik_cmdline>
J2VwaWtfcHl0aG9uJywgJy1waCcsICc3LjAnLCAnLXRuJywgJzgnLCAnLW1hJywgJzIwMCcsICctbWV0YWxfYmluZGluZycsICctaW1hZScsICc8aW5maWxlLm1hZT4nLCAnLW9tYWUnLCAnPG91dGZpbGUubWFlPic=

> <r_lp_tautomer_probability>
1

> <r_epik_Ionization_Penalty>
0.620462

> <r_epik_Ionization_Penalty_Charging>
0.620414

> <r_epik_Ionization_Penalty_Neutral>
4.72016e-05

> <r_epik_State_Penalty>
0.636391

> <r_epik_Charging_Adjusted_Penalty>
1.25681

> <i_epik_Tot_Q>
0

> <i_epik_Tot_abs_Q>
0

> <r_epik_Metal_State_Penalty>
0.306539

> <b_epik_Metal_Only>
0

> <s_lp_Force_Field>
OPLS_2005

> <r_lp_Energy>
16.7898

> <b_lp_Chiralities_Consistent>
1

> <s_lp_Variant>
AV-unprocessed.smi:3169-3

> <Gold.Version>
5.8.1

> <Gold.Id.Protein>
6NUR|6NUR_protein|mol2

> <Gold.PLP.Fitness>
44.0276

> <Gold.PLP.PLP>
-30.2922

> <Gold.PLP.part.hbond>
-2.0000

> <Gold.PLP.part.metal>
0.0000

> <Gold.PLP.part.buried>
-3.8704

> <Gold.PLP.part.nonpolar>
-25.2199

> <Gold.PLP.part.repulsive>
0.2888

> <Gold.PLP.ligand.clash>
0.0000

> <Gold.PLP.ligand.torsion>
0.4866

> <Gold.PLP.Chemscore.Hbond>
1.9120

> <Gold.PLP.Chemscore.CHOScore>
2.9870

> <Gold.PLP.Chemscore.Metal>
0.0000

> <Gold.Chemscore.Hbonds>
donor molecule, donor type, donor heavy atom, donor atom, acceptor molecule, acceptor atom, score
      L1  H     3    18       P1  7948  0.91
      L1  H    11    26       P1  7948  1.00
      L1  C     7    23       P1  7948  1.00
      L1  C     8    24       P1 10747  0.93
      L1  C    10    25       P1 10186  0.94

> <Gold.PLP.Chemscore.Internal.Correction>
0.0116

> <Gold.Rescore>
     Score         DG    S(hbond)    S(metal)    S(lipo)     H(rot)  DE(clash)    DE(int)     intcor
     12.73     -13.21       1.93        0.00      60.21       2.25       0.04       0.45       ----

> <Gold.Chemscore.Fitness>
12.7251

> <Gold.Chemscore.DG>
-13.2149

> <Gold.Chemscore.ZeroCoef>
-5.4800

> <Gold.Chemscore.Hbond>
1.9292

> <Gold.Chemscore.Metal>
0.0000

> <Gold.Chemscore.Lipo>
60.2105

> <Gold.Chemscore.Internal_Hbond>
0.0000

> <Gold.Chemscore.DEClash>
0.0431

> <Gold.Chemscore.DEInternal>
0.4467

> <Gold.Chemscore.Rot>
2.2474

> <Gold.Chemscore.Internal.Correction>
   9.000000E+99

> <Gold.Chemscore.Hbonds>
donor molecule, donor type, donor heavy atom, donor atom, acceptor molecule, acceptor atom, score
      L1  H     3    18       P1  7948  0.89
      L1  H    11    26       P1  7948  0.99

> <Gold.Chemscore.Hbond.Weighted>
-6.4435

> <Gold.Chemscore.Metal.Weighted>
-0.0000

> <Gold.Chemscore.Lipo.Weighted>
-7.0446

> <Gold.Chemscore.Internal_Hbond.Weighted>
0.0000

> <Gold.Chemscore.DEClash.Weighted>
0.0431

> <Gold.Chemscore.DEInternal.Weighted>
0.4467

> <Gold.Chemscore.Rot.Weighted>
5.7532

> <Gold.Chemscore.Internal.Correction.Weighted>
   9.000000E+99

> <Gold.Protein.RotatedTorsions>
[ 6907 6896 6895 6894 ] final  123.86 input  -60.11 | X-H torsion
[ 7974 7965 7964 7962 ] final -118.10 input  175.53 | X-H torsion
[ 8008 7997 7996 7995 ] final  -68.16 input   59.86 | X-H torsion
[ 10167 10162 10161 10158 ] final -164.40 input  -65.29 | X-H torsion
[ 10718 10713 10712 10709 ] final  168.54 input   66.30 | X-H torsion
[ 10763 10752 10751 10750 ] final  112.90 input  -60.55 | X-H torsion
[ 11005 11000 10999 10996 ] final  110.75 input  -57.11 | X-H torsion

> <Gold.Protein.ActiveResidues>
 VAL166  LYS551  ARG553  GLY616  TRP617  ASP618  TYR619  PRO620  LYS621  CYS622 
 ASP623  PHE694  ASN695  SER759  ASP760  ASP761  ALA762  ILE779  LEU786  VAL792 
 PHE793  MET794  SER795  GLU796  ALA797  LYS798  CYS799  TRP800  GLU811  SER814 

> <Gold.Protein.RotatedAtoms>
  152.4127  133.6989  159.6411 H   0  0  0  0  0  0  0  0  0  0  0  0  # atno 6907 bound_to 6896
  150.8006  133.8595  159.3237 H   0  0  0  0  0  0  0  0  0  0  0  0  # atno 6908 bound_to 6896
  151.6334  135.1022  160.0178 H   0  0  0  0  0  0  0  0  0  0  0  0  # atno 6909 bound_to 6896
  145.0776  140.8403  143.4058 H   0  0  0  0  0  0  0  0  0  0  0  0  # atno 7974 bound_to 7965
  154.4849  140.0878  156.7462 H   0  0  0  0  0  0  0  0  0  0  0  0  # atno 8008 bound_to 7997
  155.4376  140.3452  155.4268 H   0  0  0  0  0  0  0  0  0  0  0  0  # atno 8009 bound_to 7997
  156.1246  140.1484  156.9143 H   0  0  0  0  0  0  0  0  0  0  0  0  # atno 8010 bound_to 7997
  139.6253  144.0544  152.1969 H   0  0  0  0  0  0  0  0  0  0  0  0  # atno 10167 bound_to 10162
  157.0357  131.0272  151.2730 H   0  0  0  0  0  0  0  0  0  0  0  0  # atno 10718 bound_to 10713
  153.4846  135.3672  155.2460 H   0  0  0  0  0  0  0  0  0  0  0  0  # atno 10763 bound_to 10752
  154.8754  135.3962  154.3659 H   0  0  0  0  0  0  0  0  0  0  0  0  # atno 10764 bound_to 10752
  153.4269  135.7081  153.6322 H   0  0  0  0  0  0  0  0  0  0  0  0  # atno 10765 bound_to 10752
  139.8888  134.9492  156.6327 H   0  0  0  0  0  0  0  0  0  0  0  0  # atno 11005 bound_to 11000
  145.1216  139.2690  143.5585 LP  0  0  0  0  0  0  0  0  0  0  0  0  # atno 17320 bound_to 7965
  146.3530  140.0842  142.8616 LP  0  0  0  0  0  0  0  0  0  0  0  0  # atno 17321 bound_to 7965
  140.0196  144.6163  150.7578 LP  0  0  0  0  0  0  0  0  0  0  0  0  # atno 17342 bound_to 10162
  140.7407  143.2808  151.3604 LP  0  0  0  0  0  0  0  0  0  0  0  0  # atno 17343 bound_to 10162
  157.5143  130.7958  149.7739 LP  0  0  0  0  0  0  0  0  0  0  0  0  # atno 17370 bound_to 10713
  156.0055  130.3858  150.2448 LP  0  0  0  0  0  0  0  0  0  0  0  0  # atno 17371 bound_to 10713
  140.7654  133.8783  155.8450 LP  0  0  0  0  0  0  0  0  0  0  0  0  # atno 17394 bound_to 11000
  140.9887  134.1308  157.4428 LP  0  0  0  0  0  0  0  0  0  0  0  0  # atno 17395 bound_to 11000

$$$$
