AV-unprocessed.smi:926|AV-procd|sdf|4184|dock7
  -GOLD-   22720 2 93D 1   1.00000     0.00000
 Structure written by MMmdl.
 37 39  0  0  0  0  0  0  0  0  1 V2000
  152.7469  139.9101  155.0505 O   0  0  0  0  0  0  0  0  0  0  0  0
  151.6649  139.3564  155.2440 C   0  0  0  0  0  0  0  0  0  0  0  0
  151.0726  138.4428  154.1718 C   0  0  0  0  0  0  0  0  0  0  0  0
  150.7225  137.1522  154.7331 N   0  0  0  0  0  0  0  0  0  0  0  0
  149.5375  136.5609  154.9001 C   0  0  0  0  0  0  0  0  0  0  0  0
  149.6608  135.3730  155.4722 N   0  0  0  0  0  0  0  0  0  0  0  0
  151.0282  135.2534  155.6587 N   0  0  0  0  0  0  0  0  0  0  0  0
  151.6635  136.3061  155.2223 N   0  0  0  0  0  0  0  0  0  0  0  0
  150.9405  139.5143  156.3629 N   0  0  0  0  0  0  0  0  0  0  0  0
  151.3029  140.3801  157.4779 C   0  0  0  0  0  0  0  0  0  0  0  0
  151.3362  141.8577  157.0492 C   0  0  0  0  0  0  0  0  0  0  0  0
  151.1525  142.8324  158.2286 C   0  0  1  0  0  0  0  0  0  0  0  0
  152.1821  142.6346  159.3659 C   0  0  0  0  0  0  0  0  0  0  0  0
  152.8108  144.0318  159.5169 C   0  0  2  0  0  0  0  0  0  0  0  0
  151.7745  145.0027  160.1125 C   0  0  0  0  0  0  0  0  0  0  0  0
  150.7989  145.2168  158.9398 C   0  0  0  0  0  0  0  0  0  0  0  0
  151.3859  144.3109  157.8402 C   0  0  1  0  0  0  0  0  0  0  0  0
  152.8837  144.4937  158.0677 C   0  0  0  0  0  0  0  0  0  0  0  0
  150.1748  138.8954  153.7492 H   0  0  0  0  0  0  0  0  0  0  0  0
  151.7823  138.3064  153.3543 H   0  0  0  0  0  0  0  0  0  0  0  0
  148.5939  136.9991  154.6089 H   0  0  0  0  0  0  0  0  0  0  0  0
  150.0622  139.0210  156.4349 H   0  0  0  0  0  0  0  0  0  0  0  0
  150.5658  140.2390  158.2688 H   0  0  0  0  0  0  0  0  0  0  0  0
  152.2639  140.0717  157.8921 H   0  0  0  0  0  0  0  0  0  0  0  0
  152.2710  142.0733  156.5305 H   0  0  0  0  0  0  0  0  0  0  0  0
  150.5418  142.0285  156.3214 H   0  0  0  0  0  0  0  0  0  0  0  0
  150.1383  142.7137  158.6130 H   0  0  0  0  0  0  0  0  0  0  0  0
  151.7176  142.2872  160.2893 H   0  0  0  0  0  0  0  0  0  0  0  0
  152.9482  141.9089  159.0891 H   0  0  0  0  0  0  0  0  0  0  0  0
  153.7629  144.0272  160.0482 H   0  0  0  0  0  0  0  0  0  0  0  0
  151.2823  144.5910  160.9944 H   0  0  0  0  0  0  0  0  0  0  0  0
  152.2424  145.9454  160.3988 H   0  0  0  0  0  0  0  0  0  0  0  0
  149.7720  144.9537  159.1964 H   0  0  0  0  0  0  0  0  0  0  0  0
  150.8051  146.2608  158.6237 H   0  0  0  0  0  0  0  0  0  0  0  0
  151.0367  144.5678  156.8395 H   0  0  0  0  0  0  0  0  0  0  0  0
  153.2147  145.5282  157.9600 H   0  0  0  0  0  0  0  0  0  0  0  0
  153.5050  143.8544  157.4389 H   0  0  0  0  0  0  0  0  0  0  0  0
  1  2  2  0  0  0  0
  2  3  1  0  0  0  0
  2  9  1  0  0  0  0
  3  4  1  0  0  0  0
  3 19  1  0  0  0  0
  3 20  1  0  0  0  0
  4  8  1  0  0  0  0
  4  5  1  0  0  0  0
  5  6  2  0  0  0  0
  5 21  1  0  0  0  0
  6  7  1  0  0  0  0
  7  8  2  0  0  0  0
  9 10  1  0  0  0  0
  9 22  1  0  0  0  0
 10 11  1  0  0  0  0
 10 23  1  0  0  0  0
 10 24  1  0  0  0  0
 11 12  1  0  0  0  0
 11 25  1  0  0  0  0
 11 26  1  0  0  0  0
 12 17  1  0  0  0  0
 12 13  1  0  0  0  0
 12 27  1  0  0  0  0
 13 14  1  0  0  0  0
 13 28  1  0  0  0  0
 13 29  1  0  0  0  0
 14 18  1  0  0  0  0
 14 15  1  0  0  0  0
 14 30  1  0  0  0  0
 15 16  1  0  0  0  0
 15 31  1  0  0  0  0
 15 32  1  0  0  0  0
 16 17  1  0  0  0  0
 16 33  1  0  0  0  0
 16 34  1  0  0  0  0
 17 18  1  0  0  0  0
 17 35  1  0  0  0  0
 18 36  1  0  0  0  0
 18 37  1  0  0  0  0
M  END
> <s_m_source_file>
AV-unprocessed.smi

> <i_m_source_file_index>
926

> <i_lp_mmshare_version>
43012

> <i_f3d_flags>
0

> <s_epik_input>
bjFubltjSF1uMVtDSDJdQyg9TylbTkhdW0NIMl1bQ0gyXVtDQEhdKFtDSDJdW0NASF0yMylbQ0BIXShbQ0gyXTMpW0NIMl1bQ0gyXTI=

> <s_epik_cmdline>
J2VwaWtfcHl0aG9uJywgJy1waCcsICc3LjAnLCAnLXRuJywgJzgnLCAnLW1hJywgJzIwMCcsICctbWV0YWxfYmluZGluZycsICctaW1hZScsICc8aW5maWxlLm1hZT4nLCAnLW9tYWUnLCAnPG91dGZpbGUubWFlPic=

> <r_lp_tautomer_probability>
1

> <r_epik_Ionization_Penalty>
4.22645e-07

> <r_epik_Ionization_Penalty_Charging>
0

> <r_epik_Ionization_Penalty_Neutral>
4.22645e-07

> <r_epik_State_Penalty>
-0

> <r_epik_Charging_Adjusted_Penalty>
0

> <i_epik_Tot_Q>
0

> <i_epik_Tot_abs_Q>
0

> <r_epik_Metal_State_Penalty>
-0

> <b_epik_Metal_Only>
0

> <s_lp_Force_Field>
OPLS_2005

> <r_lp_Energy>
50.6471

> <b_lp_Chiralities_Consistent>
1

> <s_lp_Variant>
AV-unprocessed.smi:926-2

> <Gold.Version>
5.8.1

> <Gold.Id.Protein>
6NUR|6NUR_protein|mol2

> <Gold.PLP.Fitness>
47.4801

> <Gold.PLP.PLP>
-41.1316

> <Gold.PLP.part.hbond>
-3.8420

> <Gold.PLP.part.metal>
0.0000

> <Gold.PLP.part.buried>
-5.5346

> <Gold.PLP.part.nonpolar>
-33.2301

> <Gold.PLP.part.repulsive>
0.2474

> <Gold.PLP.ligand.clash>
0.0000

> <Gold.PLP.ligand.torsion>
0.2333

> <Gold.PLP.Chemscore.Hbond>
2.2621

> <Gold.PLP.Chemscore.CHOScore>
0.0000

> <Gold.PLP.Chemscore.Metal>
0.0000

> <Gold.Chemscore.Hbonds>
donor molecule, donor type, donor heavy atom, donor atom, acceptor molecule, acceptor atom, score
      P1  H  7989  7998       L1     1  0.06
      P1  H  7997  8009       L1     1  1.00
      P1  H 10752 10763       L1     8  0.85
      L1  C     5    21       P1  7948  0.04

> <Gold.PLP.Chemscore.Internal.Correction>
0.0289

> <Gold.Rescore>
     Score         DG    S(hbond)    S(metal)    S(lipo)     H(rot)  DE(clash)    DE(int)     intcor
     17.28     -17.58       1.91        0.00     104.46       2.54       0.01       0.29       ----

> <Gold.Chemscore.Fitness>
17.2815

> <Gold.Chemscore.DG>
-17.5780

> <Gold.Chemscore.ZeroCoef>
-5.4800

> <Gold.Chemscore.Hbond>
1.9127

> <Gold.Chemscore.Metal>
0.0000

> <Gold.Chemscore.Lipo>
104.4566

> <Gold.Chemscore.Internal_Hbond>
0.0000

> <Gold.Chemscore.DEClash>
0.0098

> <Gold.Chemscore.DEInternal>
0.2868

> <Gold.Chemscore.Rot>
2.5436

> <Gold.Chemscore.Internal.Correction>
   9.000000E+99

> <Gold.Chemscore.Hbonds>
donor molecule, donor type, donor heavy atom, donor atom, acceptor molecule, acceptor atom, score
      P1  H  7997  8009       L1     1  0.98
      P1  H 10752 10763       L1     8  0.14

> <Gold.Chemscore.Hbond.Weighted>
-6.3883

> <Gold.Chemscore.Metal.Weighted>
-0.0000

> <Gold.Chemscore.Lipo.Weighted>
-12.2214

> <Gold.Chemscore.Internal_Hbond.Weighted>
0.0000

> <Gold.Chemscore.DEClash.Weighted>
0.0098

> <Gold.Chemscore.DEInternal.Weighted>
0.2868

> <Gold.Chemscore.Rot.Weighted>
6.5117

> <Gold.Chemscore.Internal.Correction.Weighted>
   9.000000E+99

> <Gold.Protein.RotatedTorsions>
[ 6907 6896 6895 6894 ] final  -34.00 input  -60.11 | X-H torsion
[ 7974 7965 7964 7962 ] final   66.82 input  175.53 | X-H torsion
[ 8008 7997 7996 7995 ] final -151.36 input   59.86 | X-H torsion
[ 10167 10162 10161 10158 ] final   56.38 input  -65.29 | X-H torsion
[ 10718 10713 10712 10709 ] final  132.79 input   66.30 | X-H torsion
[ 10763 10752 10751 10750 ] final   67.27 input  -60.55 | X-H torsion
[ 11005 11000 10999 10996 ] final -161.87 input  -57.11 | X-H torsion

> <Gold.Protein.ActiveResidues>
 VAL166  LYS551  ARG553  GLY616  TRP617  ASP618  TYR619  PRO620  LYS621  CYS622 
 ASP623  PHE694  ASN695  SER759  ASP760  ASP761  ALA762  ILE779  LEU786  VAL792 
 PHE793  MET794  SER795  GLU796  ALA797  LYS798  CYS799  TRP800  GLU811  SER814 

> <Gold.Protein.RotatedAtoms>
  151.0583  134.9719  159.8246 H   0  0  0  0  0  0  0  0  0  0  0  0  # atno 6907 bound_to 6896
  152.5391  134.2450  159.8887 H   0  0  0  0  0  0  0  0  0  0  0  0  # atno 6908 bound_to 6896
  151.2469  133.4327  159.2643 H   0  0  0  0  0  0  0  0  0  0  0  0  # atno 6909 bound_to 6896
  145.8221  139.3090  143.1037 H   0  0  0  0  0  0  0  0  0  0  0  0  # atno 7974 bound_to 7965
  155.6381  140.0698  157.2627 H   0  0  0  0  0  0  0  0  0  0  0  0  # atno 8008 bound_to 7997
  154.4190  140.1755  156.1593 H   0  0  0  0  0  0  0  0  0  0  0  0  # atno 8009 bound_to 7997
  155.9878  140.3348  155.6727 H   0  0  0  0  0  0  0  0  0  0  0  0  # atno 8010 bound_to 7997
  140.2093  144.3906  150.6495 H   0  0  0  0  0  0  0  0  0  0  0  0  # atno 10167 bound_to 10162
  157.4836  131.1087  150.9649 H   0  0  0  0  0  0  0  0  0  0  0  0  # atno 10718 bound_to 10713
  153.0178  135.5290  154.6953 H   0  0  0  0  0  0  0  0  0  0  0  0  # atno 10763 bound_to 10752
  154.6077  135.2875  155.0469 H   0  0  0  0  0  0  0  0  0  0  0  0  # atno 10764 bound_to 10752
  154.1503  135.6564  153.5014 H   0  0  0  0  0  0  0  0  0  0  0  0  # atno 10765 bound_to 10752
  140.6156  134.4804  157.5219 H   0  0  0  0  0  0  0  0  0  0  0  0  # atno 11005 bound_to 11000
  145.9663  140.8795  143.0185 LP  0  0  0  0  0  0  0  0  0  0  0  0  # atno 17320 bound_to 7965
  144.6747  140.1883  143.7399 LP  0  0  0  0  0  0  0  0  0  0  0  0  # atno 17321 bound_to 7965
  140.6335  143.2191  151.6445 LP  0  0  0  0  0  0  0  0  0  0  0  0  # atno 17342 bound_to 10162
  139.5186  144.3279  152.0853 LP  0  0  0  0  0  0  0  0  0  0  0  0  # atno 17343 bound_to 10162
  157.0373  130.5735  149.5351 LP  0  0  0  0  0  0  0  0  0  0  0  0  # atno 17370 bound_to 10713
  156.0135  130.5228  150.8062 LP  0  0  0  0  0  0  0  0  0  0  0  0  # atno 17371 bound_to 10713
  139.9174  134.8218  156.1321 LP  0  0  0  0  0  0  0  0  0  0  0  0  # atno 17394 bound_to 11000
  141.0778  133.6767  156.2273 LP  0  0  0  0  0  0  0  0  0  0  0  0  # atno 17395 bound_to 11000

$$$$
