AV-unprocessed.smi:153|AV-procd|sdf|1254|dock8
  -GOLD-   2262018493D 1   1.00000     0.00000
 Structure written by MMmdl.
 60 63  0  0  0  0  0  0  0  0  2 V2000
  151.7866  144.2922  158.1201 C   0  0  0  0  0  0  0  0  0  0  0  0
  151.8371  143.2571  159.2499 C   0  0  2  0  0  0  0  0  0  0  0  0
  153.0284  143.4633  159.9987 O   0  0  0  0  0  0  0  0  0  0  0  0
  153.2753  142.2832  160.7374 C   0  0  0  0  0  0  0  0  0  0  0  0
  153.0186  141.2040  159.6969 C   0  0  0  0  0  0  0  0  0  0  0  0
  151.8414  141.7427  158.8778 C   0  0  1  0  0  0  0  0  0  0  0  0
  150.6623  141.1675  159.4117 O   0  0  0  0  0  0  0  0  0  0  0  0
  152.0027  141.3389  157.3813 C   0  0  0  0  0  0  0  0  0  0  0  0
  150.7681  141.1404  156.6298 N   0  0  0  0  0  0  0  0  0  0  0  0
  149.6809  141.9821  156.5927 C   0  0  0  0  0  0  0  0  0  0  0  0
  148.7021  141.5942  155.8242 N   0  0  0  0  0  0  0  0  0  0  0  0
  149.1533  140.4105  155.2495 C   0  0  0  0  0  0  0  0  0  0  0  0
  148.6140  139.4788  154.3068 C   0  0  0  0  0  0  0  0  0  0  0  0
  147.3801  139.5644  153.7291 N   0  0  0  0  0  0  0  0  0  0  0  0
  147.0068  140.7565  152.9765 C   0  0  0  0  0  0  0  0  0  0  0  0
  146.5746  138.3551  153.5396 C   0  0  0  0  0  0  0  0  0  0  0  0
  146.1792  138.1342  152.0650 C   0  0  1  0  0  0  0  0  0  0  0  0
  147.3586  138.1124  151.2850 O   0  0  0  0  0  0  0  0  0  0  0  0
  145.4682  136.7806  151.8660 C   0  0  0  0  0  0  0  0  0  0  0  0
  146.3675  135.6204  152.0946 N   0  3  0  0  0  0  0  0  0  0  0  0
  146.3583  135.1662  153.5056 C   0  0  0  0  0  0  0  0  0  0  0  0
  147.3509  134.0085  153.7053 C   0  0  0  0  0  0  0  0  0  0  0  0
  147.0273  132.9442  152.8193 O   0  0  0  0  0  0  0  0  0  0  0  0
  147.1175  133.3416  151.4570 C   0  0  0  0  0  0  0  0  0  0  0  0
  146.1167  134.4769  151.1820 C   0  0  0  0  0  0  0  0  0  0  0  0
  149.4088  138.4291  153.9654 N   0  0  0  0  0  0  0  0  0  0  0  0
  150.6285  138.2896  154.4891 C   0  0  0  0  0  0  0  0  0  0  0  0
  151.2497  139.0731  155.3691 N   0  0  0  0  0  0  0  0  0  0  0  0
  150.4652  140.1269  155.7336 C   0  0  0  0  0  0  0  0  0  0  0  0
  150.8318  144.2549  157.5985 H   0  0  0  0  0  0  0  0  0  0  0  0
  152.5920  144.1508  157.3998 H   0  0  0  0  0  0  0  0  0  0  0  0
  151.8861  145.2999  158.5238 H   0  0  0  0  0  0  0  0  0  0  0  0
  151.0102  143.4693  159.9315 H   0  0  0  0  0  0  0  0  0  0  0  0
  154.2909  142.2574  161.1326 H   0  0  0  0  0  0  0  0  0  0  0  0
  152.5732  142.2085  161.5695 H   0  0  0  0  0  0  0  0  0  0  0  0
  153.9062  141.1174  159.0685 H   0  0  0  0  0  0  0  0  0  0  0  0
  152.8392  140.2228  160.1392 H   0  0  0  0  0  0  0  0  0  0  0  0
  150.8029  140.2394  159.5221 H   0  0  0  0  0  0  0  0  0  0  0  0
  152.6210  142.0662  156.8544 H   0  0  0  0  0  0  0  0  0  0  0  0
  152.5535  140.3986  157.3259 H   0  0  0  0  0  0  0  0  0  0  0  0
  149.6307  142.9007  157.1584 H   0  0  0  0  0  0  0  0  0  0  0  0
  147.1526  141.6547  153.5773 H   0  0  0  0  0  0  0  0  0  0  0  0
  145.9558  140.7257  152.6885 H   0  0  0  0  0  0  0  0  0  0  0  0
  147.5986  140.8397  152.0645 H   0  0  0  0  0  0  0  0  0  0  0  0
  147.0457  137.4672  153.9636 H   0  0  0  0  0  0  0  0  0  0  0  0
  145.6679  138.4919  154.1297 H   0  0  0  0  0  0  0  0  0  0  0  0
  145.5393  138.9504  151.7312 H   0  0  0  0  0  0  0  0  0  0  0  0
  147.9109  138.8311  151.5555 H   0  0  0  0  0  0  0  0  0  0  0  0
  144.6224  136.7286  152.5541 H   0  0  0  0  0  0  0  0  0  0  0  0
  145.0472  136.7121  150.8617 H   0  0  0  0  0  0  0  0  0  0  0  0
  146.6265  135.9936  154.1640 H   0  0  0  0  0  0  0  0  0  0  0  0
  145.3513  134.8485  153.7814 H   0  0  0  0  0  0  0  0  0  0  0  0
  148.3767  134.3403  153.5361 H   0  0  0  0  0  0  0  0  0  0  0  0
  147.2996  133.6427  154.7310 H   0  0  0  0  0  0  0  0  0  0  0  0
  148.1366  133.6542  151.2226 H   0  0  0  0  0  0  0  0  0  0  0  0
  146.8948  132.4831  150.8231 H   0  0  0  0  0  0  0  0  0  0  0  0
  145.0968  134.1142  151.3194 H   0  0  0  0  0  0  0  0  0  0  0  0
  146.2080  134.7868  150.1419 H   0  0  0  0  0  0  0  0  0  0  0  0
  151.1851  137.4257  154.1569 H   0  0  0  0  0  0  0  0  0  0  0  0
  147.3048  135.9492  151.9092 H   0  0  0  0  0  0  0  0  0  0  0  0
  1  2  1  0  0  0  0
  1 30  1  0  0  0  0
  1 31  1  0  0  0  0
  1 32  1  0  0  0  0
  2  6  1  0  0  0  0
  2  3  1  0  0  0  0
  2 33  1  0  0  0  0
  3  4  1  0  0  0  0
  4  5  1  0  0  0  0
  4 34  1  0  0  0  0
  4 35  1  0  0  0  0
  5  6  1  0  0  0  0
  5 36  1  0  0  0  0
  5 37  1  0  0  0  0
  6  7  1  0  0  0  0
  6  8  1  0  0  0  0
  7 38  1  0  0  0  0
  8  9  1  0  0  0  0
  8 39  1  0  0  0  0
  8 40  1  0  0  0  0
  9 29  1  0  0  0  0
  9 10  1  0  0  0  0
 10 11  2  0  0  0  0
 10 41  1  0  0  0  0
 11 12  1  0  0  0  0
 12 29  2  0  0  0  0
 12 13  1  0  0  0  0
 13 14  1  0  0  0  0
 13 26  2  0  0  0  0
 14 15  1  0  0  0  0
 14 16  1  0  0  0  0
 15 42  1  0  0  0  0
 15 43  1  0  0  0  0
 15 44  1  0  0  0  0
 16 17  1  0  0  0  0
 16 45  1  0  0  0  0
 16 46  1  0  0  0  0
 17 18  1  0  0  0  0
 17 19  1  0  0  0  0
 17 47  1  0  0  0  0
 18 48  1  0  0  0  0
 19 20  1  0  0  0  0
 19 49  1  0  0  0  0
 19 50  1  0  0  0  0
 20 25  1  0  0  0  0
 20 21  1  0  0  0  0
 20 60  1  0  0  0  0
 21 22  1  0  0  0  0
 21 51  1  0  0  0  0
 21 52  1  0  0  0  0
 22 23  1  0  0  0  0
 22 53  1  0  0  0  0
 22 54  1  0  0  0  0
 23 24  1  0  0  0  0
 24 25  1  0  0  0  0
 24 55  1  0  0  0  0
 24 56  1  0  0  0  0
 25 57  1  0  0  0  0
 25 58  1  0  0  0  0
 26 27  1  0  0  0  0
 27 28  2  0  0  0  0
 27 59  1  0  0  0  0
 28 29  1  0  0  0  0
M  CHG  1  20   1
M  END
> <s_m_source_file>
AV-unprocessed.smi

> <i_m_source_file_index>
153

> <i_lp_mmshare_version>
43012

> <i_f3d_flags>
0

> <s_epik_input>
W0NIMl0xW0NIMl1PW0NAQEhdKFtDSDNdKVtDQEBdMShbT0hdKVtDSDJdbihbY0hdbjIpYyhjMjMpbltjSF1uYzNOKFtDSDNdKVtDSDJdW0NASF0oW09IXSlbQ0gyXU40W0NIMl1bQ0gyXU9bQ0gyXVtDSDJdNA==

> <s_epik_cmdline>
J2VwaWtfcHl0aG9uJywgJy1waCcsICc3LjAnLCAnLXRuJywgJzgnLCAnLW1hJywgJzIwMCcsICctbWV0YWxfYmluZGluZycsICctaW1hZScsICc8aW5maWxlLm1hZT4nLCAnLW9tYWUnLCAnPG91dGZpbGUubWFlPic=

> <r_lp_tautomer_probability>
1

> <r_epik_Ionization_Penalty>
0.403509

> <r_epik_Ionization_Penalty_Charging>
0.40072

> <r_epik_Ionization_Penalty_Neutral>
0.00278876

> <r_epik_State_Penalty>
0.400058

> <r_epik_Charging_Adjusted_Penalty>
0.800778

> <i_epik_Tot_Q>
1

> <i_epik_Tot_abs_Q>
1

> <r_epik_Metal_State_Penalty>
0.400321

> <b_epik_Metal_Only>
0

> <s_lp_Force_Field>
OPLS_2005

> <r_lp_Energy>
49.6176

> <b_lp_Chiralities_Consistent>
1

> <s_lp_Variant>
AV-unprocessed.smi:153-5

> <Gold.Version>
5.8.1

> <Gold.Id.Protein>
6NUR|6NUR_protein|mol2

> <Gold.PLP.Fitness>
57.1212

> <Gold.PLP.PLP>
-48.0734

> <Gold.PLP.part.hbond>
-4.7884

> <Gold.PLP.part.metal>
0.0000

> <Gold.PLP.part.buried>
-3.3848

> <Gold.PLP.part.nonpolar>
-41.6936

> <Gold.PLP.part.repulsive>
1.4641

> <Gold.PLP.ligand.clash>
0.0000

> <Gold.PLP.ligand.torsion>
2.2175

> <Gold.PLP.Chemscore.Hbond>
3.6600

> <Gold.PLP.Chemscore.CHOScore>
0.6162

> <Gold.PLP.Chemscore.Metal>
0.0000

> <Gold.Chemscore.Hbonds>
donor molecule, donor type, donor heavy atom, donor atom, acceptor molecule, acceptor atom, score
      L1  H    18    48       P1  7957  0.81
      L1  H    20    60       P1  7948  2.00
      P1  H  7954  7966       L1    18  0.65
      L1  C    10    41       P1  8028  0.59

> <Gold.PLP.Chemscore.Internal.Correction>
0.6540

> <Gold.Rescore>
     Score         DG    S(hbond)    S(metal)    S(lipo)     H(rot)  DE(clash)    DE(int)     intcor
     11.15     -15.19       1.85        0.00     109.38       3.62       1.75       2.29       ----

> <Gold.Chemscore.Fitness>
11.1487

> <Gold.Chemscore.DG>
-15.1944

> <Gold.Chemscore.ZeroCoef>
-5.4800

> <Gold.Chemscore.Hbond>
1.8503

> <Gold.Chemscore.Metal>
0.0000

> <Gold.Chemscore.Lipo>
109.3756

> <Gold.Chemscore.Internal_Hbond>
0.0000

> <Gold.Chemscore.DEClash>
1.7533

> <Gold.Chemscore.DEInternal>
2.2924

> <Gold.Chemscore.Rot>
3.6182

> <Gold.Chemscore.Internal.Correction>
   9.000000E+99

> <Gold.Chemscore.Hbonds>
donor molecule, donor type, donor heavy atom, donor atom, acceptor molecule, acceptor atom, score
      L1  H    18    48       P1  7957  0.57
      L1  H    20    60       P1  7948  1.00
      P1  H  7954  7966       L1    18  0.06

> <Gold.Chemscore.Hbond.Weighted>
-6.1799

> <Gold.Chemscore.Metal.Weighted>
-0.0000

> <Gold.Chemscore.Lipo.Weighted>
-12.7969

> <Gold.Chemscore.Internal_Hbond.Weighted>
0.0000

> <Gold.Chemscore.DEClash.Weighted>
1.7533

> <Gold.Chemscore.DEInternal.Weighted>
2.2924

> <Gold.Chemscore.Rot.Weighted>
9.2625

> <Gold.Chemscore.Internal.Correction.Weighted>
   9.000000E+99

> <Gold.Protein.RotatedTorsions>
[ 6907 6896 6895 6894 ] final  111.10 input  -60.11 | X-H torsion
[ 7974 7965 7964 7962 ] final   82.67 input  175.53 | X-H torsion
[ 8008 7997 7996 7995 ] final  -30.63 input   59.86 | X-H torsion
[ 10167 10162 10161 10158 ] final   12.42 input  -65.29 | X-H torsion
[ 10718 10713 10712 10709 ] final  116.43 input   66.30 | X-H torsion
[ 10763 10752 10751 10750 ] final  155.14 input  -60.55 | X-H torsion
[ 11005 11000 10999 10996 ] final  148.17 input  -57.11 | X-H torsion

> <Gold.Protein.ActiveResidues>
 VAL166  LYS551  ARG553  GLY616  TRP617  ASP618  TYR619  PRO620  LYS621  CYS622 
 ASP623  PHE694  ASN695  SER759  ASP760  ASP761  ALA762  ILE779  LEU786  VAL792 
 PHE793  MET794  SER795  GLU796  ALA797  LYS798  CYS799  TRP800  GLU811  SER814 

> <Gold.Protein.RotatedAtoms>
  152.4986  133.8705  159.7295 H   0  0  0  0  0  0  0  0  0  0  0  0  # atno 6907 bound_to 6896
  150.9193  133.6891  159.2842 H   0  0  0  0  0  0  0  0  0  0  0  0  # atno 6908 bound_to 6896
  151.4273  135.1010  159.9684 H   0  0  0  0  0  0  0  0  0  0  0  0  # atno 6909 bound_to 6896
  145.6221  139.2388  143.2133 H   0  0  0  0  0  0  0  0  0  0  0  0  # atno 7974 bound_to 7965
  154.4243  140.1786  156.1438 H   0  0  0  0  0  0  0  0  0  0  0  0  # atno 8008 bound_to 7997
  155.9970  140.3363  155.6784 H   0  0  0  0  0  0  0  0  0  0  0  0  # atno 8009 bound_to 7997
  155.6294  140.0668  157.2644 H   0  0  0  0  0  0  0  0  0  0  0  0  # atno 8010 bound_to 7997
  140.6069  143.8489  150.7023 H   0  0  0  0  0  0  0  0  0  0  0  0  # atno 10167 bound_to 10162
  157.6161  131.1025  150.7471 H   0  0  0  0  0  0  0  0  0  0  0  0  # atno 10718 bound_to 10713
  154.1636  135.2808  155.3101 H   0  0  0  0  0  0  0  0  0  0  0  0  # atno 10763 bound_to 10752
  154.6128  135.5493  153.7495 H   0  0  0  0  0  0  0  0  0  0  0  0  # atno 10764 bound_to 10752
  153.0185  135.6419  154.1777 H   0  0  0  0  0  0  0  0  0  0  0  0  # atno 10765 bound_to 10752
  140.0937  134.9025  157.1690 H   0  0  0  0  0  0  0  0  0  0  0  0  # atno 11005 bound_to 11000
  146.1423  140.7040  142.9361 LP  0  0  0  0  0  0  0  0  0  0  0  0  # atno 17320 bound_to 7965
  144.7227  140.4426  143.6996 LP  0  0  0  0  0  0  0  0  0  0  0  0  # atno 17321 bound_to 7965
  140.2048  143.3930  152.1764 LP  0  0  0  0  0  0  0  0  0  0  0  0  # atno 17342 bound_to 10162
  139.5332  144.7181  151.4984 LP  0  0  0  0  0  0  0  0  0  0  0  0  # atno 17343 bound_to 10162
  156.7838  130.4868  149.5396 LP  0  0  0  0  0  0  0  0  0  0  0  0  # atno 17370 bound_to 10713
  156.1284  130.6160  151.0297 LP  0  0  0  0  0  0  0  0  0  0  0  0  # atno 17371 bound_to 10713
  140.3316  134.2803  155.7227 LP  0  0  0  0  0  0  0  0  0  0  0  0  # atno 17394 bound_to 11000
  141.2085  133.7774  157.0052 LP  0  0  0  0  0  0  0  0  0  0  0  0  # atno 17395 bound_to 11000

$$$$
