AV-unprocessed.smi:2136|AV-procd|sdf|8702|dock5
  -GOLD-   2272011463D 1   1.00000     0.00000
 Structure written by MMmdl.
 42 43  0  0  0  0  0  0  0  0  1 V2000
  144.3438  142.8621  162.2985 C   0  0  0  0  0  0  0  0  0  0  0  0
  145.6499  143.1598  161.0356 S   0  0  0  0  0  0  0  0  0  0  0  0
  146.9565  143.2558  161.7042 O   0  0  0  0  0  0  0  0  0  0  0  0
  145.4546  142.1573  159.9768 O   0  0  0  0  0  0  0  0  0  0  0  0
  145.2343  144.7298  160.3802 N   0  0  0  0  0  0  0  0  0  0  0  0
  143.8833  144.8483  159.7800 C   0  0  0  0  0  0  0  0  0  0  0  0
  143.4260  146.3009  159.5935 C   0  0  0  0  0  0  0  0  0  0  0  0
  144.4626  147.1053  158.8178 C   0  0  0  0  0  0  0  0  0  0  0  0
  145.7744  147.0628  159.5961 C   0  0  0  0  0  0  0  0  0  0  0  0
  146.2908  145.6173  159.7977 C   0  0  1  0  0  0  0  0  0  0  0  0
  147.6184  145.6832  160.5734 C   0  0  0  0  0  0  0  0  0  0  0  0
  147.6397  146.0809  161.7388 O   0  0  0  0  0  0  0  0  0  0  0  0
  148.7190  145.2862  159.9155 N   0  0  0  0  0  0  0  0  0  0  0  0
  150.0609  145.2284  160.4804 C   0  0  0  0  0  0  0  0  0  0  0  0
  151.0389  144.5171  159.5313 C   0  0  0  0  0  0  0  0  0  0  0  0
  151.9852  143.5948  160.2738 C   0  0  0  0  0  0  0  0  0  0  0  0
  152.8275  142.7035  159.5775 C   0  0  0  0  0  0  0  0  0  0  0  0
  153.6927  141.8726  160.3153 C   0  0  0  0  0  0  0  0  0  0  0  0
  153.6781  141.9685  161.7213 C   0  0  0  0  0  0  0  0  0  0  0  0
  152.8746  142.8174  162.3982 N   0  0  0  0  0  0  0  0  0  0  0  0
  152.0482  143.6108  161.6833 C   0  0  0  0  0  0  0  0  0  0  0  0
  144.4354  141.8438  162.6750 H   0  0  0  0  0  0  0  0  0  0  0  0
  143.3621  142.9902  161.8435 H   0  0  0  0  0  0  0  0  0  0  0  0
  144.4512  143.5534  163.1305 H   0  0  0  0  0  0  0  0  0  0  0  0
  143.8830  144.3287  158.8210 H   0  0  0  0  0  0  0  0  0  0  0  0
  143.1528  144.3455  160.4131 H   0  0  0  0  0  0  0  0  0  0  0  0
  142.4702  146.3215  159.0692 H   0  0  0  0  0  0  0  0  0  0  0  0
  143.2533  146.7608  160.5675 H   0  0  0  0  0  0  0  0  0  0  0  0
  144.5985  146.6916  157.8178 H   0  0  0  0  0  0  0  0  0  0  0  0
  144.1277  148.1356  158.6952 H   0  0  0  0  0  0  0  0  0  0  0  0
  146.5221  147.6565  159.0680 H   0  0  0  0  0  0  0  0  0  0  0  0
  145.6250  147.5506  160.5613 H   0  0  0  0  0  0  0  0  0  0  0  0
  146.5149  145.2159  158.8076 H   0  0  0  0  0  0  0  0  0  0  0  0
  148.6120  144.9707  158.9621 H   0  0  0  0  0  0  0  0  0  0  0  0
  150.3954  146.2506  160.6593 H   0  0  0  0  0  0  0  0  0  0  0  0
  150.0380  144.7336  161.4528 H   0  0  0  0  0  0  0  0  0  0  0  0
  150.4911  143.9290  158.7944 H   0  0  0  0  0  0  0  0  0  0  0  0
  151.6180  145.2513  158.9693 H   0  0  0  0  0  0  0  0  0  0  0  0
  152.8132  142.6565  158.4984 H   0  0  0  0  0  0  0  0  0  0  0  0
  154.3526  141.1784  159.8165 H   0  0  0  0  0  0  0  0  0  0  0  0
  154.3285  141.3464  162.3181 H   0  0  0  0  0  0  0  0  0  0  0  0
  151.4207  144.2806  162.2527 H   0  0  0  0  0  0  0  0  0  0  0  0
  1  2  1  0  0  0  0
  1 22  1  0  0  0  0
  1 23  1  0  0  0  0
  1 24  1  0  0  0  0
  2  3  2  0  0  0  0
  2  4  2  0  0  0  0
  2  5  1  0  0  0  0
  5 10  1  0  0  0  0
  5  6  1  0  0  0  0
  6  7  1  0  0  0  0
  6 25  1  0  0  0  0
  6 26  1  0  0  0  0
  7  8  1  0  0  0  0
  7 27  1  0  0  0  0
  7 28  1  0  0  0  0
  8  9  1  0  0  0  0
  8 29  1  0  0  0  0
  8 30  1  0  0  0  0
  9 10  1  0  0  0  0
  9 31  1  0  0  0  0
  9 32  1  0  0  0  0
 10 11  1  0  0  0  0
 10 33  1  0  0  0  0
 11 12  2  0  0  0  0
 11 13  1  0  0  0  0
 13 14  1  0  0  0  0
 13 34  1  0  0  0  0
 14 15  1  0  0  0  0
 14 35  1  0  0  0  0
 14 36  1  0  0  0  0
 15 16  1  0  0  0  0
 15 37  1  0  0  0  0
 15 38  1  0  0  0  0
 16 21  1  0  0  0  0
 16 17  2  0  0  0  0
 17 18  1  0  0  0  0
 17 39  1  0  0  0  0
 18 19  2  0  0  0  0
 18 40  1  0  0  0  0
 19 20  1  0  0  0  0
 19 41  1  0  0  0  0
 20 21  2  0  0  0  0
 21 42  1  0  0  0  0
M  END
> <s_m_source_file>
AV-unprocessed.smi

> <i_m_source_file_index>
2136

> <i_lp_mmshare_version>
43012

> <i_f3d_flags>
0

> <s_epik_input>
W0NIM11TKD1PKSg9TylOMVtDSDJdW0NIMl1bQ0gyXVtDSDJdW0NASF0xQyg9TylbTkhdW0NIMl1bQ0gyXWMyW2NIXVtjSF1bY0hdbltjSF0y

> <s_epik_cmdline>
J2VwaWtfcHl0aG9uJywgJy1waCcsICc3LjAnLCAnLXRuJywgJzgnLCAnLW1hJywgJzIwMCcsICctbWV0YWxfYmluZGluZycsICctaW1hZScsICc8aW5maWxlLm1hZT4nLCAnLW9tYWUnLCAnPG91dGZpbGUubWFlPic=

> <r_epik_Ionization_Penalty>
0.0126915

> <r_epik_Ionization_Penalty_Charging>
0

> <r_epik_Ionization_Penalty_Neutral>
0.0126915

> <r_epik_State_Penalty>
0.0098379

> <r_epik_Charging_Adjusted_Penalty>
0.0098379

> <i_epik_Tot_Q>
0

> <i_epik_Tot_abs_Q>
0

> <r_epik_Metal_State_Penalty>
0.00962913

> <b_epik_Metal_Only>
0

> <s_lp_Force_Field>
OPLS_2005

> <r_lp_Energy>
4.41633

> <b_lp_Chiralities_Consistent>
1

> <s_lp_Variant>
AV-unprocessed.smi:2136-1

> <Gold.Version>
5.8.1

> <Gold.Id.Protein>
6NUR|6NUR_protein|mol2

> <Gold.PLP.Fitness>
49.0005

> <Gold.PLP.PLP>
-42.8511

> <Gold.PLP.part.hbond>
-5.1215

> <Gold.PLP.part.metal>
0.0000

> <Gold.PLP.part.buried>
-2.7770

> <Gold.PLP.part.nonpolar>
-36.3165

> <Gold.PLP.part.repulsive>
0.6768

> <Gold.PLP.ligand.clash>
0.0000

> <Gold.PLP.ligand.torsion>
1.5642

> <Gold.PLP.Chemscore.Hbond>
2.3935

> <Gold.PLP.Chemscore.CHOScore>
0.0000

> <Gold.PLP.Chemscore.Metal>
0.0000

> <Gold.Chemscore.Hbonds>
donor molecule, donor type, donor heavy atom, donor atom, acceptor molecule, acceptor atom, score
      L1  H    13    34       P1  8029  0.56
      P1  H  6933  6944       L1     3  0.93
      P1  H  6934  6946       L1     4  0.66

> <Gold.PLP.Chemscore.Internal.Correction>
2.0972

> <Gold.Rescore>
     Score         DG    S(hbond)    S(metal)    S(lipo)     H(rot)  DE(clash)    DE(int)     intcor
     13.19     -19.54       1.58        0.00     109.19       1.56       2.16       4.19       ----

> <Gold.Chemscore.Fitness>
13.1936

> <Gold.Chemscore.DG>
-19.5407

> <Gold.Chemscore.ZeroCoef>
-5.4800

> <Gold.Chemscore.Hbond>
1.5839

> <Gold.Chemscore.Metal>
0.0000

> <Gold.Chemscore.Lipo>
109.1901

> <Gold.Chemscore.Internal_Hbond>
0.0000

> <Gold.Chemscore.DEClash>
2.1587

> <Gold.Chemscore.DEInternal>
4.1884

> <Gold.Chemscore.Rot>
1.5643

> <Gold.Chemscore.Internal.Correction>
   9.000000E+99

> <Gold.Chemscore.Hbonds>
donor molecule, donor type, donor heavy atom, donor atom, acceptor molecule, acceptor atom, score
      L1  H    13    34       P1  8029  0.53
      P1  H  6933  6944       L1     3  0.90
      P1  H  6934  6946       L1     4  0.08

> <Gold.Chemscore.Hbond.Weighted>
-5.2901

> <Gold.Chemscore.Metal.Weighted>
-0.0000

> <Gold.Chemscore.Lipo.Weighted>
-12.7752

> <Gold.Chemscore.Internal_Hbond.Weighted>
0.0000

> <Gold.Chemscore.DEClash.Weighted>
2.1587

> <Gold.Chemscore.DEInternal.Weighted>
4.1884

> <Gold.Chemscore.Rot.Weighted>
4.0046

> <Gold.Chemscore.Internal.Correction.Weighted>
   9.000000E+99

> <Gold.Protein.RotatedTorsions>
[ 6907 6896 6895 6894 ] final  -26.79 input  -60.11 | X-H torsion
[ 7974 7965 7964 7962 ] final    9.14 input  175.53 | X-H torsion
[ 8008 7997 7996 7995 ] final  -11.69 input   59.86 | X-H torsion
[ 10167 10162 10161 10158 ] final  -60.77 input  -65.29 | X-H torsion
[ 10718 10713 10712 10709 ] final -173.08 input   66.30 | X-H torsion
[ 10763 10752 10751 10750 ] final -159.58 input  -60.55 | X-H torsion
[ 11005 11000 10999 10996 ] final   20.75 input  -57.11 | X-H torsion

> <Gold.Protein.ActiveResidues>
 VAL166  LYS551  ARG553  GLY616  TRP617  ASP618  TYR619  PRO620  LYS621  CYS622 
 ASP623  PHE694  ASN695  SER759  ASP760  ASP761  ALA762  ILE779  LEU786  VAL792 
 PHE793  MET794  SER795  GLU796  ALA797  LYS798  CYS799  TRP800  GLU811  SER814 

> <Gold.Protein.RotatedAtoms>
  151.1560  135.0250  159.8688 H   0  0  0  0  0  0  0  0  0  0  0  0  # atno 6907 bound_to 6896
  152.5452  134.1334  159.8459 H   0  0  0  0  0  0  0  0  0  0  0  0  # atno 6908 bound_to 6896
  151.1424  133.4916  159.2629 H   0  0  0  0  0  0  0  0  0  0  0  0  # atno 6909 bound_to 6896
  146.2407  139.9829  142.8434 H   0  0  0  0  0  0  0  0  0  0  0  0  # atno 7974 bound_to 7965
  154.5442  140.2296  155.8590 H   0  0  0  0  0  0  0  0  0  0  0  0  # atno 8008 bound_to 7997
  156.1887  140.3082  155.9252 H   0  0  0  0  0  0  0  0  0  0  0  0  # atno 8009 bound_to 7997
  155.3197  140.0440  157.3029 H   0  0  0  0  0  0  0  0  0  0  0  0  # atno 8010 bound_to 7997
  140.6049  143.2371  151.5843 H   0  0  0  0  0  0  0  0  0  0  0  0  # atno 10167 bound_to 10162
  156.7651  130.9428  151.3119 H   0  0  0  0  0  0  0  0  0  0  0  0  # atno 10718 bound_to 10713
  154.7462  135.3081  154.8640 H   0  0  0  0  0  0  0  0  0  0  0  0  # atno 10763 bound_to 10752
  153.9440  135.6771  153.4748 H   0  0  0  0  0  0  0  0  0  0  0  0  # atno 10764 bound_to 10752
  153.1059  135.4889  154.8876 H   0  0  0  0  0  0  0  0  0  0  0  0  # atno 10765 bound_to 10752
  140.3992  134.1736  155.7663 H   0  0  0  0  0  0  0  0  0  0  0  0  # atno 11005 bound_to 11000
  145.1575  140.9655  143.4396 LP  0  0  0  0  0  0  0  0  0  0  0  0  # atno 17320 bound_to 7965
  145.0147  139.3478  143.6102 LP  0  0  0  0  0  0  0  0  0  0  0  0  # atno 17321 bound_to 7965
  139.5318  144.2894  152.1164 LP  0  0  0  0  0  0  0  0  0  0  0  0  # atno 17342 bound_to 10162
  140.2082  144.4589  150.6398 LP  0  0  0  0  0  0  0  0  0  0  0  0  # atno 17343 bound_to 10162
  157.6717  130.9057  150.0055 LP  0  0  0  0  0  0  0  0  0  0  0  0  # atno 17370 bound_to 10713
  156.1314  130.3643  149.9726 LP  0  0  0  0  0  0  0  0  0  0  0  0  # atno 17371 bound_to 10713
  141.1863  133.8305  157.1074 LP  0  0  0  0  0  0  0  0  0  0  0  0  # atno 17394 bound_to 11000
  140.0349  134.9883  157.0851 LP  0  0  0  0  0  0  0  0  0  0  0  0  # atno 17395 bound_to 11000

$$$$
