#       Name:                AV-unprocessed.smi:1353
#       Creating user name   scv26
#       Creation time:       Fri Mar 27 05:12:21 2020


#       File generated by GOLD software.
#

@<TRIPOS>MOLECULE
AV-unprocessed.smi:1353
    44    46     1
SMALL
NO_CHARGES


@<TRIPOS>ATOM
      1 ****        -0.2947   2.9208   0.6317 O.3            1 S1                 0.0000
      2 ****        -0.9839   3.4003  -0.5034 C.3            1 S1                 0.0000
      3 ****        -0.5649   2.6375  -1.7722 C.3            1 S1                 0.0000
      4 ****        -1.0657   1.2207  -1.8105 C.2            1 S1                 0.0000
      5 ****        -2.3719   0.9514  -1.8516 N.2            1 S1                 0.0000
      6 ****        -2.4014  -0.4284  -1.8667 C.ar           1 S1                 0.0000
      7 ****        -3.4955  -1.3227  -1.8920 C.ar           1 S1                 0.0000
      8 ****        -3.2784  -2.7160  -1.9013 C.ar           1 S1                 0.0000
      9 ****        -1.9671  -3.2335  -1.8863 C.ar           1 S1                 0.0000
     10 ****        -0.8634  -2.3595  -1.8640 C.ar           1 S1                 0.0000
     11 ****        -1.0851  -0.9688  -1.8549 C.ar           1 S1                 0.0000
     12 ****        -0.2423   0.1395  -1.8375 N.pl3          1 S1                 0.0000
     13 ****         1.2147   0.0975  -1.8474 C.3            1 S1                 0.0000
     14 ****         1.8178   0.2665  -0.4464 C.3            1 S1                 0.0000
     15 ****         1.2243  -0.6752   0.4382 O.3            1 S1                 0.0000
     16 ****         1.5599  -0.6208   1.7732 C.ar           1 S1                 0.0000
     17 ****         0.9025  -1.5239   2.6339 C.ar           1 S1                 0.0000
     18 ****         1.1823  -1.5379   4.0139 C.ar           1 S1                 0.0000
     19 ****         2.1283  -0.6441   4.5487 C.ar           1 S1                 0.0000
     20 ****         2.7933   0.2611   3.7009 C.ar           1 S1                 0.0000
     21 ****         2.5133   0.2750   2.3204 C.ar           1 S1                 0.0000
     22 ****        -0.5884   3.4044   1.3887 H              1 S1                 0.0000
     23 ****        -2.0598   3.3338  -0.3389 H              1 S1                 0.0000
     24 ****        -0.7442   4.4579  -0.6154 H              1 S1                 0.0000
     25 ****        -0.9728   3.1511  -2.6434 H              1 S1                 0.0000
     26 ****         0.5170   2.6789  -1.8847 H              1 S1                 0.0000
     27 ****        -4.5036  -0.9356  -1.9024 H              1 S1                 0.0000
     28 ****        -4.1217  -3.3907  -1.9191 H              1 S1                 0.0000
     29 ****        -1.8088  -4.3020  -1.8919 H              1 S1                 0.0000
     30 ****         0.1414  -2.7546  -1.8502 H              1 S1                 0.0000
     31 ****         1.5284  -0.8606  -2.2622 H              1 S1                 0.0000
     32 ****         1.5972   0.8541  -2.5321 H              1 S1                 0.0000
     33 ****         2.8968   0.1127  -0.4917 H              1 S1                 0.0000
     34 ****         1.6433   1.2828  -0.0956 H              1 S1                 0.0000
     35 ****         0.1738  -2.2122   2.2312 H              1 S1                 0.0000
     36 ****         0.6703  -2.2340   4.6616 H              1 S1                 0.0000
     37 ****         2.3438  -0.6532   5.6070 H              1 S1                 0.0000
     38 ****         3.5203   0.9472   4.1098 H              1 S1                 0.0000
     39 ****         3.0446   0.9821   1.7021 H              1 S1                 0.0000
     40 ****         0.6891   3.0517   0.5089 LP             1 S1                 0.0000
     41 ****        -0.4883   1.9478   0.7574 LP             1 S1                 0.0000
     42 ****        -3.1400   1.5914  -1.8675 LP             1 S1                 0.0000
     43 ****         1.4702  -1.5867   0.1083 LP             1 S1                 0.0000
     44 ****         0.2335  -0.5547   0.3772 LP             1 S1                 0.0000
@<TRIPOS>BOND
    1    1    2 1     
    2    1   22 1     
    3    2    3 1     
    4    2   23 1     
    5    2   24 1     
    6    3    4 1     
    7    3   25 1     
    8    3   26 1     
    9    4   12 1     
   10    4    5 2     
   11    5    6 1     
   12    6   11 ar    
   13    6    7 ar    
   14    7    8 ar    
   15    7   27 1     
   16    8    9 ar    
   17    8   28 1     
   18    9   10 ar    
   19    9   29 1     
   20   10   11 ar    
   21   10   30 1     
   22   11   12 1     
   23   12   13 1     
   24   13   14 1     
   25   13   31 1     
   26   13   32 1     
   27   14   15 1     
   28   14   33 1     
   29   14   34 1     
   30   15   16 1     
   31   16   21 ar    
   32   16   17 ar    
   33   17   18 ar    
   34   17   35 1     
   35   18   19 ar    
   36   18   36 1     
   37   19   20 ar    
   38   19   37 1     
   39   20   21 ar    
   40   20   38 1     
   41   21   39 1     
   42    1   40 1     
   43    1   41 1     
   44    5   42 1     
   45   15   43 1     
   46   15   44 1     
@<TRIPOS>SUBSTRUCTURE
      1 S1             1
@<TRIPOS>SET
LONE_PAIRS      STATIC     ATOMS    <user>   **** ""
5 40 41 42 43 44
DONOR_HYDROGENS      STATIC     ATOMS    <user>   **** ""
1 22
ATOM$BLUE        STATIC     ATOMS    COLORGROUP SYSTEM
5 40 41 42 43 44
ATOM$RED        STATIC     ATOMS    COLORGROUP SYSTEM
1 22
