AV-unprocessed.smi:287|AV-procd|sdf|2188|dock3
  -GOLD-   2262021573D 1   1.00000     0.00000
 Structure written by MMmdl.
 55 58  0  0  0  0  0  0  0  0  1 V2000
  151.3459  141.6065  158.7953 C   0  0  0  0  0  0  0  0  0  0  0  0
  150.8588  140.7928  157.6459 C   0  0  0  0  0  0  0  0  0  0  0  0
  151.0861  139.5130  157.2314 C   0  0  0  0  0  0  0  0  0  0  0  0
  150.3147  139.3048  156.0488 C   0  0  0  0  0  0  0  0  0  0  0  0
  150.2544  138.0265  155.2241 C   0  0  2  0  0  0  0  0  0  0  0  0
  151.6734  137.6248  154.7899 C   0  0  0  0  0  0  0  0  0  0  0  0
  149.5218  138.1854  154.0242 O   0  0  0  0  0  0  0  0  0  0  0  0
  149.5797  136.8589  155.9793 C   0  0  0  0  0  0  0  0  0  0  0  0
  148.1275  136.8620  155.8544 N   0  0  0  0  0  0  0  0  0  0  0  0
  147.5042  136.0458  154.9786 C   0  0  0  0  0  0  0  0  0  0  0  0
  147.9342  134.7612  154.9711 N   0  0  0  0  0  0  0  0  0  0  0  0
  147.3815  133.8715  154.1416 C   0  0  0  0  0  0  0  0  0  0  0  0
  146.4038  134.0550  153.2524 N   0  0  0  0  0  0  0  0  0  0  0  0
  145.9677  135.3477  153.2524 C   0  0  0  0  0  0  0  0  0  0  0  0
  146.4579  136.4009  154.0756 C   0  0  0  0  0  0  0  0  0  0  0  0
  145.7632  137.5695  153.7803 N   0  0  0  0  0  0  0  0  0  0  0  0
  144.9236  137.2233  152.8427 C   0  0  0  0  0  0  0  0  0  0  0  0
  144.9866  135.9011  152.4595 N   0  0  0  0  0  0  0  0  0  0  0  0
  144.1761  135.1651  151.4336 C   0  0  1  0  0  0  0  0  0  0  0  0
  145.0492  134.4542  150.6078 O   0  0  0  0  0  0  0  0  0  0  0  0
  145.0821  133.0898  151.0110 C   0  0  2  0  0  0  0  0  0  0  0  0
  145.6561  132.1872  149.9052 C   0  0  0  0  0  0  0  0  0  0  0  0
  145.0186  132.4652  148.6767 O   0  0  0  0  0  0  0  0  0  0  0  0
  143.6178  132.8311  151.3845 C   0  0  2  0  0  0  0  0  0  0  0  0
  142.8340  132.6003  150.2276 O   0  0  0  0  0  0  0  0  0  0  0  0
  143.2052  134.1332  152.0625 C   0  0  1  0  0  0  0  0  0  0  0  0
  143.3316  133.9969  153.4679 O   0  0  0  0  0  0  0  0  0  0  0  0
  149.6863  140.5059  155.8253 C   0  0  0  0  0  0  0  0  0  0  0  0
  148.7599  141.0086  154.7680 C   0  0  0  0  0  0  0  0  0  0  0  0
  150.0045  141.4108  156.7925 O   0  0  0  0  0  0  0  0  0  0  0  0
  143.6762  135.9517  150.8671 H   0  0  0  0  0  0  0  0  0  0  0  0
  145.6842  132.9970  151.9172 H   0  0  0  0  0  0  0  0  0  0  0  0
  143.5138  131.9642  152.0385 H   0  0  0  0  0  0  0  0  0  0  0  0
  142.1755  134.4109  151.8332 H   0  0  0  0  0  0  0  0  0  0  0  0
  151.9342  140.9973  159.4819 H   0  0  0  0  0  0  0  0  0  0  0  0
  150.5096  142.0299  159.3518 H   0  0  0  0  0  0  0  0  0  0  0  0
  151.9734  142.4275  158.4486 H   0  0  0  0  0  0  0  0  0  0  0  0
  151.7307  138.8010  157.7253 H   0  0  0  0  0  0  0  0  0  0  0  0
  152.3139  137.4463  155.6543 H   0  0  0  0  0  0  0  0  0  0  0  0
  152.1414  138.4074  154.1911 H   0  0  0  0  0  0  0  0  0  0  0  0
  151.6669  136.7115  154.1934 H   0  0  0  0  0  0  0  0  0  0  0  0
  150.0128  138.7493  153.4467 H   0  0  0  0  0  0  0  0  0  0  0  0
  149.9852  135.9012  155.6489 H   0  0  0  0  0  0  0  0  0  0  0  0
  149.8131  136.9534  157.0405 H   0  0  0  0  0  0  0  0  0  0  0  0
  147.6392  137.5212  156.4437 H   0  0  0  0  0  0  0  0  0  0  0  0
  147.7817  132.8699  154.1975 H   0  0  0  0  0  0  0  0  0  0  0  0
  144.2329  137.9319  152.4091 H   0  0  0  0  0  0  0  0  0  0  0  0
  146.7203  132.3864  149.7734 H   0  0  0  0  0  0  0  0  0  0  0  0
  145.5501  131.1311  150.1551 H   0  0  0  0  0  0  0  0  0  0  0  0
  145.3303  133.2986  148.3580 H   0  0  0  0  0  0  0  0  0  0  0  0
  142.3223  133.3753  150.0528 H   0  0  0  0  0  0  0  0  0  0  0  0
  143.1278  133.1031  153.6989 H   0  0  0  0  0  0  0  0  0  0  0  0
  149.1313  140.7541  153.7751 H   0  0  0  0  0  0  0  0  0  0  0  0
  148.6558  142.0928  154.8176 H   0  0  0  0  0  0  0  0  0  0  0  0
  147.7690  140.5693  154.8831 H   0  0  0  0  0  0  0  0  0  0  0  0
  1  2  1  0  0  0  0
  1 35  1  0  0  0  0
  1 36  1  0  0  0  0
  1 37  1  0  0  0  0
  2 30  1  0  0  0  0
  2  3  2  0  0  0  0
  3  4  1  0  0  0  0
  3 38  1  0  0  0  0
  4  5  1  0  0  0  0
  4 28  2  0  0  0  0
  5  6  1  0  0  0  0
  5  7  1  0  0  0  0
  5  8  1  0  0  0  0
  6 39  1  0  0  0  0
  6 40  1  0  0  0  0
  6 41  1  0  0  0  0
  7 42  1  0  0  0  0
  8  9  1  0  0  0  0
  8 43  1  0  0  0  0
  8 44  1  0  0  0  0
  9 10  1  0  0  0  0
  9 45  1  0  0  0  0
 10 15  1  0  0  0  0
 10 11  2  0  0  0  0
 11 12  1  0  0  0  0
 12 13  2  0  0  0  0
 12 46  1  0  0  0  0
 13 14  1  0  0  0  0
 14 18  1  0  0  0  0
 14 15  2  0  0  0  0
 15 16  1  0  0  0  0
 16 17  2  0  0  0  0
 17 18  1  0  0  0  0
 17 47  1  0  0  0  0
 18 19  1  0  0  0  0
 19 31  1  0  0  0  0
 19 26  1  0  0  0  0
 19 20  1  0  0  0  0
 20 21  1  0  0  0  0
 21 32  1  0  0  0  0
 21 22  1  0  0  0  0
 21 24  1  0  0  0  0
 22 23  1  0  0  0  0
 22 48  1  0  0  0  0
 22 49  1  0  0  0  0
 23 50  1  0  0  0  0
 24 33  1  0  0  0  0
 24 25  1  0  0  0  0
 24 26  1  0  0  0  0
 25 51  1  0  0  0  0
 26 34  1  0  0  0  0
 26 27  1  0  0  0  0
 27 52  1  0  0  0  0
 28 29  1  0  0  0  0
 28 30  1  0  0  0  0
 29 53  1  0  0  0  0
 29 54  1  0  0  0  0
 29 55  1  0  0  0  0
M  END
> <s_m_source_file>
AV-unprocessed.smi

> <i_m_source_file_index>
287

> <i_lp_mmshare_version>
43012

> <i_f3d_flags>
0

> <s_epik_input>
W0NIM11jMVtjSF1jKGMobzEpW0NIM10pW0NAQF0oW0NIM10pKFtPSF0pW0NIMl1bTkhdYyhuW2NIXW4yKWMoYzIzKW5bY0hdbjNbQ0BASF00T1tDQEhdKFtDSDJdW09IXSlbQ0BASF0oW09IXSlbQ0BIXTRbT0hd

> <s_epik_cmdline>
J2VwaWtfcHl0aG9uJywgJy1waCcsICc3LjAnLCAnLXRuJywgJzgnLCAnLW1hJywgJzIwMCcsICctbWV0YWxfYmluZGluZycsICctaW1hZScsICc8aW5maWxlLm1hZT4nLCAnLW9tYWUnLCAnPG91dGZpbGUubWFlPic=

> <r_lp_tautomer_probability>
1

> <r_epik_Ionization_Penalty>
0.000992612

> <r_epik_Ionization_Penalty_Charging>
0

> <r_epik_Ionization_Penalty_Neutral>
0.000992612

> <r_epik_State_Penalty>
-0

> <r_epik_Charging_Adjusted_Penalty>
0

> <i_epik_Tot_Q>
0

> <i_epik_Tot_abs_Q>
0

> <r_epik_Metal_State_Penalty>
-0

> <b_epik_Metal_Only>
0

> <s_epik_Chemistry_Notes>
This compound contains an acetal/aminal-like group ( X-CH(R)-Y where X, Y are N, S, or O) that may be acid/base labile, releasing an aldehyde.

> <s_lp_Force_Field>
OPLS_2005

> <r_lp_Energy>
43.0869

> <b_lp_Chiralities_Consistent>
1

> <s_lp_Variant>
AV-unprocessed.smi:287-12

> <Gold.Version>
5.8.1

> <Gold.Id.Protein>
6NUR|6NUR_protein|mol2

> <Gold.PLP.Fitness>
60.5948

> <Gold.PLP.PLP>
-46.4733

> <Gold.PLP.part.hbond>
-7.0000

> <Gold.PLP.part.metal>
0.0000

> <Gold.PLP.part.buried>
-5.1826

> <Gold.PLP.part.nonpolar>
-35.0453

> <Gold.PLP.part.repulsive>
1.4126

> <Gold.PLP.ligand.clash>
1.0004

> <Gold.PLP.ligand.torsion>
1.2536

> <Gold.PLP.Chemscore.Hbond>
3.8480

> <Gold.PLP.Chemscore.CHOScore>
1.9575

> <Gold.PLP.Chemscore.Metal>
0.0000

> <Gold.Chemscore.Hbonds>
donor molecule, donor type, donor heavy atom, donor atom, acceptor molecule, acceptor atom, score
      L1  H    23    50       P1  7921  0.95
      L1  H    25    51       P1 10186  1.00
      L1  H    27    52       P1 10957  1.00
      L1  C    17    47       P1 10171  0.58
      L1  C    17    47       P1 10175  0.90

> <Gold.PLP.Chemscore.Internal.Correction>
0.2126

> <Gold.Rescore>
     Score         DG    S(hbond)    S(metal)    S(lipo)     H(rot)  DE(clash)    DE(int)     intcor
      7.35     -13.56       3.26        0.00      91.30       5.27       0.45       5.76       ----

> <Gold.Chemscore.Fitness>
7.3486

> <Gold.Chemscore.DG>
-13.5619

> <Gold.Chemscore.ZeroCoef>
-5.4800

> <Gold.Chemscore.Hbond>
3.2587

> <Gold.Chemscore.Metal>
0.0000

> <Gold.Chemscore.Lipo>
91.2983

> <Gold.Chemscore.Internal_Hbond>
0.0000

> <Gold.Chemscore.DEClash>
0.4539

> <Gold.Chemscore.DEInternal>
5.7594

> <Gold.Chemscore.Rot>
5.2672

> <Gold.Chemscore.Internal.Correction>
   9.000000E+99

> <Gold.Chemscore.Hbonds>
donor molecule, donor type, donor heavy atom, donor atom, acceptor molecule, acceptor atom, score
      L1  H    23    50       P1  7921  0.22
      L1  H    25    51       P1 10186  1.00
      L1  H    27    52       P1 10957  0.97

> <Gold.Chemscore.Hbond.Weighted>
-10.8839

> <Gold.Chemscore.Metal.Weighted>
-0.0000

> <Gold.Chemscore.Lipo.Weighted>
-10.6819

> <Gold.Chemscore.Internal_Hbond.Weighted>
0.0000

> <Gold.Chemscore.DEClash.Weighted>
0.4539

> <Gold.Chemscore.DEInternal.Weighted>
5.7594

> <Gold.Chemscore.Rot.Weighted>
13.4839

> <Gold.Chemscore.Internal.Correction.Weighted>
   9.000000E+99

> <Gold.Protein.RotatedTorsions>
[ 6907 6896 6895 6894 ] final  179.34 input  -60.11 | X-H torsion
[ 7974 7965 7964 7962 ] final   39.38 input  175.53 | X-H torsion
[ 8008 7997 7996 7995 ] final  166.66 input   59.86 | X-H torsion
[ 10167 10162 10161 10158 ] final  104.76 input  -65.29 | X-H torsion
[ 10718 10713 10712 10709 ] final  168.46 input   66.30 | X-H torsion
[ 10763 10752 10751 10750 ] final  -10.17 input  -60.55 | X-H torsion
[ 11005 11000 10999 10996 ] final   52.99 input  -57.11 | X-H torsion

> <Gold.Protein.ActiveResidues>
 VAL166  LYS551  ARG553  GLY616  TRP617  ASP618  TYR619  PRO620  LYS621  CYS622 
 ASP623  PHE694  ASN695  SER759  ASP760  ASP761  ALA762  ILE779  LEU786  VAL792 
 PHE793  MET794  SER795  GLU796  ALA797  LYS798  CYS799  TRP800  GLU811  SER814 

> <Gold.Protein.RotatedAtoms>
  151.6732  133.3313  159.3201 H   0  0  0  0  0  0  0  0  0  0  0  0  # atno 6907 bound_to 6896
  150.7858  134.6844  159.6471 H   0  0  0  0  0  0  0  0  0  0  0  0  # atno 6908 bound_to 6896
  152.3927  134.6419  160.0153 H   0  0  0  0  0  0  0  0  0  0  0  0  # atno 6909 bound_to 6896
  146.0989  139.5659  142.9427 H   0  0  0  0  0  0  0  0  0  0  0  0  # atno 7974 bound_to 7965
  156.1700  140.1637  156.8464 H   0  0  0  0  0  0  0  0  0  0  0  0  # atno 8008 bound_to 7997
  154.5247  140.0770  156.8271 H   0  0  0  0  0  0  0  0  0  0  0  0  # atno 8009 bound_to 7997
  155.3532  140.3391  155.4242 H   0  0  0  0  0  0  0  0  0  0  0  0  # atno 8010 bound_to 7997
  139.7149  144.7070  151.0966 H   0  0  0  0  0  0  0  0  0  0  0  0  # atno 10167 bound_to 10162
  157.0368  131.0275  151.2726 H   0  0  0  0  0  0  0  0  0  0  0  0  # atno 10718 bound_to 10713
  153.4653  135.7016  153.6025 H   0  0  0  0  0  0  0  0  0  0  0  0  # atno 10763 bound_to 10752
  153.4302  135.3804  155.2166 H   0  0  0  0  0  0  0  0  0  0  0  0  # atno 10764 bound_to 10752
  154.8726  135.3949  154.4084 H   0  0  0  0  0  0  0  0  0  0  0  0  # atno 10765 bound_to 10752
  140.0804  134.5346  155.8952 H   0  0  0  0  0  0  0  0  0  0  0  0  # atno 11005 bound_to 11000
  145.5894  141.0371  143.2078 LP  0  0  0  0  0  0  0  0  0  0  0  0  # atno 17320 bound_to 7965
  144.7417  139.7431  143.7308 LP  0  0  0  0  0  0  0  0  0  0  0  0  # atno 17321 bound_to 7965
  140.7741  143.5242  150.9499 LP  0  0  0  0  0  0  0  0  0  0  0  0  # atno 17342 bound_to 10162
  139.8928  143.6932  152.3143 LP  0  0  0  0  0  0  0  0  0  0  0  0  # atno 17343 bound_to 10162
  157.5135  130.7953  149.7731 LP  0  0  0  0  0  0  0  0  0  0  0  0  # atno 17370 bound_to 10713
  156.0051  130.3860  150.2461 LP  0  0  0  0  0  0  0  0  0  0  0  0  # atno 17371 bound_to 10713
  141.2044  133.6639  156.6122 LP  0  0  0  0  0  0  0  0  0  0  0  0  # atno 17394 bound_to 11000
  140.3496  134.7780  157.4457 LP  0  0  0  0  0  0  0  0  0  0  0  0  # atno 17395 bound_to 11000

$$$$
