AV-unprocessed.smi:1080|AV-procd|sdf|4708|dock6
  -GOLD-   22720 3233D 1   1.00000     0.00000
 Structure written by MMmdl.
 49 51  0  0  0  0  0  0  0  0  2 V2000
  146.7367  132.5784  153.8039 O   0  0  0  0  0  0  0  0  0  0  0  0
  147.3235  131.9665  152.9117 C   0  0  0  0  0  0  0  0  0  0  0  0
  146.9053  131.8583  151.6385 N   0  0  0  0  0  0  0  0  0  0  0  0
  145.7191  132.3709  151.0451 C   0  0  0  0  0  0  0  0  0  0  0  0
  144.9330  133.2537  151.8189 C   0  0  0  0  0  0  0  0  0  0  0  0
  143.7554  133.8009  151.2700 C   0  0  0  0  0  0  0  0  0  0  0  0
  143.3919  133.4855  150.0086 N   0  3  0  0  0  0  0  0  0  0  0  0
  144.1167  132.6580  149.2257 C   0  0  0  0  0  0  0  0  0  0  0  0
  145.3043  132.0807  149.7199 C   0  0  0  0  0  0  0  0  0  0  0  0
  148.4907  131.3320  153.0947 N   0  0  0  0  0  0  0  0  0  0  0  0
  149.2182  131.2529  154.3581 C   0  0  2  0  0  0  0  0  0  0  0  0
  149.8101  132.6259  154.7365 C   0  0  0  0  0  0  0  0  0  0  0  0
  150.6471  132.5426  156.0233 C   0  0  0  0  0  0  0  0  0  0  0  0
  151.7680  131.4894  155.9012 C   0  0  1  0  0  0  0  0  0  0  0  0
  152.5998  131.4273  157.2013 C   0  0  0  0  0  0  0  0  0  0  0  0
  152.1939  132.0526  158.1825 O   0  0  0  0  0  0  0  0  0  0  0  0
  153.7268  130.6724  157.2517 N   0  0  0  0  0  0  0  0  0  0  0  0
  154.3246  130.0768  156.0501 C   0  0  0  0  0  0  0  0  0  0  0  0
  155.5196  130.9401  155.6091 C   0  0  0  0  0  0  0  0  0  0  0  0
  156.8112  130.9827  156.8927 S   0  0  0  0  0  0  0  0  0  0  0  0
  155.7928  131.3919  158.3457 C   0  0  0  0  0  0  0  0  0  0  0  0
  154.5713  130.4628  158.4339 C   0  0  0  0  0  0  0  0  0  0  0  0
  151.1576  130.1157  155.5415 C   0  0  0  0  0  0  0  0  0  0  0  0
  150.3302  130.1936  154.2485 C   0  0  0  0  0  0  0  0  0  0  0  0
  147.5386  131.3921  151.0054 H   0  0  0  0  0  0  0  0  0  0  0  0
  145.2244  133.5082  152.8278 H   0  0  0  0  0  0  0  0  0  0  0  0
  143.0993  134.4776  151.7977 H   0  0  0  0  0  0  0  0  0  0  0  0
  143.7314  132.4876  148.2310 H   0  0  0  0  0  0  0  0  0  0  0  0
  145.8762  131.4383  149.0682 H   0  0  0  0  0  0  0  0  0  0  0  0
  148.9061  130.8604  152.3047 H   0  0  0  0  0  0  0  0  0  0  0  0
  148.5293  130.9378  155.1444 H   0  0  0  0  0  0  0  0  0  0  0  0
  150.4349  132.9971  153.9228 H   0  0  0  0  0  0  0  0  0  0  0  0
  149.0119  133.3569  154.8702 H   0  0  0  0  0  0  0  0  0  0  0  0
  151.0701  133.5237  156.2425 H   0  0  0  0  0  0  0  0  0  0  0  0
  149.9943  132.2968  156.8625 H   0  0  0  0  0  0  0  0  0  0  0  0
  152.4154  131.7496  155.0650 H   0  0  0  0  0  0  0  0  0  0  0  0
  154.6512  129.0563  156.2553 H   0  0  0  0  0  0  0  0  0  0  0  0
  153.6105  129.9907  155.2302 H   0  0  0  0  0  0  0  0  0  0  0  0
  155.9533  130.5483  154.6890 H   0  0  0  0  0  0  0  0  0  0  0  0
  155.1935  131.9595  155.3994 H   0  0  0  0  0  0  0  0  0  0  0  0
  156.4079  131.2996  159.2408 H   0  0  0  0  0  0  0  0  0  0  0  0
  155.4775  132.4338  158.2792 H   0  0  0  0  0  0  0  0  0  0  0  0
  154.0356  130.6125  159.3699 H   0  0  0  0  0  0  0  0  0  0  0  0
  154.9019  129.4238  158.4741 H   0  0  0  0  0  0  0  0  0  0  0  0
  151.9481  129.3733  155.4236 H   0  0  0  0  0  0  0  0  0  0  0  0
  150.5155  129.7586  156.3484 H   0  0  0  0  0  0  0  0  0  0  0  0
  149.8957  129.2168  154.0331 H   0  0  0  0  0  0  0  0  0  0  0  0
  150.9888  130.4304  153.4115 H   0  0  0  0  0  0  0  0  0  0  0  0
  142.5366  133.8931  149.6294 H   0  0  0  0  0  0  0  0  0  0  0  0
  1  2  2  0  0  0  0
  2  3  1  0  0  0  0
  2 10  1  0  0  0  0
  3  4  1  0  0  0  0
  3 25  1  0  0  0  0
  4  9  1  0  0  0  0
  4  5  2  0  0  0  0
  5  6  1  0  0  0  0
  5 26  1  0  0  0  0
  6  7  2  0  0  0  0
  6 27  1  0  0  0  0
  7  8  1  0  0  0  0
  7 49  1  0  0  0  0
  8  9  2  0  0  0  0
  8 28  1  0  0  0  0
  9 29  1  0  0  0  0
 10 11  1  0  0  0  0
 10 30  1  0  0  0  0
 11 24  1  0  0  0  0
 11 12  1  0  0  0  0
 11 31  1  0  0  0  0
 12 13  1  0  0  0  0
 12 32  1  0  0  0  0
 12 33  1  0  0  0  0
 13 14  1  0  0  0  0
 13 34  1  0  0  0  0
 13 35  1  0  0  0  0
 14 15  1  0  0  0  0
 14 23  1  0  0  0  0
 14 36  1  0  0  0  0
 15 16  2  0  0  0  0
 15 17  1  0  0  0  0
 17 22  1  0  0  0  0
 17 18  1  0  0  0  0
 18 19  1  0  0  0  0
 18 37  1  0  0  0  0
 18 38  1  0  0  0  0
 19 20  1  0  0  0  0
 19 39  1  0  0  0  0
 19 40  1  0  0  0  0
 20 21  1  0  0  0  0
 21 22  1  0  0  0  0
 21 41  1  0  0  0  0
 21 42  1  0  0  0  0
 22 43  1  0  0  0  0
 22 44  1  0  0  0  0
 23 24  1  0  0  0  0
 23 45  1  0  0  0  0
 23 46  1  0  0  0  0
 24 47  1  0  0  0  0
 24 48  1  0  0  0  0
M  CHG  1   7   1
M  END
> <s_m_source_file>
AV-unprocessed.smi

> <i_m_source_file_index>
1080

> <i_lp_mmshare_version>
43012

> <i_f3d_flags>
0

> <s_epik_input>
W2NIXTFbY0hdbltjSF1bY0hdYzFbTkhdQyg9TylbTkhdW0NAQEhdMltDSDJdW0NIMl1bQ0BIXShbQ0gyXVtDSDJdMilDKD1PKU4zW0NIMl1bQ0gyXVNbQ0gyXVtDSDJdMw==

> <s_epik_cmdline>
J2VwaWtfcHl0aG9uJywgJy1waCcsICc3LjAnLCAnLXRuJywgJzgnLCAnLW1hJywgJzIwMCcsICctbWV0YWxfYmluZGluZycsICctaW1hZScsICc8aW5maWxlLm1hZT4nLCAnLW9tYWUnLCAnPG91dGZpbGUubWFlPic=

> <r_epik_Ionization_Penalty>
1.01281

> <r_epik_Ionization_Penalty_Charging>
1.01278

> <r_epik_Ionization_Penalty_Neutral>
2.07681e-05

> <r_epik_State_Penalty>
1.06237

> <r_epik_Charging_Adjusted_Penalty>
2.07515

> <i_epik_Tot_Q>
1

> <i_epik_Tot_abs_Q>
1

> <r_epik_Metal_State_Penalty>
1.16243

> <b_epik_Metal_Only>
0

> <s_lp_Force_Field>
OPLS_2005

> <r_lp_Energy>
38.1228

> <b_lp_Chiralities_Consistent>
1

> <s_lp_Variant>
AV-unprocessed.smi:1080-3

> <Gold.Version>
5.8.1

> <Gold.Id.Protein>
6NUR|6NUR_protein|mol2

> <Gold.PLP.Fitness>
52.0453

> <Gold.PLP.PLP>
-37.8360

> <Gold.PLP.part.hbond>
-4.0000

> <Gold.PLP.part.metal>
0.0000

> <Gold.PLP.part.buried>
-6.1053

> <Gold.PLP.part.nonpolar>
-28.3658

> <Gold.PLP.part.repulsive>
0.1531

> <Gold.PLP.ligand.clash>
0.0000

> <Gold.PLP.ligand.torsion>
0.2454

> <Gold.PLP.Chemscore.Hbond>
4.8800

> <Gold.PLP.Chemscore.CHOScore>
0.0000

> <Gold.PLP.Chemscore.Metal>
0.0000

> <Gold.Chemscore.Hbonds>
donor molecule, donor type, donor heavy atom, donor atom, acceptor molecule, acceptor atom, score
      L1  H     3    25       P1 10747  1.00
      L1  H     7    49       P1 10186  2.00
      L1  H    10    30       P1 10747  0.88
      P1  H  6896  6909       L1    16  1.00

> <Gold.PLP.Chemscore.Internal.Correction>
0.0601

> <Gold.Rescore>
     Score         DG    S(hbond)    S(metal)    S(lipo)     H(rot)  DE(clash)    DE(int)     intcor
     23.26     -24.95       3.51        0.00      93.51       1.25       0.02       1.67       ----

> <Gold.Chemscore.Fitness>
23.2634

> <Gold.Chemscore.DG>
-24.9493

> <Gold.Chemscore.ZeroCoef>
-5.4800

> <Gold.Chemscore.Hbond>
3.5105

> <Gold.Chemscore.Metal>
0.0000

> <Gold.Chemscore.Lipo>
93.5088

> <Gold.Chemscore.Internal_Hbond>
0.0000

> <Gold.Chemscore.DEClash>
0.0153

> <Gold.Chemscore.DEInternal>
1.6707

> <Gold.Chemscore.Rot>
1.2486

> <Gold.Chemscore.Internal.Correction>
   9.000000E+99

> <Gold.Chemscore.Hbonds>
donor molecule, donor type, donor heavy atom, donor atom, acceptor molecule, acceptor atom, score
      L1  H     3    25       P1 10747  1.00
      L1  H     7    49       P1 10186  0.99
      L1  H    10    30       P1 10747  0.42
      P1  H  6896  6909       L1    16  1.00

> <Gold.Chemscore.Hbond.Weighted>
-11.7251

> <Gold.Chemscore.Metal.Weighted>
-0.0000

> <Gold.Chemscore.Lipo.Weighted>
-10.9405

> <Gold.Chemscore.Internal_Hbond.Weighted>
0.0000

> <Gold.Chemscore.DEClash.Weighted>
0.0153

> <Gold.Chemscore.DEInternal.Weighted>
1.6707

> <Gold.Chemscore.Rot.Weighted>
3.1963

> <Gold.Chemscore.Internal.Correction.Weighted>
   9.000000E+99

> <Gold.Protein.RotatedTorsions>
[ 6907 6896 6895 6894 ] final  -55.67 input  -60.11 | X-H torsion
[ 7974 7965 7964 7962 ] final   30.51 input  175.53 | X-H torsion
[ 8008 7997 7996 7995 ] final -115.88 input   59.86 | X-H torsion
[ 10167 10162 10161 10158 ] final -170.92 input  -65.29 | X-H torsion
[ 10718 10713 10712 10709 ] final   57.33 input   66.30 | X-H torsion
[ 10763 10752 10751 10750 ] final  -73.78 input  -60.55 | X-H torsion
[ 11005 11000 10999 10996 ] final  146.41 input  -57.11 | X-H torsion

> <Gold.Protein.ActiveResidues>
 VAL166  LYS551  ARG553  GLY616  TRP617  ASP618  TYR619  PRO620  LYS621  CYS622 
 ASP623  PHE694  ASN695  SER759  ASP760  ASP761  ALA762  ILE779  LEU786  VAL792 
 PHE793  MET794  SER795  GLU796  ALA797  LYS798  CYS799  TRP800  GLU811  SER814 

> <Gold.Protein.RotatedAtoms>
  150.8232  134.7449  159.6789 H   0  0  0  0  0  0  0  0  0  0  0  0  # atno 6907 bound_to 6896
  152.4345  134.5710  159.9931 H   0  0  0  0  0  0  0  0  0  0  0  0  # atno 6908 bound_to 6896
  151.5889  133.3331  159.3059 H   0  0  0  0  0  0  0  0  0  0  0  0  # atno 6909 bound_to 6896
  146.1607  139.6779  142.9035 H   0  0  0  0  0  0  0  0  0  0  0  0  # atno 7974 bound_to 7965
  155.0590  140.0393  157.2570 H   0  0  0  0  0  0  0  0  0  0  0  0  # atno 8008 bound_to 7997
  154.7075  140.2686  155.6636 H   0  0  0  0  0  0  0  0  0  0  0  0  # atno 8009 bound_to 7997
  156.2779  140.2728  156.1706 H   0  0  0  0  0  0  0  0  0  0  0  0  # atno 8010 bound_to 7997
  139.5833  144.1375  152.1543 H   0  0  0  0  0  0  0  0  0  0  0  0  # atno 10167 bound_to 10162
  157.5505  130.8762  149.8957 H   0  0  0  0  0  0  0  0  0  0  0  0  # atno 10718 bound_to 10713
  154.4642  135.5886  153.6277 H   0  0  0  0  0  0  0  0  0  0  0  0  # atno 10763 bound_to 10752
  152.9827  135.6051  154.3448 H   0  0  0  0  0  0  0  0  0  0  0  0  # atno 10764 bound_to 10752
  154.3323  135.2842  155.2444 H   0  0  0  0  0  0  0  0  0  0  0  0  # atno 10765 bound_to 10752
  140.0791  134.9107  157.1471 H   0  0  0  0  0  0  0  0  0  0  0  0  # atno 11005 bound_to 11000
  145.4595  141.0432  143.2759 LP  0  0  0  0  0  0  0  0  0  0  0  0  # atno 17320 bound_to 7965
  144.8023  139.6117  143.7066 LP  0  0  0  0  0  0  0  0  0  0  0  0  # atno 17321 bound_to 7965
  140.0933  144.5602  150.7039 LP  0  0  0  0  0  0  0  0  0  0  0  0  # atno 17342 bound_to 10162
  140.7108  143.2504  151.4586 LP  0  0  0  0  0  0  0  0  0  0  0  0  # atno 17343 bound_to 10162
  156.0573  130.3706  150.1062 LP  0  0  0  0  0  0  0  0  0  0  0  0  # atno 17370 bound_to 10713
  156.9235  130.9691  151.3544 LP  0  0  0  0  0  0  0  0  0  0  0  0  # atno 17371 bound_to 10713
  140.3514  134.2595  155.7198 LP  0  0  0  0  0  0  0  0  0  0  0  0  # atno 17394 bound_to 11000
  141.2040  133.7897  157.0309 LP  0  0  0  0  0  0  0  0  0  0  0  0  # atno 17395 bound_to 11000

$$$$
