AV-unprocessed.smi:304|AV-procd|sdf|2278|dock2
  -GOLD-   2262022173D 1   1.00000     0.00000
 Structure written by MMmdl.
 37 39  0  0  0  0  0  0  0  0  2 V2000
  151.6440  137.0198  158.5596 O   0  0  0  0  0  0  0  0  0  0  0  0
  151.1536  138.3396  158.4323 C   0  0  2  0  0  0  0  0  0  0  0  0
  149.6264  138.3257  158.6083 C   0  0  0  0  0  0  0  0  0  0  0  0
  149.2906  137.5556  159.7499 O   0  0  0  0  0  0  0  0  0  0  0  0
  148.8476  136.2467  159.4358 C   0  0  0  0  0  0  0  0  0  0  0  0
  148.2485  135.6561  160.6741 C   0  0  0  0  0  0  0  0  0  0  0  0
  148.0771  136.2845  161.8814 C   0  0  0  0  0  0  0  0  0  0  0  0
  147.4693  135.4549  162.8690 C   0  0  0  0  0  0  0  0  0  0  0  0
  147.1780  134.2008  162.4035 C   0  0  0  0  0  0  0  0  0  0  0  0
  147.6468  134.0135  160.7368 S   0  0  0  0  0  0  0  0  0  0  0  0
  151.6126  138.9997  157.1151 C   0  0  0  0  0  0  0  0  0  0  0  0
  151.1436  140.3851  156.9738 N   0  0  0  0  0  0  0  0  0  0  0  0
  150.3705  140.9470  156.0053 C   0  0  0  0  0  0  0  0  0  0  0  0
  150.2215  142.2656  156.3118 N   0  3  0  0  0  0  0  0  0  0  0  0
  150.9093  142.5508  157.4935 C   0  0  0  0  0  0  0  0  0  0  0  0
  151.0534  143.7407  158.1996 C   0  0  0  0  0  0  0  0  0  0  0  0
  151.8242  143.6902  159.3797 C   0  0  0  0  0  0  0  0  0  0  0  0
  151.9956  144.8205  160.1054 F   0  0  0  0  0  0  0  0  0  0  0  0
  152.4170  142.4870  159.8180 C   0  0  0  0  0  0  0  0  0  0  0  0
  153.1465  142.4821  160.9587 F   0  0  0  0  0  0  0  0  0  0  0  0
  152.2645  141.2868  159.0930 C   0  0  0  0  0  0  0  0  0  0  0  0
  151.5030  141.3465  157.9261 C   0  0  0  0  0  0  0  0  0  0  0  0
  151.7025  136.6374  157.6978 H   0  0  0  0  0  0  0  0  0  0  0  0
  151.5805  138.8988  159.2657 H   0  0  0  0  0  0  0  0  0  0  0  0
  149.2339  139.3405  158.6917 H   0  0  0  0  0  0  0  0  0  0  0  0
  149.1662  137.8724  157.7291 H   0  0  0  0  0  0  0  0  0  0  0  0
  148.1059  136.2800  158.6366 H   0  0  0  0  0  0  0  0  0  0  0  0
  149.6824  135.6326  159.0958 H   0  0  0  0  0  0  0  0  0  0  0  0
  148.3659  137.3041  162.0886 H   0  0  0  0  0  0  0  0  0  0  0  0
  147.2691  135.8024  163.8718 H   0  0  0  0  0  0  0  0  0  0  0  0
  146.7186  133.3801  162.9343 H   0  0  0  0  0  0  0  0  0  0  0  0
  152.6977  138.9838  157.0135 H   0  0  0  0  0  0  0  0  0  0  0  0
  151.2226  138.4377  156.2656 H   0  0  0  0  0  0  0  0  0  0  0  0
  149.9536  140.4397  155.1470 H   0  0  0  0  0  0  0  0  0  0  0  0
  150.6006  144.6637  157.8686 H   0  0  0  0  0  0  0  0  0  0  0  0
  152.7192  140.3713  159.4420 H   0  0  0  0  0  0  0  0  0  0  0  0
  149.6902  142.9208  155.7523 H   0  0  0  0  0  0  0  0  0  0  0  0
  1  2  1  0  0  0  0
  1 23  1  0  0  0  0
  2  3  1  0  0  0  0
  2 11  1  0  0  0  0
  2 24  1  0  0  0  0
  3  4  1  0  0  0  0
  3 25  1  0  0  0  0
  3 26  1  0  0  0  0
  4  5  1  0  0  0  0
  5  6  1  0  0  0  0
  5 27  1  0  0  0  0
  5 28  1  0  0  0  0
  6 10  1  0  0  0  0
  6  7  2  0  0  0  0
  7  8  1  0  0  0  0
  7 29  1  0  0  0  0
  8  9  2  0  0  0  0
  8 30  1  0  0  0  0
  9 10  1  0  0  0  0
  9 31  1  0  0  0  0
 11 12  1  0  0  0  0
 11 32  1  0  0  0  0
 11 33  1  0  0  0  0
 12 22  1  0  0  0  0
 12 13  1  0  0  0  0
 13 14  2  0  0  0  0
 13 34  1  0  0  0  0
 14 15  1  0  0  0  0
 14 37  1  0  0  0  0
 15 22  2  0  0  0  0
 15 16  1  0  0  0  0
 16 17  2  0  0  0  0
 16 35  1  0  0  0  0
 17 18  1  0  0  0  0
 17 19  1  0  0  0  0
 19 20  1  0  0  0  0
 19 21  2  0  0  0  0
 21 22  1  0  0  0  0
 21 36  1  0  0  0  0
M  CHG  1  14   1
M  END
> <s_m_source_file>
AV-unprocessed.smi

> <i_m_source_file_index>
304

> <i_lp_mmshare_version>
43012

> <i_f3d_flags>
0

> <s_epik_input>
W2NIXTFjKEYpYyhGKVtjSF1jKGMxMiluKFtjSF1uMilbQ0gyXVtDQEhdKFtPSF0pW0NIMl1PW0NIMl1jM1tjSF1bY0hdW2NIXXMz

> <s_epik_cmdline>
J2VwaWtfcHl0aG9uJywgJy1waCcsICc3LjAnLCAnLXRuJywgJzgnLCAnLW1hJywgJzIwMCcsICctbWV0YWxfYmluZGluZycsICctaW1hZScsICc8aW5maWxlLm1hZT4nLCAnLW9tYWUnLCAnPG91dGZpbGUubWFlPic=

> <r_epik_Ionization_Penalty>
2.17745

> <r_epik_Ionization_Penalty_Charging>
2.17744

> <r_epik_Ionization_Penalty_Neutral>
1.26231e-06

> <r_epik_State_Penalty>
2.31922

> <r_epik_Charging_Adjusted_Penalty>
4.49666

> <i_epik_Tot_Q>
1

> <i_epik_Tot_abs_Q>
1

> <r_epik_Metal_State_Penalty>
6.40003

> <b_epik_Metal_Only>
0

> <s_lp_Force_Field>
OPLS_2005

> <r_lp_Energy>
12.8656

> <b_lp_Chiralities_Consistent>
1

> <s_lp_Variant>
AV-unprocessed.smi:304-3

> <Gold.Version>
5.8.1

> <Gold.Id.Protein>
6NUR|6NUR_protein|mol2

> <Gold.PLP.Fitness>
59.0361

> <Gold.PLP.PLP>
-53.4593

> <Gold.PLP.part.hbond>
-2.8725

> <Gold.PLP.part.metal>
0.0000

> <Gold.PLP.part.buried>
-6.4036

> <Gold.PLP.part.nonpolar>
-44.6767

> <Gold.PLP.part.repulsive>
0.0838

> <Gold.PLP.ligand.clash>
0.0000

> <Gold.PLP.ligand.torsion>
0.3936

> <Gold.PLP.Chemscore.Hbond>
2.0913

> <Gold.PLP.Chemscore.CHOScore>
0.0000

> <Gold.PLP.Chemscore.Metal>
0.0000

> <Gold.Chemscore.Hbonds>
donor molecule, donor type, donor heavy atom, donor atom, acceptor molecule, acceptor atom, score
      L1  H    14    37       P1  8028  1.86
      P1  H  6931  6943       L1     4  0.10

> <Gold.PLP.Chemscore.Internal.Correction>
0.0902

> <Gold.Rescore>
     Score         DG    S(hbond)    S(metal)    S(lipo)     H(rot)  DE(clash)    DE(int)     intcor
     16.30     -16.94       1.42        0.00     117.06       2.73       0.10       0.54       ----

> <Gold.Chemscore.Fitness>
16.2989

> <Gold.Chemscore.DG>
-16.9410

> <Gold.Chemscore.ZeroCoef>
-5.4800

> <Gold.Chemscore.Hbond>
1.4201

> <Gold.Chemscore.Metal>
0.0000

> <Gold.Chemscore.Lipo>
117.0596

> <Gold.Chemscore.Internal_Hbond>
0.0000

> <Gold.Chemscore.DEClash>
0.0998

> <Gold.Chemscore.DEInternal>
0.5423

> <Gold.Chemscore.Rot>
2.7258

> <Gold.Chemscore.Internal.Correction>
   9.000000E+99

> <Gold.Chemscore.Hbonds>
donor molecule, donor type, donor heavy atom, donor atom, acceptor molecule, acceptor atom, score
      L1  H    14    37       P1  8028  0.88
      P1  H  6896  6909       L1     1  0.02
      P1  H  6931  6943       L1     4  0.10

> <Gold.Chemscore.Hbond.Weighted>
-4.7431

> <Gold.Chemscore.Metal.Weighted>
-0.0000

> <Gold.Chemscore.Lipo.Weighted>
-13.6960

> <Gold.Chemscore.Internal_Hbond.Weighted>
0.0000

> <Gold.Chemscore.DEClash.Weighted>
0.0998

> <Gold.Chemscore.DEInternal.Weighted>
0.5423

> <Gold.Chemscore.Rot.Weighted>
6.9781

> <Gold.Chemscore.Internal.Correction.Weighted>
   9.000000E+99

> <Gold.Protein.RotatedTorsions>
[ 6907 6896 6895 6894 ] final  140.76 input  -60.11 | X-H torsion
[ 7974 7965 7964 7962 ] final   97.04 input  175.53 | X-H torsion
[ 8008 7997 7996 7995 ] final  -65.37 input   59.86 | X-H torsion
[ 10167 10162 10161 10158 ] final  118.83 input  -65.29 | X-H torsion
[ 10718 10713 10712 10709 ] final   66.50 input   66.30 | X-H torsion
[ 10763 10752 10751 10750 ] final  178.33 input  -60.55 | X-H torsion
[ 11005 11000 10999 10996 ] final  122.91 input  -57.11 | X-H torsion

> <Gold.Protein.ActiveResidues>
 VAL166  LYS551  ARG553  GLY616  TRP617  ASP618  TYR619  PRO620  LYS621  CYS622 
 ASP623  PHE694  ASN695  SER759  ASP760  ASP761  ALA762  ILE779  LEU786  VAL792 
 PHE793  MET794  SER795  GLU796  ALA797  LYS798  CYS799  TRP800  GLU811  SER814 

> <Gold.Protein.RotatedAtoms>
  152.2391  133.5121  159.5259 H   0  0  0  0  0  0  0  0  0  0  0  0  # atno 6907 bound_to 6896
  150.7059  134.1113  159.4010 H   0  0  0  0  0  0  0  0  0  0  0  0  # atno 6908 bound_to 6896
  151.9034  135.0369  160.0559 H   0  0  0  0  0  0  0  0  0  0  0  0  # atno 6909 bound_to 6896
  145.4309  139.2311  143.3145 H   0  0  0  0  0  0  0  0  0  0  0  0  # atno 7974 bound_to 7965
  154.4668  140.0934  156.7040 H   0  0  0  0  0  0  0  0  0  0  0  0  # atno 8008 bound_to 7997
  155.4836  140.3468  155.4325 H   0  0  0  0  0  0  0  0  0  0  0  0  # atno 8009 bound_to 7997
  156.0970  140.1412  156.9507 H   0  0  0  0  0  0  0  0  0  0  0  0  # atno 8010 bound_to 7997
  139.6086  144.7076  151.2897 H   0  0  0  0  0  0  0  0  0  0  0  0  # atno 10167 bound_to 10162
  157.6173  130.9271  150.0117 H   0  0  0  0  0  0  0  0  0  0  0  0  # atno 10718 bound_to 10713
  154.5062  135.2786  155.1380 H   0  0  0  0  0  0  0  0  0  0  0  0  # atno 10763 bound_to 10752
  154.2994  135.6251  153.5422 H   0  0  0  0  0  0  0  0  0  0  0  0  # atno 10764 bound_to 10752
  152.9911  135.5693  154.5517 H   0  0  0  0  0  0  0  0  0  0  0  0  # atno 10765 bound_to 10752
  139.9289  134.9641  156.8181 H   0  0  0  0  0  0  0  0  0  0  0  0  # atno 11005 bound_to 11000
  146.2608  140.5045  142.8854 LP  0  0  0  0  0  0  0  0  0  0  0  0  # atno 17320 bound_to 7965
  144.8184  140.6507  143.6369 LP  0  0  0  0  0  0  0  0  0  0  0  0  # atno 17321 bound_to 7965
  140.7303  143.6885  150.7942 LP  0  0  0  0  0  0  0  0  0  0  0  0  # atno 17342 bound_to 10162
  140.0475  143.5283  152.2689 LP  0  0  0  0  0  0  0  0  0  0  0  0  # atno 17343 bound_to 10162
  156.1301  130.3643  149.9746 LP  0  0  0  0  0  0  0  0  0  0  0  0  # atno 17370 bound_to 10713
  156.7809  130.9221  151.3646 LP  0  0  0  0  0  0  0  0  0  0  0  0  # atno 17371 bound_to 10713
  140.6257  133.9952  155.7638 LP  0  0  0  0  0  0  0  0  0  0  0  0  # atno 17394 bound_to 11000
  141.0865  133.9982  157.3305 LP  0  0  0  0  0  0  0  0  0  0  0  0  # atno 17395 bound_to 11000

$$$$
