AV-unprocessed.smi:2045|AV-procd|sdf|8308|dock3
  -GOLD-   2272010573D 1   1.00000     0.00000
 Structure written by MMmdl.
 39 40  0  0  0  0  0  0  0  0  2 V2000
  153.3966  137.4906  157.0023 C   0  0  0  0  0  0  0  0  0  0  0  0
  152.5010  138.1630  156.0191 C   0  0  0  0  0  0  0  0  0  0  0  0
  151.4117  137.7388  155.3111 C   0  0  0  0  0  0  0  0  0  0  0  0
  151.0467  138.8910  154.5654 C   0  0  0  0  0  0  0  0  0  0  0  0
  149.9354  138.8667  153.6843 N   0  0  0  0  0  0  0  0  0  0  0  0
  148.6699  138.5195  153.9741 C   0  0  0  0  0  0  0  0  0  0  0  0
  148.2650  138.1688  155.0829 O   0  0  0  0  0  0  0  0  0  0  0  0
  147.8800  138.5956  152.8930 N   0  0  0  0  0  0  0  0  0  0  0  0
  146.4557  138.2818  152.8816 C   0  0  0  0  0  0  0  0  0  0  0  0
  146.1777  136.8874  153.4773 C   0  0  0  0  0  0  0  0  0  0  0  0
  146.1668  135.8217  152.4438 N   0  3  0  0  0  0  0  0  0  0  0  0
  146.2058  134.4613  153.0421 C   0  0  0  0  0  0  0  0  0  0  0  0
  146.3294  133.3771  151.9580 C   0  0  0  0  0  0  0  0  0  0  0  0
  145.1912  133.4891  150.9359 C   0  0  0  0  0  0  0  0  0  0  0  0
  145.1480  134.9080  150.3552 C   0  0  0  0  0  0  0  0  0  0  0  0
  145.0463  135.9585  151.4740 C   0  0  0  0  0  0  0  0  0  0  0  0
  151.8404  139.9251  154.7975 N   0  0  0  0  0  0  0  0  0  0  0  0
  152.7772  139.4635  155.7298 O   0  0  0  0  0  0  0  0  0  0  0  0
  152.9687  136.5453  157.3365 H   0  0  0  0  0  0  0  0  0  0  0  0
  153.5510  138.1195  157.8791 H   0  0  0  0  0  0  0  0  0  0  0  0
  154.3702  137.2832  156.5580 H   0  0  0  0  0  0  0  0  0  0  0  0
  150.9532  136.7612  155.3272 H   0  0  0  0  0  0  0  0  0  0  0  0
  150.1271  139.1385  152.7314 H   0  0  0  0  0  0  0  0  0  0  0  0
  148.2901  138.8974  152.0209 H   0  0  0  0  0  0  0  0  0  0  0  0
  145.9169  139.0632  153.4182 H   0  0  0  0  0  0  0  0  0  0  0  0
  146.1087  138.3202  151.8487 H   0  0  0  0  0  0  0  0  0  0  0  0
  146.9597  136.6738  154.2077 H   0  0  0  0  0  0  0  0  0  0  0  0
  145.2345  136.8711  154.0253 H   0  0  0  0  0  0  0  0  0  0  0  0
  147.0539  134.3806  153.7232 H   0  0  0  0  0  0  0  0  0  0  0  0
  145.3052  134.2986  153.6366 H   0  0  0  0  0  0  0  0  0  0  0  0
  147.2898  133.4737  151.4499 H   0  0  0  0  0  0  0  0  0  0  0  0
  146.3205  132.3883  152.4175 H   0  0  0  0  0  0  0  0  0  0  0  0
  145.3259  132.7577  150.1386 H   0  0  0  0  0  0  0  0  0  0  0  0
  144.2395  133.2574  151.4161 H   0  0  0  0  0  0  0  0  0  0  0  0
  146.0449  135.0899  149.7615 H   0  0  0  0  0  0  0  0  0  0  0  0
  144.3019  135.0051  149.6744 H   0  0  0  0  0  0  0  0  0  0  0  0
  144.0953  135.8541  151.9989 H   0  0  0  0  0  0  0  0  0  0  0  0
  145.0480  136.9508  151.0244 H   0  0  0  0  0  0  0  0  0  0  0  0
  147.0247  135.9224  151.9205 H   0  0  0  0  0  0  0  0  0  0  0  0
  1  2  1  0  0  0  0
  1 19  1  0  0  0  0
  1 20  1  0  0  0  0
  1 21  1  0  0  0  0
  2 18  1  0  0  0  0
  2  3  2  0  0  0  0
  3  4  1  0  0  0  0
  3 22  1  0  0  0  0
  4  5  1  0  0  0  0
  4 17  2  0  0  0  0
  5  6  1  0  0  0  0
  5 23  1  0  0  0  0
  6  7  2  0  0  0  0
  6  8  1  0  0  0  0
  8  9  1  0  0  0  0
  8 24  1  0  0  0  0
  9 10  1  0  0  0  0
  9 25  1  0  0  0  0
  9 26  1  0  0  0  0
 10 11  1  0  0  0  0
 10 27  1  0  0  0  0
 10 28  1  0  0  0  0
 11 16  1  0  0  0  0
 11 12  1  0  0  0  0
 11 39  1  0  0  0  0
 12 13  1  0  0  0  0
 12 29  1  0  0  0  0
 12 30  1  0  0  0  0
 13 14  1  0  0  0  0
 13 31  1  0  0  0  0
 13 32  1  0  0  0  0
 14 15  1  0  0  0  0
 14 33  1  0  0  0  0
 14 34  1  0  0  0  0
 15 16  1  0  0  0  0
 15 35  1  0  0  0  0
 15 36  1  0  0  0  0
 16 37  1  0  0  0  0
 16 38  1  0  0  0  0
 17 18  1  0  0  0  0
M  CHG  1  11   1
M  END
> <s_m_source_file>
AV-unprocessed.smi

> <i_m_source_file_index>
2045

> <i_lp_mmshare_version>
43012

> <i_f3d_flags>
0

> <s_epik_input>
W0NIM11jMVtjSF1jKG5vMSlbTkhdQyg9TylbTkhdW0NIMl1bQ0gyXU4yW0NIMl1bQ0gyXVtDSDJdW0NIMl1bQ0gyXTI=

> <s_epik_cmdline>
J2VwaWtfcHl0aG9uJywgJy1waCcsICc3LjAnLCAnLXRuJywgJzgnLCAnLW1hJywgJzIwMCcsICctbWV0YWxfYmluZGluZycsICctaW1hZScsICc8aW5maWxlLm1hZT4nLCAnLW9tYWUnLCAnPG91dGZpbGUubWFlPic=

> <r_epik_Ionization_Penalty>
0.00265971

> <r_epik_Ionization_Penalty_Charging>
0.00262393

> <r_epik_Ionization_Penalty_Neutral>
3.57846e-05

> <r_epik_State_Penalty>
0.00182566

> <r_epik_Charging_Adjusted_Penalty>
0.00444959

> <i_epik_Tot_Q>
1

> <i_epik_Tot_abs_Q>
1

> <r_epik_Metal_State_Penalty>
0.0216344

> <b_epik_Metal_Only>
0

> <s_lp_Force_Field>
OPLS_2005

> <r_lp_Energy>
12.4185

> <b_lp_Chiralities_Consistent>
1

> <s_lp_Variant>
AV-unprocessed.smi:2045-1

> <Gold.Version>
5.8.1

> <Gold.Id.Protein>
6NUR|6NUR_protein|mol2

> <Gold.PLP.Fitness>
44.6034

> <Gold.PLP.PLP>
-28.4239

> <Gold.PLP.part.hbond>
-5.8718

> <Gold.PLP.part.metal>
0.0000

> <Gold.PLP.part.buried>
-2.0177

> <Gold.PLP.part.nonpolar>
-20.2928

> <Gold.PLP.part.repulsive>
0.3204

> <Gold.PLP.ligand.clash>
0.0000

> <Gold.PLP.ligand.torsion>
0.7842

> <Gold.PLP.Chemscore.Hbond>
5.9040

> <Gold.PLP.Chemscore.CHOScore>
0.0000

> <Gold.PLP.Chemscore.Metal>
0.0000

> <Gold.Chemscore.Hbonds>
donor molecule, donor type, donor heavy atom, donor atom, acceptor molecule, acceptor atom, score
      L1  H     5    23       P1  7957  1.00
      L1  H     8    24       P1  7957  0.96
      L1  H    11    39       P1  7948  2.00
      P1  H  7989  7998       L1    17  0.96
      P1  H  7997  8009       L1    18  1.00

> <Gold.PLP.Chemscore.Internal.Correction>
0.0359

> <Gold.Rescore>
     Score         DG    S(hbond)    S(metal)    S(lipo)     H(rot)  DE(clash)    DE(int)     intcor
     18.51     -22.28       4.28        0.00      55.96       1.58       1.85       1.92       ----

> <Gold.Chemscore.Fitness>
18.5088

> <Gold.Chemscore.DG>
-22.2757

> <Gold.Chemscore.ZeroCoef>
-5.4800

> <Gold.Chemscore.Hbond>
4.2820

> <Gold.Chemscore.Metal>
0.0000

> <Gold.Chemscore.Lipo>
55.9579

> <Gold.Chemscore.Internal_Hbond>
0.0000

> <Gold.Chemscore.DEClash>
1.8466

> <Gold.Chemscore.DEInternal>
1.9204

> <Gold.Chemscore.Rot>
1.5833

> <Gold.Chemscore.Internal.Correction>
   9.000000E+99

> <Gold.Chemscore.Hbonds>
donor molecule, donor type, donor heavy atom, donor atom, acceptor molecule, acceptor atom, score
      L1  H     5    23       P1  7957  0.71
      L1  H     8    24       P1  7957  0.88
      L1  H    11    39       P1  7948  0.96
      P1  H  7989  7998       L1    17  0.46
      P1  H  7997  8009       L1    18  0.89

> <Gold.Chemscore.Hbond.Weighted>
-14.3019

> <Gold.Chemscore.Metal.Weighted>
-0.0000

> <Gold.Chemscore.Lipo.Weighted>
-6.5471

> <Gold.Chemscore.Internal_Hbond.Weighted>
0.0000

> <Gold.Chemscore.DEClash.Weighted>
1.8466

> <Gold.Chemscore.DEInternal.Weighted>
1.9204

> <Gold.Chemscore.Rot.Weighted>
4.0532

> <Gold.Chemscore.Internal.Correction.Weighted>
   9.000000E+99

> <Gold.Protein.RotatedTorsions>
[ 6907 6896 6895 6894 ] final  -28.83 input  -60.11 | X-H torsion
[ 7974 7965 7964 7962 ] final   -1.82 input  175.53 | X-H torsion
[ 8008 7997 7996 7995 ] final -170.04 input   59.86 | X-H torsion
[ 10167 10162 10161 10158 ] final  -81.63 input  -65.29 | X-H torsion
[ 10718 10713 10712 10709 ] final -166.22 input   66.30 | X-H torsion
[ 10763 10752 10751 10750 ] final   75.44 input  -60.55 | X-H torsion
[ 11005 11000 10999 10996 ] final -149.66 input  -57.11 | X-H torsion

> <Gold.Protein.ActiveResidues>
 VAL166  LYS551  ARG553  GLY616  TRP617  ASP618  TYR619  PRO620  LYS621  CYS622 
 ASP623  PHE694  ASN695  SER759  ASP760  ASP761  ALA762  ILE779  LEU786  VAL792 
 PHE793  MET794  SER795  GLU796  ALA797  LYS798  CYS799  TRP800  GLU811  SER814 

> <Gold.Protein.RotatedAtoms>
  151.1276  135.0113  159.8567 H   0  0  0  0  0  0  0  0  0  0  0  0  # atno 6907 bound_to 6896
  152.5450  134.1648  159.8583 H   0  0  0  0  0  0  0  0  0  0  0  0  # atno 6908 bound_to 6896
  151.1712  133.4738  159.2627 H   0  0  0  0  0  0  0  0  0  0  0  0  # atno 6909 bound_to 6896
  146.2412  140.1478  142.8334 H   0  0  0  0  0  0  0  0  0  0  0  0  # atno 7974 bound_to 7965
  155.9130  140.1061  157.1265 H   0  0  0  0  0  0  0  0  0  0  0  0  # atno 8008 bound_to 7997
  154.4042  140.1270  156.4647 H   0  0  0  0  0  0  0  0  0  0  0  0  # atno 8009 bound_to 7997
  155.7287  140.3469  155.5051 H   0  0  0  0  0  0  0  0  0  0  0  0  # atno 8010 bound_to 7997
  140.4394  143.2520  151.8647 H   0  0  0  0  0  0  0  0  0  0  0  0  # atno 10167 bound_to 10162
  156.6647  130.9060  151.3034 H   0  0  0  0  0  0  0  0  0  0  0  0  # atno 10718 bound_to 10713
  153.0655  135.4988  154.8190 H   0  0  0  0  0  0  0  0  0  0  0  0  # atno 10763 bound_to 10752
  154.6947  135.2990  154.9431 H   0  0  0  0  0  0  0  0  0  0  0  0  # atno 10764 bound_to 10752
  154.0175  135.6746  153.4822 H   0  0  0  0  0  0  0  0  0  0  0  0  # atno 10765 bound_to 10752
  140.7484  134.3434  157.5131 H   0  0  0  0  0  0  0  0  0  0  0  0  # atno 11005 bound_to 11000
  145.0192  140.8780  143.5177 LP  0  0  0  0  0  0  0  0  0  0  0  0  # atno 17320 bound_to 7965
  145.1524  139.2506  143.5434 LP  0  0  0  0  0  0  0  0  0  0  0  0  # atno 17321 bound_to 7965
  139.4789  144.5246  151.8753 LP  0  0  0  0  0  0  0  0  0  0  0  0  # atno 17342 bound_to 10162
  140.4336  144.2082  150.5888 LP  0  0  0  0  0  0  0  0  0  0  0  0  # atno 17343 bound_to 10162
  157.7098  130.9427  150.1050 LP  0  0  0  0  0  0  0  0  0  0  0  0  # atno 17370 bound_to 10713
  156.1984  130.3659  149.8819 LP  0  0  0  0  0  0  0  0  0  0  0  0  # atno 17371 bound_to 10713
  139.8792  134.9126  156.3064 LP  0  0  0  0  0  0  0  0  0  0  0  0  # atno 17394 bound_to 11000
  140.9773  133.7289  156.0621 LP  0  0  0  0  0  0  0  0  0  0  0  0  # atno 17395 bound_to 11000

$$$$
