#       Name:                AV-unprocessed.smi:1971
#       Creating user name   scv26
#       Creation time:       Fri Mar 27 10:14:48 2020


#       File generated by GOLD software.
#

@<TRIPOS>MOLECULE
AV-unprocessed.smi:1971
    48    49     1
SMALL
NO_CHARGES


@<TRIPOS>ATOM
      1 ****        -5.5627   1.8431   2.4785 C.3            1 S1                 0.0000
      2 ****        -4.9188   0.4719   2.2288 C.3            1 S1                 0.0000
      3 ****        -3.4722   0.5004   2.0228 N.3            1 S1                 0.0000
      4 ****        -3.0971   1.1531   0.7693 C.3            1 S1                 0.0000
      5 ****        -1.5698   1.1695   0.5702 C.3            1 S1                 0.0000
      6 ****        -0.9863  -0.1811   0.5600 N.3            1 S1                 0.0000
      7 ****         0.4850  -0.1690   0.3773 C.3            1 S1                 0.0000
      8 ****         1.1008  -1.5913   0.4041 C.3            1 S1                 0.0000
      9 ****         0.9373   0.5580  -0.9216 C.3            1 S1                 0.0000
     10 ****         2.3913   0.6387  -1.0535 N.am           1 S1                 0.0000
     11 ****         3.1510  -0.0047  -1.9523 C.2            1 S1                 0.0000
     12 ****         2.6286  -0.7489  -2.7853 O.2            1 S1                 0.0000
     13 ****         4.4737   0.2462  -1.8213 N.pl3          1 S1                -1.0000
     14 ****         5.3566  -0.3575  -2.6333 C.2            1 S1                 0.0000
     15 ****         5.9334   0.2596  -3.6708 N.2            1 S1                 0.0000
     16 ****         6.8245  -0.5530  -4.3741 C.2            1 S1                 0.0000
     17 ****         6.9357  -1.8155  -3.8547 C.2            1 S1                 0.0000
     18 ****         5.9196  -2.0224  -2.4571 S.3            1 S1                 0.0000
     19 ****        -1.3933  -0.8400   1.8111 C.3            1 S1                 0.0000
     20 ****        -2.9208  -0.8509   2.0011 C.3            1 S1                 0.0000
     21 ****        -6.6174   1.7299   2.7298 H              1 S1                 0.0000
     22 ****        -5.5070   2.4859   1.6004 H              1 S1                 0.0000
     23 ****        -5.0789   2.3593   3.3080 H              1 S1                 0.0000
     24 ****        -5.1373  -0.1529   3.0958 H              1 S1                 0.0000
     25 ****        -5.4062  -0.0115   1.3809 H              1 S1                 0.0000
     26 ****        -3.5707   0.6478  -0.0738 H              1 S1                 0.0000
     27 ****        -3.4562   2.1816   0.7584 H              1 S1                 0.0000
     28 ****        -1.3856   1.6743  -0.3757 H              1 S1                 0.0000
     29 ****        -1.1027   1.7739   1.3494 H              1 S1                 0.0000
     30 ****         0.9211   0.3795   1.2137 H              1 S1                 0.0000
     31 ****         2.1789  -1.5791   0.2516 H              1 S1                 0.0000
     32 ****         0.6674  -2.2234  -0.3716 H              1 S1                 0.0000
     33 ****         0.9630  -2.0881   1.3628 H              1 S1                 0.0000
     34 ****         0.4773   0.0912  -1.7940 H              1 S1                 0.0000
     35 ****         0.6111   1.5960  -0.9252 H              1 S1                 0.0000
     36 ****         2.8704   1.2341  -0.3942 H              1 S1                 0.0000
     37 ****         7.3380  -0.1496  -5.2341 H              1 S1                 0.0000
     38 ****         7.5501  -2.6310  -4.2049 H              1 S1                 0.0000
     39 ****        -1.0698  -1.8789   1.8209 H              1 S1                 0.0000
     40 ****        -0.9190  -0.3515   2.6637 H              1 S1                 0.0000
     41 ****        -3.1586  -1.3599   2.9359 H              1 S1                 0.0000
     42 ****        -3.3849  -1.4334   1.2033 H              1 S1                 0.0000
     43 ****        -3.0995   1.0234   2.7893 LP             1 S1                 0.0000
     44 ****        -1.3286  -0.6941  -0.2272 LP             1 S1                 0.0000
     45 ****         1.6365  -0.8738  -2.7917 LP             1 S1                 0.0000
     46 ****         3.1971  -1.2275  -3.4544 LP             1 S1                 0.0000
     47 ****         4.7944   0.8819  -1.1191 LP             1 S1                 0.0000
     48 ****         5.7447   1.2099  -3.9183 LP             1 S1                 0.0000
@<TRIPOS>BOND
    1    1    2 1     
    2    1   21 1     
    3    1   22 1     
    4    1   23 1     
    5    2    3 1     
    6    2   24 1     
    7    2   25 1     
    8    3   20 1     
    9    3    4 1     
   10    4    5 1     
   11    4   26 1     
   12    4   27 1     
   13    5    6 1     
   14    5   28 1     
   15    5   29 1     
   16    6    7 1     
   17    6   19 1     
   18    7    8 1     
   19    7    9 1     
   20    7   30 1     
   21    8   31 1     
   22    8   32 1     
   23    8   33 1     
   24    9   10 1     
   25    9   34 1     
   26    9   35 1     
   27   10   11 am    
   28   10   36 1     
   29   11   12 2     
   30   11   13 1     
   31   13   14 1     
   32   14   18 1     
   33   14   15 2     
   34   15   16 1     
   35   16   17 2     
   36   16   37 1     
   37   17   18 1     
   38   17   38 1     
   39   19   20 1     
   40   19   39 1     
   41   19   40 1     
   42   20   41 1     
   43   20   42 1     
   44    3   43 1     
   45    6   44 1     
   46   12   45 1     
   47   12   46 1     
   48   13   47 1     
   49   15   48 1     
@<TRIPOS>SUBSTRUCTURE
      1 S1             1
@<TRIPOS>SET
LONE_PAIRS      STATIC     ATOMS    <user>   **** ""
6 43 44 45 46 47 48
DONOR_HYDROGENS      STATIC     ATOMS    <user>   **** ""
1 36
ATOM$BLUE        STATIC     ATOMS    COLORGROUP SYSTEM
6 43 44 45 46 47 48
ATOM$RED        STATIC     ATOMS    COLORGROUP SYSTEM
1 36
