AV-unprocessed.smi:160|AV-procd|sdf|1352|dock3
  -GOLD-   2262019 53D 1   1.00000     0.00000
 Structure written by MMmdl.
 29 30  0  0  0  0  0  0  0  0  1 V2000
  138.6696  137.4471  153.4741 N   0  0  0  0  0  0  0  0  0  0  0  0
  139.5945  136.8724  154.2500 C   0  0  0  0  0  0  0  0  0  0  0  0
  139.3189  136.3621  155.3346 O   0  0  0  0  0  0  0  0  0  0  0  0
  141.0020  136.8763  153.7202 C   0  0  0  0  0  0  0  0  0  0  0  0
  141.5043  137.9615  153.0606 N   0  0  0  0  0  0  0  0  0  0  0  0
  142.7201  137.5007  152.7965 C   0  0  0  0  0  0  0  0  0  0  0  0
  142.9523  136.2667  153.2612 N   0  0  0  0  0  0  0  0  0  0  0  0
  144.1508  135.3738  153.1425 C   0  0  1  0  0  0  0  0  0  0  0  0
  143.7916  134.2440  152.4110 O   0  0  0  0  0  0  0  0  0  0  0  0
  143.9824  134.5066  151.0271 C   0  0  2  0  0  0  0  0  0  0  0  0
  144.0646  133.1850  150.2483 C   0  0  0  0  0  0  0  0  0  0  0  0
  142.7842  132.5988  150.1502 O   0  0  0  0  0  0  0  0  0  0  0  0
  145.2938  135.3015  151.0238 C   0  0  1  0  0  0  0  0  0  0  0  0
  145.3148  136.1973  149.9307 O   0  0  0  0  0  0  0  0  0  0  0  0
  145.2719  136.0693  152.3472 C   0  0  2  0  0  0  0  0  0  0  0  0
  146.5170  135.9588  153.0063 O   0  0  0  0  0  0  0  0  0  0  0  0
  141.8153  135.8271  153.8561 N   0  0  0  0  0  0  0  0  0  0  0  0
  144.4038  135.1266  154.1746 H   0  0  0  0  0  0  0  0  0  0  0  0
  143.1668  135.1297  150.6541 H   0  0  0  0  0  0  0  0  0  0  0  0
  146.1487  134.6246  150.9763 H   0  0  0  0  0  0  0  0  0  0  0  0
  145.0394  137.1256  152.2037 H   0  0  0  0  0  0  0  0  0  0  0  0
  137.7065  137.4748  153.7749 H   0  0  0  0  0  0  0  0  0  0  0  0
  138.9425  137.8495  152.5892 H   0  0  0  0  0  0  0  0  0  0  0  0
  143.4540  138.0758  152.2509 H   0  0  0  0  0  0  0  0  0  0  0  0
  144.4168  133.3709  149.2333 H   0  0  0  0  0  0  0  0  0  0  0  0
  144.7663  132.4920  150.7136 H   0  0  0  0  0  0  0  0  0  0  0  0
  142.8732  131.6635  150.2529 H   0  0  0  0  0  0  0  0  0  0  0  0
  145.4093  135.6954  149.1356 H   0  0  0  0  0  0  0  0  0  0  0  0
  147.2026  135.9716  152.3560 H   0  0  0  0  0  0  0  0  0  0  0  0
  1  2  1  0  0  0  0
  1 22  1  0  0  0  0
  1 23  1  0  0  0  0
  2  3  2  0  0  0  0
  2  4  1  0  0  0  0
  4 17  2  0  0  0  0
  4  5  1  0  0  0  0
  5  6  2  0  0  0  0
  6  7  1  0  0  0  0
  6 24  1  0  0  0  0
  7  8  1  0  0  0  0
  7 17  1  0  0  0  0
  8 18  1  0  0  0  0
  8 15  1  0  0  0  0
  8  9  1  0  0  0  0
  9 10  1  0  0  0  0
 10 19  1  0  0  0  0
 10 11  1  0  0  0  0
 10 13  1  0  0  0  0
 11 12  1  0  0  0  0
 11 25  1  0  0  0  0
 11 26  1  0  0  0  0
 12 27  1  0  0  0  0
 13 20  1  0  0  0  0
 13 14  1  0  0  0  0
 13 15  1  0  0  0  0
 14 28  1  0  0  0  0
 15 21  1  0  0  0  0
 15 16  1  0  0  0  0
 16 29  1  0  0  0  0
M  END
> <s_m_source_file>
AV-unprocessed.smi

> <i_m_source_file_index>
160

> <i_lp_mmshare_version>
43012

> <i_f3d_flags>
0

> <s_epik_input>
W05IMl1DKD1PKWMxbltjSF1uKG4xKVtDQEBIXTJPW0NASF0oW0NIMl1bT0hdKVtDQEBIXShbT0hdKVtDQEhdMltPSF0=

> <s_epik_cmdline>
J2VwaWtfcHl0aG9uJywgJy1waCcsICc3LjAnLCAnLXRuJywgJzgnLCAnLW1hJywgJzIwMCcsICctbWV0YWxfYmluZGluZycsICctaW1hZScsICc8aW5maWxlLm1hZT4nLCAnLW9tYWUnLCAnPG91dGZpbGUubWFlPic=

> <r_lp_tautomer_probability>
1

> <r_epik_Ionization_Penalty>
1.06932e-05

> <r_epik_Ionization_Penalty_Charging>
0

> <r_epik_Ionization_Penalty_Neutral>
1.06932e-05

> <r_epik_State_Penalty>
-0

> <r_epik_Charging_Adjusted_Penalty>
0

> <i_epik_Tot_Q>
0

> <i_epik_Tot_abs_Q>
0

> <r_epik_Metal_State_Penalty>
0.0142097

> <b_epik_Metal_Only>
0

> <s_epik_Chemistry_Notes>
This compound contains an acetal/aminal-like group ( X-CH(R)-Y where X, Y are N, S, or O) that may be acid/base labile, releasing an aldehyde.

> <s_lp_Force_Field>
OPLS_2005

> <r_lp_Energy>
33.6029

> <b_lp_Chiralities_Consistent>
1

> <s_lp_Variant>
AV-unprocessed.smi:160-10

> <Gold.Version>
5.8.1

> <Gold.Id.Protein>
6NUR|6NUR_protein|mol2

> <Gold.PLP.Fitness>
41.4237

> <Gold.PLP.PLP>
-28.1145

> <Gold.PLP.part.hbond>
-5.8846

> <Gold.PLP.part.metal>
0.0000

> <Gold.PLP.part.buried>
-7.1876

> <Gold.PLP.part.nonpolar>
-16.1795

> <Gold.PLP.part.repulsive>
0.6178

> <Gold.PLP.ligand.clash>
0.0000

> <Gold.PLP.ligand.torsion>
0.6809

> <Gold.PLP.Chemscore.Hbond>
3.0000

> <Gold.PLP.Chemscore.CHOScore>
1.8749

> <Gold.PLP.Chemscore.Metal>
0.0000

> <Gold.Chemscore.Hbonds>
donor molecule, donor type, donor heavy atom, donor atom, acceptor molecule, acceptor atom, score
      L1  H    14    28       P1  7921  1.00
      L1  H    16    29       P1  7948  1.00
      P1  H 11000 11005       L1     3  1.00
      L1  C     6    24       P1 10171  1.00
      L1  C     6    24       P1 10175  0.85

> <Gold.PLP.Chemscore.Internal.Correction>
0.0464

> <Gold.Rescore>
     Score         DG    S(hbond)    S(metal)    S(lipo)     H(rot)  DE(clash)    DE(int)     intcor
     10.04     -10.45       3.76        0.00      24.10       4.06       0.09       0.32       ----

> <Gold.Chemscore.Fitness>
10.0450

> <Gold.Chemscore.DG>
-10.4534

> <Gold.Chemscore.ZeroCoef>
-5.4800

> <Gold.Chemscore.Hbond>
3.7568

> <Gold.Chemscore.Metal>
0.0000

> <Gold.Chemscore.Lipo>
24.0975

> <Gold.Chemscore.Internal_Hbond>
0.0000

> <Gold.Chemscore.DEClash>
0.0865

> <Gold.Chemscore.DEInternal>
0.3219

> <Gold.Chemscore.Rot>
4.0600

> <Gold.Chemscore.Internal.Correction>
   9.000000E+99

> <Gold.Chemscore.Hbonds>
donor molecule, donor type, donor heavy atom, donor atom, acceptor molecule, acceptor atom, score
      L1  H    14    28       P1  7921  1.00
      L1  H    16    29       P1  7948  0.97
      P1  H 11000 11005       L1     3  1.00

> <Gold.Chemscore.Hbond.Weighted>
-12.5476

> <Gold.Chemscore.Metal.Weighted>
-0.0000

> <Gold.Chemscore.Lipo.Weighted>
-2.8194

> <Gold.Chemscore.Internal_Hbond.Weighted>
0.0000

> <Gold.Chemscore.DEClash.Weighted>
0.0865

> <Gold.Chemscore.DEInternal.Weighted>
0.3219

> <Gold.Chemscore.Rot.Weighted>
10.3936

> <Gold.Chemscore.Internal.Correction.Weighted>
   9.000000E+99

> <Gold.Protein.RotatedTorsions>
[ 6907 6896 6895 6894 ] final   57.83 input  -60.11 | X-H torsion
[ 7974 7965 7964 7962 ] final  172.93 input  175.53 | X-H torsion
[ 8008 7997 7996 7995 ] final -138.61 input   59.86 | X-H torsion
[ 10167 10162 10161 10158 ] final -114.30 input  -65.29 | X-H torsion
[ 10718 10713 10712 10709 ] final -147.76 input   66.30 | X-H torsion
[ 10763 10752 10751 10750 ] final   55.18 input  -60.55 | X-H torsion
[ 11005 11000 10999 10996 ] final   93.44 input  -57.11 | X-H torsion

> <Gold.Protein.ActiveResidues>
 VAL166  LYS551  ARG553  GLY616  TRP617  ASP618  TYR619  PRO620  LYS621  CYS622 
 ASP623  PHE694  ASN695  SER759  ASP760  ASP761  ALA762  ILE779  LEU786  VAL792 
 PHE793  MET794  SER795  GLU796  ALA797  LYS798  CYS799  TRP800  GLU811  SER814 

> <Gold.Protein.RotatedAtoms>
  152.3768  134.6652  160.0156 H   0  0  0  0  0  0  0  0  0  0  0  0  # atno 6907 bound_to 6896
  151.6927  133.3305  159.3255 H   0  0  0  0  0  0  0  0  0  0  0  0  # atno 6908 bound_to 6896
  150.7716  134.6620  159.6389 H   0  0  0  0  0  0  0  0  0  0  0  0  # atno 6909 bound_to 6896
  144.7256  139.9572  143.6434 H   0  0  0  0  0  0  0  0  0  0  0  0  # atno 7974 bound_to 7965
  155.4312  140.0525  157.3018 H   0  0  0  0  0  0  0  0  0  0  0  0  # atno 8008 bound_to 7997
  154.4859  140.2100  155.9615 H   0  0  0  0  0  0  0  0  0  0  0  0  # atno 8009 bound_to 7997
  156.1274  140.3178  155.8302 H   0  0  0  0  0  0  0  0  0  0  0  0  # atno 8010 bound_to 7997
  140.1025  143.4600  152.1803 H   0  0  0  0  0  0  0  0  0  0  0  0  # atno 10167 bound_to 10162
  156.4117  130.7985  151.2202 H   0  0  0  0  0  0  0  0  0  0  0  0  # atno 10718 bound_to 10713
  152.9813  135.5719  154.5024 H   0  0  0  0  0  0  0  0  0  0  0  0  # atno 10763 bound_to 10752
  154.4542  135.2779  155.1762 H   0  0  0  0  0  0  0  0  0  0  0  0  # atno 10764 bound_to 10752
  154.3377  135.6236  153.5635 H   0  0  0  0  0  0  0  0  0  0  0  0  # atno 10765 bound_to 10752
  139.8810  134.8790  156.3718 H   0  0  0  0  0  0  0  0  0  0  0  0  # atno 11005 bound_to 11000
  146.0665  139.3656  143.0549 LP  0  0  0  0  0  0  0  0  0  0  0  0  # atno 17320 bound_to 7965
  145.8024  140.9765  143.0992 LP  0  0  0  0  0  0  0  0  0  0  0  0  # atno 17321 bound_to 7965
  139.5663  144.7437  151.4012 LP  0  0  0  0  0  0  0  0  0  0  0  0  # atno 17342 bound_to 10162
  140.6970  143.7725  150.7342 LP  0  0  0  0  0  0  0  0  0  0  0  0  # atno 17343 bound_to 10162
  157.7507  131.0255  150.3924 LP  0  0  0  0  0  0  0  0  0  0  0  0  # atno 17370 bound_to 10713
  156.4224  130.3955  149.6816 LP  0  0  0  0  0  0  0  0  0  0  0  0  # atno 17371 bound_to 10713
  140.9459  133.7483  156.0207 LP  0  0  0  0  0  0  0  0  0  0  0  0  # atno 17394 bound_to 11000
  140.8164  134.3340  157.5396 LP  0  0  0  0  0  0  0  0  0  0  0  0  # atno 17395 bound_to 11000

$$$$
