AV-unprocessed.smi:1487|AV-procd|sdf|6015|dock8
  -GOLD-   22720 6113D 1   1.00000     0.00000
 Structure written by MMmdl.
 49 51  0  0  0  0  0  0  0  0  3 V2000
  152.1339  144.7218  160.1323 C   0  0  0  0  0  0  0  0  0  0  0  0
  151.9357  143.5323  159.2079 C   0  0  0  0  0  0  0  0  0  0  0  0
  151.1635  143.7085  158.0377 C   0  0  0  0  0  0  0  0  0  0  0  0
  151.0023  142.6026  157.2114 C   0  0  0  0  0  0  0  0  0  0  0  0
  150.3120  142.4564  156.0067 N   0  3  0  0  0  0  0  0  0  0  0  0
  150.4374  141.1752  155.5632 C   0  0  0  0  0  0  0  0  0  0  0  0
  151.2019  140.5008  156.4649 N   0  0  0  0  0  0  0  0  0  0  0  0
  151.6221  139.0921  156.4641 C   0  0  0  0  0  0  0  0  0  0  0  0
  152.2215  138.6372  155.1179 C   0  0  2  0  0  0  0  0  0  0  0  0
  153.0886  139.6646  154.6818 O   0  0  0  0  0  0  0  0  0  0  0  0
  151.1588  138.3692  154.0276 C   0  0  0  0  0  0  0  0  0  0  0  0
  150.2801  137.2097  154.3314 N   0  3  1  0  0  0  0  0  0  0  0  0
  151.0256  135.9933  154.7560 C   0  0  0  0  0  0  0  0  0  0  0  0
  150.0778  134.7952  154.9366 C   0  0  0  0  0  0  0  0  0  0  0  0
  148.9617  135.1220  155.9364 C   0  0  0  0  0  0  0  0  0  0  0  0
  148.2259  136.3950  155.4946 C   0  0  1  0  0  0  0  0  0  0  0  0
  147.2684  136.7481  156.4693 O   0  0  0  0  0  0  0  0  0  0  0  0
  149.2128  137.5612  155.3044 C   0  0  0  0  0  0  0  0  0  0  0  0
  151.5741  141.3512  157.5144 C   0  0  0  0  0  0  0  0  0  0  0  0
  152.3360  141.1610  158.6656 C   0  0  0  0  0  0  0  0  0  0  0  0
  152.5146  142.2746  159.5172 C   0  0  0  0  0  0  0  0  0  0  0  0
  153.3448  142.0969  160.7774 C   0  0  0  0  0  0  0  0  0  0  0  0
  151.6423  145.6149  159.7454 H   0  0  0  0  0  0  0  0  0  0  0  0
  153.1946  144.9483  160.2439 H   0  0  0  0  0  0  0  0  0  0  0  0
  151.7182  144.5135  161.1185 H   0  0  0  0  0  0  0  0  0  0  0  0
  150.7181  144.6628  157.7967 H   0  0  0  0  0  0  0  0  0  0  0  0
  150.0040  140.7673  154.6612 H   0  0  0  0  0  0  0  0  0  0  0  0
  152.3180  138.9207  157.2854 H   0  0  0  0  0  0  0  0  0  0  0  0
  150.7356  138.4987  156.6924 H   0  0  0  0  0  0  0  0  0  0  0  0
  152.8196  137.7449  155.2998 H   0  0  0  0  0  0  0  0  0  0  0  0
  152.8616  139.9059  153.7967 H   0  0  0  0  0  0  0  0  0  0  0  0
  150.5319  139.2476  153.8711 H   0  0  0  0  0  0  0  0  0  0  0  0
  151.6781  138.1929  153.0841 H   0  0  0  0  0  0  0  0  0  0  0  0
  151.7810  135.7300  154.0173 H   0  0  0  0  0  0  0  0  0  0  0  0
  151.5541  136.1960  155.6888 H   0  0  0  0  0  0  0  0  0  0  0  0
  149.6410  134.5244  153.9744 H   0  0  0  0  0  0  0  0  0  0  0  0
  150.6383  133.9244  155.2776 H   0  0  0  0  0  0  0  0  0  0  0  0
  148.2663  134.2847  156.0099 H   0  0  0  0  0  0  0  0  0  0  0  0
  149.3911  135.2615  156.9299 H   0  0  0  0  0  0  0  0  0  0  0  0
  147.7006  136.2067  154.5572 H   0  0  0  0  0  0  0  0  0  0  0  0
  146.9990  135.9660  156.9268 H   0  0  0  0  0  0  0  0  0  0  0  0
  149.6692  137.8341  156.2579 H   0  0  0  0  0  0  0  0  0  0  0  0
  148.6678  138.4379  154.9511 H   0  0  0  0  0  0  0  0  0  0  0  0
  152.7780  140.2059  158.9071 H   0  0  0  0  0  0  0  0  0  0  0  0
  153.7088  141.0737  160.8753 H   0  0  0  0  0  0  0  0  0  0  0  0
  152.7515  142.3249  161.6631 H   0  0  0  0  0  0  0  0  0  0  0  0
  154.2114  142.7582  160.7608 H   0  0  0  0  0  0  0  0  0  0  0  0
  149.8050  136.9803  153.4704 H   0  0  0  0  0  0  0  0  0  0  0  0
  149.7877  143.1751  155.5237 H   0  0  0  0  0  0  0  0  0  0  0  0
  1  2  1  0  0  0  0
  1 23  1  0  0  0  0
  1 24  1  0  0  0  0
  1 25  1  0  0  0  0
  2 21  1  0  0  0  0
  2  3  2  0  0  0  0
  3  4  1  0  0  0  0
  3 26  1  0  0  0  0
  4 19  2  0  0  0  0
  4  5  1  0  0  0  0
  5  6  2  0  0  0  0
  5 49  1  0  0  0  0
  6  7  1  0  0  0  0
  6 27  1  0  0  0  0
  7  8  1  0  0  0  0
  7 19  1  0  0  0  0
  8  9  1  0  0  0  0
  8 28  1  0  0  0  0
  8 29  1  0  0  0  0
  9 10  1  0  0  0  0
  9 11  1  0  0  0  0
  9 30  1  0  0  0  0
 10 31  1  0  0  0  0
 11 12  1  0  0  0  0
 11 32  1  0  0  0  0
 11 33  1  0  0  0  0
 12 18  1  0  0  0  0
 12 13  1  0  0  0  0
 12 48  1  0  0  0  0
 13 14  1  0  0  0  0
 13 34  1  0  0  0  0
 13 35  1  0  0  0  0
 14 15  1  0  0  0  0
 14 36  1  0  0  0  0
 14 37  1  0  0  0  0
 15 16  1  0  0  0  0
 15 38  1  0  0  0  0
 15 39  1  0  0  0  0
 16 17  1  0  0  0  0
 16 18  1  0  0  0  0
 16 40  1  0  0  0  0
 17 41  1  0  0  0  0
 18 42  1  0  0  0  0
 18 43  1  0  0  0  0
 19 20  1  0  0  0  0
 20 21  2  0  0  0  0
 20 44  1  0  0  0  0
 21 22  1  0  0  0  0
 22 45  1  0  0  0  0
 22 46  1  0  0  0  0
 22 47  1  0  0  0  0
M  CHG  1   5   1
M  CHG  1  12   1
M  END
> <s_m_source_file>
AV-unprocessed.smi

> <i_m_source_file_index>
1487

> <i_lp_mmshare_version>
43012

> <i_f3d_flags>
0

> <s_epik_input>
W0NIM11jKFtjSF0xKWMoW0NIM10pW2NIXWMoYzEyKW4oW2NIXW4yKVtDSDJdW0NASF0oW09IXSlbQ0gyXU4zW0NIMl1bQ0gyXVtDSDJdW0NAQEhdKFtPSF0pW0NIMl0z

> <s_epik_cmdline>
J2VwaWtfcHl0aG9uJywgJy1waCcsICc3LjAnLCAnLXRuJywgJzgnLCAnLW1hJywgJzIwMCcsICctbWV0YWxfYmluZGluZycsICctaW1hZScsICc8aW5maWxlLm1hZT4nLCAnLW9tYWUnLCAnPG91dGZpbGUubWFlPic=

> <r_epik_Ionization_Penalty>
1.1857

> <r_epik_Ionization_Penalty_Charging>
1.1857

> <r_epik_Ionization_Penalty_Neutral>
1.75578e-06

> <r_epik_State_Penalty>
1.26953

> <r_epik_Charging_Adjusted_Penalty>
2.45524

> <i_epik_Tot_Q>
2

> <i_epik_Tot_abs_Q>
2

> <r_epik_Metal_State_Penalty>
5.28243

> <b_epik_Metal_Only>
0

> <s_lp_Force_Field>
OPLS_2005

> <r_lp_Energy>
33.096

> <b_lp_Chiralities_Consistent>
1

> <s_lp_Variant>
AV-unprocessed.smi:1487-9

> <Gold.Version>
5.8.1

> <Gold.Id.Protein>
6NUR|6NUR_protein|mol2

> <Gold.PLP.Fitness>
60.0062

> <Gold.PLP.PLP>
-45.9008

> <Gold.PLP.part.hbond>
-4.0010

> <Gold.PLP.part.metal>
0.0000

> <Gold.PLP.part.buried>
-5.1904

> <Gold.PLP.part.nonpolar>
-36.4775

> <Gold.PLP.part.repulsive>
0.1667

> <Gold.PLP.ligand.clash>
0.0000

> <Gold.PLP.ligand.torsion>
0.3940

> <Gold.PLP.Chemscore.Hbond>
4.9520

> <Gold.PLP.Chemscore.CHOScore>
0.0000

> <Gold.PLP.Chemscore.Metal>
0.0000

> <Gold.Chemscore.Hbonds>
donor molecule, donor type, donor heavy atom, donor atom, acceptor molecule, acceptor atom, score
      L1  H     5    49       P1  8028  1.89
      L1  H    12    48       P1  7948  2.00
      P1  H  7997  8010       L1    10  1.00

> <Gold.PLP.Chemscore.Internal.Correction>
0.0374

> <Gold.Rescore>
     Score         DG    S(hbond)    S(metal)    S(lipo)     H(rot)  DE(clash)    DE(int)     intcor
     21.12     -21.58       2.83        0.00     116.86       2.74       0.01       0.45       ----

> <Gold.Chemscore.Fitness>
21.1210

> <Gold.Chemscore.DG>
-21.5808

> <Gold.Chemscore.ZeroCoef>
-5.4800

> <Gold.Chemscore.Hbond>
2.8258

> <Gold.Chemscore.Metal>
0.0000

> <Gold.Chemscore.Lipo>
116.8639

> <Gold.Chemscore.Internal_Hbond>
0.0000

> <Gold.Chemscore.DEClash>
0.0098

> <Gold.Chemscore.DEInternal>
0.4500

> <Gold.Chemscore.Rot>
2.7384

> <Gold.Chemscore.Internal.Correction>
   9.000000E+99

> <Gold.Chemscore.Hbonds>
donor molecule, donor type, donor heavy atom, donor atom, acceptor molecule, acceptor atom, score
      L1  H     5    49       P1  8028  0.91
      L1  H    12    48       P1  7948  0.50
      P1  H  7997  8010       L1    10  0.99

> <Gold.Chemscore.Hbond.Weighted>
-9.4381

> <Gold.Chemscore.Metal.Weighted>
-0.0000

> <Gold.Chemscore.Lipo.Weighted>
-13.6731

> <Gold.Chemscore.Internal_Hbond.Weighted>
0.0000

> <Gold.Chemscore.DEClash.Weighted>
0.0098

> <Gold.Chemscore.DEInternal.Weighted>
0.4500

> <Gold.Chemscore.Rot.Weighted>
7.0103

> <Gold.Chemscore.Internal.Correction.Weighted>
   9.000000E+99

> <Gold.Protein.RotatedTorsions>
[ 6907 6896 6895 6894 ] final -156.20 input  -60.11 | X-H torsion
[ 7974 7965 7964 7962 ] final -177.33 input  175.53 | X-H torsion
[ 8008 7997 7996 7995 ] final  117.64 input   59.86 | X-H torsion
[ 10167 10162 10161 10158 ] final -142.11 input  -65.29 | X-H torsion
[ 10718 10713 10712 10709 ] final    5.82 input   66.30 | X-H torsion
[ 10763 10752 10751 10750 ] final -137.25 input  -60.55 | X-H torsion
[ 11005 11000 10999 10996 ] final  -47.56 input  -57.11 | X-H torsion

> <Gold.Protein.ActiveResidues>
 VAL166  LYS551  ARG553  GLY616  TRP617  ASP618  TYR619  PRO620  LYS621  CYS622 
 ASP623  PHE694  ASN695  SER759  ASP760  ASP761  ALA762  ILE779  LEU786  VAL792 
 PHE793  MET794  SER795  GLU796  ALA797  LYS798  CYS799  TRP800  GLU811  SER814 

> <Gold.Protein.RotatedAtoms>
  151.2841  133.4196  159.2628 H   0  0  0  0  0  0  0  0  0  0  0  0  # atno 6907 bound_to 6896
  151.0335  134.9557  159.8134 H   0  0  0  0  0  0  0  0  0  0  0  0  # atno 6908 bound_to 6896
  152.5350  134.2801  159.9057 H   0  0  0  0  0  0  0  0  0  0  0  0  # atno 6909 bound_to 6896
  144.7127  140.1035  143.6415 H   0  0  0  0  0  0  0  0  0  0  0  0  # atno 7974 bound_to 7965
  156.2505  140.2892  156.0711 H   0  0  0  0  0  0  0  0  0  0  0  0  # atno 8008 bound_to 7997
  155.1670  140.0401  157.2872 H   0  0  0  0  0  0  0  0  0  0  0  0  # atno 8009 bound_to 7997
  154.6352  140.2509  155.7393 H   0  0  0  0  0  0  0  0  0  0  0  0  # atno 8010 bound_to 7997
  139.8120  143.7690  152.2664 H   0  0  0  0  0  0  0  0  0  0  0  0  # atno 10167 bound_to 10162
  156.9130  130.5763  149.5647 H   0  0  0  0  0  0  0  0  0  0  0  0  # atno 10718 bound_to 10713
  154.8666  135.3648  154.5193 H   0  0  0  0  0  0  0  0  0  0  0  0  # atno 10763 bound_to 10752
  153.5824  135.7018  153.5462 H   0  0  0  0  0  0  0  0  0  0  0  0  # atno 10764 bound_to 10752
  153.3445  135.4089  155.1560 H   0  0  0  0  0  0  0  0  0  0  0  0  # atno 10765 bound_to 10752
  141.0648  133.6697  156.3315 H   0  0  0  0  0  0  0  0  0  0  0  0  # atno 11005 bound_to 11000
  145.9517  139.2738  143.1208 LP  0  0  0  0  0  0  0  0  0  0  0  0  # atno 17320 bound_to 7965
  145.9316  140.9044  143.0353 LP  0  0  0  0  0  0  0  0  0  0  0  0  # atno 17321 bound_to 7965
  139.7842  144.7434  151.0045 LP  0  0  0  0  0  0  0  0  0  0  0  0  # atno 17342 bound_to 10162
  140.7817  143.4510  151.0413 LP  0  0  0  0  0  0  0  0  0  0  0  0  # atno 17343 bound_to 10162
  156.0527  130.5593  150.9024 LP  0  0  0  0  0  0  0  0  0  0  0  0  # atno 17370 bound_to 10713
  157.5955  131.0943  150.9047 LP  0  0  0  0  0  0  0  0  0  0  0  0  # atno 17371 bound_to 10713
  140.5795  134.5760  157.5476 LP  0  0  0  0  0  0  0  0  0  0  0  0  # atno 17394 bound_to 11000
  139.9466  134.7691  156.0547 LP  0  0  0  0  0  0  0  0  0  0  0  0  # atno 17395 bound_to 11000

$$$$
