AV-unprocessed.smi:1724|AV-procd|sdf|6951|dock9
  -GOLD-   22720 8163D 1   1.00000     0.00000
 Structure written by MMmdl.
 37 38  0  0  0  0  0  0  0  0  2 V2000
  148.8131  140.2979  155.2380 O   0  0  0  0  0  0  0  0  0  0  0  0
  148.9345  141.5212  155.2967 C   0  0  0  0  0  0  0  0  0  0  0  0
  148.1453  142.3703  154.6227 N   0  0  0  0  0  0  0  0  0  0  0  0
  147.0602  141.9907  153.7217 C   0  0  0  0  0  0  0  0  0  0  0  0
  145.7165  142.6412  154.1106 C   0  0  2  0  0  0  0  0  0  0  0  0
  145.5457  144.0640  153.5444 C   0  0  0  0  0  0  0  0  0  0  0  0
  144.2378  144.6841  154.0491 C   0  0  0  0  0  0  0  0  0  0  0  0
  144.1605  144.6035  155.5806 C   0  0  0  0  0  0  0  0  0  0  0  0
  144.2926  143.2493  155.9972 O   0  0  0  0  0  0  0  0  0  0  0  0
  145.5485  142.6787  155.6436 C   0  0  0  0  0  0  0  0  0  0  0  0
  149.8371  142.1941  156.0340 N   0  0  0  0  0  0  0  0  0  0  0  0
  150.8593  141.7095  156.8691 C   0  0  0  0  0  0  0  0  0  0  0  0
  151.1769  142.2168  158.0927 C   0  0  0  0  0  0  0  0  0  0  0  0
  152.2420  141.6594  158.9167 C   0  0  0  0  0  0  0  0  0  0  0  0
  152.6856  142.2608  160.2385 C   0  0  0  0  0  0  0  0  0  0  0  0
  153.9640  142.6360  160.1903 F   0  0  0  0  0  0  0  0  0  0  0  0
  151.9463  143.3251  160.5514 F   0  0  0  0  0  0  0  0  0  0  0  0
  152.5528  141.3620  161.2128 F   0  0  0  0  0  0  0  0  0  0  0  0
  152.8715  140.5912  158.3081 C   0  0  0  0  0  0  0  0  0  0  0  0
  152.6040  140.0126  157.1172 N   0  5  0  0  0  0  0  0  0  0  0  0
  151.6056  140.5417  156.3550 C   0  0  0  0  0  0  0  0  0  0  0  0
  151.3153  140.0677  155.2558 O   0  0  0  0  0  0  0  0  0  0  0  0
  148.3126  143.3591  154.7378 H   0  0  0  0  0  0  0  0  0  0  0  0
  147.3447  142.3155  152.7205 H   0  0  0  0  0  0  0  0  0  0  0  0
  146.9556  140.9055  153.6666 H   0  0  0  0  0  0  0  0  0  0  0  0
  144.9148  142.0205  153.7070 H   0  0  0  0  0  0  0  0  0  0  0  0
  146.3881  144.6872  153.8482 H   0  0  0  0  0  0  0  0  0  0  0  0
  145.5433  144.0513  152.4542 H   0  0  0  0  0  0  0  0  0  0  0  0
  144.1617  145.7210  153.7207 H   0  0  0  0  0  0  0  0  0  0  0  0
  143.3895  144.1545  153.6138 H   0  0  0  0  0  0  0  0  0  0  0  0
  144.9357  145.2162  156.0438 H   0  0  0  0  0  0  0  0  0  0  0  0
  143.2011  144.9874  155.9281 H   0  0  0  0  0  0  0  0  0  0  0  0
  145.5908  141.6679  156.0505 H   0  0  0  0  0  0  0  0  0  0  0  0
  146.3572  143.2415  156.1128 H   0  0  0  0  0  0  0  0  0  0  0  0
  149.7700  143.2012  156.0109 H   0  0  0  0  0  0  0  0  0  0  0  0
  150.6337  143.0483  158.5088 H   0  0  0  0  0  0  0  0  0  0  0  0
  153.7214  140.1355  158.8595 H   0  0  0  0  0  0  0  0  0  0  0  0
  1  2  2  0  0  0  0
  2  3  1  0  0  0  0
  2 11  1  0  0  0  0
  3  4  1  0  0  0  0
  3 23  1  0  0  0  0
  4  5  1  0  0  0  0
  4 24  1  0  0  0  0
  4 25  1  0  0  0  0
  5 10  1  0  0  0  0
  5  6  1  0  0  0  0
  5 26  1  0  0  0  0
  6  7  1  0  0  0  0
  6 27  1  0  0  0  0
  6 28  1  0  0  0  0
  7  8  1  0  0  0  0
  7 29  1  0  0  0  0
  7 30  1  0  0  0  0
  8  9  1  0  0  0  0
  8 31  1  0  0  0  0
  8 32  1  0  0  0  0
  9 10  1  0  0  0  0
 10 33  1  0  0  0  0
 10 34  1  0  0  0  0
 11 12  1  0  0  0  0
 11 35  1  0  0  0  0
 12 21  1  0  0  0  0
 12 13  2  0  0  0  0
 13 14  1  0  0  0  0
 13 36  1  0  0  0  0
 14 15  1  0  0  0  0
 14 19  2  0  0  0  0
 15 16  1  0  0  0  0
 15 17  1  0  0  0  0
 15 18  1  0  0  0  0
 19 20  1  0  0  0  0
 19 37  1  0  0  0  0
 20 21  1  0  0  0  0
 21 22  2  0  0  0  0
M  CHG  1  20  -1
M  END
> <s_m_source_file>
AV-unprocessed.smi

> <i_m_source_file_index>
1724

> <i_lp_mmshare_version>
43012

> <i_f3d_flags>
0

> <s_epik_input>
Tz1jMVtuSF1bY0hdYyhDKEYpKEYpRilbY0hdYzFbTkhdQyg9TylbTkhdW0NIMl1bQ0BASF0yW0NIMl1bQ0gyXVtDSDJdT1tDSDJdMg==

> <s_epik_cmdline>
J2VwaWtfcHl0aG9uJywgJy1waCcsICc3LjAnLCAnLXRuJywgJzgnLCAnLW1hJywgJzIwMCcsICctbWV0YWxfYmluZGluZycsICctaW1hZScsICc8aW5maWxlLm1hZT4nLCAnLW9tYWUnLCAnPG91dGZpbGUubWFlPic=

> <r_lp_tautomer_probability>
1

> <r_epik_Ionization_Penalty>
3.16025

> <r_epik_Ionization_Penalty_Charging>
0.171172

> <r_epik_Ionization_Penalty_Neutral>
2.98908

> <r_epik_State_Penalty>
2.98521

> <r_epik_Charging_Adjusted_Penalty>
3.15638

> <i_epik_Tot_Q>
-1

> <i_epik_Tot_abs_Q>
1

> <r_epik_Metal_State_Penalty>
0.452642

> <b_epik_Metal_Only>
1

> <s_lp_Force_Field>
OPLS_2005

> <r_lp_Energy>
24.3751

> <b_lp_Chiralities_Consistent>
1

> <s_lp_Variant>
AV-unprocessed.smi:1724-3

> <Gold.Version>
5.8.1

> <Gold.Id.Protein>
6NUR|6NUR_protein|mol2

> <Gold.PLP.Fitness>
50.6590

> <Gold.PLP.PLP>
-37.7173

> <Gold.PLP.part.hbond>
-4.0000

> <Gold.PLP.part.metal>
0.0000

> <Gold.PLP.part.buried>
-5.9717

> <Gold.PLP.part.nonpolar>
-27.4334

> <Gold.PLP.part.repulsive>
0.5046

> <Gold.PLP.ligand.clash>
0.0000

> <Gold.PLP.ligand.torsion>
0.6059

> <Gold.PLP.Chemscore.Hbond>
4.7000

> <Gold.PLP.Chemscore.CHOScore>
0.0000

> <Gold.PLP.Chemscore.Metal>
0.0000

> <Gold.Chemscore.Hbonds>
donor molecule, donor type, donor heavy atom, donor atom, acceptor molecule, acceptor atom, score
      L1  H     3    23       P1  8028  1.00
      L1  H    11    35       P1  8028  1.00
      P1  H  7989  7998       L1    22  1.00
      P1  H  7997  8009       L1    20  1.70

> <Gold.PLP.Chemscore.Internal.Correction>
0.0534

> <Gold.Rescore>
     Score         DG    S(hbond)    S(metal)    S(lipo)     H(rot)  DE(clash)    DE(int)     intcor
     17.43     -22.43       3.39        0.00      77.18       1.32       0.93       4.07       ----

> <Gold.Chemscore.Fitness>
17.4252

> <Gold.Chemscore.DG>
-22.4302

> <Gold.Chemscore.ZeroCoef>
-5.4800

> <Gold.Chemscore.Hbond>
3.3869

> <Gold.Chemscore.Metal>
0.0000

> <Gold.Chemscore.Lipo>
77.1762

> <Gold.Chemscore.Internal_Hbond>
0.0000

> <Gold.Chemscore.DEClash>
0.9336

> <Gold.Chemscore.DEInternal>
4.0715

> <Gold.Chemscore.Rot>
1.3248

> <Gold.Chemscore.Internal.Correction>
   9.000000E+99

> <Gold.Chemscore.Hbonds>
donor molecule, donor type, donor heavy atom, donor atom, acceptor molecule, acceptor atom, score
      L1  H     3    23       P1  8028  0.96
      L1  H    11    35       P1  8028  0.96
      P1  H  7989  7998       L1    22  0.97
      P1  H  7997  8009       L1    20  0.13

> <Gold.Chemscore.Hbond.Weighted>
-11.3121

> <Gold.Chemscore.Metal.Weighted>
-0.0000

> <Gold.Chemscore.Lipo.Weighted>
-9.0296

> <Gold.Chemscore.Internal_Hbond.Weighted>
0.0000

> <Gold.Chemscore.DEClash.Weighted>
0.9336

> <Gold.Chemscore.DEInternal.Weighted>
4.0715

> <Gold.Chemscore.Rot.Weighted>
3.3915

> <Gold.Chemscore.Internal.Correction.Weighted>
   9.000000E+99

> <Gold.Protein.RotatedTorsions>
[ 6907 6896 6895 6894 ] final -120.10 input  -60.11 | X-H torsion
[ 7974 7965 7964 7962 ] final  157.20 input  175.53 | X-H torsion
[ 8008 7997 7996 7995 ] final -166.35 input   59.86 | X-H torsion
[ 10167 10162 10161 10158 ] final -167.00 input  -65.29 | X-H torsion
[ 10718 10713 10712 10709 ] final   76.26 input   66.30 | X-H torsion
[ 10763 10752 10751 10750 ] final  -25.61 input  -60.55 | X-H torsion
[ 11005 11000 10999 10996 ] final   43.89 input  -57.11 | X-H torsion

> <Gold.Protein.ActiveResidues>
 VAL166  LYS551  ARG553  GLY616  TRP617  ASP618  TYR619  PRO620  LYS621  CYS622 
 ASP623  PHE694  ASN695  SER759  ASP760  ASP761  ALA762  ILE779  LEU786  VAL792 
 PHE793  MET794  SER795  GLU796  ALA797  LYS798  CYS799  TRP800  GLU811  SER814 

> <Gold.Protein.RotatedAtoms>
  150.8363  133.8008  159.3078 H   0  0  0  0  0  0  0  0  0  0  0  0  # atno 6907 bound_to 6896
  151.5723  135.1060  160.0007 H   0  0  0  0  0  0  0  0  0  0  0  0  # atno 6908 bound_to 6896
  152.4435  133.7450  159.6718 H   0  0  0  0  0  0  0  0  0  0  0  0  # atno 6909 bound_to 6896
  144.7917  139.7308  143.6218 H   0  0  0  0  0  0  0  0  0  0  0  0  # atno 7974 bound_to 7965
  155.8626  140.0980  157.1603 H   0  0  0  0  0  0  0  0  0  0  0  0  # atno 8008 bound_to 7997
  154.3991  140.1362  156.4041 H   0  0  0  0  0  0  0  0  0  0  0  0  # atno 8009 bound_to 7997
  155.7840  140.3457  155.5315 H   0  0  0  0  0  0  0  0  0  0  0  0  # atno 8010 bound_to 7997
  139.6078  144.0877  152.1811 H   0  0  0  0  0  0  0  0  0  0  0  0  # atno 10167 bound_to 10162
  157.6666  130.9766  150.1471 H   0  0  0  0  0  0  0  0  0  0  0  0  # atno 10718 bound_to 10713
  153.7026  135.6955  153.5059 H   0  0  0  0  0  0  0  0  0  0  0  0  # atno 10763 bound_to 10752
  153.2331  135.4331  155.0616 H   0  0  0  0  0  0  0  0  0  0  0  0  # atno 10764 bound_to 10752
  154.8339  135.3489  154.6565 H   0  0  0  0  0  0  0  0  0  0  0  0  # atno 10765 bound_to 10752
  140.1603  134.4350  155.8322 H   0  0  0  0  0  0  0  0  0  0  0  0  # atno 11005 bound_to 11000
  146.2172  139.5570  142.9642 LP  0  0  0  0  0  0  0  0  0  0  0  0  # atno 17320 bound_to 7965
  145.5777  141.0386  143.2139 LP  0  0  0  0  0  0  0  0  0  0  0  0  # atno 17321 bound_to 7965
  140.0488  144.5949  150.7352 LP  0  0  0  0  0  0  0  0  0  0  0  0  # atno 17342 bound_to 10162
  140.7297  143.2676  151.3994 LP  0  0  0  0  0  0  0  0  0  0  0  0  # atno 17343 bound_to 10162
  156.2280  130.3679  149.8478 LP  0  0  0  0  0  0  0  0  0  0  0  0  # atno 17370 bound_to 10713
  156.6313  130.8667  151.3496 LP  0  0  0  0  0  0  0  0  0  0  0  0  # atno 17371 bound_to 10713
  141.2208  133.6910  156.7581 LP  0  0  0  0  0  0  0  0  0  0  0  0  # atno 17394 bound_to 11000
  140.2498  134.8549  157.3656 LP  0  0  0  0  0  0  0  0  0  0  0  0  # atno 17395 bound_to 11000

$$$$
