#       Name:                AV-unprocessed.smi:3250
#       Creating user name   scv26
#       Creation time:       Fri Mar 27 18:31:33 2020


#       File generated by GOLD software.
#

@<TRIPOS>MOLECULE
AV-unprocessed.smi:3250
    45    46     1
SMALL
NO_CHARGES


@<TRIPOS>ATOM
      1 ****        -0.5908   4.0430   1.1522 C.3            1 S1                 0.0000
      2 ****        -0.3267   2.5547   0.8855 C.3            1 S1                 0.0000
      3 ****        -0.9361   1.6805   1.9224 N.4            1 S1                 1.0000
      4 ****        -2.4103   1.5319   1.8206 C.3            1 S1                 0.0000
      5 ****        -2.8034   0.5378   0.7110 C.3            1 S1                 0.0000
      6 ****        -2.1445  -0.7053   0.9223 O.3            1 S1                 0.0000
      7 ****        -0.7267  -0.5847   0.8842 C.3            1 S1                 0.0000
      8 ****        -0.1359  -1.9991   1.0151 C.3            1 S1                 0.0000
      9 ****         1.3098  -2.0236   0.8314 N.pl3          1 S1                 0.0000
     10 ****         1.9516  -1.9367  -0.3909 C.ar           1 S1                 0.0000
     11 ****         3.2850  -1.9222  -0.3389 N.ar           1 S1                 0.0000
     12 ****         3.9443  -1.8444  -1.5156 C.ar           1 S1                 0.0000
     13 ****         3.2613  -1.7786  -2.7464 C.ar           1 S1                 0.0000
     14 ****         1.8534  -1.7985  -2.6861 C.ar           1 S1                 0.0000
     15 ****         1.1220  -1.7377  -3.8539 O.3            1 S1                 0.0000
     16 ****        -0.2980  -1.7605  -3.7581 C.3            1 S1                 0.0000
     17 ****         1.2033  -1.8755  -1.4980 N.ar           1 S1                 0.0000
     18 ****        -0.2880   0.3510   2.0324 C.3            1 S1                 0.0000
     19 ****        -0.0609   4.6615   0.4277 H              1 S1                 0.0000
     20 ****        -0.2461   4.3321   2.1455 H              1 S1                 0.0000
     21 ****        -1.6488   4.2924   1.0768 H              1 S1                 0.0000
     22 ****        -0.6721   2.2783  -0.1107 H              1 S1                 0.0000
     23 ****         0.7540   2.4074   0.8848 H              1 S1                 0.0000
     24 ****        -2.7787   1.1598   2.7774 H              1 S1                 0.0000
     25 ****        -2.8953   2.4945   1.6635 H              1 S1                 0.0000
     26 ****        -3.8802   0.3694   0.7280 H              1 S1                 0.0000
     27 ****        -2.5638   0.9276  -0.2791 H              1 S1                 0.0000
     28 ****        -0.4377  -0.1635  -0.0799 H              1 S1                 0.0000
     29 ****        -0.3693  -2.4130   1.9962 H              1 S1                 0.0000
     30 ****        -0.5975  -2.6651   0.2849 H              1 S1                 0.0000
     31 ****         1.8941  -2.0841   1.6528 H              1 S1                 0.0000
     32 ****         5.0234  -1.8342  -1.4751 H              1 S1                 0.0000
     33 ****         3.7900  -1.7182  -3.6863 H              1 S1                 0.0000
     34 ****        -0.7284  -1.7191  -4.7587 H              1 S1                 0.0000
     35 ****        -0.6728  -0.9012  -3.2000 H              1 S1                 0.0000
     36 ****        -0.6522  -2.6768  -3.2836 H              1 S1                 0.0000
     37 ****         0.7968   0.4619   2.0588 H              1 S1                 0.0000
     38 ****        -0.5722  -0.0899   2.9890 H              1 S1                 0.0000
     39 ****        -0.7536   2.1486   2.7988 H              1 S1                 0.0000
     40 ****        -2.4311  -1.3453   0.2094 LP             1 S1                 0.0000
     41 ****        -2.4120  -1.0619   1.8175 LP             1 S1                 0.0000
     42 ****         3.7743  -1.9669   0.5321 LP             1 S1                 0.0000
     43 ****         1.3942  -2.5190  -4.4157 LP             1 S1                 0.0000
     44 ****         1.3746  -0.8890  -4.3185 LP             1 S1                 0.0000
     45 ****         0.2045  -1.8861  -1.4516 LP             1 S1                 0.0000
@<TRIPOS>BOND
    1    1    2 1     
    2    1   19 1     
    3    1   20 1     
    4    1   21 1     
    5    2    3 1     
    6    2   22 1     
    7    2   23 1     
    8    3   18 1     
    9    3    4 1     
   10    3   39 1     
   11    4    5 1     
   12    4   24 1     
   13    4   25 1     
   14    5    6 1     
   15    5   26 1     
   16    5   27 1     
   17    6    7 1     
   18    7    8 1     
   19    7   18 1     
   20    7   28 1     
   21    8    9 1     
   22    8   29 1     
   23    8   30 1     
   24    9   10 1     
   25    9   31 1     
   26   10   17 ar    
   27   10   11 ar    
   28   11   12 ar    
   29   12   13 ar    
   30   12   32 1     
   31   13   14 ar    
   32   13   33 1     
   33   14   15 1     
   34   14   17 ar    
   35   15   16 1     
   36   16   34 1     
   37   16   35 1     
   38   16   36 1     
   39   18   37 1     
   40   18   38 1     
   41    6   40 1     
   42    6   41 1     
   43   11   42 1     
   44   15   43 1     
   45   15   44 1     
   46   17   45 1     
@<TRIPOS>SUBSTRUCTURE
      1 S1             1
@<TRIPOS>SET
LONE_PAIRS      STATIC     ATOMS    <user>   **** ""
6 40 41 42 43 44 45
DONOR_HYDROGENS      STATIC     ATOMS    <user>   **** ""
2 39 31
ATOM$BLUE        STATIC     ATOMS    COLORGROUP SYSTEM
6 40 41 42 43 44 45
ATOM$RED        STATIC     ATOMS    COLORGROUP SYSTEM
2 39 31
