AV-unprocessed.smi:1947|AV-procd|sdf|7872|dock4
  -GOLD-   2272010 23D 1   1.00000     0.00000
 Structure written by MMmdl.
 38 39  0  0  0  0  0  0  0  0  2 V2000
  150.8213  141.7252  156.4668 C   0  0  0  0  0  0  0  0  0  0  0  0
  151.8476  142.2313  157.4950 C   0  0  1  0  0  0  0  0  0  0  0  0
  151.4285  143.6057  158.0546 C   0  0  0  0  0  0  0  0  0  0  0  0
  152.4291  144.1262  159.0981 C   0  0  0  0  0  0  0  0  0  0  0  0
  152.6150  143.1145  160.2378 C   0  0  0  0  0  0  0  0  0  0  0  0
  153.0472  141.7452  159.6928 C   0  0  0  0  0  0  0  0  0  0  0  0
  152.0516  141.2160  158.6412 C   0  0  2  0  0  0  0  0  0  0  0  0
  152.5621  140.0197  158.0689 O   0  0  0  0  0  0  0  0  0  0  0  0
  151.5712  139.0816  157.6765 C   0  0  0  0  0  0  0  0  0  0  0  0
  151.6249  137.8801  158.6328 C   0  0  0  0  0  0  0  0  0  0  0  0
  150.5131  137.8932  159.5794 N   0  0  0  0  0  0  0  0  0  0  0  0
  149.6835  136.8728  159.8382 C   0  0  0  0  0  0  0  0  0  0  0  0
  149.7913  135.8165  159.2111 O   0  0  0  0  0  0  0  0  0  0  0  0
  148.7875  137.1357  160.8164 N   0  5  0  0  0  0  0  0  0  0  0  0
  148.2482  136.1270  161.5202 C   0  0  0  0  0  0  0  0  0  0  0  0
  148.0595  134.9046  160.9982 N   0  0  0  0  0  0  0  0  0  0  0  0
  147.4858  134.0120  161.8936 N   0  0  0  0  0  0  0  0  0  0  0  0
  147.2484  134.5898  163.0709 C   0  0  0  0  0  0  0  0  0  0  0  0
  147.6995  136.2773  163.1918 S   0  0  0  0  0  0  0  0  0  0  0  0
  149.8452  141.5648  156.9255 H   0  0  0  0  0  0  0  0  0  0  0  0
  151.1347  140.7801  156.0218 H   0  0  0  0  0  0  0  0  0  0  0  0
  150.6938  142.4406  155.6543 H   0  0  0  0  0  0  0  0  0  0  0  0
  152.8007  142.3561  156.9790 H   0  0  0  0  0  0  0  0  0  0  0  0
  151.3418  144.3279  157.2425 H   0  0  0  0  0  0  0  0  0  0  0  0
  150.4390  143.5324  158.5080 H   0  0  0  0  0  0  0  0  0  0  0  0
  153.3897  144.3202  158.6195 H   0  0  0  0  0  0  0  0  0  0  0  0
  152.0849  145.0795  159.4999 H   0  0  0  0  0  0  0  0  0  0  0  0
  153.3569  143.4840  160.9461 H   0  0  0  0  0  0  0  0  0  0  0  0
  151.6815  143.0102  160.7922 H   0  0  0  0  0  0  0  0  0  0  0  0
  154.0391  141.8296  159.2467 H   0  0  0  0  0  0  0  0  0  0  0  0
  153.1392  141.0391  160.5178 H   0  0  0  0  0  0  0  0  0  0  0  0
  151.0834  141.0359  159.1122 H   0  0  0  0  0  0  0  0  0  0  0  0
  150.5833  139.5417  157.7071 H   0  0  0  0  0  0  0  0  0  0  0  0
  151.7412  138.7483  156.6519 H   0  0  0  0  0  0  0  0  0  0  0  0
  151.5747  136.9521  158.0631 H   0  0  0  0  0  0  0  0  0  0  0  0
  152.5726  137.8649  159.1728 H   0  0  0  0  0  0  0  0  0  0  0  0
  150.3859  138.7381  160.1170 H   0  0  0  0  0  0  0  0  0  0  0  0
  146.8014  134.0202  163.8717 H   0  0  0  0  0  0  0  0  0  0  0  0
  1  2  1  0  0  0  0
  1 20  1  0  0  0  0
  1 21  1  0  0  0  0
  1 22  1  0  0  0  0
  2  7  1  0  0  0  0
  2  3  1  0  0  0  0
  2 23  1  0  0  0  0
  3  4  1  0  0  0  0
  3 24  1  0  0  0  0
  3 25  1  0  0  0  0
  4  5  1  0  0  0  0
  4 26  1  0  0  0  0
  4 27  1  0  0  0  0
  5  6  1  0  0  0  0
  5 28  1  0  0  0  0
  5 29  1  0  0  0  0
  6  7  1  0  0  0  0
  6 30  1  0  0  0  0
  6 31  1  0  0  0  0
  7  8  1  0  0  0  0
  7 32  1  0  0  0  0
  8  9  1  0  0  0  0
  9 10  1  0  0  0  0
  9 33  1  0  0  0  0
  9 34  1  0  0  0  0
 10 11  1  0  0  0  0
 10 35  1  0  0  0  0
 10 36  1  0  0  0  0
 11 12  1  0  0  0  0
 11 37  1  0  0  0  0
 12 13  2  0  0  0  0
 12 14  1  0  0  0  0
 14 15  1  0  0  0  0
 15 19  1  0  0  0  0
 15 16  2  0  0  0  0
 16 17  1  0  0  0  0
 17 18  2  0  0  0  0
 18 19  1  0  0  0  0
 18 38  1  0  0  0  0
M  CHG  1  14  -1
M  END
> <s_m_source_file>
AV-unprocessed.smi

> <i_m_source_file_index>
1947

> <i_lp_mmshare_version>
43012

> <i_f3d_flags>
0

> <s_epik_input>
W0NIM11bQ0BASF0xW0NIMl1bQ0gyXVtDSDJdW0NIMl1bQ0BIXTFPW0NIMl1bQ0gyXVtOSF1DKD1PKVtOSF1jMm5uW2NIXXMy

> <s_epik_cmdline>
J2VwaWtfcHl0aG9uJywgJy1waCcsICc3LjAnLCAnLXRuJywgJzgnLCAnLW1hJywgJzIwMCcsICctbWV0YWxfYmluZGluZycsICctaW1hZScsICc8aW5maWxlLm1hZT4nLCAnLW9tYWUnLCAnPG91dGZpbGUubWFlPic=

> <r_lp_tautomer_probability>
1

> <r_epik_Ionization_Penalty>
3.35961

> <r_epik_Ionization_Penalty_Charging>
3.31977

> <r_epik_Ionization_Penalty_Neutral>
0.0398394

> <r_epik_State_Penalty>
3.31759

> <r_epik_Charging_Adjusted_Penalty>
6.63736

> <i_epik_Tot_Q>
-1

> <i_epik_Tot_abs_Q>
1

> <r_epik_Metal_State_Penalty>
0.484557

> <b_epik_Metal_Only>
1

> <s_lp_Force_Field>
OPLS_2005

> <r_lp_Energy>
7.96077

> <b_lp_Chiralities_Consistent>
1

> <s_lp_Variant>
AV-unprocessed.smi:1947-8

> <Gold.Version>
5.8.1

> <Gold.Id.Protein>
6NUR|6NUR_protein|mol2

> <Gold.PLP.Fitness>
46.7306

> <Gold.PLP.PLP>
-40.2660

> <Gold.PLP.part.hbond>
-3.5017

> <Gold.PLP.part.metal>
0.0000

> <Gold.PLP.part.buried>
-5.7470

> <Gold.PLP.part.nonpolar>
-31.8176

> <Gold.PLP.part.repulsive>
0.2292

> <Gold.PLP.ligand.clash>
0.0000

> <Gold.PLP.ligand.torsion>
1.4174

> <Gold.PLP.Chemscore.Hbond>
3.0715

> <Gold.PLP.Chemscore.CHOScore>
0.0000

> <Gold.PLP.Chemscore.Metal>
0.0000

> <Gold.Chemscore.Hbonds>
donor molecule, donor type, donor heavy atom, donor atom, acceptor molecule, acceptor atom, score
      P1  H  6896  6908       L1    13  0.83
      P1  H  6931  6943       L1    14  1.66
      P1  H  7997  8009       L1     8  0.44

> <Gold.PLP.Chemscore.Internal.Correction>
0.0850

> <Gold.Rescore>
     Score         DG    S(hbond)    S(metal)    S(lipo)     H(rot)  DE(clash)    DE(int)     intcor
     14.03     -17.09       1.44        0.00      99.74       1.90       0.03       3.03       ----

> <Gold.Chemscore.Fitness>
14.0326

> <Gold.Chemscore.DG>
-17.0913

> <Gold.Chemscore.ZeroCoef>
-5.4800

> <Gold.Chemscore.Hbond>
1.4377

> <Gold.Chemscore.Metal>
0.0000

> <Gold.Chemscore.Lipo>
99.7371

> <Gold.Chemscore.Internal_Hbond>
0.0000

> <Gold.Chemscore.DEClash>
0.0304

> <Gold.Chemscore.DEInternal>
3.0283

> <Gold.Chemscore.Rot>
1.8984

> <Gold.Chemscore.Internal.Correction>
   9.000000E+99

> <Gold.Chemscore.Hbonds>
donor molecule, donor type, donor heavy atom, donor atom, acceptor molecule, acceptor atom, score
      P1  H  6896  6908       L1    13  0.83
      P1  H  6931  6943       L1    14  0.35
      P1  H  6934  6947       L1    14  0.01
      P1  H  7997  8009       L1     8  0.39

> <Gold.Chemscore.Hbond.Weighted>
-4.8018

> <Gold.Chemscore.Metal.Weighted>
-0.0000

> <Gold.Chemscore.Lipo.Weighted>
-11.6692

> <Gold.Chemscore.Internal_Hbond.Weighted>
0.0000

> <Gold.Chemscore.DEClash.Weighted>
0.0304

> <Gold.Chemscore.DEInternal.Weighted>
3.0283

> <Gold.Chemscore.Rot.Weighted>
4.8598

> <Gold.Chemscore.Internal.Correction.Weighted>
   9.000000E+99

> <Gold.Protein.RotatedTorsions>
[ 6907 6896 6895 6894 ] final  160.22 input  -60.11 | X-H torsion
[ 7974 7965 7964 7962 ] final   39.17 input  175.53 | X-H torsion
[ 8008 7997 7996 7995 ] final  166.27 input   59.86 | X-H torsion
[ 10167 10162 10161 10158 ] final -113.68 input  -65.29 | X-H torsion
[ 10718 10713 10712 10709 ] final  -78.44 input   66.30 | X-H torsion
[ 10763 10752 10751 10750 ] final  133.98 input  -60.55 | X-H torsion
[ 11005 11000 10999 10996 ] final  -93.63 input  -57.11 | X-H torsion

> <Gold.Protein.ActiveResidues>
 VAL166  LYS551  ARG553  GLY616  TRP617  ASP618  TYR619  PRO620  LYS621  CYS622 
 ASP623  PHE694  ASN695  SER759  ASP760  ASP761  ALA762  ILE779  LEU786  VAL792 
 PHE793  MET794  SER795  GLU796  ALA797  LYS798  CYS799  TRP800  GLU811  SER814 

> <Gold.Protein.RotatedAtoms>
  151.9738  133.3735  159.4081 H   0  0  0  0  0  0  0  0  0  0  0  0  # atno 6907 bound_to 6896
  150.6945  134.4111  159.5171 H   0  0  0  0  0  0  0  0  0  0  0  0  # atno 6908 bound_to 6896
  152.1819  134.8746  160.0576 H   0  0  0  0  0  0  0  0  0  0  0  0  # atno 6909 bound_to 6896
  146.1005  139.5683  142.9417 H   0  0  0  0  0  0  0  0  0  0  0  0  # atno 7974 bound_to 7965
  156.1732  140.1648  156.8410 H   0  0  0  0  0  0  0  0  0  0  0  0  # atno 8008 bound_to 7997
  154.5279  140.0763  156.8325 H   0  0  0  0  0  0  0  0  0  0  0  0  # atno 8009 bound_to 7997
  155.3469  140.3388  155.4241 H   0  0  0  0  0  0  0  0  0  0  0  0  # atno 8010 bound_to 7997
  140.1092  143.4543  152.1763 H   0  0  0  0  0  0  0  0  0  0  0  0  # atno 10167 bound_to 10162
  156.0117  130.4518  150.3497 H   0  0  0  0  0  0  0  0  0  0  0  0  # atno 10718 bound_to 10713
  153.8160  135.3122  155.3405 H   0  0  0  0  0  0  0  0  0  0  0  0  # atno 10763 bound_to 10752
  154.8032  135.4714  154.0329 H   0  0  0  0  0  0  0  0  0  0  0  0  # atno 10764 bound_to 10752
  153.1723  135.6880  153.8680 H   0  0  0  0  0  0  0  0  0  0  0  0  # atno 10765 bound_to 10752
  141.1492  133.7901  157.0186 H   0  0  0  0  0  0  0  0  0  0  0  0  # atno 11005 bound_to 11000
  145.5864  141.0375  143.2094 LP  0  0  0  0  0  0  0  0  0  0  0  0  # atno 17320 bound_to 7965
  144.7429  139.7400  143.7304 LP  0  0  0  0  0  0  0  0  0  0  0  0  # atno 17321 bound_to 7965
  139.5629  144.7417  151.4105 LP  0  0  0  0  0  0  0  0  0  0  0  0  # atno 17342 bound_to 10162
  140.6935  143.7804  150.7291 LP  0  0  0  0  0  0  0  0  0  0  0  0  # atno 17343 bound_to 10162
  157.1590  131.0340  151.2850 LP  0  0  0  0  0  0  0  0  0  0  0  0  # atno 17370 bound_to 10713
  157.4327  130.7500  149.7003 LP  0  0  0  0  0  0  0  0  0  0  0  0  # atno 17371 bound_to 10713
  140.0830  134.9637  157.1655 LP  0  0  0  0  0  0  0  0  0  0  0  0  # atno 17394 bound_to 11000
  140.3550  134.2557  155.7194 LP  0  0  0  0  0  0  0  0  0  0  0  0  # atno 17395 bound_to 11000

$$$$
