AV-unprocessed.smi:265|AV-procd|sdf|2021|dock4
  -GOLD-   2262021223D 1   1.00000     0.00000
 Structure written by MMmdl.
 52 56  0  0  0  0  0  0  0  0  1 V2000
  144.2972  132.5317  149.8504 C   0  0  0  0  0  0  0  0  0  0  0  0
  144.8663  133.7578  150.5836 C   0  0  2  0  0  0  0  0  0  0  0  0
  146.2664  133.5484  150.7591 O   0  0  0  0  0  0  0  0  0  0  0  0
  146.6677  134.0780  152.0105 C   0  0  0  0  0  0  0  0  0  0  0  0
  145.4843  133.7444  152.9033 C   0  0  0  0  0  0  0  0  0  0  0  0
  144.2909  134.0462  151.9982 C   0  0  2  0  0  0  0  0  0  0  0  0
  143.2311  133.1723  152.3470 O   0  0  0  0  0  0  0  0  0  0  0  0
  143.7772  135.5078  152.1008 C   0  0  0  0  0  0  0  0  0  0  0  0
  144.7985  136.4838  152.4523 N   0  0  0  0  0  0  0  0  0  0  0  0
  145.4837  137.3035  151.5836 C   0  0  0  0  0  0  0  0  0  0  0  0
  146.3505  138.1047  152.1397 N   0  0  0  0  0  0  0  0  0  0  0  0
  146.2496  137.8247  153.4974 C   0  0  0  0  0  0  0  0  0  0  0  0
  146.8906  138.3307  154.6635 C   0  0  0  0  0  0  0  0  0  0  0  0
  147.8523  139.2873  154.6134 N   0  0  0  0  0  0  0  0  0  0  0  0
  147.5216  140.6143  155.1319 C   0  0  0  0  0  0  0  0  0  0  0  0
  148.5332  141.6586  154.6358 C   0  0  0  0  0  0  0  0  0  0  0  0
  149.9814  141.2452  154.9453 C   0  0  1  0  0  0  0  0  0  0  0  0
  150.2160  141.2814  156.3472 O   0  0  0  0  0  0  0  0  0  0  0  0
  151.5853  141.0884  156.7070 C   0  0  0  0  0  0  0  0  0  0  0  0
  152.2083  139.8658  156.0080 C   0  0  0  0  0  0  0  0  0  0  0  0
  153.2664  139.3968  156.4208 O   0  0  0  0  0  0  0  0  0  0  0  0
  151.5854  139.3697  154.9268 N   0  0  0  0  0  0  0  0  0  0  0  0
  150.2739  139.8083  154.4611 C   0  0  1  0  0  0  0  0  0  0  0  0
  149.1957  138.8173  154.9453 C   0  0  0  0  0  0  0  0  0  0  0  0
  146.5035  137.8168  155.8618 N   0  0  0  0  0  0  0  0  0  0  0  0
  145.5620  136.8704  155.9186 C   0  0  0  0  0  0  0  0  0  0  0  0
  144.8876  136.3037  154.9165 N   0  0  0  0  0  0  0  0  0  0  0  0
  145.2677  136.8162  153.7117 C   0  0  0  0  0  0  0  0  0  0  0  0
  150.6556  141.9527  154.4584 H   0  0  0  0  0  0  0  0  0  0  0  0
  150.2867  139.8019  153.3705 H   0  0  0  0  0  0  0  0  0  0  0  0
  143.2281  132.6411  149.6664 H   0  0  0  0  0  0  0  0  0  0  0  0
  144.4510  131.6183  150.4261 H   0  0  0  0  0  0  0  0  0  0  0  0
  144.7843  132.3988  148.8844 H   0  0  0  0  0  0  0  0  0  0  0  0
  144.7405  134.6322  149.9433 H   0  0  0  0  0  0  0  0  0  0  0  0
  147.5986  133.6293  152.3571 H   0  0  0  0  0  0  0  0  0  0  0  0
  146.8105  135.1565  151.9296 H   0  0  0  0  0  0  0  0  0  0  0  0
  145.5208  132.6803  153.1434 H   0  0  0  0  0  0  0  0  0  0  0  0
  145.4944  134.2879  153.8467 H   0  0  0  0  0  0  0  0  0  0  0  0
  143.3396  132.9129  153.2491 H   0  0  0  0  0  0  0  0  0  0  0  0
  143.3358  135.8174  151.1525 H   0  0  0  0  0  0  0  0  0  0  0  0
  142.9764  135.5724  152.8390 H   0  0  0  0  0  0  0  0  0  0  0  0
  145.3228  137.2841  150.5154 H   0  0  0  0  0  0  0  0  0  0  0  0
  146.5191  140.9047  154.8140 H   0  0  0  0  0  0  0  0  0  0  0  0
  147.5186  140.5853  156.2224 H   0  0  0  0  0  0  0  0  0  0  0  0
  148.4197  141.7779  153.5576 H   0  0  0  0  0  0  0  0  0  0  0  0
  148.3167  142.6315  155.0777 H   0  0  0  0  0  0  0  0  0  0  0  0
  152.1589  141.9770  156.4413 H   0  0  0  0  0  0  0  0  0  0  0  0
  151.6544  140.9700  157.7886 H   0  0  0  0  0  0  0  0  0  0  0  0
  152.0114  138.5913  154.4447 H   0  0  0  0  0  0  0  0  0  0  0  0
  149.2564  138.6990  156.0284 H   0  0  0  0  0  0  0  0  0  0  0  0
  149.3913  137.8342  154.5181 H   0  0  0  0  0  0  0  0  0  0  0  0
  145.3136  136.5167  156.9084 H   0  0  0  0  0  0  0  0  0  0  0  0
  1  2  1  0  0  0  0
  1 31  1  0  0  0  0
  1 32  1  0  0  0  0
  1 33  1  0  0  0  0
  2  6  1  0  0  0  0
  2  3  1  0  0  0  0
  2 34  1  0  0  0  0
  3  4  1  0  0  0  0
  4  5  1  0  0  0  0
  4 35  1  0  0  0  0
  4 36  1  0  0  0  0
  5  6  1  0  0  0  0
  5 37  1  0  0  0  0
  5 38  1  0  0  0  0
  6  7  1  0  0  0  0
  6  8  1  0  0  0  0
  7 39  1  0  0  0  0
  8  9  1  0  0  0  0
  8 40  1  0  0  0  0
  8 41  1  0  0  0  0
  9 28  1  0  0  0  0
  9 10  1  0  0  0  0
 10 11  2  0  0  0  0
 10 42  1  0  0  0  0
 11 12  1  0  0  0  0
 12 28  2  0  0  0  0
 12 13  1  0  0  0  0
 13 14  1  0  0  0  0
 13 25  2  0  0  0  0
 14 24  1  0  0  0  0
 14 15  1  0  0  0  0
 15 16  1  0  0  0  0
 15 43  1  0  0  0  0
 15 44  1  0  0  0  0
 16 17  1  0  0  0  0
 16 45  1  0  0  0  0
 16 46  1  0  0  0  0
 17 29  1  0  0  0  0
 17 23  1  0  0  0  0
 17 18  1  0  0  0  0
 18 19  1  0  0  0  0
 19 20  1  0  0  0  0
 19 47  1  0  0  0  0
 19 48  1  0  0  0  0
 20 21  2  0  0  0  0
 20 22  1  0  0  0  0
 22 23  1  0  0  0  0
 22 49  1  0  0  0  0
 23 30  1  0  0  0  0
 23 24  1  0  0  0  0
 24 50  1  0  0  0  0
 24 51  1  0  0  0  0
 25 26  1  0  0  0  0
 26 27  2  0  0  0  0
 26 52  1  0  0  0  0
 27 28  1  0  0  0  0
M  END
> <s_m_source_file>
AV-unprocessed.smi

> <i_m_source_file_index>
265

> <i_lp_mmshare_version>
43012

> <i_f3d_flags>
0

> <s_epik_input>
W0NIMl0xW0NIMl1PW0NAQEhdKFtDSDNdKVtDQEBdMShbT0hdKVtDSDJdbihbY0hdbjIpYyhjMjMpbltjSF1uYzNOKFtDSDJdW0NIMl00KVtDSDJdW0NAQEhdKFtDQEhdNDUpW05IXUMoPU8pW0NIMl1PNQ==

> <s_epik_cmdline>
J2VwaWtfcHl0aG9uJywgJy1waCcsICc3LjAnLCAnLXRuJywgJzgnLCAnLW1hJywgJzIwMCcsICctbWV0YWxfYmluZGluZycsICctaW1hZScsICc8aW5maWxlLm1hZT4nLCAnLW9tYWUnLCAnPG91dGZpbGUubWFlPic=

> <r_lp_tautomer_probability>
1

> <r_epik_Ionization_Penalty>
0.00221504

> <r_epik_Ionization_Penalty_Charging>
0

> <r_epik_Ionization_Penalty_Neutral>
0.00221504

> <r_epik_State_Penalty>
-0

> <r_epik_Charging_Adjusted_Penalty>
0

> <i_epik_Tot_Q>
0

> <i_epik_Tot_abs_Q>
0

> <r_epik_Metal_State_Penalty>
-0

> <b_epik_Metal_Only>
0

> <s_lp_Force_Field>
OPLS_2005

> <r_lp_Energy>
45.2978

> <b_lp_Chiralities_Consistent>
1

> <s_lp_Variant>
AV-unprocessed.smi:265-7

> <Gold.Version>
5.8.1

> <Gold.Id.Protein>
6NUR|6NUR_protein|mol2

> <Gold.PLP.Fitness>
38.7068

> <Gold.PLP.PLP>
-32.7401

> <Gold.PLP.part.hbond>
-2.0000

> <Gold.PLP.part.metal>
0.0000

> <Gold.PLP.part.buried>
-2.9765

> <Gold.PLP.part.nonpolar>
-30.4306

> <Gold.PLP.part.repulsive>
0.8271

> <Gold.PLP.ligand.clash>
0.0000

> <Gold.PLP.ligand.torsion>
1.0285

> <Gold.PLP.Chemscore.Hbond>
1.9263

> <Gold.PLP.Chemscore.CHOScore>
0.6225

> <Gold.PLP.Chemscore.Metal>
0.0000

> <Gold.Chemscore.Hbonds>
donor molecule, donor type, donor heavy atom, donor atom, acceptor molecule, acceptor atom, score
      L1  H     7    39       P1 10957  0.93
      P1  H  7997  8008       L1    21  0.54
      L1  C    10    42       P1 10171  0.72

> <Gold.PLP.Chemscore.Internal.Correction>
0.3777

> <Gold.Rescore>
     Score         DG    S(hbond)    S(metal)    S(lipo)     H(rot)  DE(clash)    DE(int)     intcor
     10.99     -13.86       1.70        0.00      72.25       2.25       1.70       1.17       ----

> <Gold.Chemscore.Fitness>
10.9916

> <Gold.Chemscore.DG>
-13.8580

> <Gold.Chemscore.ZeroCoef>
-5.4800

> <Gold.Chemscore.Hbond>
1.6984

> <Gold.Chemscore.Metal>
0.0000

> <Gold.Chemscore.Lipo>
72.2494

> <Gold.Chemscore.Internal_Hbond>
0.0000

> <Gold.Chemscore.DEClash>
1.6953

> <Gold.Chemscore.DEInternal>
1.1711

> <Gold.Chemscore.Rot>
2.2453

> <Gold.Chemscore.Internal.Correction>
   9.000000E+99

> <Gold.Chemscore.Hbonds>
donor molecule, donor type, donor heavy atom, donor atom, acceptor molecule, acceptor atom, score
      L1  H     7    39       P1 10957  0.55
      P1  H  7997  8008       L1    21  0.47

> <Gold.Chemscore.Hbond.Weighted>
-5.6727

> <Gold.Chemscore.Metal.Weighted>
-0.0000

> <Gold.Chemscore.Lipo.Weighted>
-8.4532

> <Gold.Chemscore.Internal_Hbond.Weighted>
0.0000

> <Gold.Chemscore.DEClash.Weighted>
1.6953

> <Gold.Chemscore.DEInternal.Weighted>
1.1711

> <Gold.Chemscore.Rot.Weighted>
5.7479

> <Gold.Chemscore.Internal.Correction.Weighted>
   9.000000E+99

> <Gold.Protein.RotatedTorsions>
[ 6907 6896 6895 6894 ] final -105.31 input  -60.11 | X-H torsion
[ 7974 7965 7964 7962 ] final  -45.14 input  175.53 | X-H torsion
[ 8008 7997 7996 7995 ] final  -32.41 input   59.86 | X-H torsion
[ 10167 10162 10161 10158 ] final  -55.41 input  -65.29 | X-H torsion
[ 10718 10713 10712 10709 ] final  -82.89 input   66.30 | X-H torsion
[ 10763 10752 10751 10750 ] final -138.20 input  -60.55 | X-H torsion
[ 11005 11000 10999 10996 ] final  159.88 input  -57.11 | X-H torsion

> <Gold.Protein.ActiveResidues>
 VAL166  LYS551  ARG553  GLY616  TRP617  ASP618  TYR619  PRO620  LYS621  CYS622 
 ASP623  PHE694  ASN695  SER759  ASP760  ASP761  ALA762  ILE779  LEU786  VAL792 
 PHE793  MET794  SER795  GLU796  ALA797  LYS798  CYS799  TRP800  GLU811  SER814 

> <Gold.Protein.RotatedAtoms>
  150.7330  134.0146  159.3680 H   0  0  0  0  0  0  0  0  0  0  0  0  # atno 6907 bound_to 6896
  151.8108  135.0679  160.0422 H   0  0  0  0  0  0  0  0  0  0  0  0  # atno 6908 bound_to 6896
  152.3074  133.5681  159.5695 H   0  0  0  0  0  0  0  0  0  0  0  0  # atno 6909 bound_to 6896
  145.9851  140.7242  142.9344 H   0  0  0  0  0  0  0  0  0  0  0  0  # atno 7974 bound_to 7965
  154.4181  140.1738  156.1723 H   0  0  0  0  0  0  0  0  0  0  0  0  # atno 8008 bound_to 7997
  155.9750  140.3382  155.6586 H   0  0  0  0  0  0  0  0  0  0  0  0  # atno 8009 bound_to 7997
  155.6575  140.0697  157.2556 H   0  0  0  0  0  0  0  0  0  0  0  0  # atno 8010 bound_to 7997
  140.6376  143.2490  151.5075 H   0  0  0  0  0  0  0  0  0  0  0  0  # atno 10167 bound_to 10162
  156.0026  130.4648  150.4173 H   0  0  0  0  0  0  0  0  0  0  0  0  # atno 10718 bound_to 10713
  154.8643  135.3619  154.5346 H   0  0  0  0  0  0  0  0  0  0  0  0  # atno 10763 bound_to 10752
  153.5970  135.7014  153.5404 H   0  0  0  0  0  0  0  0  0  0  0  0  # atno 10764 bound_to 10752
  153.3323  135.4121  155.1467 H   0  0  0  0  0  0  0  0  0  0  0  0  # atno 10765 bound_to 10752
  140.2005  134.8341  157.3013 H   0  0  0  0  0  0  0  0  0  0  0  0  # atno 11005 bound_to 11000
  144.6872  140.2974  143.7268 LP  0  0  0  0  0  0  0  0  0  0  0  0  # atno 17320 bound_to 7965
  145.7713  139.1858  143.2211 LP  0  0  0  0  0  0  0  0  0  0  0  0  # atno 17321 bound_to 7965
  139.5586  144.2213  152.1654 LP  0  0  0  0  0  0  0  0  0  0  0  0  # atno 17342 bound_to 10162
  140.1474  144.5146  150.6708 LP  0  0  0  0  0  0  0  0  0  0  0  0  # atno 17343 bound_to 10162
  157.2232  131.0487  151.2534 LP  0  0  0  0  0  0  0  0  0  0  0  0  # atno 17370 bound_to 10713
  157.3781  130.7216  149.6611 LP  0  0  0  0  0  0  0  0  0  0  0  0  # atno 17371 bound_to 10713
  140.2059  134.4197  155.7638 LP  0  0  0  0  0  0  0  0  0  0  0  0  # atno 17394 bound_to 11000
  141.2227  133.7094  156.8260 LP  0  0  0  0  0  0  0  0  0  0  0  0  # atno 17395 bound_to 11000

$$$$
