AV-unprocessed.smi:743|AV-procd|sdf|3562|dock2
  -GOLD-   22720 0563D 1   1.00000     0.00000
 Structure written by MMmdl.
 29 30  0  0  0  0  0  0  0  0  2 V2000
  151.9609  145.5317  159.5861 C   0  0  0  0  0  0  0  0  0  0  0  0
  151.9605  144.1434  159.1776 N   0  0  0  0  0  0  0  0  0  0  0  0
  151.2536  143.5484  158.1555 C   0  0  0  0  0  0  0  0  0  0  0  0
  151.5784  142.2192  158.1476 C   0  0  0  0  0  0  0  0  0  0  0  0
  151.0831  141.1186  157.2400 C   0  0  2  0  0  0  0  0  0  0  0  0
  152.2090  140.4029  156.6338 N   0  0  0  0  0  0  0  0  0  0  0  0
  152.2533  139.8626  155.4027 C   0  0  0  0  0  0  0  0  0  0  0  0
  153.2299  139.2247  155.0185 O   0  0  0  0  0  0  0  0  0  0  0  0
  151.0714  140.0813  154.4454 C   0  0  0  0  0  0  0  0  0  0  0  0
  149.7934  140.5769  155.1423 C   0  0  0  0  0  0  0  0  0  0  0  0
  150.1164  141.6709  156.1666 C   0  0  1  0  0  0  0  0  0  0  0  0
  148.8861  142.2171  156.7682 N   0  3  0  0  0  0  0  0  0  0  0  0
  152.5098  142.1063  159.2202 C   0  0  0  0  0  0  0  0  0  0  0  0
  152.7332  143.2552  159.8349 N   0  0  0  0  0  0  0  0  0  0  0  0
  150.6025  142.4952  155.6417 H   0  0  0  0  0  0  0  0  0  0  0  0
  151.0880  146.0412  159.1769 H   0  0  0  0  0  0  0  0  0  0  0  0
  152.8636  146.0212  159.2191 H   0  0  0  0  0  0  0  0  0  0  0  0
  151.9324  145.6017  160.6741 H   0  0  0  0  0  0  0  0  0  0  0  0
  150.5829  144.1142  157.5251 H   0  0  0  0  0  0  0  0  0  0  0  0
  150.5472  140.3730  157.8298 H   0  0  0  0  0  0  0  0  0  0  0  0
  153.0156  140.2599  157.2249 H   0  0  0  0  0  0  0  0  0  0  0  0
  151.3857  140.8151  153.7026 H   0  0  0  0  0  0  0  0  0  0  0  0
  150.8673  139.1578  153.9023 H   0  0  0  0  0  0  0  0  0  0  0  0
  149.0966  140.9546  154.3930 H   0  0  0  0  0  0  0  0  0  0  0  0
  149.2945  139.7398  155.6336 H   0  0  0  0  0  0  0  0  0  0  0  0
  148.0853  141.7069  156.4237 H   0  0  0  0  0  0  0  0  0  0  0  0
  148.7950  143.1925  156.5222 H   0  0  0  0  0  0  0  0  0  0  0  0
  153.0255  141.2245  159.5708 H   0  0  0  0  0  0  0  0  0  0  0  0
  148.9364  142.1276  157.7730 H   0  0  0  0  0  0  0  0  0  0  0  0
  1  2  1  0  0  0  0
  1 16  1  0  0  0  0
  1 17  1  0  0  0  0
  1 18  1  0  0  0  0
  2 14  1  0  0  0  0
  2  3  1  0  0  0  0
  3  4  2  0  0  0  0
  3 19  1  0  0  0  0
  4  5  1  0  0  0  0
  4 13  1  0  0  0  0
  5 11  1  0  0  0  0
  5  6  1  0  0  0  0
  5 20  1  0  0  0  0
  6  7  1  0  0  0  0
  6 21  1  0  0  0  0
  7  8  2  0  0  0  0
  7  9  1  0  0  0  0
  9 10  1  0  0  0  0
  9 22  1  0  0  0  0
  9 23  1  0  0  0  0
 10 11  1  0  0  0  0
 10 24  1  0  0  0  0
 10 25  1  0  0  0  0
 11 15  1  0  0  0  0
 11 12  1  0  0  0  0
 12 26  1  0  0  0  0
 12 27  1  0  0  0  0
 12 29  1  0  0  0  0
 13 14  2  0  0  0  0
 13 28  1  0  0  0  0
M  CHG  1  12   1
M  END
> <s_m_source_file>
AV-unprocessed.smi

> <i_m_source_file_index>
743

> <i_lp_mmshare_version>
43012

> <i_f3d_flags>
0

> <s_epik_input>
W0NIM11uMVtjSF1jKFtjSF1uMSlbQ0BASF0yW05IXUMoPU8pW0NIMl1bQ0gyXVtDQEBIXTJbTkgyXQ==

> <s_epik_cmdline>
J2VwaWtfcHl0aG9uJywgJy1waCcsICc3LjAnLCAnLXRuJywgJzgnLCAnLW1hJywgJzIwMCcsICctbWV0YWxfYmluZGluZycsICctaW1hZScsICc8aW5maWxlLm1hZT4nLCAnLW9tYWUnLCAnPG91dGZpbGUubWFlPic=

> <r_lp_tautomer_probability>
1

> <r_epik_Ionization_Penalty>
0.00878543

> <r_epik_Ionization_Penalty_Charging>
0.00874185

> <r_epik_Ionization_Penalty_Neutral>
4.35793e-05

> <r_epik_State_Penalty>
0.00660351

> <r_epik_Charging_Adjusted_Penalty>
0.0153454

> <i_epik_Tot_Q>
1

> <i_epik_Tot_abs_Q>
1

> <r_epik_Metal_State_Penalty>
0.00660727

> <b_epik_Metal_Only>
0

> <s_lp_Force_Field>
OPLS_2005

> <r_lp_Energy>
10.7235

> <b_lp_Chiralities_Consistent>
1

> <s_lp_Variant>
AV-unprocessed.smi:743-3

> <Gold.Version>
5.8.1

> <Gold.Id.Protein>
6NUR|6NUR_protein|mol2

> <Gold.PLP.Fitness>
41.7462

> <Gold.PLP.PLP>
-29.8308

> <Gold.PLP.part.hbond>
-2.0000

> <Gold.PLP.part.metal>
0.0000

> <Gold.PLP.part.buried>
-1.7924

> <Gold.PLP.part.nonpolar>
-26.7217

> <Gold.PLP.part.repulsive>
0.1250

> <Gold.PLP.ligand.clash>
0.0000

> <Gold.PLP.ligand.torsion>
0.0531

> <Gold.PLP.Chemscore.Hbond>
3.0000

> <Gold.PLP.Chemscore.CHOScore>
1.0000

> <Gold.PLP.Chemscore.Metal>
0.0000

> <Gold.Chemscore.Hbonds>
donor molecule, donor type, donor heavy atom, donor atom, acceptor molecule, acceptor atom, score
      L1  H    12    27       P1  8028  2.00
      P1  H  7997  8008       L1     8  0.85
      L1  C     3    19       P1  8028  0.91

> <Gold.PLP.Chemscore.Internal.Correction>
0.0215

> <Gold.Rescore>
     Score         DG    S(hbond)    S(metal)    S(lipo)     H(rot)  DE(clash)    DE(int)     intcor
     14.13     -14.25       1.00        0.00      68.18       1.00       0.09       0.03       ----

> <Gold.Chemscore.Fitness>
14.1317

> <Gold.Chemscore.DG>
-14.2468

> <Gold.Chemscore.ZeroCoef>
-5.4800

> <Gold.Chemscore.Hbond>
1.0028

> <Gold.Chemscore.Metal>
0.0000

> <Gold.Chemscore.Lipo>
68.1839

> <Gold.Chemscore.Internal_Hbond>
0.0000

> <Gold.Chemscore.DEClash>
0.0893

> <Gold.Chemscore.DEInternal>
0.0258

> <Gold.Chemscore.Rot>
1.0000

> <Gold.Chemscore.Internal.Correction>
   9.000000E+99

> <Gold.Chemscore.Hbonds>
donor molecule, donor type, donor heavy atom, donor atom, acceptor molecule, acceptor atom, score
      L1  H    12    27       P1  8028  0.93
      P1  H  7997  8008       L1     8  0.15

> <Gold.Chemscore.Hbond.Weighted>
-3.3493

> <Gold.Chemscore.Metal.Weighted>
-0.0000

> <Gold.Chemscore.Lipo.Weighted>
-7.9775

> <Gold.Chemscore.Internal_Hbond.Weighted>
0.0000

> <Gold.Chemscore.DEClash.Weighted>
0.0893

> <Gold.Chemscore.DEInternal.Weighted>
0.0258

> <Gold.Chemscore.Rot.Weighted>
2.5600

> <Gold.Chemscore.Internal.Correction.Weighted>
   9.000000E+99

> <Gold.Protein.RotatedTorsions>
[ 6907 6896 6895 6894 ] final -146.82 input  -60.11 | X-H torsion
[ 7974 7965 7964 7962 ] final  115.62 input  175.53 | X-H torsion
[ 8008 7997 7996 7995 ] final  -13.87 input   59.86 | X-H torsion
[ 10167 10162 10161 10158 ] final -146.19 input  -65.29 | X-H torsion
[ 10718 10713 10712 10709 ] final  173.81 input   66.30 | X-H torsion
[ 10763 10752 10751 10750 ] final  -89.53 input  -60.55 | X-H torsion
[ 11005 11000 10999 10996 ] final  132.99 input  -57.11 | X-H torsion

> <Gold.Protein.ActiveResidues>
 VAL166  LYS551  ARG553  GLY616  TRP617  ASP618  TYR619  PRO620  LYS621  CYS622 
 ASP623  PHE694  ASN695  SER759  ASP760  ASP761  ALA762  ILE779  LEU786  VAL792 
 PHE793  MET794  SER795  GLU796  ALA797  LYS798  CYS799  TRP800  GLU811  SER814 

> <Gold.Protein.RotatedAtoms>
  151.1469  133.4933  159.2595 H   0  0  0  0  0  0  0  0  0  0  0  0  # atno 6907 bound_to 6896
  151.1595  135.0266  159.8714 H   0  0  0  0  0  0  0  0  0  0  0  0  # atno 6908 bound_to 6896
  152.5463  134.1345  159.8506 H   0  0  0  0  0  0  0  0  0  0  0  0  # atno 6909 bound_to 6896
  145.1897  139.3007  143.4375 H   0  0  0  0  0  0  0  0  0  0  0  0  # atno 7974 bound_to 7965
  154.5257  140.2238  155.8895 H   0  0  0  0  0  0  0  0  0  0  0  0  # atno 8008 bound_to 7997
  156.1710  140.3122  155.8938 H   0  0  0  0  0  0  0  0  0  0  0  0  # atno 8009 bound_to 7997
  155.3558  140.0458  157.3037 H   0  0  0  0  0  0  0  0  0  0  0  0  # atno 8010 bound_to 7997
  139.7736  143.8202  152.2628 H   0  0  0  0  0  0  0  0  0  0  0  0  # atno 10167 bound_to 10162
  156.9588  131.0054  151.2932 H   0  0  0  0  0  0  0  0  0  0  0  0  # atno 10718 bound_to 10713
  154.6563  135.5337  153.7962 H   0  0  0  0  0  0  0  0  0  0  0  0  # atno 10763 bound_to 10752
  153.0415  135.6494  154.0941 H   0  0  0  0  0  0  0  0  0  0  0  0  # atno 10764 bound_to 10752
  154.0854  135.2944  155.3262 H   0  0  0  0  0  0  0  0  0  0  0  0  # atno 10765 bound_to 10752
  139.9824  134.9543  156.9661 H   0  0  0  0  0  0  0  0  0  0  0  0  # atno 11005 bound_to 11000
  146.3438  140.2105  142.8590 LP  0  0  0  0  0  0  0  0  0  0  0  0  # atno 17320 bound_to 7965
  145.0054  140.8668  143.5256 LP  0  0  0  0  0  0  0  0  0  0  0  0  # atno 17321 bound_to 7965
  139.8244  144.7282  150.9531 LP  0  0  0  0  0  0  0  0  0  0  0  0  # atno 17342 bound_to 10162
  140.7815  143.4129  151.0964 LP  0  0  0  0  0  0  0  0  0  0  0  0  # atno 17343 bound_to 10162
  157.5672  130.8285  149.8343 LP  0  0  0  0  0  0  0  0  0  0  0  0  # atno 17370 bound_to 10713
  156.0331  130.3759  150.1634 LP  0  0  0  0  0  0  0  0  0  0  0  0  # atno 17371 bound_to 10713
  140.5070  134.1040  155.7262 LP  0  0  0  0  0  0  0  0  0  0  0  0  # atno 17394 bound_to 11000
  141.1494  133.8996  157.2135 LP  0  0  0  0  0  0  0  0  0  0  0  0  # atno 17395 bound_to 11000

$$$$
