#       Name:                AV-unprocessed.smi:1254
#       Creating user name   scv26
#       Creation time:       Fri Mar 27 04:38:43 2020


#       File generated by GOLD software.
#

@<TRIPOS>MOLECULE
AV-unprocessed.smi:1254
    53    54     1
SMALL
NO_CHARGES


@<TRIPOS>ATOM
      1 ****        -4.7914   6.3091  -2.1467 C.3            1 S1                 0.0000
      2 ****        -4.2310   4.9689  -1.8148 C.2            1 S1                 0.0000
      3 ****        -4.2271   4.2187  -0.6724 C.2            1 S1                 0.0000
      4 ****        -3.5162   3.0515  -1.0593 C.2            1 S1                 0.0000
      5 ****        -3.2834   2.0004  -0.1361 N.am           1 S1                 0.0000
      6 ****        -2.6204   0.8522  -0.3545 C.2            1 S1                 0.0000
      7 ****        -2.1137   0.5162  -1.4255 O.2            1 S1                 0.0000
      8 ****        -2.5663   0.1003   0.7541 N.am           1 S1                 0.0000
      9 ****        -1.9045  -1.1964   0.8508 C.3            1 S1                 0.0000
     10 ****        -0.3729  -1.0557   0.9147 C.3            1 S1                 0.0000
     11 ****         0.3311  -2.4279   0.9416 C.3            1 S1                 0.0000
     12 ****         1.8017  -2.2754   1.0653 N.4            1 S1                 1.0000
     13 ****         2.4684  -1.8795  -0.2048 C.3            1 S1                 0.0000
     14 ****         3.9521  -2.3024  -0.2643 C.3            1 S1                 0.0000
     15 ****         4.6245  -1.7300  -1.5211 C.3            1 S1                 0.0000
     16 ****         4.1152  -3.8309  -0.2186 C.3            1 S1                 0.0000
     17 ****         2.1371  -1.4242   2.2356 C.3            1 S1                 0.0000
     18 ****         1.3587  -0.0944   2.2101 C.3            1 S1                 0.0000
     19 ****        -0.0357  -0.3546   2.1079 O.3            1 S1                 0.0000
     20 ****        -3.1226   3.0855  -2.3231 N.2            1 S1                 0.0000
     21 ****        -3.5793   4.3143  -2.8139 O.3            1 S1                 0.0000
     22 ****        -5.2831   6.7518  -1.2803 H              1 S1                 0.0000
     23 ****        -5.5248   6.2332  -2.9495 H              1 S1                 0.0000
     24 ****        -4.0027   6.9882  -2.4710 H              1 S1                 0.0000
     25 ****        -4.6619   4.4691   0.2839 H              1 S1                 0.0000
     26 ****        -3.6513   2.1441   0.7925 H              1 S1                 0.0000
     27 ****        -3.0071   0.4506   1.5922 H              1 S1                 0.0000
     28 ****        -2.2728  -1.7057   1.7417 H              1 S1                 0.0000
     29 ****        -2.1932  -1.8149  -0.0007 H              1 S1                 0.0000
     30 ****        -0.0294  -0.4877   0.0487 H              1 S1                 0.0000
     31 ****        -0.0269  -3.0046   1.7956 H              1 S1                 0.0000
     32 ****         0.0823  -3.0117   0.0545 H              1 S1                 0.0000
     33 ****         1.9515  -2.3437  -1.0460 H              1 S1                 0.0000
     34 ****         2.3740  -0.8040  -0.3548 H              1 S1                 0.0000
     35 ****         4.4796  -1.8838   0.5922 H              1 S1                 0.0000
     36 ****         4.1566  -2.1099  -2.4301 H              1 S1                 0.0000
     37 ****         5.6821  -1.9928  -1.5568 H              1 S1                 0.0000
     38 ****         4.5574  -0.6418  -1.5430 H              1 S1                 0.0000
     39 ****         3.6081  -4.3096  -1.0571 H              1 S1                 0.0000
     40 ****         3.7066  -4.2500   0.7011 H              1 S1                 0.0000
     41 ****         5.1674  -4.1137  -0.2630 H              1 S1                 0.0000
     42 ****         1.8711  -1.9743   3.1393 H              1 S1                 0.0000
     43 ****         3.2087  -1.2403   2.2991 H              1 S1                 0.0000
     44 ****         1.5434   0.4618   3.1291 H              1 S1                 0.0000
     45 ****         1.6828   0.5452   1.3884 H              1 S1                 0.0000
     46 ****         2.1567  -3.1992   1.2680 H              1 S1                 0.0000
     47 ****        -2.1793   1.1190  -2.2206 LP             1 S1                 0.0000
     48 ****        -1.6366  -0.3595  -1.5000 LP             1 S1                 0.0000
     49 ****        -0.3179  -0.9047   2.8939 LP             1 S1                 0.0000
     50 ****        -0.5262   0.5167   2.1176 LP             1 S1                 0.0000
     51 ****        -2.6100   2.3849  -2.8195 LP             1 S1                 0.0000
     52 ****        -2.8025   4.8622  -3.1243 LP             1 S1                 0.0000
     53 ****        -4.2048   4.1595  -3.5786 LP             1 S1                 0.0000
@<TRIPOS>BOND
    1    1    2 1     
    2    1   22 1     
    3    1   23 1     
    4    1   24 1     
    5    2   21 1     
    6    2    3 2     
    7    3    4 1     
    8    3   25 1     
    9    4    5 1     
   10    4   20 2     
   11    5    6 am    
   12    5   26 1     
   13    6    7 2     
   14    6    8 am    
   15    8    9 1     
   16    8   27 1     
   17    9   10 1     
   18    9   28 1     
   19    9   29 1     
   20   10   19 1     
   21   10   11 1     
   22   10   30 1     
   23   11   12 1     
   24   11   31 1     
   25   11   32 1     
   26   12   13 1     
   27   12   17 1     
   28   12   46 1     
   29   13   14 1     
   30   13   33 1     
   31   13   34 1     
   32   14   15 1     
   33   14   16 1     
   34   14   35 1     
   35   15   36 1     
   36   15   37 1     
   37   15   38 1     
   38   16   39 1     
   39   16   40 1     
   40   16   41 1     
   41   17   18 1     
   42   17   42 1     
   43   17   43 1     
   44   18   19 1     
   45   18   44 1     
   46   18   45 1     
   47   20   21 1     
   48    7   47 1     
   49    7   48 1     
   50   19   49 1     
   51   19   50 1     
   52   20   51 1     
   53   21   52 1     
   54   21   53 1     
@<TRIPOS>SUBSTRUCTURE
      1 S1             1
@<TRIPOS>SET
LONE_PAIRS      STATIC     ATOMS    <user>   **** ""
7 47 48 49 50 51 52 53
DONOR_HYDROGENS      STATIC     ATOMS    <user>   **** ""
3 26 27 46
ATOM$BLUE        STATIC     ATOMS    COLORGROUP SYSTEM
7 47 48 49 50 51 52 53
ATOM$RED        STATIC     ATOMS    COLORGROUP SYSTEM
3 26 27 46
