AV-unprocessed.smi:2038|AV-procd|sdf|8281|dock1
  -GOLD-   2272010553D 1   1.00000     0.00000
 Structure written by MMmdl.
 33 34  0  0  0  0  0  0  0  0  1 V2000
  146.6143  131.8775  152.0986 O   0  0  0  0  0  0  0  0  0  0  0  0
  146.9627  133.0551  152.0097 C   0  0  0  0  0  0  0  0  0  0  0  0
  147.9981  133.5966  152.6774 N   0  0  0  0  0  0  0  0  0  0  0  0
  148.8703  132.9721  153.6092 C   0  0  0  0  0  0  0  0  0  0  0  0
  149.4086  133.7600  154.6462 C   0  0  0  0  0  0  0  0  0  0  0  0
  150.2591  133.1599  155.5939 C   0  0  0  0  0  0  0  0  0  0  0  0
  150.5366  131.7832  155.4814 C   0  0  0  0  0  0  0  0  0  0  0  0
  151.3714  131.2003  156.4122 O   0  0  0  0  0  0  0  0  0  0  0  0
  151.4887  129.7799  156.4253 C   0  0  0  0  0  0  0  0  0  0  0  0
  152.7718  129.3715  155.6922 C   0  0  0  0  0  0  0  0  0  0  0  0
  152.6569  129.6762  154.4000 F   0  0  0  0  0  0  0  0  0  0  0  0
  153.8179  130.0270  156.1943 F   0  0  0  0  0  0  0  0  0  0  0  0
  152.9695  128.0585  155.8059 F   0  0  0  0  0  0  0  0  0  0  0  0
  150.0107  131.0125  154.4976 N   0  0  0  0  0  0  0  0  0  0  0  0
  149.1976  131.5945  153.5902 C   0  0  0  0  0  0  0  0  0  0  0  0
  146.2012  134.0054  151.0780 C   0  0  1  0  0  0  0  0  0  0  0  0
  144.9424  133.3821  150.4461 C   0  0  0  0  0  0  0  0  0  0  0  0
  143.8003  134.0942  151.1434 C   0  0  0  0  0  0  0  0  0  0  0  0
  144.4221  135.4478  151.4537 C   0  0  0  0  0  0  0  0  0  0  0  0
  145.7415  135.1114  151.8534 O   0  0  0  0  0  0  0  0  0  0  0  0
  148.2230  134.5528  152.4433 H   0  0  0  0  0  0  0  0  0  0  0  0
  149.1790  134.8134  154.7148 H   0  0  0  0  0  0  0  0  0  0  0  0
  150.6899  133.7446  156.3932 H   0  0  0  0  0  0  0  0  0  0  0  0
  151.5209  129.4134  157.4528 H   0  0  0  0  0  0  0  0  0  0  0  0
  150.6264  129.3246  155.9351 H   0  0  0  0  0  0  0  0  0  0  0  0
  148.7905  130.9212  152.8519 H   0  0  0  0  0  0  0  0  0  0  0  0
  146.8619  134.3739  150.2912 H   0  0  0  0  0  0  0  0  0  0  0  0
  144.9218  133.6018  149.3778 H   0  0  0  0  0  0  0  0  0  0  0  0
  144.8766  132.2986  150.5560 H   0  0  0  0  0  0  0  0  0  0  0  0
  142.9009  134.1656  150.5312 H   0  0  0  0  0  0  0  0  0  0  0  0
  143.5464  133.5784  152.0706 H   0  0  0  0  0  0  0  0  0  0  0  0
  144.4587  136.0743  150.5612 H   0  0  0  0  0  0  0  0  0  0  0  0
  143.8899  135.9887  152.2364 H   0  0  0  0  0  0  0  0  0  0  0  0
  1  2  2  0  0  0  0
  2  3  1  0  0  0  0
  2 16  1  0  0  0  0
  3  4  1  0  0  0  0
  3 21  1  0  0  0  0
  4 15  1  0  0  0  0
  4  5  2  0  0  0  0
  5  6  1  0  0  0  0
  5 22  1  0  0  0  0
  6  7  2  0  0  0  0
  6 23  1  0  0  0  0
  7  8  1  0  0  0  0
  7 14  1  0  0  0  0
  8  9  1  0  0  0  0
  9 10  1  0  0  0  0
  9 24  1  0  0  0  0
  9 25  1  0  0  0  0
 10 11  1  0  0  0  0
 10 12  1  0  0  0  0
 10 13  1  0  0  0  0
 14 15  2  0  0  0  0
 15 26  1  0  0  0  0
 16 20  1  0  0  0  0
 16 17  1  0  0  0  0
 16 27  1  0  0  0  0
 17 18  1  0  0  0  0
 17 28  1  0  0  0  0
 17 29  1  0  0  0  0
 18 19  1  0  0  0  0
 18 30  1  0  0  0  0
 18 31  1  0  0  0  0
 19 20  1  0  0  0  0
 19 32  1  0  0  0  0
 19 33  1  0  0  0  0
M  END
> <s_m_source_file>
AV-unprocessed.smi

> <i_m_source_file_index>
2038

> <i_lp_mmshare_version>
43012

> <i_f3d_flags>
0

> <s_epik_input>
TzFbQ0gyXVtDSDJdW0NIMl1bQ0BIXTFDKD1PKVtOSF1jMltjSF1bY0hdYyhuW2NIXTIpT1tDSDJdQyhGKShGKUY=

> <s_epik_cmdline>
J2VwaWtfcHl0aG9uJywgJy1waCcsICc3LjAnLCAnLXRuJywgJzgnLCAnLW1hJywgJzIwMCcsICctbWV0YWxfYmluZGluZycsICctaW1hZScsICc8aW5maWxlLm1hZT4nLCAnLW9tYWUnLCAnPG91dGZpbGUubWFlPic=

> <r_lp_tautomer_probability>
1

> <r_epik_Ionization_Penalty>
2.73305e-06

> <r_epik_Ionization_Penalty_Charging>
0

> <r_epik_Ionization_Penalty_Neutral>
2.73305e-06

> <r_epik_State_Penalty>
-0

> <r_epik_Charging_Adjusted_Penalty>
0

> <i_epik_Tot_Q>
0

> <i_epik_Tot_abs_Q>
0

> <r_epik_Metal_State_Penalty>
-0

> <b_epik_Metal_Only>
0

> <s_lp_Force_Field>
OPLS_2005

> <r_lp_Energy>
22.8429

> <b_lp_Chiralities_Consistent>
1

> <s_lp_Variant>
AV-unprocessed.smi:2038-2

> <Gold.Version>
5.8.1

> <Gold.Id.Protein>
6NUR|6NUR_protein|mol2

> <Gold.PLP.Fitness>
34.8317

> <Gold.PLP.PLP>
-30.1883

> <Gold.PLP.part.hbond>
-1.0000

> <Gold.PLP.part.metal>
0.0000

> <Gold.PLP.part.buried>
-4.6882

> <Gold.PLP.part.nonpolar>
-24.2355

> <Gold.PLP.part.repulsive>
0.3189

> <Gold.PLP.ligand.clash>
0.0000

> <Gold.PLP.ligand.torsion>
0.6320

> <Gold.PLP.Chemscore.Hbond>
1.0000

> <Gold.PLP.Chemscore.CHOScore>
0.9531

> <Gold.PLP.Chemscore.Metal>
0.0000

> <Gold.Chemscore.Hbonds>
donor molecule, donor type, donor heavy atom, donor atom, acceptor molecule, acceptor atom, score
      L1  H     3    21       P1  7948  1.00
      L1  C    15    26       P1 10747  0.94

> <Gold.PLP.Chemscore.Internal.Correction>
0.0482

> <Gold.Rescore>
     Score         DG    S(hbond)    S(metal)    S(lipo)     H(rot)  DE(clash)    DE(int)     intcor
      6.35      -8.48       0.01        0.00      62.25       1.69       0.45       1.68       ----

> <Gold.Chemscore.Fitness>
6.3531

> <Gold.Chemscore.DG>
-8.4816

> <Gold.Chemscore.ZeroCoef>
-5.4800

> <Gold.Chemscore.Hbond>
0.0149

> <Gold.Chemscore.Metal>
0.0000

> <Gold.Chemscore.Lipo>
62.2495

> <Gold.Chemscore.Internal_Hbond>
0.0000

> <Gold.Chemscore.DEClash>
0.4508

> <Gold.Chemscore.DEInternal>
1.6776

> <Gold.Chemscore.Rot>
1.6919

> <Gold.Chemscore.Internal.Correction>
   9.000000E+99

> <Gold.Chemscore.Hbonds>
donor molecule, donor type, donor heavy atom, donor atom, acceptor molecule, acceptor atom, score
      L1  H     3    21       P1  7948  0.26

> <Gold.Chemscore.Hbond.Weighted>
-0.0497

> <Gold.Chemscore.Metal.Weighted>
-0.0000

> <Gold.Chemscore.Lipo.Weighted>
-7.2832

> <Gold.Chemscore.Internal_Hbond.Weighted>
0.0000

> <Gold.Chemscore.DEClash.Weighted>
0.4508

> <Gold.Chemscore.DEInternal.Weighted>
1.6776

> <Gold.Chemscore.Rot.Weighted>
4.3313

> <Gold.Chemscore.Internal.Correction.Weighted>
   9.000000E+99

> <Gold.Protein.RotatedTorsions>
[ 6907 6896 6895 6894 ] final   41.90 input  -60.11 | X-H torsion
[ 7974 7965 7964 7962 ] final -179.59 input  175.53 | X-H torsion
[ 8008 7997 7996 7995 ] final  -70.30 input   59.86 | X-H torsion
[ 10167 10162 10161 10158 ] final -112.16 input  -65.29 | X-H torsion
[ 10718 10713 10712 10709 ] final   56.66 input   66.30 | X-H torsion
[ 10763 10752 10751 10750 ] final  -94.69 input  -60.55 | X-H torsion
[ 11005 11000 10999 10996 ] final -111.49 input  -57.11 | X-H torsion

> <Gold.Protein.ActiveResidues>
 VAL166  LYS551  ARG553  GLY616  TRP617  ASP618  TYR619  PRO620  LYS621  CYS622 
 ASP623  PHE694  ASN695  SER759  ASP760  ASP761  ALA762  ILE779  LEU786  VAL792 
 PHE793  MET794  SER795  GLU796  ALA797  LYS798  CYS799  TRP800  GLU811  SER814 

> <Gold.Protein.RotatedAtoms>
  152.2011  134.8587  160.0507 H   0  0  0  0  0  0  0  0  0  0  0  0  # atno 6907 bound_to 6896
  151.9440  133.3641  159.3984 H   0  0  0  0  0  0  0  0  0  0  0  0  # atno 6908 bound_to 6896
  150.6955  134.4333  159.5302 H   0  0  0  0  0  0  0  0  0  0  0  0  # atno 6909 bound_to 6896
  144.7138  140.0694  143.6430 H   0  0  0  0  0  0  0  0  0  0  0  0  # atno 7974 bound_to 7965
  154.5002  140.0837  156.7781 H   0  0  0  0  0  0  0  0  0  0  0  0  # atno 8008 bound_to 7997
  155.4022  140.3437  155.4239 H   0  0  0  0  0  0  0  0  0  0  0  0  # atno 8009 bound_to 7997
  156.1446  140.1539  156.8855 H   0  0  0  0  0  0  0  0  0  0  0  0  # atno 8010 bound_to 7997
  140.1257  143.4404  152.1661 H   0  0  0  0  0  0  0  0  0  0  0  0  # atno 10167 bound_to 10162
  157.5450  130.8724  149.8877 H   0  0  0  0  0  0  0  0  0  0  0  0  # atno 10718 bound_to 10713
  154.7078  135.5148  153.8622 H   0  0  0  0  0  0  0  0  0  0  0  0  # atno 10763 bound_to 10752
  153.0756  135.6615  154.0163 H   0  0  0  0  0  0  0  0  0  0  0  0  # atno 10764 bound_to 10752
  154.0010  135.3011  155.3382 H   0  0  0  0  0  0  0  0  0  0  0  0  # atno 10765 bound_to 10752
  141.0731  133.9346  157.2444 H   0  0  0  0  0  0  0  0  0  0  0  0  # atno 11005 bound_to 11000
  145.9796  139.2931  143.1050 LP  0  0  0  0  0  0  0  0  0  0  0  0  # atno 17320 bound_to 7965
  145.9025  140.9233  143.0495 LP  0  0  0  0  0  0  0  0  0  0  0  0  # atno 17321 bound_to 7965
  139.5545  144.7363  151.4334 LP  0  0  0  0  0  0  0  0  0  0  0  0  # atno 17342 bound_to 10162
  140.6846  143.8003  150.7168 LP  0  0  0  0  0  0  0  0  0  0  0  0  # atno 17343 bound_to 10162
  156.0528  130.3714  150.1162 LP  0  0  0  0  0  0  0  0  0  0  0  0  # atno 17370 bound_to 10713
  156.9339  130.9722  151.3528 LP  0  0  0  0  0  0  0  0  0  0  0  0  # atno 17371 bound_to 10713
  139.9544  135.0169  156.9086 LP  0  0  0  0  0  0  0  0  0  0  0  0  # atno 17394 bound_to 11000
  140.5630  134.0516  155.7405 LP  0  0  0  0  0  0  0  0  0  0  0  0  # atno 17395 bound_to 11000

$$$$
