AV-unprocessed.smi:100|AV-procd|sdf|908|dock2
  -GOLD-   2262017403D 1   1.00000     0.00000
 Structure written by MMmdl.
 31 33  0  0  0  0  0  0  0  0  1 V2000
  149.9672  138.3797  153.5530 N   0  0  0  0  0  0  0  0  0  0  0  0
  150.1386  138.6124  154.8618 C   0  0  0  0  0  0  0  0  0  0  0  0
  150.1554  137.5545  155.7056 N   0  0  0  0  0  0  0  0  0  0  0  0
  150.3230  137.7611  157.0154 C   0  0  0  0  0  0  0  0  0  0  0  0
  150.4887  138.9169  157.6639 N   0  0  0  0  0  0  0  0  0  0  0  0
  150.4717  139.9846  156.8134 C   0  0  0  0  0  0  0  0  0  0  0  0
  150.3016  139.9130  155.4022 C   0  0  0  0  0  0  0  0  0  0  0  0
  150.3346  141.1879  154.8560 N   0  0  0  0  0  0  0  0  0  0  0  0
  150.5096  141.9664  155.8896 C   0  0  0  0  0  0  0  0  0  0  0  0
  150.6122  141.3281  157.1072 N   0  0  0  0  0  0  0  0  0  0  0  0
  150.7981  141.9716  158.4481 C   0  0  1  0  0  0  0  0  0  0  0  0
  151.9969  141.5041  158.9970 O   0  0  0  0  0  0  0  0  0  0  0  0
  152.9205  142.5799  159.1628 C   0  0  2  0  0  0  0  0  0  0  0  0
  153.8700  142.3107  160.3411 C   0  0  0  0  0  0  0  0  0  0  0  0
  153.1279  142.0556  161.5144 O   0  0  0  0  0  0  0  0  0  0  0  0
  152.0017  143.7863  159.3573 C   0  0  2  0  0  0  0  0  0  0  0  0
  151.5146  143.7656  160.6022 F   0  0  0  0  0  0  0  0  0  0  0  0
  150.9064  143.5003  158.3424 C   0  0  2  0  0  0  0  0  0  0  0  0
  149.7164  144.1826  158.6848 O   0  0  0  0  0  0  0  0  0  0  0  0
  149.9501  139.1526  152.9032 H   0  0  0  0  0  0  0  0  0  0  0  0
  149.8492  137.4336  153.2209 H   0  0  0  0  0  0  0  0  0  0  0  0
  150.3250  136.8749  157.6326 H   0  0  0  0  0  0  0  0  0  0  0  0
  150.5698  143.0406  155.7895 H   0  0  0  0  0  0  0  0  0  0  0  0
  149.9612  141.6282  159.0585 H   0  0  0  0  0  0  0  0  0  0  0  0
  153.4937  142.7250  158.2475 H   0  0  0  0  0  0  0  0  0  0  0  0
  154.4755  141.4266  160.1400 H   0  0  0  0  0  0  0  0  0  0  0  0
  154.5545  143.1446  160.4996 H   0  0  0  0  0  0  0  0  0  0  0  0
  152.6475  142.8367  161.7422 H   0  0  0  0  0  0  0  0  0  0  0  0
  152.4997  144.7441  159.2047 H   0  0  0  0  0  0  0  0  0  0  0  0
  151.2336  143.7953  157.3454 H   0  0  0  0  0  0  0  0  0  0  0  0
  149.3998  144.6351  157.9180 H   0  0  0  0  0  0  0  0  0  0  0  0
  1  2  1  0  0  0  0
  1 20  1  0  0  0  0
  1 21  1  0  0  0  0
  2  7  1  0  0  0  0
  2  3  2  0  0  0  0
  3  4  1  0  0  0  0
  4  5  2  0  0  0  0
  4 22  1  0  0  0  0
  5  6  1  0  0  0  0
  6 10  1  0  0  0  0
  6  7  2  0  0  0  0
  7  8  1  0  0  0  0
  8  9  2  0  0  0  0
  9 10  1  0  0  0  0
  9 23  1  0  0  0  0
 10 11  1  0  0  0  0
 11 18  1  0  0  0  0
 11 12  1  0  0  0  0
 11 24  1  0  0  0  0
 12 13  1  0  0  0  0
 13 14  1  0  0  0  0
 13 16  1  0  0  0  0
 13 25  1  0  0  0  0
 14 15  1  0  0  0  0
 14 26  1  0  0  0  0
 14 27  1  0  0  0  0
 15 28  1  0  0  0  0
 16 17  1  0  0  0  0
 16 18  1  0  0  0  0
 16 29  1  0  0  0  0
 18 19  1  0  0  0  0
 18 30  1  0  0  0  0
 19 31  1  0  0  0  0
M  END
> <s_m_source_file>
AV-unprocessed.smi

> <i_m_source_file_index>
100

> <i_lp_mmshare_version>
43012

> <i_f3d_flags>
0

> <s_epik_input>
bjFbY0hdbmMoW05IMl0pYyhjMTIpbltjSF1uMltDQEBIXTNPW0NAQEhdKFtDSDJdW09IXSlbQ0BIXShGKVtDQEhdM1tPSF0=

> <s_epik_cmdline>
J2VwaWtfcHl0aG9uJywgJy1waCcsICc3LjAnLCAnLXRuJywgJzgnLCAnLW1hJywgJzIwMCcsICctbWV0YWxfYmluZGluZycsICctaW1hZScsICc8aW5maWxlLm1hZT4nLCAnLW9tYWUnLCAnPG91dGZpbGUubWFlPic=

> <r_lp_tautomer_probability>
1

> <r_epik_Ionization_Penalty>
0.000750324

> <r_epik_Ionization_Penalty_Charging>
0

> <r_epik_Ionization_Penalty_Neutral>
0.000750324

> <r_epik_State_Penalty>
-0

> <r_epik_Charging_Adjusted_Penalty>
0

> <i_epik_Tot_Q>
0

> <i_epik_Tot_abs_Q>
0

> <r_epik_Metal_State_Penalty>
-0

> <b_epik_Metal_Only>
0

> <s_epik_Chemistry_Notes>
This compound contains an acetal/aminal-like group ( X-CH(R)-Y where X, Y are N, S, or O) that may be acid/base labile, releasing an aldehyde.

> <s_lp_Force_Field>
OPLS_2005

> <r_lp_Energy>
32.6181

> <b_lp_Chiralities_Consistent>
1

> <s_lp_Variant>
AV-unprocessed.smi:100-12

> <Gold.Version>
5.8.1

> <Gold.Id.Protein>
6NUR|6NUR_protein|mol2

> <Gold.PLP.Fitness>
43.3633

> <Gold.PLP.PLP>
-31.2424

> <Gold.PLP.part.hbond>
-4.5908

> <Gold.PLP.part.metal>
0.0000

> <Gold.PLP.part.buried>
-3.9432

> <Gold.PLP.part.nonpolar>
-23.2054

> <Gold.PLP.part.repulsive>
0.2596

> <Gold.PLP.ligand.clash>
0.0000

> <Gold.PLP.ligand.torsion>
0.0098

> <Gold.PLP.Chemscore.Hbond>
3.0427

> <Gold.PLP.Chemscore.CHOScore>
1.0000

> <Gold.PLP.Chemscore.Metal>
0.0000

> <Gold.Chemscore.Hbonds>
donor molecule, donor type, donor heavy atom, donor atom, acceptor molecule, acceptor atom, score
      L1  H     1    20       P1  7957  1.00
      L1  H     1    21       P1  7948  0.93
      L1  H    19    31       P1  8029  0.45
      P1  H  7989  7998       L1     8  0.59
      L1  C     9    23       P1  8028  1.00

> <Gold.PLP.Chemscore.Internal.Correction>
0.0122

> <Gold.Rescore>
     Score         DG    S(hbond)    S(metal)    S(lipo)     H(rot)  DE(clash)    DE(int)     intcor
      8.64     -10.70       2.29        0.00      49.15       3.19       0.30       1.77       ----

> <Gold.Chemscore.Fitness>
8.6391

> <Gold.Chemscore.DG>
-10.7050

> <Gold.Chemscore.ZeroCoef>
-5.4800

> <Gold.Chemscore.Hbond>
2.2877

> <Gold.Chemscore.Metal>
0.0000

> <Gold.Chemscore.Lipo>
49.1504

> <Gold.Chemscore.Internal_Hbond>
0.0000

> <Gold.Chemscore.DEClash>
0.2994

> <Gold.Chemscore.DEInternal>
1.7665

> <Gold.Chemscore.Rot>
3.1901

> <Gold.Chemscore.Internal.Correction>
   9.000000E+99

> <Gold.Chemscore.Hbonds>
donor molecule, donor type, donor heavy atom, donor atom, acceptor molecule, acceptor atom, score
      L1  H     1    20       P1  7957  0.89
      L1  H     1    21       P1  7948  0.44
      L1  H    19    31       P1  8029  0.03
      P1  H  7989  7998       L1     8  0.15

> <Gold.Chemscore.Hbond.Weighted>
-7.6410

> <Gold.Chemscore.Metal.Weighted>
-0.0000

> <Gold.Chemscore.Lipo.Weighted>
-5.7506

> <Gold.Chemscore.Internal_Hbond.Weighted>
0.0000

> <Gold.Chemscore.DEClash.Weighted>
0.2994

> <Gold.Chemscore.DEInternal.Weighted>
1.7665

> <Gold.Chemscore.Rot.Weighted>
8.1667

> <Gold.Chemscore.Internal.Correction.Weighted>
   9.000000E+99

> <Gold.Protein.RotatedTorsions>
[ 6907 6896 6895 6894 ] final   83.91 input  -60.11 | X-H torsion
[ 7974 7965 7964 7962 ] final -124.37 input  175.53 | X-H torsion
[ 8008 7997 7996 7995 ] final -177.95 input   59.86 | X-H torsion
[ 10167 10162 10161 10158 ] final   78.79 input  -65.29 | X-H torsion
[ 10718 10713 10712 10709 ] final  159.23 input   66.30 | X-H torsion
[ 10763 10752 10751 10750 ] final  176.52 input  -60.55 | X-H torsion
[ 11005 11000 10999 10996 ] final   42.54 input  -57.11 | X-H torsion

> <Gold.Protein.ActiveResidues>
 VAL166  LYS551  ARG553  GLY616  TRP617  ASP618  TYR619  PRO620  LYS621  CYS622 
 ASP623  PHE694  ASN695  SER759  ASP760  ASP761  ALA762  ILE779  LEU786  VAL792 
 PHE793  MET794  SER795  GLU796  ALA797  LYS798  CYS799  TRP800  GLU811  SER814 

> <Gold.Protein.RotatedAtoms>
  152.5339  134.2823  159.9011 H   0  0  0  0  0  0  0  0  0  0  0  0  # atno 6907 bound_to 6896
  151.2776  133.4218  159.2632 H   0  0  0  0  0  0  0  0  0  0  0  0  # atno 6908 bound_to 6896
  151.0312  134.9555  159.8168 H   0  0  0  0  0  0  0  0  0  0  0  0  # atno 6909 bound_to 6896
  145.0087  140.7886  143.4451 H   0  0  0  0  0  0  0  0  0  0  0  0  # atno 7974 bound_to 7965
  156.0131  140.1245  157.0434 H   0  0  0  0  0  0  0  0  0  0  0  0  # atno 8008 bound_to 7997
  154.4283  140.1084  156.5927 H   0  0  0  0  0  0  0  0  0  0  0  0  # atno 8009 bound_to 7997
  155.6052  140.3471  155.4608 H   0  0  0  0  0  0  0  0  0  0  0  0  # atno 8010 bound_to 7997
  139.9671  144.5920  150.8018 H   0  0  0  0  0  0  0  0  0  0  0  0  # atno 10167 bound_to 10162
  157.1671  131.0601  151.2202 H   0  0  0  0  0  0  0  0  0  0  0  0  # atno 10718 bound_to 10713
  154.4822  135.2775  155.1561 H   0  0  0  0  0  0  0  0  0  0  0  0  # atno 10763 bound_to 10752
  154.3267  135.6198  153.5536 H   0  0  0  0  0  0  0  0  0  0  0  0  # atno 10764 bound_to 10752
  152.9877  135.5755  154.5226 H   0  0  0  0  0  0  0  0  0  0  0  0  # atno 10765 bound_to 10752
  140.1729  134.4199  155.8246 H   0  0  0  0  0  0  0  0  0  0  0  0  # atno 11005 bound_to 11000
  145.2052  139.2232  143.5172 LP  0  0  0  0  0  0  0  0  0  0  0  0  # atno 17320 bound_to 7965
  146.3466  140.1878  142.8589 LP  0  0  0  0  0  0  0  0  0  0  0  0  # atno 17321 bound_to 7965
  140.7534  143.3008  151.3086 LP  0  0  0  0  0  0  0  0  0  0  0  0  # atno 17342 bound_to 10162
  139.6509  144.0364  152.2625 LP  0  0  0  0  0  0  0  0  0  0  0  0  # atno 17343 bound_to 10162
  157.4078  130.7368  149.6816 LP  0  0  0  0  0  0  0  0  0  0  0  0  # atno 17370 bound_to 10713
  155.9744  130.4103  150.3924 LP  0  0  0  0  0  0  0  0  0  0  0  0  # atno 17371 bound_to 10713
  141.2218  133.6964  156.7796 LP  0  0  0  0  0  0  0  0  0  0  0  0  # atno 17394 bound_to 11000
  140.2356  134.8653  157.3521 LP  0  0  0  0  0  0  0  0  0  0  0  0  # atno 17395 bound_to 11000

$$$$
