#       Name:                AV-unprocessed.smi:3168
#       Creating user name   scv26
#       Creation time:       Fri Mar 27 17:53:45 2020


#       File generated by GOLD software.
#

@<TRIPOS>MOLECULE
AV-unprocessed.smi:3168
    38    39     1
SMALL
NO_CHARGES


@<TRIPOS>ATOM
      1 ****        -2.4615  -1.9074  -1.6258 C.3            1 S1                 0.0000
      2 ****        -1.9769  -1.1065  -0.3997 C.3            1 S1                 0.0000
      3 ****        -0.4529  -0.8936  -0.3832 C.2            1 S1                 0.0000
      4 ****         0.2782  -1.5105  -1.1591 O.2            1 S1                 0.0000
      5 ****         0.0115   0.0005   0.5047 N.am           1 S1                 0.0000
      6 ****         1.4100   0.3804   0.6660 C.3            1 S1                 0.0000
      7 ****         1.7432   1.6400  -0.1495 C.3            1 S1                 0.0000
      8 ****         3.1628   2.1564   0.0730 C.3            1 S1                 0.0000
      9 ****         3.3908   2.9653  -1.1834 C.3            1 S1                 0.0000
     10 ****         2.6830   2.1194  -2.2393 C.3            1 S1                 0.0000
     11 ****         1.6781   1.3797  -1.5493 O.3            1 S1                 0.0000
     12 ****        -2.4308  -1.7015   0.8528 N.pl3          1 S1                 0.0000
     13 ****        -3.0679  -1.0780   1.9070 C.2            1 S1                 0.0000
     14 ****        -3.2728  -2.0169   2.8769 C.2            1 S1                 0.0000
     15 ****        -2.7127  -3.2016   2.3237 C.2            1 S1                 0.0000
     16 ****        -2.2047  -3.0097   1.1174 N.2            1 S1                 0.0000
     17 ****        -2.1683  -1.4194  -2.5561 H              1 S1                 0.0000
     18 ****        -3.5487  -1.9901  -1.6303 H              1 S1                 0.0000
     19 ****        -2.0536  -2.9190  -1.6407 H              1 S1                 0.0000
     20 ****        -2.4294  -0.1158  -0.4660 H              1 S1                 0.0000
     21 ****        -0.6568   0.4621   1.1043 H              1 S1                 0.0000
     22 ****         1.5769   0.5768   1.7254 H              1 S1                 0.0000
     23 ****         2.0764  -0.4410   0.3974 H              1 S1                 0.0000
     24 ****         1.0345   2.4377   0.0801 H              1 S1                 0.0000
     25 ****         3.2638   2.7451   0.9851 H              1 S1                 0.0000
     26 ****         3.8722   1.3285   0.1177 H              1 S1                 0.0000
     27 ****         2.9044   3.9375  -1.0931 H              1 S1                 0.0000
     28 ****         4.4456   3.1300  -1.4046 H              1 S1                 0.0000
     29 ****         2.2507   2.7301  -3.0322 H              1 S1                 0.0000
     30 ****         3.3777   1.4141  -2.6964 H              1 S1                 0.0000
     31 ****        -3.3196  -0.0279   1.8799 H              1 S1                 0.0000
     32 ****        -3.7475  -1.8778   3.8368 H              1 S1                 0.0000
     33 ****        -2.6573  -4.1878   2.7607 H              1 S1                 0.0000
     34 ****        -0.1170  -2.1587  -1.8099 LP             1 S1                 0.0000
     35 ****         1.2671  -1.3631  -1.1383 LP             1 S1                 0.0000
     36 ****         0.7779   1.6472  -1.8927 LP             1 S1                 0.0000
     37 ****         1.8194   0.4028  -1.7098 LP             1 S1                 0.0000
     38 ****        -1.7534  -3.6822   0.5308 LP             1 S1                 0.0000
@<TRIPOS>BOND
    1    1    2 1     
    2    1   17 1     
    3    1   18 1     
    4    1   19 1     
    5    2    3 1     
    6    2   12 1     
    7    2   20 1     
    8    3    4 2     
    9    3    5 am    
   10    5    6 1     
   11    5   21 1     
   12    6    7 1     
   13    6   22 1     
   14    6   23 1     
   15    7   11 1     
   16    7    8 1     
   17    7   24 1     
   18    8    9 1     
   19    8   25 1     
   20    8   26 1     
   21    9   10 1     
   22    9   27 1     
   23    9   28 1     
   24   10   11 1     
   25   10   29 1     
   26   10   30 1     
   27   12   16 1     
   28   12   13 1     
   29   13   14 2     
   30   13   31 1     
   31   14   15 1     
   32   14   32 1     
   33   15   16 2     
   34   15   33 1     
   35    4   34 1     
   36    4   35 1     
   37   11   36 1     
   38   11   37 1     
   39   16   38 1     
@<TRIPOS>SUBSTRUCTURE
      1 S1             1
@<TRIPOS>SET
LONE_PAIRS      STATIC     ATOMS    <user>   **** ""
5 34 35 36 37 38
DONOR_HYDROGENS      STATIC     ATOMS    <user>   **** ""
1 21
ATOM$BLUE        STATIC     ATOMS    COLORGROUP SYSTEM
5 34 35 36 37 38
ATOM$RED        STATIC     ATOMS    COLORGROUP SYSTEM
1 21
