AV-unprocessed.smi:3216|AV-procd|sdf|12287|dock9
  -GOLD-   2272018133D 1   1.00000     0.00000
 Structure written by MMmdl.
 37 37  0  0  0  0  0  0  0  0  2 V2000
  150.4034  139.0876  154.5196 C   0  0  0  0  0  0  0  0  0  0  0  0
  149.9423  140.5538  154.4514 C   0  0  0  0  0  0  0  0  0  0  0  0
  150.3665  141.3148  155.7162 C   0  0  0  0  0  0  0  0  0  0  0  0
  148.4210  140.6809  154.2226 C   0  0  0  0  0  0  0  0  0  0  0  0
  147.9583  139.9000  153.0791 N   0  0  0  0  0  0  0  0  0  0  0  0
  146.8402  139.1593  153.0539 C   0  0  0  0  0  0  0  0  0  0  0  0
  146.0723  139.0624  154.0120 O   0  0  0  0  0  0  0  0  0  0  0  0
  146.5467  138.4302  151.7416 C   0  0  0  0  0  0  0  0  0  0  0  0
  145.4114  137.4930  151.8648 N   0  3  0  0  0  0  0  0  0  0  0  0
  145.7006  136.1302  151.3799 C   0  0  0  0  0  0  0  0  0  0  0  0
  144.4116  135.3049  151.2539 C   0  0  0  0  0  0  0  0  0  0  0  0
  144.6909  133.8976  151.0426 N   0  0  0  0  0  0  0  0  0  0  0  0
  143.8030  132.8434  150.9947 C   0  0  0  0  0  0  0  0  0  0  0  0
  144.5317  131.7087  150.7800 C   0  0  0  0  0  0  0  0  0  0  0  0
  145.8743  132.1758  150.7149 C   0  0  0  0  0  0  0  0  0  0  0  0
  145.9663  133.4864  150.8745 N   0  0  0  0  0  0  0  0  0  0  0  0
  149.9158  138.5577  155.3385 H   0  0  0  0  0  0  0  0  0  0  0  0
  151.4803  139.0231  154.6782 H   0  0  0  0  0  0  0  0  0  0  0  0
  150.1809  138.5523  153.5964 H   0  0  0  0  0  0  0  0  0  0  0  0
  150.4537  141.0218  153.6092 H   0  0  0  0  0  0  0  0  0  0  0  0
  149.8819  140.9089  156.6049 H   0  0  0  0  0  0  0  0  0  0  0  0
  150.1033  142.3707  155.6464 H   0  0  0  0  0  0  0  0  0  0  0  0
  151.4446  141.2558  155.8684 H   0  0  0  0  0  0  0  0  0  0  0  0
  147.8831  140.3357  155.1063 H   0  0  0  0  0  0  0  0  0  0  0  0
  148.1429  141.7278  154.0881 H   0  0  0  0  0  0  0  0  0  0  0  0
  148.5313  139.9302  152.2478 H   0  0  0  0  0  0  0  0  0  0  0  0
  146.3268  139.1693  150.9702 H   0  0  0  0  0  0  0  0  0  0  0  0
  147.4356  137.8814  151.4267 H   0  0  0  0  0  0  0  0  0  0  0  0
  145.1468  137.4414  152.8382 H   0  0  0  0  0  0  0  0  0  0  0  0
  146.2011  136.1911  150.4123 H   0  0  0  0  0  0  0  0  0  0  0  0
  146.3918  135.6468  152.0720 H   0  0  0  0  0  0  0  0  0  0  0  0
  143.8020  135.4049  152.1533 H   0  0  0  0  0  0  0  0  0  0  0  0
  143.8088  135.6673  150.4200 H   0  0  0  0  0  0  0  0  0  0  0  0
  142.7392  132.9857  151.1152 H   0  0  0  0  0  0  0  0  0  0  0  0
  144.1626  130.6981  150.6863 H   0  0  0  0  0  0  0  0  0  0  0  0
  146.7781  131.6053  150.5581 H   0  0  0  0  0  0  0  0  0  0  0  0
  144.6328  137.8670  151.3409 H   0  0  0  0  0  0  0  0  0  0  0  0
  1  2  1  0  0  0  0
  1 17  1  0  0  0  0
  1 18  1  0  0  0  0
  1 19  1  0  0  0  0
  2  3  1  0  0  0  0
  2  4  1  0  0  0  0
  2 20  1  0  0  0  0
  3 21  1  0  0  0  0
  3 22  1  0  0  0  0
  3 23  1  0  0  0  0
  4  5  1  0  0  0  0
  4 24  1  0  0  0  0
  4 25  1  0  0  0  0
  5  6  1  0  0  0  0
  5 26  1  0  0  0  0
  6  7  2  0  0  0  0
  6  8  1  0  0  0  0
  8  9  1  0  0  0  0
  8 27  1  0  0  0  0
  8 28  1  0  0  0  0
  9 10  1  0  0  0  0
  9 29  1  0  0  0  0
  9 37  1  0  0  0  0
 10 11  1  0  0  0  0
 10 30  1  0  0  0  0
 10 31  1  0  0  0  0
 11 12  1  0  0  0  0
 11 32  1  0  0  0  0
 11 33  1  0  0  0  0
 12 16  1  0  0  0  0
 12 13  1  0  0  0  0
 13 14  2  0  0  0  0
 13 34  1  0  0  0  0
 14 15  1  0  0  0  0
 14 35  1  0  0  0  0
 15 16  2  0  0  0  0
 15 36  1  0  0  0  0
M  CHG  1   9   1
M  END
> <s_m_source_file>
AV-unprocessed.smi

> <i_m_source_file_index>
3216

> <i_lp_mmshare_version>
43012

> <i_f3d_flags>
0

> <s_epik_input>
W0NIM11bQ0hdKFtDSDNdKVtDSDJdW05IXUMoPU8pW0NIMl1bTkhdW0NIMl1bQ0gyXW4xW2NIXVtjSF1bY0hdbjE=

> <s_epik_cmdline>
J2VwaWtfcHl0aG9uJywgJy1waCcsICc3LjAnLCAnLXRuJywgJzgnLCAnLW1hJywgJzIwMCcsICctbWV0YWxfYmluZGluZycsICctaW1hZScsICc8aW5maWxlLm1hZT4nLCAnLW9tYWUnLCAnPG91dGZpbGUubWFlPic=

> <r_lp_tautomer_probability>
1

> <r_epik_Ionization_Penalty>
0.20724

> <r_epik_Ionization_Penalty_Charging>
0.207237

> <r_epik_Ionization_Penalty_Neutral>
3.19342e-06

> <r_epik_State_Penalty>
0.197611

> <r_epik_Charging_Adjusted_Penalty>
0.404848

> <i_epik_Tot_Q>
1

> <i_epik_Tot_abs_Q>
1

> <r_epik_Metal_State_Penalty>
0.197786

> <b_epik_Metal_Only>
0

> <s_lp_Force_Field>
OPLS_2005

> <r_lp_Energy>
2.0828

> <b_lp_Chiralities_Consistent>
1

> <s_lp_Variant>
AV-unprocessed.smi:3216-1

> <Gold.Version>
5.8.1

> <Gold.Id.Protein>
6NUR|6NUR_protein|mol2

> <Gold.PLP.Fitness>
47.0204

> <Gold.PLP.PLP>
-36.2685

> <Gold.PLP.part.hbond>
-2.0000

> <Gold.PLP.part.metal>
0.0000

> <Gold.PLP.part.buried>
-3.1035

> <Gold.PLP.part.nonpolar>
-33.2978

> <Gold.PLP.part.repulsive>
0.4765

> <Gold.PLP.ligand.clash>
0.0000

> <Gold.PLP.ligand.torsion>
0.6652

> <Gold.PLP.Chemscore.Hbond>
2.0000

> <Gold.PLP.Chemscore.CHOScore>
1.9984

> <Gold.PLP.Chemscore.Metal>
0.0000

> <Gold.Chemscore.Hbonds>
donor molecule, donor type, donor heavy atom, donor atom, acceptor molecule, acceptor atom, score
      L1  H     5    26       P1  7957  0.99
      L1  H     9    37       P1 10171  1.00
      L1  C    13    34       P1 10186  0.49
      L1  C    15    36       P1 10747  1.00

> <Gold.PLP.Chemscore.Internal.Correction>
0.0870

> <Gold.Rescore>
     Score         DG    S(hbond)    S(metal)    S(lipo)     H(rot)  DE(clash)    DE(int)     intcor
     14.52     -15.29       2.00        0.00      77.58       2.32       0.07       0.70       ----

> <Gold.Chemscore.Fitness>
14.5215

> <Gold.Chemscore.DG>
-15.2920

> <Gold.Chemscore.ZeroCoef>
-5.4800

> <Gold.Chemscore.Hbond>
1.9975

> <Gold.Chemscore.Metal>
0.0000

> <Gold.Chemscore.Lipo>
77.5798

> <Gold.Chemscore.Internal_Hbond>
0.0000

> <Gold.Chemscore.DEClash>
0.0703

> <Gold.Chemscore.DEInternal>
0.7003

> <Gold.Chemscore.Rot>
2.3189

> <Gold.Chemscore.Internal.Correction>
   9.000000E+99

> <Gold.Chemscore.Hbonds>
donor molecule, donor type, donor heavy atom, donor atom, acceptor molecule, acceptor atom, score
      L1  H     5    26       P1  7957  0.92
      L1  H     9    37       P1 10171  0.97

> <Gold.Chemscore.Hbond.Weighted>
-6.6715

> <Gold.Chemscore.Metal.Weighted>
-0.0000

> <Gold.Chemscore.Lipo.Weighted>
-9.0768

> <Gold.Chemscore.Internal_Hbond.Weighted>
0.0000

> <Gold.Chemscore.DEClash.Weighted>
0.0703

> <Gold.Chemscore.DEInternal.Weighted>
0.7003

> <Gold.Chemscore.Rot.Weighted>
5.9363

> <Gold.Chemscore.Internal.Correction.Weighted>
   9.000000E+99

> <Gold.Protein.RotatedTorsions>
[ 6907 6896 6895 6894 ] final  164.00 input  -60.11 | X-H torsion
[ 7974 7965 7964 7962 ] final   22.86 input  175.53 | X-H torsion
[ 8008 7997 7996 7995 ] final -127.48 input   59.86 | X-H torsion
[ 10167 10162 10161 10158 ] final   65.53 input  -65.29 | X-H torsion
[ 10718 10713 10712 10709 ] final  -52.34 input   66.30 | X-H torsion
[ 10763 10752 10751 10750 ] final -128.59 input  -60.55 | X-H torsion
[ 11005 11000 10999 10996 ] final  104.51 input  -57.11 | X-H torsion

> <Gold.Protein.ActiveResidues>
 VAL166  LYS551  ARG553  GLY616  TRP617  ASP618  TYR619  PRO620  LYS621  CYS622 
 ASP623  PHE694  ASN695  SER759  ASP760  ASP761  ALA762  ILE779  LEU786  VAL792 
 PHE793  MET794  SER795  GLU796  ALA797  LYS798  CYS799  TRP800  GLU811  SER814 

> <Gold.Protein.RotatedAtoms>
  151.9165  133.3574  159.3881 H   0  0  0  0  0  0  0  0  0  0  0  0  # atno 6907 bound_to 6896
  150.7046  134.4679  159.5420 H   0  0  0  0  0  0  0  0  0  0  0  0  # atno 6908 bound_to 6896
  152.2294  134.8336  160.0526 H   0  0  0  0  0  0  0  0  0  0  0  0  # atno 6909 bound_to 6896
  146.2010  139.7825  142.8761 H   0  0  0  0  0  0  0  0  0  0  0  0  # atno 7974 bound_to 7965
  155.2469  140.0431  157.2982 H   0  0  0  0  0  0  0  0  0  0  0  0  # atno 8008 bound_to 7997
  154.5793  140.2396  155.8046 H   0  0  0  0  0  0  0  0  0  0  0  0  # atno 8009 bound_to 7997
  156.2181  140.2978  155.9896 H   0  0  0  0  0  0  0  0  0  0  0  0  # atno 8010 bound_to 7997
  140.1103  144.4824  150.6982 H   0  0  0  0  0  0  0  0  0  0  0  0  # atno 10167 bound_to 10162
  156.1630  130.4149  149.9764 H   0  0  0  0  0  0  0  0  0  0  0  0  # atno 10718 bound_to 10713
  154.8756  135.3923  154.3781 H   0  0  0  0  0  0  0  0  0  0  0  0  # atno 10763 bound_to 10752
  153.4532  135.7028  153.6101 H   0  0  0  0  0  0  0  0  0  0  0  0  # atno 10764 bound_to 10752
  153.4632  135.3807  155.2318 H   0  0  0  0  0  0  0  0  0  0  0  0  # atno 10765 bound_to 10752
  139.8792  134.9303  156.5372 H   0  0  0  0  0  0  0  0  0  0  0  0  # atno 11005 bound_to 11000
  145.3484  141.0302  143.3353 LP  0  0  0  0  0  0  0  0  0  0  0  0  # atno 17320 bound_to 7965
  144.8683  139.5075  143.6779 LP  0  0  0  0  0  0  0  0  0  0  0  0  # atno 17321 bound_to 7965
  140.6929  143.2386  151.5081 LP  0  0  0  0  0  0  0  0  0  0  0  0  # atno 17342 bound_to 10162
  139.5623  144.2127  152.1710 LP  0  0  0  0  0  0  0  0  0  0  0  0  # atno 17343 bound_to 10162
  156.7587  130.9143  151.3640 LP  0  0  0  0  0  0  0  0  0  0  0  0  # atno 17370 bound_to 10713
  157.6747  130.9083  150.0121 LP  0  0  0  0  0  0  0  0  0  0  0  0  # atno 17371 bound_to 10713
  140.8337  133.8259  155.9008 LP  0  0  0  0  0  0  0  0  0  0  0  0  # atno 17394 bound_to 11000
  140.9304  134.2029  157.4867 LP  0  0  0  0  0  0  0  0  0  0  0  0  # atno 17395 bound_to 11000

$$$$
