AV-unprocessed.smi:2637|AV-procd|sdf|10261|dock2
  -GOLD-   2272014273D 1   1.00000     0.00000
 Structure written by MMmdl.
 40 41  0  0  0  0  0  0  0  0  1 V2000
  150.7937  141.6558  156.3247 C   0  0  0  0  0  0  0  0  0  0  0  0
  151.0950  140.2973  155.7636 C   0  0  0  0  0  0  0  0  0  0  0  0
  150.1734  139.2666  155.4178 C   0  0  0  0  0  0  0  0  0  0  0  0
  150.9930  138.2693  154.9640 C   0  0  0  0  0  0  0  0  0  0  0  0
  150.6617  137.0368  154.4953 N   0  0  0  0  0  0  0  0  0  0  0  0
  150.1147  136.0036  155.1590 C   0  0  0  0  0  0  0  0  0  0  0  0
  149.7982  136.0063  156.3489 O   0  0  0  0  0  0  0  0  0  0  0  0
  149.9577  134.9424  154.3543 N   0  0  0  0  0  0  0  0  0  0  0  0
  149.4084  133.6495  154.7525 C   0  0  0  0  0  0  0  0  0  0  0  0
  148.7578  132.9092  153.5712 C   0  0  0  0  0  0  0  0  0  0  0  0
  147.3892  133.4795  153.1519 C   0  0  0  0  0  0  0  0  0  0  0  0
  146.6081  132.4981  152.3930 N   0  0  0  0  0  0  0  0  0  0  0  0
  146.4001  131.2338  152.7869 C   0  0  0  0  0  0  0  0  0  0  0  0
  146.8247  130.7115  153.8172 O   0  0  0  0  0  0  0  0  0  0  0  0
  145.5377  130.4832  151.7809 C   0  0  0  0  0  0  0  0  0  0  0  0
  145.2528  131.5419  150.7109 C   0  0  0  0  0  0  0  0  0  0  0  0
  145.9913  132.7667  151.2334 C   0  0  0  0  0  0  0  0  0  0  0  0
  145.9907  133.8454  150.6407 O   0  0  0  0  0  0  0  0  0  0  0  0
  152.2999  138.6960  155.0458 N   0  0  0  0  0  0  0  0  0  0  0  0
  153.5210  138.0031  154.6832 C   0  0  0  0  0  0  0  0  0  0  0  0
  152.3579  139.9520  155.5390 N   0  0  0  0  0  0  0  0  0  0  0  0
  149.7189  141.8178  156.4089 H   0  0  0  0  0  0  0  0  0  0  0  0
  151.1987  142.4430  155.6882 H   0  0  0  0  0  0  0  0  0  0  0  0
  151.2257  141.7737  157.3187 H   0  0  0  0  0  0  0  0  0  0  0  0
  149.0968  139.2789  155.4976 H   0  0  0  0  0  0  0  0  0  0  0  0
  150.8636  136.8806  153.5188 H   0  0  0  0  0  0  0  0  0  0  0  0
  150.2481  135.0315  153.3914 H   0  0  0  0  0  0  0  0  0  0  0  0
  150.1674  133.0224  155.2233 H   0  0  0  0  0  0  0  0  0  0  0  0
  148.6549  133.8357  155.5180 H   0  0  0  0  0  0  0  0  0  0  0  0
  149.4372  132.9543  152.7189 H   0  0  0  0  0  0  0  0  0  0  0  0
  148.6559  131.8520  153.8200 H   0  0  0  0  0  0  0  0  0  0  0  0
  146.8214  133.7906  154.0297 H   0  0  0  0  0  0  0  0  0  0  0  0
  147.5318  134.3858  152.5608 H   0  0  0  0  0  0  0  0  0  0  0  0
  146.0814  129.6302  151.3737 H   0  0  0  0  0  0  0  0  0  0  0  0
  144.6221  130.1255  152.2533 H   0  0  0  0  0  0  0  0  0  0  0  0
  145.6409  131.2484  149.7350 H   0  0  0  0  0  0  0  0  0  0  0  0
  144.1863  131.7494  150.6185 H   0  0  0  0  0  0  0  0  0  0  0  0
  153.4963  136.9839  155.0699 H   0  0  0  0  0  0  0  0  0  0  0  0
  154.3898  138.5147  155.0996 H   0  0  0  0  0  0  0  0  0  0  0  0
  153.6133  137.9712  153.5972 H   0  0  0  0  0  0  0  0  0  0  0  0
  1  2  1  0  0  0  0
  1 22  1  0  0  0  0
  1 23  1  0  0  0  0
  1 24  1  0  0  0  0
  2 21  2  0  0  0  0
  2  3  1  0  0  0  0
  3  4  2  0  0  0  0
  3 25  1  0  0  0  0
  4  5  1  0  0  0  0
  4 19  1  0  0  0  0
  5  6  1  0  0  0  0
  5 26  1  0  0  0  0
  6  7  2  0  0  0  0
  6  8  1  0  0  0  0
  8  9  1  0  0  0  0
  8 27  1  0  0  0  0
  9 10  1  0  0  0  0
  9 28  1  0  0  0  0
  9 29  1  0  0  0  0
 10 11  1  0  0  0  0
 10 30  1  0  0  0  0
 10 31  1  0  0  0  0
 11 12  1  0  0  0  0
 11 32  1  0  0  0  0
 11 33  1  0  0  0  0
 12 17  1  0  0  0  0
 12 13  1  0  0  0  0
 13 14  2  0  0  0  0
 13 15  1  0  0  0  0
 15 16  1  0  0  0  0
 15 34  1  0  0  0  0
 15 35  1  0  0  0  0
 16 17  1  0  0  0  0
 16 36  1  0  0  0  0
 16 37  1  0  0  0  0
 17 18  2  0  0  0  0
 19 20  1  0  0  0  0
 19 21  1  0  0  0  0
 20 38  1  0  0  0  0
 20 39  1  0  0  0  0
 20 40  1  0  0  0  0
M  END
> <s_m_source_file>
AV-unprocessed.smi

> <i_m_source_file_index>
2637

> <i_lp_mmshare_version>
43012

> <i_f3d_flags>
0

> <s_epik_input>
W0NIM11jMVtjSF1jKG4objEpW0NIM10pW05IXUMoPU8pW05IXVtDSDJdW0NIMl1bQ0gyXU4yQyg9TylbQ0gyXVtDSDJdQzI9Tw==

> <s_epik_cmdline>
J2VwaWtfcHl0aG9uJywgJy1waCcsICc3LjAnLCAnLXRuJywgJzgnLCAnLW1hJywgJzIwMCcsICctbWV0YWxfYmluZGluZycsICctaW1hZScsICc8aW5maWxlLm1hZT4nLCAnLW9tYWUnLCAnPG91dGZpbGUubWFlPic=

> <r_lp_tautomer_probability>
1

> <r_epik_Ionization_Penalty>
9.41646e-05

> <r_epik_Ionization_Penalty_Charging>
0

> <r_epik_Ionization_Penalty_Neutral>
9.41646e-05

> <r_epik_State_Penalty>
-0

> <r_epik_Charging_Adjusted_Penalty>
0

> <i_epik_Tot_Q>
0

> <i_epik_Tot_abs_Q>
0

> <r_epik_Metal_State_Penalty>
-0

> <b_epik_Metal_Only>
0

> <s_lp_Force_Field>
OPLS_2005

> <r_lp_Energy>
13.5658

> <b_lp_Chiralities_Consistent>
1

> <s_lp_Variant>
AV-unprocessed.smi:2637-1

> <Gold.Version>
5.8.1

> <Gold.Id.Protein>
6NUR|6NUR_protein|mol2

> <Gold.PLP.Fitness>
43.2185

> <Gold.PLP.PLP>
-39.3296

> <Gold.PLP.part.hbond>
-5.7423

> <Gold.PLP.part.metal>
0.0000

> <Gold.PLP.part.buried>
0.7982

> <Gold.PLP.part.nonpolar>
-34.9454

> <Gold.PLP.part.repulsive>
1.1126

> <Gold.PLP.ligand.clash>
0.0000

> <Gold.PLP.ligand.torsion>
1.0774

> <Gold.PLP.Chemscore.Hbond>
1.9913

> <Gold.PLP.Chemscore.CHOScore>
0.0000

> <Gold.PLP.Chemscore.Metal>
0.0000

> <Gold.Chemscore.Hbonds>
donor molecule, donor type, donor heavy atom, donor atom, acceptor molecule, acceptor atom, score
      L1  H     5    26       P1  7949  0.41
      P1  H  7997  8010       L1    21  0.76

> <Gold.PLP.Chemscore.Internal.Correction>
0.0700

> <Gold.Rescore>
     Score         DG    S(hbond)    S(metal)    S(lipo)     H(rot)  DE(clash)    DE(int)     intcor
      8.45     -12.65       1.42        0.00      65.95       2.07       1.94       2.27       ----

> <Gold.Chemscore.Fitness>
8.4510

> <Gold.Chemscore.DG>
-12.6546

> <Gold.Chemscore.ZeroCoef>
-5.4800

> <Gold.Chemscore.Hbond>
1.4244

> <Gold.Chemscore.Metal>
0.0000

> <Gold.Chemscore.Lipo>
65.9547

> <Gold.Chemscore.Internal_Hbond>
0.0000

> <Gold.Chemscore.DEClash>
1.9375

> <Gold.Chemscore.DEInternal>
2.2660

> <Gold.Chemscore.Rot>
2.0701

> <Gold.Chemscore.Internal.Correction>
   9.000000E+99

> <Gold.Chemscore.Hbonds>
donor molecule, donor type, donor heavy atom, donor atom, acceptor molecule, acceptor atom, score
      L1  H     5    26       P1  7949  0.07
      P1  H  7997  8010       L1    21  0.29

> <Gold.Chemscore.Hbond.Weighted>
-4.7574

> <Gold.Chemscore.Metal.Weighted>
-0.0000

> <Gold.Chemscore.Lipo.Weighted>
-7.7167

> <Gold.Chemscore.Internal_Hbond.Weighted>
0.0000

> <Gold.Chemscore.DEClash.Weighted>
1.9375

> <Gold.Chemscore.DEInternal.Weighted>
2.2660

> <Gold.Chemscore.Rot.Weighted>
5.2995

> <Gold.Chemscore.Internal.Correction.Weighted>
   9.000000E+99

> <Gold.Protein.RotatedTorsions>
[ 6907 6896 6895 6894 ] final  137.89 input  -60.11 | X-H torsion
[ 7974 7965 7964 7962 ] final   94.70 input  175.53 | X-H torsion
[ 8008 7997 7996 7995 ] final  103.53 input   59.86 | X-H torsion
[ 10167 10162 10161 10158 ] final  158.61 input  -65.29 | X-H torsion
[ 10718 10713 10712 10709 ] final  144.21 input   66.30 | X-H torsion
[ 10763 10752 10751 10750 ] final  144.27 input  -60.55 | X-H torsion
[ 11005 11000 10999 10996 ] final   50.72 input  -57.11 | X-H torsion

> <Gold.Protein.ActiveResidues>
 VAL166  LYS551  ARG553  GLY616  TRP617  ASP618  TYR619  PRO620  LYS621  CYS622 
 ASP623  PHE694  ASN695  SER759  ASP760  ASP761  ALA762  ILE779  LEU786  VAL792 
 PHE793  MET794  SER795  GLU796  ALA797  LYS798  CYS799  TRP800  GLU811  SER814 

> <Gold.Protein.RotatedAtoms>
  152.2729  133.5399  159.5450 H   0  0  0  0  0  0  0  0  0  0  0  0  # atno 6907 bound_to 6896
  150.7166  134.0672  159.3861 H   0  0  0  0  0  0  0  0  0  0  0  0  # atno 6908 bound_to 6896
  151.8586  135.0532  160.0517 H   0  0  0  0  0  0  0  0  0  0  0  0  # atno 6909 bound_to 6896
  145.4621  139.2286  143.2981 H   0  0  0  0  0  0  0  0  0  0  0  0  # atno 7974 bound_to 7965
  156.1492  140.3163  155.8620 H   0  0  0  0  0  0  0  0  0  0  0  0  # atno 8008 bound_to 7997
  155.4004  140.0499  157.3054 H   0  0  0  0  0  0  0  0  0  0  0  0  # atno 8009 bound_to 7997
  154.5043  140.2141  155.9294 H   0  0  0  0  0  0  0  0  0  0  0  0  # atno 8010 bound_to 7997
  139.4827  144.4809  151.8446 H   0  0  0  0  0  0  0  0  0  0  0  0  # atno 10167 bound_to 10162
  157.3598  131.0963  151.0925 H   0  0  0  0  0  0  0  0  0  0  0  0  # atno 10718 bound_to 10713
  153.9861  135.2936  155.3416 H   0  0  0  0  0  0  0  0  0  0  0  0  # atno 10763 bound_to 10752
  154.7241  135.5096  153.8862 H   0  0  0  0  0  0  0  0  0  0  0  0  # atno 10764 bound_to 10752
  153.0832  135.6685  154.0118 H   0  0  0  0  0  0  0  0  0  0  0  0  # atno 10765 bound_to 10752
  140.0993  134.5103  155.8778 H   0  0  0  0  0  0  0  0  0  0  0  0  # atno 11005 bound_to 11000
  146.2445  140.5391  142.8920 LP  0  0  0  0  0  0  0  0  0  0  0  0  # atno 17320 bound_to 7965
  144.7996  140.6189  143.6487 LP  0  0  0  0  0  0  0  0  0  0  0  0  # atno 17321 bound_to 7965
  140.4285  144.2148  150.5887 LP  0  0  0  0  0  0  0  0  0  0  0  0  # atno 17342 bound_to 10162
  140.4803  143.2381  151.8964 LP  0  0  0  0  0  0  0  0  0  0  0  0  # atno 17343 bound_to 10162
  157.2069  130.6420  149.5759 LP  0  0  0  0  0  0  0  0  0  0  0  0  # atno 17370 bound_to 10713
  155.9735  130.4672  150.6318 LP  0  0  0  0  0  0  0  0  0  0  0  0  # atno 17371 bound_to 10713
  141.2101  133.6691  156.6485 LP  0  0  0  0  0  0  0  0  0  0  0  0  # atno 17394 bound_to 11000
  140.3242  134.7982  157.4276 LP  0  0  0  0  0  0  0  0  0  0  0  0  # atno 17395 bound_to 11000

$$$$
