#       Name:                AV-unprocessed.smi:2076
#       Creating user name   scv26
#       Creation time:       Fri Mar 27 11:15:51 2020


#       File generated by GOLD software.
#

@<TRIPOS>MOLECULE
AV-unprocessed.smi:2076
    50    51     1
SMALL
NO_CHARGES


@<TRIPOS>ATOM
      1 ****        -3.9913   3.0270   0.1154 C.3            1 S1                 0.0000
      2 ****        -3.6334   2.0363  -0.9526 C.2            1 S1                 0.0000
      3 ****        -3.4796   2.2627  -2.3490 C.2            1 S1                 0.0000
      4 ****        -3.1467   1.0380  -2.8550 C.2            1 S1                 0.0000
      5 ****        -2.8474   0.6254  -4.2588 C.3            1 S1                 0.0000
      6 ****        -3.1174   0.1572  -1.7883 N.pl3          1 S1                 0.0000
      7 ****        -2.7979  -1.2625  -1.7785 C.3            1 S1                 0.0000
      8 ****        -1.2899  -1.4823  -1.6488 C.2            1 S1                 0.0000
      9 ****        -0.6416  -1.9127  -2.6020 O.2            1 S1                 0.0000
     10 ****        -0.7442  -1.1693  -0.4652 N.am           1 S1                 0.0000
     11 ****         0.6809  -1.2171  -0.1681 C.3            1 S1                 0.0000
     12 ****         1.0139  -0.5280   1.1815 C.3            1 S1                 0.0000
     13 ****         0.4771   0.9230   1.1928 C.3            1 S1                 0.0000
     14 ****         2.4759  -0.5396   1.5172 N.4            1 S1                 1.0000
     15 ****         2.7325  -0.3044   2.9644 C.3            1 S1                 0.0000
     16 ****         4.2399  -0.2228   3.2537 C.3            1 S1                 0.0000
     17 ****         4.8673  -1.4245   2.8320 O.3            1 S1                 0.0000
     18 ****         4.7247  -1.6225   1.4334 C.3            1 S1                 0.0000
     19 ****         3.2346  -1.7402   1.0682 C.3            1 S1                 0.0000
     20 ****        -3.4151   0.7738  -0.6229 N.2            1 S1                 0.0000
     21 ****        -4.2232   4.0019  -0.3140 H              1 S1                 0.0000
     22 ****        -3.1677   3.1612   0.8171 H              1 S1                 0.0000
     23 ****        -4.8634   2.6987   0.6814 H              1 S1                 0.0000
     24 ****        -3.5931   3.1866  -2.8966 H              1 S1                 0.0000
     25 ****        -2.9253   1.4739  -4.9386 H              1 S1                 0.0000
     26 ****        -3.5463  -0.1396  -4.5974 H              1 S1                 0.0000
     27 ****        -1.8373   0.2236  -4.3392 H              1 S1                 0.0000
     28 ****        -3.3166  -1.7470  -0.9497 H              1 S1                 0.0000
     29 ****        -3.1695  -1.7203  -2.6957 H              1 S1                 0.0000
     30 ****        -1.3561  -0.8247   0.2610 H              1 S1                 0.0000
     31 ****         0.9607  -2.2711  -0.1507 H              1 S1                 0.0000
     32 ****         1.2363  -0.7411  -0.9783 H              1 S1                 0.0000
     33 ****         0.4931  -1.0903   1.9586 H              1 S1                 0.0000
     34 ****        -0.5953   0.9643   1.0009 H              1 S1                 0.0000
     35 ****         0.9683   1.5279   0.4302 H              1 S1                 0.0000
     36 ****         0.6241   1.4180   2.1509 H              1 S1                 0.0000
     37 ****         2.2671   0.6192   3.3029 H              1 S1                 0.0000
     38 ****         2.2901  -1.1129   3.5486 H              1 S1                 0.0000
     39 ****         4.6893   0.6369   2.7536 H              1 S1                 0.0000
     40 ****         4.4098  -0.0937   4.3229 H              1 S1                 0.0000
     41 ****         5.1950  -0.8023   0.8883 H              1 S1                 0.0000
     42 ****         5.2522  -2.5339   1.1516 H              1 S1                 0.0000
     43 ****         2.8069  -2.6366   1.5204 H              1 S1                 0.0000
     44 ****         3.1755  -1.8570  -0.0136 H              1 S1                 0.0000
     45 ****         2.8817   0.2392   1.0178 H              1 S1                 0.0000
     46 ****        -1.1005  -2.1202  -3.4659 LP             1 S1                 0.0000
     47 ****         0.3442  -2.0549  -2.5128 LP             1 S1                 0.0000
     48 ****         4.4501  -2.1952   3.3135 LP             1 S1                 0.0000
     49 ****         5.8408  -1.3788   3.0562 LP             1 S1                 0.0000
     50 ****        -3.4604   0.3653   0.2887 LP             1 S1                 0.0000
@<TRIPOS>BOND
    1    1    2 1     
    2    1   21 1     
    3    1   22 1     
    4    1   23 1     
    5    2   20 2     
    6    2    3 1     
    7    3    4 2     
    8    3   24 1     
    9    4    5 1     
   10    4    6 1     
   11    5   25 1     
   12    5   26 1     
   13    5   27 1     
   14    6    7 1     
   15    6   20 1     
   16    7    8 1     
   17    7   28 1     
   18    7   29 1     
   19    8    9 2     
   20    8   10 am    
   21   10   11 1     
   22   10   30 1     
   23   11   12 1     
   24   11   31 1     
   25   11   32 1     
   26   12   13 1     
   27   12   14 1     
   28   12   33 1     
   29   13   34 1     
   30   13   35 1     
   31   13   36 1     
   32   14   19 1     
   33   14   15 1     
   34   14   45 1     
   35   15   16 1     
   36   15   37 1     
   37   15   38 1     
   38   16   17 1     
   39   16   39 1     
   40   16   40 1     
   41   17   18 1     
   42   18   19 1     
   43   18   41 1     
   44   18   42 1     
   45   19   43 1     
   46   19   44 1     
   47    9   46 1     
   48    9   47 1     
   49   17   48 1     
   50   17   49 1     
   51   20   50 1     
@<TRIPOS>SUBSTRUCTURE
      1 S1             1
@<TRIPOS>SET
LONE_PAIRS      STATIC     ATOMS    <user>   **** ""
5 46 47 48 49 50
DONOR_HYDROGENS      STATIC     ATOMS    <user>   **** ""
2 30 45
ATOM$BLUE        STATIC     ATOMS    COLORGROUP SYSTEM
5 46 47 48 49 50
ATOM$RED        STATIC     ATOMS    COLORGROUP SYSTEM
2 30 45
