AV-unprocessed.smi:862|AV-procd|sdf|3977|dock2
  -GOLD-   22720 1453D 1   1.00000     0.00000
 Structure written by MMmdl.
 44 46  0  0  0  0  0  0  0  0  2 V2000
  148.0553  129.2903  154.1083 N   0  0  0  0  0  0  0  0  0  0  0  0
  149.1451  130.0042  154.4068 C   0  0  0  0  0  0  0  0  0  0  0  0
  150.2704  129.5269  154.2719 O   0  0  0  0  0  0  0  0  0  0  0  0
  148.9107  131.2741  154.8246 N   0  0  0  0  0  0  0  0  0  0  0  0
  149.7942  132.4343  154.6212 C   0  0  0  0  0  0  0  0  0  0  0  0
  149.1906  133.3331  153.5262 C   0  0  0  0  0  0  0  0  0  0  0  0
  147.7532  133.7710  153.8915 C   0  0  0  0  0  0  0  0  0  0  0  0
  147.1090  134.4971  152.7746 N   0  3  0  0  0  0  0  0  0  0  0  0
  145.7318  134.9908  153.0175 C   0  0  1  0  0  0  0  0  0  0  0  0
  145.3341  136.2059  152.1731 C   0  0  0  0  0  0  0  0  0  0  0  0
  143.7994  136.1929  152.1537 C   0  0  0  0  0  0  0  0  0  0  0  0
  143.3635  134.7802  152.5808 C   0  0  0  0  0  0  0  0  0  0  0  0
  144.6464  133.9418  152.7134 C   0  0  1  0  0  0  0  0  0  0  0  0
  144.9248  133.1520  151.5146 N   0  0  0  0  0  0  0  0  0  0  0  0
  144.2273  133.2176  150.3138 C   0  0  0  0  0  0  0  0  0  0  0  0
  144.7897  132.2844  149.4731 C   0  0  0  0  0  0  0  0  0  0  0  0
  145.8221  131.6245  150.1330 N   0  0  0  0  0  0  0  0  0  0  0  0
  145.8439  132.1891  151.3325 C   0  0  0  0  0  0  0  0  0  0  0  0
  146.8956  132.5488  154.2806 C   0  0  0  0  0  0  0  0  0  0  0  0
  147.6018  131.6889  155.3437 C   0  0  0  0  0  0  0  0  0  0  0  0
  148.1559  128.3389  153.7852 H   0  0  0  0  0  0  0  0  0  0  0  0
  147.1388  129.7029  154.2003 H   0  0  0  0  0  0  0  0  0  0  0  0
  149.8735  132.9910  155.5563 H   0  0  0  0  0  0  0  0  0  0  0  0
  150.8176  132.1687  154.3571 H   0  0  0  0  0  0  0  0  0  0  0  0
  149.8336  134.1998  153.3801 H   0  0  0  0  0  0  0  0  0  0  0  0
  149.1841  132.7911  152.5790 H   0  0  0  0  0  0  0  0  0  0  0  0
  147.7983  134.4261  154.7631 H   0  0  0  0  0  0  0  0  0  0  0  0
  147.7006  135.2642  152.4882 H   0  0  0  0  0  0  0  0  0  0  0  0
  145.6428  135.2581  154.0719 H   0  0  0  0  0  0  0  0  0  0  0  0
  145.7272  137.1388  152.5781 H   0  0  0  0  0  0  0  0  0  0  0  0
  145.7137  136.1028  151.1559 H   0  0  0  0  0  0  0  0  0  0  0  0
  143.4008  136.9319  152.8498 H   0  0  0  0  0  0  0  0  0  0  0  0
  143.4211  136.4462  151.1627 H   0  0  0  0  0  0  0  0  0  0  0  0
  142.8718  134.8400  153.5525 H   0  0  0  0  0  0  0  0  0  0  0  0
  142.6401  134.3423  151.8913 H   0  0  0  0  0  0  0  0  0  0  0  0
  144.5513  133.2441  153.5470 H   0  0  0  0  0  0  0  0  0  0  0  0
  143.4092  133.9056  150.1579 H   0  0  0  0  0  0  0  0  0  0  0  0
  144.5292  132.0357  148.4548 H   0  0  0  0  0  0  0  0  0  0  0  0
  146.5459  131.8868  152.0954 H   0  0  0  0  0  0  0  0  0  0  0  0
  145.9252  132.8764  154.6552 H   0  0  0  0  0  0  0  0  0  0  0  0
  146.6963  131.9369  153.3991 H   0  0  0  0  0  0  0  0  0  0  0  0
  146.9708  130.8420  155.6176 H   0  0  0  0  0  0  0  0  0  0  0  0
  147.7402  132.2617  156.2619 H   0  0  0  0  0  0  0  0  0  0  0  0
  147.0456  133.8472  152.0041 H   0  0  0  0  0  0  0  0  0  0  0  0
  1  2  1  0  0  0  0
  1 21  1  0  0  0  0
  1 22  1  0  0  0  0
  2  3  2  0  0  0  0
  2  4  1  0  0  0  0
  4 20  1  0  0  0  0
  4  5  1  0  0  0  0
  5  6  1  0  0  0  0
  5 23  1  0  0  0  0
  5 24  1  0  0  0  0
  6  7  1  0  0  0  0
  6 25  1  0  0  0  0
  6 26  1  0  0  0  0
  7  8  1  0  0  0  0
  7 19  1  0  0  0  0
  7 27  1  0  0  0  0
  8  9  1  0  0  0  0
  8 28  1  0  0  0  0
  8 44  1  0  0  0  0
  9 13  1  0  0  0  0
  9 10  1  0  0  0  0
  9 29  1  0  0  0  0
 10 11  1  0  0  0  0
 10 30  1  0  0  0  0
 10 31  1  0  0  0  0
 11 12  1  0  0  0  0
 11 32  1  0  0  0  0
 11 33  1  0  0  0  0
 12 13  1  0  0  0  0
 12 34  1  0  0  0  0
 12 35  1  0  0  0  0
 13 14  1  0  0  0  0
 13 36  1  0  0  0  0
 14 18  1  0  0  0  0
 14 15  1  0  0  0  0
 15 16  2  0  0  0  0
 15 37  1  0  0  0  0
 16 17  1  0  0  0  0
 16 38  1  0  0  0  0
 17 18  2  0  0  0  0
 18 39  1  0  0  0  0
 19 20  1  0  0  0  0
 19 40  1  0  0  0  0
 19 41  1  0  0  0  0
 20 42  1  0  0  0  0
 20 43  1  0  0  0  0
M  CHG  1   8   1
M  END
> <s_m_source_file>
AV-unprocessed.smi

> <i_m_source_file_index>
862

> <i_lp_mmshare_version>
43012

> <i_f3d_flags>
0

> <s_epik_input>
W05IMl1DKD1PKU4xW0NIMl1bQ0gyXVtDSF0oW0NIMl1bQ0gyXTEpW05IXVtDQEBIXTJbQ0gyXVtDSDJdW0NIMl1bQ0BIXTJuM1tjSF1bY0hdbltjSF0z

> <s_epik_cmdline>
J2VwaWtfcHl0aG9uJywgJy1waCcsICc3LjAnLCAnLXRuJywgJzgnLCAnLW1hJywgJzIwMCcsICctbWV0YWxfYmluZGluZycsICctaW1hZScsICc8aW5maWxlLm1hZT4nLCAnLW9tYWUnLCAnPG91dGZpbGUubWFlPic=

> <r_lp_tautomer_probability>
1

> <r_epik_Ionization_Penalty>
0.0731506

> <r_epik_Ionization_Penalty_Charging>
0.0731

> <r_epik_Ionization_Penalty_Neutral>
5.05966e-05

> <r_epik_State_Penalty>
0.128895

> <r_epik_Charging_Adjusted_Penalty>
0.201995

> <i_epik_Tot_Q>
1

> <i_epik_Tot_abs_Q>
1

> <r_epik_Metal_State_Penalty>
0.113934

> <b_epik_Metal_Only>
0

> <s_lp_Force_Field>
OPLS_2005

> <r_lp_Energy>
58.7587

> <b_lp_Chiralities_Consistent>
1

> <s_lp_Variant>
AV-unprocessed.smi:862-2

> <Gold.Version>
5.8.1

> <Gold.Id.Protein>
6NUR|6NUR_protein|mol2

> <Gold.PLP.Fitness>
39.3001

> <Gold.PLP.PLP>
-32.2090

> <Gold.PLP.part.hbond>
-1.0000

> <Gold.PLP.part.metal>
0.0000

> <Gold.PLP.part.buried>
-5.7491

> <Gold.PLP.part.nonpolar>
-25.1857

> <Gold.PLP.part.repulsive>
0.2721

> <Gold.PLP.ligand.clash>
0.5132

> <Gold.PLP.ligand.torsion>
0.7392

> <Gold.PLP.Chemscore.Hbond>
2.0000

> <Gold.PLP.Chemscore.CHOScore>
1.0000

> <Gold.PLP.Chemscore.Metal>
0.0000

> <Gold.Chemscore.Hbonds>
donor molecule, donor type, donor heavy atom, donor atom, acceptor molecule, acceptor atom, score
      L1  H     8    28       P1  7948  2.00
      L1  C    15    37       P1 10186  1.00

> <Gold.PLP.Chemscore.Internal.Correction>
0.0828

> <Gold.Rescore>
     Score         DG    S(hbond)    S(metal)    S(lipo)     H(rot)  DE(clash)    DE(int)     intcor
     11.02     -11.89       0.98        0.00      62.67       1.64       0.00       0.87       ----

> <Gold.Chemscore.Fitness>
11.0215

> <Gold.Chemscore.DG>
-11.8911

> <Gold.Chemscore.ZeroCoef>
-5.4800

> <Gold.Chemscore.Hbond>
0.9821

> <Gold.Chemscore.Metal>
0.0000

> <Gold.Chemscore.Lipo>
62.6683

> <Gold.Chemscore.Internal_Hbond>
0.0000

> <Gold.Chemscore.DEClash>
0.0029

> <Gold.Chemscore.DEInternal>
0.8667

> <Gold.Chemscore.Rot>
1.6411

> <Gold.Chemscore.Internal.Correction>
   9.000000E+99

> <Gold.Chemscore.Hbonds>
donor molecule, donor type, donor heavy atom, donor atom, acceptor molecule, acceptor atom, score
      L1  H     8    28       P1  7948  1.00

> <Gold.Chemscore.Hbond.Weighted>
-3.2802

> <Gold.Chemscore.Metal.Weighted>
-0.0000

> <Gold.Chemscore.Lipo.Weighted>
-7.3322

> <Gold.Chemscore.Internal_Hbond.Weighted>
0.0000

> <Gold.Chemscore.DEClash.Weighted>
0.0029

> <Gold.Chemscore.DEInternal.Weighted>
0.8667

> <Gold.Chemscore.Rot.Weighted>
4.2013

> <Gold.Chemscore.Internal.Correction.Weighted>
   9.000000E+99

> <Gold.Protein.RotatedTorsions>
[ 6907 6896 6895 6894 ] final  -97.45 input  -60.11 | X-H torsion
[ 7974 7965 7964 7962 ] final  169.20 input  175.53 | X-H torsion
[ 8008 7997 7996 7995 ] final -115.97 input   59.86 | X-H torsion
[ 10167 10162 10161 10158 ] final  -97.10 input  -65.29 | X-H torsion
[ 10718 10713 10712 10709 ] final -109.54 input   66.30 | X-H torsion
[ 10763 10752 10751 10750 ] final -117.39 input  -60.55 | X-H torsion
[ 11005 11000 10999 10996 ] final -155.09 input  -57.11 | X-H torsion

> <Gold.Protein.ActiveResidues>
 VAL166  LYS551  ARG553  GLY616  TRP617  ASP618  TYR619  PRO620  LYS621  CYS622 
 ASP623  PHE694  ASN695  SER759  ASP760  ASP761  ALA762  ILE779  LEU786  VAL792 
 PHE793  MET794  SER795  GLU796  ALA797  LYS798  CYS799  TRP800  GLU811  SER814 

> <Gold.Protein.RotatedAtoms>
  150.7017  134.1347  159.4082 H   0  0  0  0  0  0  0  0  0  0  0  0  # atno 6907 bound_to 6896
  151.9332  135.0245  160.0540 H   0  0  0  0  0  0  0  0  0  0  0  0  # atno 6908 bound_to 6896
  152.2158  133.4910  159.5171 H   0  0  0  0  0  0  0  0  0  0  0  0  # atno 6909 bound_to 6896
  144.7363  139.9019  143.6410 H   0  0  0  0  0  0  0  0  0  0  0  0  # atno 7974 bound_to 7965
  155.0604  140.0393  157.2575 H   0  0  0  0  0  0  0  0  0  0  0  0  # atno 8008 bound_to 7997
  154.7064  140.2684  155.6646 H   0  0  0  0  0  0  0  0  0  0  0  0  # atno 8009 bound_to 7997
  156.2776  140.2730  156.1691 H   0  0  0  0  0  0  0  0  0  0  0  0  # atno 8010 bound_to 7997
  140.2870  143.3246  152.0384 H   0  0  0  0  0  0  0  0  0  0  0  0  # atno 10167 bound_to 10162
  156.0542  130.5769  150.8114 H   0  0  0  0  0  0  0  0  0  0  0  0  # atno 10718 bound_to 10713
  154.8553  135.4311  154.1972 H   0  0  0  0  0  0  0  0  0  0  0  0  # atno 10763 bound_to 10752
  153.3027  135.6970  153.7194 H   0  0  0  0  0  0  0  0  0  0  0  0  # atno 10764 bound_to 10752
  153.6318  135.3483  155.3018 H   0  0  0  0  0  0  0  0  0  0  0  0  # atno 10765 bound_to 10752
  140.6903  134.4048  157.5220 H   0  0  0  0  0  0  0  0  0  0  0  0  # atno 11005 bound_to 11000
  146.1065  139.4065  143.0314 LP  0  0  0  0  0  0  0  0  0  0  0  0  # atno 17320 bound_to 7965
  145.7504  140.9974  143.1253 LP  0  0  0  0  0  0  0  0  0  0  0  0  # atno 17321 bound_to 7965
  139.4948  144.6552  151.6588 LP  0  0  0  0  0  0  0  0  0  0  0  0  # atno 17342 bound_to 10162
  140.5764  144.0020  150.6244 LP  0  0  0  0  0  0  0  0  0  0  0  0  # atno 17343 bound_to 10162
  157.5497  131.0943  150.9712 LP  0  0  0  0  0  0  0  0  0  0  0  0  # atno 17370 bound_to 10713
  156.9975  130.5587  149.5308 LP  0  0  0  0  0  0  0  0  0  0  0  0  # atno 17371 bound_to 10713
  139.8925  134.8752  156.2266 LP  0  0  0  0  0  0  0  0  0  0  0  0  # atno 17394 bound_to 11000
  141.0247  133.7022  156.1327 LP  0  0  0  0  0  0  0  0  0  0  0  0  # atno 17395 bound_to 11000

$$$$
