#       Name:                AV-unprocessed.smi:1452
#       Creating user name   scv26
#       Creation time:       Fri Mar 27 05:59:14 2020


#       File generated by GOLD software.
#

@<TRIPOS>MOLECULE
AV-unprocessed.smi:1452
    43    45     1
SMALL
NO_CHARGES


@<TRIPOS>ATOM
      1 ****        -1.9688  -2.0270   0.0863 O.2            1 S1                 0.0000
      2 ****        -0.8048  -1.9855  -0.3078 C.2            1 S1                 0.0000
      3 ****        -0.0423  -3.0993  -0.3461 N.am           1 S1                 0.0000
      4 ****        -0.3235  -4.4524   0.0076 C.ar           1 S1                 0.0000
      5 ****         0.7700  -5.3354  -0.1430 C.ar           1 S1                 0.0000
      6 ****         0.6136  -6.6989   0.1724 C.ar           1 S1                 0.0000
      7 ****        -0.6369  -7.1488   0.6307 C.ar           1 S1                 0.0000
      8 ****        -1.6754  -6.2081   0.7513 C.ar           1 S1                 0.0000
      9 ****        -1.5267  -4.9007   0.4491 N.ar           1 S1                 0.0000
     10 ****        -0.2201  -0.8490  -0.7204 N.am           1 S1                 0.0000
     11 ****        -0.8468   0.4680  -0.7561 C.3            1 S1                 0.0000
     12 ****        -0.2726   1.3713  -1.8407 C.3            1 S1                 0.0000
     13 ****        -0.6926   2.7606  -1.3590 C.3            1 S1                 0.0000
     14 ****        -0.6581   2.7056   0.1204 N.4            1 S1                 1.0000
     15 ****        -1.6976   3.5228   0.7928 C.3            1 S1                 0.0000
     16 ****        -1.5729   3.4117   2.3235 C.3            1 S1                 0.0000
     17 ****        -1.4881   1.9530   2.8197 C.3            1 S1                 0.0000
     18 ****        -1.5876   0.9359   1.6723 C.3            1 S1                 0.0000
     19 ****        -0.6016   1.2736   0.5308 C.3            1 S1                 0.0000
     20 ****         0.8909  -2.9504  -0.7019 H              1 S1                 0.0000
     21 ****         1.7253  -4.9752  -0.4967 H              1 S1                 0.0000
     22 ****         1.4394  -7.3866   0.0643 H              1 S1                 0.0000
     23 ****        -0.7959  -8.1869   0.8828 H              1 S1                 0.0000
     24 ****        -2.6512  -6.5120   1.0996 H              1 S1                 0.0000
     25 ****         0.7400  -0.9072  -1.0307 H              1 S1                 0.0000
     26 ****        -1.9197   0.3727  -0.9360 H              1 S1                 0.0000
     27 ****         0.8159   1.2970  -1.8643 H              1 S1                 0.0000
     28 ****        -0.6510   1.1360  -2.8361 H              1 S1                 0.0000
     29 ****        -0.0465   3.5498  -1.7442 H              1 S1                 0.0000
     30 ****        -1.7087   2.9657  -1.7001 H              1 S1                 0.0000
     31 ****        -1.5971   4.5642   0.4848 H              1 S1                 0.0000
     32 ****        -2.6882   3.1952   0.4729 H              1 S1                 0.0000
     33 ****        -0.6834   3.9512   2.6516 H              1 S1                 0.0000
     34 ****        -2.4181   3.9155   2.7935 H              1 S1                 0.0000
     35 ****        -0.5420   1.8084   3.3428 H              1 S1                 0.0000
     36 ****        -2.2709   1.7591   3.5537 H              1 S1                 0.0000
     37 ****        -1.3945  -0.0678   2.0515 H              1 S1                 0.0000
     38 ****        -2.6102   0.9219   1.2924 H              1 S1                 0.0000
     39 ****         0.4183   1.1008   0.8785 H              1 S1                 0.0000
     40 ****         0.2302   3.0966   0.3999 H              1 S1                 0.0000
     41 ****        -2.3649  -2.8952   0.3850 LP             1 S1                 0.0000
     42 ****        -2.5193  -1.1925   0.1081 LP             1 S1                 0.0000
     43 ****        -2.2952  -4.2687   0.5495 LP             1 S1                 0.0000
@<TRIPOS>BOND
    1    1    2 2     
    2    2    3 am    
    3    2   10 am    
    4    3    4 1     
    5    3   20 1     
    6    4    9 ar    
    7    4    5 ar    
    8    5    6 ar    
    9    5   21 1     
   10    6    7 ar    
   11    6   22 1     
   12    7    8 ar    
   13    7   23 1     
   14    8    9 ar    
   15    8   24 1     
   16   10   11 1     
   17   10   25 1     
   18   11   19 1     
   19   11   12 1     
   20   11   26 1     
   21   12   13 1     
   22   12   27 1     
   23   12   28 1     
   24   13   14 1     
   25   13   29 1     
   26   13   30 1     
   27   14   19 1     
   28   14   15 1     
   29   14   40 1     
   30   15   16 1     
   31   15   31 1     
   32   15   32 1     
   33   16   17 1     
   34   16   33 1     
   35   16   34 1     
   36   17   18 1     
   37   17   35 1     
   38   17   36 1     
   39   18   19 1     
   40   18   37 1     
   41   18   38 1     
   42   19   39 1     
   43    1   41 1     
   44    1   42 1     
   45    9   43 1     
@<TRIPOS>SUBSTRUCTURE
      1 S1             1
@<TRIPOS>SET
LONE_PAIRS      STATIC     ATOMS    <user>   **** ""
3 41 42 43
DONOR_HYDROGENS      STATIC     ATOMS    <user>   **** ""
3 20 25 40
ATOM$BLUE        STATIC     ATOMS    COLORGROUP SYSTEM
3 41 42 43
ATOM$RED        STATIC     ATOMS    COLORGROUP SYSTEM
3 20 25 40
