AV-unprocessed.smi:1240|AV-procd|sdf|5214|dock6
  -GOLD-   22720 4313D 1   1.00000     0.00000
 Structure written by MMmdl.
 48 50  0  0  0  0  0  0  0  0  4 V2000
  153.6250  140.5174  160.3017 O   0  0  0  0  0  0  0  0  0  0  0  0
  153.7758  141.4165  161.1366 C   0  0  0  0  0  0  0  0  0  0  0  0
  154.3984  141.3329  162.3427 N   0  5  0  0  0  0  0  0  0  0  0  0
  155.0239  140.1268  162.8886 C   0  0  0  0  0  0  0  0  0  0  0  0
  156.0286  140.4848  164.0408 C   0  0  1  0  0  0  0  0  0  0  0  0
  155.4150  141.3368  165.2010 C   0  0  1  0  0  0  0  0  0  0  0  0
  156.3637  141.5604  166.3703 C   0  0  0  0  0  0  0  0  0  0  0  0
  155.7035  142.7152  167.1125 C   0  0  0  0  0  0  0  0  0  0  0  0
  155.1104  143.5195  166.1023 O   0  0  0  0  0  0  0  0  0  0  0  0
  155.0650  142.8002  164.8738 C   0  0  0  0  0  0  0  0  0  0  0  0
  156.7547  139.2989  164.6190 N   0  3  0  0  0  0  0  0  0  0  0  0
  155.9447  138.2150  165.2444 C   0  0  0  0  0  0  0  0  0  0  0  0
  156.8644  137.2641  166.0269 C   0  0  0  0  0  0  0  0  0  0  0  0
  157.8622  136.7398  165.1583 O   0  0  0  0  0  0  0  0  0  0  0  0
  158.6946  137.7598  164.6184 C   0  0  0  0  0  0  0  0  0  0  0  0
  157.8483  138.7347  163.7836 C   0  0  0  0  0  0  0  0  0  0  0  0
  153.2801  142.6460  160.9084 N   0  0  0  0  0  0  0  0  0  0  0  0
  152.5323  143.1133  159.7943 C   0  0  0  0  0  0  0  0  0  0  0  0
  152.3568  144.5082  159.6602 C   0  0  0  0  0  0  0  0  0  0  0  0
  151.6320  145.0145  158.5624 C   0  0  0  0  0  0  0  0  0  0  0  0
  151.1246  144.1661  157.6426 N   0  3  0  0  0  0  0  0  0  0  0  0
  151.2848  142.8271  157.7172 C   0  0  0  0  0  0  0  0  0  0  0  0
  152.0002  142.2625  158.7928 C   0  0  0  0  0  0  0  0  0  0  0  0
  154.2795  139.4295  163.2728 H   0  0  0  0  0  0  0  0  0  0  0  0
  155.5594  139.5678  162.1209 H   0  0  0  0  0  0  0  0  0  0  0  0
  156.8143  141.1000  163.5984 H   0  0  0  0  0  0  0  0  0  0  0  0
  154.5164  140.8552  165.5925 H   0  0  0  0  0  0  0  0  0  0  0  0
  156.4865  140.6807  167.0026 H   0  0  0  0  0  0  0  0  0  0  0  0
  157.3484  141.8623  166.0103 H   0  0  0  0  0  0  0  0  0  0  0  0
  154.9156  142.3443  167.7692 H   0  0  0  0  0  0  0  0  0  0  0  0
  156.4101  143.2848  167.7166 H   0  0  0  0  0  0  0  0  0  0  0  0
  155.8050  143.2355  164.2008 H   0  0  0  0  0  0  0  0  0  0  0  0
  154.0848  142.9014  164.4068 H   0  0  0  0  0  0  0  0  0  0  0  0
  155.1988  138.6326  165.9200 H   0  0  0  0  0  0  0  0  0  0  0  0
  155.4082  137.6469  164.4833 H   0  0  0  0  0  0  0  0  0  0  0  0
  157.3307  137.7786  166.8688 H   0  0  0  0  0  0  0  0  0  0  0  0
  156.2861  136.4376  166.4402 H   0  0  0  0  0  0  0  0  0  0  0  0
  159.2131  138.2849  165.4224 H   0  0  0  0  0  0  0  0  0  0  0  0
  159.4599  137.2978  163.9946 H   0  0  0  0  0  0  0  0  0  0  0  0
  157.4384  138.2123  162.9184 H   0  0  0  0  0  0  0  0  0  0  0  0
  158.4836  139.5360  163.4045 H   0  0  0  0  0  0  0  0  0  0  0  0
  153.3684  143.2943  161.6773 H   0  0  0  0  0  0  0  0  0  0  0  0
  152.7649  145.1851  160.3970 H   0  0  0  0  0  0  0  0  0  0  0  0
  151.4457  146.0649  158.3937 H   0  0  0  0  0  0  0  0  0  0  0  0
  150.8438  142.2508  156.9170 H   0  0  0  0  0  0  0  0  0  0  0  0
  152.1378  141.1923  158.8274 H   0  0  0  0  0  0  0  0  0  0  0  0
  157.2488  139.7087  165.3980 H   0  0  0  0  0  0  0  0  0  0  0  0
  150.6027  144.5527  156.8558 H   0  0  0  0  0  0  0  0  0  0  0  0
  1  2  2  0  0  0  0
  2  3  1  0  0  0  0
  2 17  1  0  0  0  0
  3  4  1  0  0  0  0
  4  5  1  0  0  0  0
  4 24  1  0  0  0  0
  4 25  1  0  0  0  0
  5  6  1  0  0  0  0
  5 11  1  0  0  0  0
  5 26  1  0  0  0  0
  6 10  1  0  0  0  0
  6  7  1  0  0  0  0
  6 27  1  0  0  0  0
  7  8  1  0  0  0  0
  7 28  1  0  0  0  0
  7 29  1  0  0  0  0
  8  9  1  0  0  0  0
  8 30  1  0  0  0  0
  8 31  1  0  0  0  0
  9 10  1  0  0  0  0
 10 32  1  0  0  0  0
 10 33  1  0  0  0  0
 11 16  1  0  0  0  0
 11 12  1  0  0  0  0
 11 47  1  0  0  0  0
 12 13  1  0  0  0  0
 12 34  1  0  0  0  0
 12 35  1  0  0  0  0
 13 14  1  0  0  0  0
 13 36  1  0  0  0  0
 13 37  1  0  0  0  0
 14 15  1  0  0  0  0
 15 16  1  0  0  0  0
 15 38  1  0  0  0  0
 15 39  1  0  0  0  0
 16 40  1  0  0  0  0
 16 41  1  0  0  0  0
 17 18  1  0  0  0  0
 17 42  1  0  0  0  0
 18 23  1  0  0  0  0
 18 19  2  0  0  0  0
 19 20  1  0  0  0  0
 19 43  1  0  0  0  0
 20 21  2  0  0  0  0
 20 44  1  0  0  0  0
 21 22  1  0  0  0  0
 21 48  1  0  0  0  0
 22 23  2  0  0  0  0
 22 45  1  0  0  0  0
 23 46  1  0  0  0  0
M  CHG  1   3  -1
M  CHG  1  11   1
M  CHG  1  21   1
M  END
> <s_m_source_file>
AV-unprocessed.smi

> <i_m_source_file_index>
1240

> <i_lp_mmshare_version>
43012

> <i_f3d_flags>
0

> <s_epik_input>
W2NIXTFbY0hdbltjSF1bY0hdYzFbTkhdQyg9TylbTkhdW0NIMl1bQ0BIXShbQ0BASF0yW0NIMl1bQ0gyXU9bQ0gyXTIpTjNbQ0gyXVtDSDJdT1tDSDJdW0NIMl0z

> <s_epik_cmdline>
J2VwaWtfcHl0aG9uJywgJy1waCcsICc3LjAnLCAnLXRuJywgJzgnLCAnLW1hJywgJzIwMCcsICctbWV0YWxfYmluZGluZycsICctaW1hZScsICc8aW5maWxlLm1hZT4nLCAnLW9tYWUnLCAnPG91dGZpbGUubWFlPic=

> <r_epik_Ionization_Penalty>
8.41087

> <r_epik_Ionization_Penalty_Charging>
8.41087

> <r_epik_Ionization_Penalty_Neutral>
3.12936e-06

> <r_epik_State_Penalty>
8.81894

> <r_epik_Charging_Adjusted_Penalty>
17.2298

> <i_epik_Tot_Q>
1

> <i_epik_Tot_abs_Q>
3

> <r_epik_Metal_State_Penalty>
4.82983

> <b_epik_Metal_Only>
1

> <s_lp_Force_Field>
OPLS_2005

> <r_lp_Energy>
49.5446

> <b_lp_Chiralities_Consistent>
1

> <s_lp_Variant>
AV-unprocessed.smi:1240-20

> <Gold.Version>
5.8.1

> <Gold.Id.Protein>
6NUR|6NUR_protein|mol2

> <Gold.PLP.Fitness>
45.6301

> <Gold.PLP.PLP>
-40.2756

> <Gold.PLP.part.hbond>
-2.0000

> <Gold.PLP.part.metal>
0.0000

> <Gold.PLP.part.buried>
-6.4134

> <Gold.PLP.part.nonpolar>
-31.7048

> <Gold.PLP.part.repulsive>
0.0703

> <Gold.PLP.ligand.clash>
0.0000

> <Gold.PLP.ligand.torsion>
0.5801

> <Gold.PLP.Chemscore.Hbond>
2.0000

> <Gold.PLP.Chemscore.CHOScore>
0.0000

> <Gold.PLP.Chemscore.Metal>
0.0000

> <Gold.Chemscore.Hbonds>
donor molecule, donor type, donor heavy atom, donor atom, acceptor molecule, acceptor atom, score
      L1  H    21    48       P1  8028  1.82

> <Gold.PLP.Chemscore.Internal.Correction>
0.5147

> <Gold.Rescore>
     Score         DG    S(hbond)    S(metal)    S(lipo)     H(rot)  DE(clash)    DE(int)     intcor
     13.60     -17.01       0.95        0.00     108.61       1.70       0.48       2.93       ----

> <Gold.Chemscore.Fitness>
13.6031

> <Gold.Chemscore.DG>
-17.0133

> <Gold.Chemscore.ZeroCoef>
-5.4800

> <Gold.Chemscore.Hbond>
0.9532

> <Gold.Chemscore.Metal>
0.0000

> <Gold.Chemscore.Lipo>
108.6076

> <Gold.Chemscore.Internal_Hbond>
0.0000

> <Gold.Chemscore.DEClash>
0.4811

> <Gold.Chemscore.DEInternal>
2.9291

> <Gold.Chemscore.Rot>
1.7021

> <Gold.Chemscore.Internal.Correction>
   9.000000E+99

> <Gold.Chemscore.Hbonds>
donor molecule, donor type, donor heavy atom, donor atom, acceptor molecule, acceptor atom, score
      L1  H    21    48       P1  8028  0.78

> <Gold.Chemscore.Hbond.Weighted>
-3.1837

> <Gold.Chemscore.Metal.Weighted>
-0.0000

> <Gold.Chemscore.Lipo.Weighted>
-12.7071

> <Gold.Chemscore.Internal_Hbond.Weighted>
0.0000

> <Gold.Chemscore.DEClash.Weighted>
0.4811

> <Gold.Chemscore.DEInternal.Weighted>
2.9291

> <Gold.Chemscore.Rot.Weighted>
4.3575

> <Gold.Chemscore.Internal.Correction.Weighted>
   9.000000E+99

> <Gold.Protein.RotatedTorsions>
[ 6907 6896 6895 6894 ] final  -19.04 input  -60.11 | X-H torsion
[ 7974 7965 7964 7962 ] final -132.83 input  175.53 | X-H torsion
[ 8008 7997 7996 7995 ] final  171.55 input   59.86 | X-H torsion
[ 10167 10162 10161 10158 ] final  -76.05 input  -65.29 | X-H torsion
[ 10718 10713 10712 10709 ] final -150.49 input   66.30 | X-H torsion
[ 10763 10752 10751 10750 ] final  122.66 input  -60.55 | X-H torsion
[ 11005 11000 10999 10996 ] final  -37.01 input  -57.11 | X-H torsion

> <Gold.Protein.ActiveResidues>
 VAL166  LYS551  ARG553  GLY616  TRP617  ASP618  TYR619  PRO620  LYS621  CYS622 
 ASP623  PHE694  ASN695  SER759  ASP760  ASP761  ALA762  ILE779  LEU786  VAL792 
 PHE793  MET794  SER795  GLU796  ALA797  LYS798  CYS799  TRP800  GLU811  SER814 

> <Gold.Protein.RotatedAtoms>
  151.2691  135.0678  159.9126 H   0  0  0  0  0  0  0  0  0  0  0  0  # atno 6907 bound_to 6896
  152.5353  134.0150  159.7966 H   0  0  0  0  0  0  0  0  0  0  0  0  # atno 6908 bound_to 6896
  151.0385  133.5677  159.2684 H   0  0  0  0  0  0  0  0  0  0  0  0  # atno 6909 bound_to 6896
  144.9249  140.7058  143.4942 H   0  0  0  0  0  0  0  0  0  0  0  0  # atno 7974 bound_to 7965
  156.1260  140.1509  156.9136 H   0  0  0  0  0  0  0  0  0  0  0  0  # atno 8008 bound_to 7997
  154.4872  140.0862  156.7553 H   0  0  0  0  0  0  0  0  0  0  0  0  # atno 8009 bound_to 7997
  155.4343  140.3428  155.4285 H   0  0  0  0  0  0  0  0  0  0  0  0  # atno 8010 bound_to 7997
  140.4890  143.2384  151.7937 H   0  0  0  0  0  0  0  0  0  0  0  0  # atno 10167 bound_to 10162
  156.4468  130.8148  151.2379 H   0  0  0  0  0  0  0  0  0  0  0  0  # atno 10718 bound_to 10713
  153.6333  135.3392  155.3048 H   0  0  0  0  0  0  0  0  0  0  0  0  # atno 10763 bound_to 10752
  154.8575  135.4301  154.2083 H   0  0  0  0  0  0  0  0  0  0  0  0  # atno 10764 bound_to 10752
  153.2984  135.7022  153.7300 H   0  0  0  0  0  0  0  0  0  0  0  0  # atno 10765 bound_to 10752
  140.9919  133.7000  156.1866 H   0  0  0  0  0  0  0  0  0  0  0  0  # atno 11005 bound_to 11000
  145.3236  139.1781  143.4574 LP  0  0  0  0  0  0  0  0  0  0  0  0  # atno 17320 bound_to 7965
  146.3221  140.3257  142.8636 LP  0  0  0  0  0  0  0  0  0  0  0  0  # atno 17321 bound_to 7965
  139.4847  144.4674  151.9468 LP  0  0  0  0  0  0  0  0  0  0  0  0  # atno 17342 bound_to 10162
  140.3760  144.2796  150.5914 LP  0  0  0  0  0  0  0  0  0  0  0  0  # atno 17343 bound_to 10162
  157.7504  131.0150  150.3489 LP  0  0  0  0  0  0  0  0  0  0  0  0  # atno 17370 bound_to 10713
  156.3859  130.3889  149.7066 LP  0  0  0  0  0  0  0  0  0  0  0  0  # atno 17371 bound_to 10713
  140.7026  134.4548  157.5585 LP  0  0  0  0  0  0  0  0  0  0  0  0  # atno 17394 bound_to 11000
  139.8996  134.8586  156.1952 LP  0  0  0  0  0  0  0  0  0  0  0  0  # atno 17395 bound_to 11000

$$$$
