AV-unprocessed.smi:203|AV-procd|sdf|1587|dock6
  -GOLD-   2262019483D 1   1.00000     0.00000
 Structure written by MMmdl.
 57 61  0  0  0  0  0  0  0  0  1 V2000
  147.9355  141.3782  155.2865 O   0  0  0  0  0  0  0  0  0  0  0  0
  148.9879  141.0571  155.8335 C   0  0  0  0  0  0  0  0  0  0  0  0
  149.0904  140.6876  157.3037 C   0  0  0  0  0  0  0  0  0  0  0  0
  150.6094  140.6096  157.5549 C   0  0  2  0  0  0  0  0  0  0  0  0
  151.1587  141.7378  158.4851 C   0  0  2  0  0  0  0  0  0  0  0  0
  150.7114  143.1552  158.0382 C   0  0  0  0  0  0  0  0  0  0  0  0
  151.2615  144.2463  158.9661 C   0  0  0  0  0  0  0  0  0  0  0  0
  152.7872  144.1375  159.0541 C   0  0  0  0  0  0  0  0  0  0  0  0
  153.1961  142.7295  159.5057 C   0  0  0  0  0  0  0  0  0  0  0  0
  152.6251  141.7036  158.6332 N   0  0  0  0  0  0  0  0  0  0  0  0
  153.1746  140.4980  158.9006 C   0  0  0  0  0  0  0  0  0  0  0  0
  153.1375  139.5688  157.9143 N   0  0  0  0  0  0  0  0  0  0  0  0
  153.6611  138.3564  158.1210 C   0  0  0  0  0  0  0  0  0  0  0  0
  154.2608  137.8803  159.2146 N   0  0  0  0  0  0  0  0  0  0  0  0
  154.3036  138.8175  160.2051 C   0  0  0  0  0  0  0  0  0  0  0  0
  153.7869  140.1413  160.1349 C   0  0  0  0  0  0  0  0  0  0  0  0
  154.0112  140.8035  161.3360 N   0  0  0  0  0  0  0  0  0  0  0  0
  154.6273  139.9209  162.0744 C   0  0  0  0  0  0  0  0  0  0  0  0
  154.8453  138.7024  161.4729 N   0  0  0  0  0  0  0  0  0  0  0  0
  155.5084  137.5516  162.0597 C   0  0  0  0  0  0  0  0  0  0  0  0
  154.5471  136.3629  162.2717 C   0  0  1  0  0  0  0  0  0  0  0  0
  153.9872  135.9492  161.0412 O   0  0  0  0  0  0  0  0  0  0  0  0
  155.1912  135.1402  162.9577 C   0  0  2  0  0  0  0  0  0  0  0  0
  154.2152  133.9957  163.2594 C   0  0  0  0  0  0  0  0  0  0  0  0
  154.7344  133.3858  164.5552 C   0  0  0  0  0  0  0  0  0  0  0  0
  155.9454  134.2445  164.9156 C   0  0  0  0  0  0  0  0  0  0  0  0
  155.7099  135.4679  164.2389 O   0  0  0  0  0  0  0  0  0  0  0  0
  151.2453  140.5919  156.1462 C   0  0  0  0  0  0  0  0  0  0  0  0
  150.1785  140.9775  155.2437 N   0  0  0  0  0  0  0  0  0  0  0  0
  148.5800  141.4110  157.9393 H   0  0  0  0  0  0  0  0  0  0  0  0
  148.6181  139.7166  157.4562 H   0  0  0  0  0  0  0  0  0  0  0  0
  150.7954  139.6438  158.0258 H   0  0  0  0  0  0  0  0  0  0  0  0
  150.7376  141.5712  159.4771 H   0  0  0  0  0  0  0  0  0  0  0  0
  151.0502  143.3565  157.0218 H   0  0  0  0  0  0  0  0  0  0  0  0
  149.6251  143.2320  158.0169 H   0  0  0  0  0  0  0  0  0  0  0  0
  150.9753  145.2324  158.5993 H   0  0  0  0  0  0  0  0  0  0  0  0
  150.8244  144.1412  159.9599 H   0  0  0  0  0  0  0  0  0  0  0  0
  153.2299  144.3548  158.0812 H   0  0  0  0  0  0  0  0  0  0  0  0
  153.1778  144.8813  159.7489 H   0  0  0  0  0  0  0  0  0  0  0  0
  154.2846  142.6522  159.5100 H   0  0  0  0  0  0  0  0  0  0  0  0
  152.8619  142.5618  160.5307 H   0  0  0  0  0  0  0  0  0  0  0  0
  153.5901  137.6691  157.2908 H   0  0  0  0  0  0  0  0  0  0  0  0
  154.9426  140.1354  163.0850 H   0  0  0  0  0  0  0  0  0  0  0  0
  156.3393  137.2650  161.4139 H   0  0  0  0  0  0  0  0  0  0  0  0
  155.9474  137.8641  163.0072 H   0  0  0  0  0  0  0  0  0  0  0  0
  153.7077  136.6927  162.8853 H   0  0  0  0  0  0  0  0  0  0  0  0
  154.6131  136.1260  160.3552 H   0  0  0  0  0  0  0  0  0  0  0  0
  156.0026  134.7455  162.3424 H   0  0  0  0  0  0  0  0  0  0  0  0
  153.2001  134.3639  163.4105 H   0  0  0  0  0  0  0  0  0  0  0  0
  154.1834  133.2719  162.4445 H   0  0  0  0  0  0  0  0  0  0  0  0
  153.9717  133.4561  165.3316 H   0  0  0  0  0  0  0  0  0  0  0  0
  155.0045  132.3353  164.4448 H   0  0  0  0  0  0  0  0  0  0  0  0
  156.0527  134.3932  165.9902 H   0  0  0  0  0  0  0  0  0  0  0  0
  156.8649  133.7944  164.5380 H   0  0  0  0  0  0  0  0  0  0  0  0
  152.0983  141.2637  156.0496 H   0  0  0  0  0  0  0  0  0  0  0  0
  151.5848  139.5885  155.8868 H   0  0  0  0  0  0  0  0  0  0  0  0
  150.3393  141.1743  154.2664 H   0  0  0  0  0  0  0  0  0  0  0  0
  1  2  2  0  0  0  0
  2 29  1  0  0  0  0
  2  3  1  0  0  0  0
  3  4  1  0  0  0  0
  3 30  1  0  0  0  0
  3 31  1  0  0  0  0
  4  5  1  0  0  0  0
  4 28  1  0  0  0  0
  4 32  1  0  0  0  0
  5 10  1  0  0  0  0
  5  6  1  0  0  0  0
  5 33  1  0  0  0  0
  6  7  1  0  0  0  0
  6 34  1  0  0  0  0
  6 35  1  0  0  0  0
  7  8  1  0  0  0  0
  7 36  1  0  0  0  0
  7 37  1  0  0  0  0
  8  9  1  0  0  0  0
  8 38  1  0  0  0  0
  8 39  1  0  0  0  0
  9 10  1  0  0  0  0
  9 40  1  0  0  0  0
  9 41  1  0  0  0  0
 10 11  1  0  0  0  0
 11 16  1  0  0  0  0
 11 12  2  0  0  0  0
 12 13  1  0  0  0  0
 13 14  2  0  0  0  0
 13 42  1  0  0  0  0
 14 15  1  0  0  0  0
 15 19  1  0  0  0  0
 15 16  2  0  0  0  0
 16 17  1  0  0  0  0
 17 18  2  0  0  0  0
 18 19  1  0  0  0  0
 18 43  1  0  0  0  0
 19 20  1  0  0  0  0
 20 21  1  0  0  0  0
 20 44  1  0  0  0  0
 20 45  1  0  0  0  0
 21 22  1  0  0  0  0
 21 23  1  0  0  0  0
 21 46  1  0  0  0  0
 22 47  1  0  0  0  0
 23 27  1  0  0  0  0
 23 24  1  0  0  0  0
 23 48  1  0  0  0  0
 24 25  1  0  0  0  0
 24 49  1  0  0  0  0
 24 50  1  0  0  0  0
 25 26  1  0  0  0  0
 25 51  1  0  0  0  0
 25 52  1  0  0  0  0
 26 27  1  0  0  0  0
 26 53  1  0  0  0  0
 26 54  1  0  0  0  0
 28 29  1  0  0  0  0
 28 55  1  0  0  0  0
 28 56  1  0  0  0  0
 29 57  1  0  0  0  0
M  END
> <s_m_source_file>
AV-unprocessed.smi

> <i_m_source_file_index>
203

> <i_lp_mmshare_version>
43012

> <i_f3d_flags>
0

> <s_epik_input>
Tz1DMVtDSDJdW0NASF0oW0NIMl1bTkhdMSlbQ0BASF0yW0NIMl1bQ0gyXVtDSDJdW0NIMl1OMmMobltjSF1uMyljKGMzNCluW2NIXW40W0NIMl1bQ0BIXShbT0hdKVtDQEBIXTVbQ0gyXVtDSDJdW0NIMl1PNQ==

> <s_epik_cmdline>
J2VwaWtfcHl0aG9uJywgJy1waCcsICc3LjAnLCAnLXRuJywgJzgnLCAnLW1hJywgJzIwMCcsICctbWV0YWxfYmluZGluZycsICctaW1hZScsICc8aW5maWxlLm1hZT4nLCAnLW9tYWUnLCAnPG91dGZpbGUubWFlPic=

> <r_lp_tautomer_probability>
1

> <r_epik_Ionization_Penalty>
0.00175146

> <r_epik_Ionization_Penalty_Charging>
0

> <r_epik_Ionization_Penalty_Neutral>
0.00175146

> <r_epik_State_Penalty>
0.00109045

> <r_epik_Charging_Adjusted_Penalty>
0.00109045

> <i_epik_Tot_Q>
0

> <i_epik_Tot_abs_Q>
0

> <r_epik_Metal_State_Penalty>
-0

> <b_epik_Metal_Only>
0

> <s_lp_Force_Field>
OPLS_2005

> <r_lp_Energy>
57.3727

> <b_lp_Chiralities_Consistent>
1

> <s_lp_Variant>
AV-unprocessed.smi:203-6

> <Gold.Version>
5.8.1

> <Gold.Id.Protein>
6NUR|6NUR_protein|mol2

> <Gold.PLP.Fitness>
43.1442

> <Gold.PLP.PLP>
-41.0681

> <Gold.PLP.part.hbond>
-1.4299

> <Gold.PLP.part.metal>
0.0000

> <Gold.PLP.part.buried>
-5.2362

> <Gold.PLP.part.nonpolar>
-34.4672

> <Gold.PLP.part.repulsive>
0.3127

> <Gold.PLP.ligand.clash>
0.7854

> <Gold.PLP.ligand.torsion>
0.5142

> <Gold.PLP.Chemscore.Hbond>
1.2050

> <Gold.PLP.Chemscore.CHOScore>
0.0000

> <Gold.PLP.Chemscore.Metal>
0.0000

> <Gold.Chemscore.Hbonds>
donor molecule, donor type, donor heavy atom, donor atom, acceptor molecule, acceptor atom, score
      P1  H  6896  6907       L1    22  0.50
      P1  H  7997  8008       L1    12  0.75

> <Gold.PLP.Chemscore.Internal.Correction>
0.2749

> <Gold.Rescore>
     Score         DG    S(hbond)    S(metal)    S(lipo)     H(rot)  DE(clash)    DE(int)     intcor
     10.05     -13.88       0.94        0.00     104.30       2.72       0.31       3.52       ----

> <Gold.Chemscore.Fitness>
10.0511

> <Gold.Chemscore.DG>
-13.8817

> <Gold.Chemscore.ZeroCoef>
-5.4800

> <Gold.Chemscore.Hbond>
0.9442

> <Gold.Chemscore.Metal>
0.0000

> <Gold.Chemscore.Lipo>
104.3046

> <Gold.Chemscore.Internal_Hbond>
0.0000

> <Gold.Chemscore.DEClash>
0.3146

> <Gold.Chemscore.DEInternal>
3.5160

> <Gold.Chemscore.Rot>
2.7171

> <Gold.Chemscore.Internal.Correction>
   9.000000E+99

> <Gold.Chemscore.Hbonds>
donor molecule, donor type, donor heavy atom, donor atom, acceptor molecule, acceptor atom, score
      P1  H  6896  6907       L1    22  0.27
      P1  H  7997  8008       L1    12  0.05

> <Gold.Chemscore.Hbond.Weighted>
-3.1537

> <Gold.Chemscore.Metal.Weighted>
-0.0000

> <Gold.Chemscore.Lipo.Weighted>
-12.2036

> <Gold.Chemscore.Internal_Hbond.Weighted>
0.0000

> <Gold.Chemscore.DEClash.Weighted>
0.3146

> <Gold.Chemscore.DEInternal.Weighted>
3.5160

> <Gold.Chemscore.Rot.Weighted>
6.9557

> <Gold.Chemscore.Internal.Correction.Weighted>
   9.000000E+99

> <Gold.Protein.RotatedTorsions>
[ 6907 6896 6895 6894 ] final   48.06 input  -60.11 | X-H torsion
[ 7974 7965 7964 7962 ] final  -90.11 input  175.53 | X-H torsion
[ 8008 7997 7996 7995 ] final  -64.02 input   59.86 | X-H torsion
[ 10167 10162 10161 10158 ] final  -73.56 input  -65.29 | X-H torsion
[ 10718 10713 10712 10709 ] final   58.76 input   66.30 | X-H torsion
[ 10763 10752 10751 10750 ] final  172.91 input  -60.55 | X-H torsion
[ 11005 11000 10999 10996 ] final -165.04 input  -57.11 | X-H torsion

> <Gold.Protein.ActiveResidues>
 VAL166  LYS551  ARG553  GLY616  TRP617  ASP618  TYR619  PRO620  LYS621  CYS622 
 ASP623  PHE694  ASN695  SER759  ASP760  ASP761  ALA762  ILE779  LEU786  VAL792 
 PHE793  MET794  SER795  GLU796  ALA797  LYS798  CYS799  TRP800  GLU811  SER814 

> <Gold.Protein.RotatedAtoms>
  152.2752  134.7889  160.0406 H   0  0  0  0  0  0  0  0  0  0  0  0  # atno 6907 bound_to 6896
  151.8488  133.3431  159.3675 H   0  0  0  0  0  0  0  0  0  0  0  0  # atno 6908 bound_to 6896
  150.7167  134.5247  159.5715 H   0  0  0  0  0  0  0  0  0  0  0  0  # atno 6909 bound_to 6896
  145.4308  140.9555  143.2129 H   0  0  0  0  0  0  0  0  0  0  0  0  # atno 7974 bound_to 7965
  154.4587  140.0962  156.6832 H   0  0  0  0  0  0  0  0  0  0  0  0  # atno 8008 bound_to 7997
  155.5058  140.3475  155.4361 H   0  0  0  0  0  0  0  0  0  0  0  0  # atno 8009 bound_to 7997
  156.0829  140.1377  156.9678 H   0  0  0  0  0  0  0  0  0  0  0  0  # atno 8010 bound_to 7997
  140.5100  143.2346  151.7609 H   0  0  0  0  0  0  0  0  0  0  0  0  # atno 10167 bound_to 10162
  157.5622  130.8844  149.9129 H   0  0  0  0  0  0  0  0  0  0  0  0  # atno 10718 bound_to 10713
  154.4327  135.2760  155.1901 H   0  0  0  0  0  0  0  0  0  0  0  0  # atno 10763 bound_to 10752
  154.3800  135.6089  153.5789 H   0  0  0  0  0  0  0  0  0  0  0  0  # atno 10764 bound_to 10752
  152.9837  135.5878  154.4641 H   0  0  0  0  0  0  0  0  0  0  0  0  # atno 10765 bound_to 10752
  140.5801  134.5150  157.5177 H   0  0  0  0  0  0  0  0  0  0  0  0  # atno 11005 bound_to 11000
  144.8184  139.5836  143.6998 LP  0  0  0  0  0  0  0  0  0  0  0  0  # atno 17320 bound_to 7965
  146.2608  139.6406  142.9363 LP  0  0  0  0  0  0  0  0  0  0  0  0  # atno 17321 bound_to 7965
  139.4893  144.4404  151.9771 LP  0  0  0  0  0  0  0  0  0  0  0  0  # atno 17342 bound_to 10162
  140.3496  144.3105  150.5952 LP  0  0  0  0  0  0  0  0  0  0  0  0  # atno 17343 bound_to 10162
  156.0673  130.3690  150.0850 LP  0  0  0  0  0  0  0  0  0  0  0  0  # atno 17370 bound_to 10713
  156.9013  130.9621  151.3576 LP  0  0  0  0  0  0  0  0  0  0  0  0  # atno 17371 bound_to 10713
  139.9321  134.7944  156.0902 LP  0  0  0  0  0  0  0  0  0  0  0  0  # atno 17394 bound_to 11000
  141.1001  133.6680  156.2735 LP  0  0  0  0  0  0  0  0  0  0  0  0  # atno 17395 bound_to 11000

$$$$
