AV-unprocessed.smi:2021|AV-procd|sdf|8181|dock9
  -GOLD-   2272010433D 1   1.00000     0.00000
 Structure written by MMmdl.
 41 42  0  0  0  0  0  0  0  0  3 V2000
  152.7242  144.2269  158.2873 C   0  0  0  0  0  0  0  0  0  0  0  0
  151.2676  144.5874  158.6157 C   0  0  0  0  0  0  0  0  0  0  0  0
  151.2102  145.5604  159.8051 C   0  0  0  0  0  0  0  0  0  0  0  0
  150.4388  143.3110  158.8764 C   0  0  0  0  0  0  0  0  0  0  0  0
  149.9384  142.6718  157.6324 N   0  3  1  0  0  0  0  0  0  0  0  0
  150.9626  141.8621  156.9270 C   0  0  0  0  0  0  0  0  0  0  0  0
  150.3764  141.2559  155.6423 C   0  0  0  0  0  0  0  0  0  0  0  0
  149.2284  140.4865  155.9686 O   0  0  0  0  0  0  0  0  0  0  0  0
  148.1909  141.2749  156.5427 C   0  0  1  0  0  0  0  0  0  0  0  0
  146.9519  140.3890  156.7623 C   0  0  0  0  0  0  0  0  0  0  0  0
  147.0335  139.6565  158.0215 N   0  0  0  0  0  0  0  0  0  0  0  0
  146.8332  138.3409  158.1825 C   0  0  0  0  0  0  0  0  0  0  0  0
  146.5817  137.6310  157.2062 O   0  0  0  0  0  0  0  0  0  0  0  0
  146.9324  137.9314  159.4668 N   0  5  0  0  0  0  0  0  0  0  0  0
  147.3044  136.6702  159.7421 C   0  0  0  0  0  0  0  0  0  0  0  0
  147.7079  135.8158  158.7879 N   0  0  0  0  0  0  0  0  0  0  0  0
  148.0441  134.5634  159.2836 N   0  0  0  0  0  0  0  0  0  0  0  0
  147.8763  134.5026  160.6044 C   0  0  0  0  0  0  0  0  0  0  0  0
  147.2914  135.9686  161.3624 S   0  0  0  0  0  0  0  0  0  0  0  0
  148.7141  141.8683  157.8652 C   0  0  0  0  0  0  0  0  0  0  0  0
  153.2025  143.7071  159.1181 H   0  0  0  0  0  0  0  0  0  0  0  0
  153.3117  145.1199  158.0719 H   0  0  0  0  0  0  0  0  0  0  0  0
  152.7815  143.5791  157.4120 H   0  0  0  0  0  0  0  0  0  0  0  0
  150.8705  145.1019  157.7412 H   0  0  0  0  0  0  0  0  0  0  0  0
  151.5959  145.0985  160.7147 H   0  0  0  0  0  0  0  0  0  0  0  0
  150.1899  145.8886  160.0046 H   0  0  0  0  0  0  0  0  0  0  0  0
  151.8047  146.4533  159.6096 H   0  0  0  0  0  0  0  0  0  0  0  0
  151.0222  142.5821  159.4412 H   0  0  0  0  0  0  0  0  0  0  0  0
  149.5925  143.5781  159.5117 H   0  0  0  0  0  0  0  0  0  0  0  0
  151.8268  142.4731  156.6707 H   0  0  0  0  0  0  0  0  0  0  0  0
  151.3159  141.0656  157.5837 H   0  0  0  0  0  0  0  0  0  0  0  0
  150.1185  142.0344  154.9226 H   0  0  0  0  0  0  0  0  0  0  0  0
  151.1103  140.6083  155.1624 H   0  0  0  0  0  0  0  0  0  0  0  0
  147.9285  142.0861  155.8606 H   0  0  0  0  0  0  0  0  0  0  0  0
  146.0360  140.9804  156.7109 H   0  0  0  0  0  0  0  0  0  0  0  0
  146.8843  139.6494  155.9641 H   0  0  0  0  0  0  0  0  0  0  0  0
  147.2457  140.1935  158.8496 H   0  0  0  0  0  0  0  0  0  0  0  0
  148.0957  133.5884  161.1352 H   0  0  0  0  0  0  0  0  0  0  0  0
  148.9314  141.0705  158.5778 H   0  0  0  0  0  0  0  0  0  0  0  0
  147.9439  142.4980  158.3128 H   0  0  0  0  0  0  0  0  0  0  0  0
  149.6696  143.4201  157.0092 H   0  0  0  0  0  0  0  0  0  0  0  0
  1  2  1  0  0  0  0
  1 21  1  0  0  0  0
  1 22  1  0  0  0  0
  1 23  1  0  0  0  0
  2  3  1  0  0  0  0
  2  4  1  0  0  0  0
  2 24  1  0  0  0  0
  3 25  1  0  0  0  0
  3 26  1  0  0  0  0
  3 27  1  0  0  0  0
  4  5  1  0  0  0  0
  4 28  1  0  0  0  0
  4 29  1  0  0  0  0
  5 20  1  0  0  0  0
  5  6  1  0  0  0  0
  5 41  1  0  0  0  0
  6  7  1  0  0  0  0
  6 30  1  0  0  0  0
  6 31  1  0  0  0  0
  7  8  1  0  0  0  0
  7 32  1  0  0  0  0
  7 33  1  0  0  0  0
  8  9  1  0  0  0  0
  9 10  1  0  0  0  0
  9 20  1  0  0  0  0
  9 34  1  0  0  0  0
 10 11  1  0  0  0  0
 10 35  1  0  0  0  0
 10 36  1  0  0  0  0
 11 12  1  0  0  0  0
 11 37  1  0  0  0  0
 12 13  2  0  0  0  0
 12 14  1  0  0  0  0
 14 15  1  0  0  0  0
 15 19  1  0  0  0  0
 15 16  2  0  0  0  0
 16 17  1  0  0  0  0
 17 18  2  0  0  0  0
 18 19  1  0  0  0  0
 18 38  1  0  0  0  0
 20 39  1  0  0  0  0
 20 40  1  0  0  0  0
M  CHG  1   5   1
M  CHG  1  14  -1
M  END
> <s_m_source_file>
AV-unprocessed.smi

> <i_m_source_file_index>
2021

> <i_lp_mmshare_version>
43012

> <i_f3d_flags>
0

> <s_epik_input>
W0NIM11bQ0hdKFtDSDNdKVtDSDJdTjFbQ0gyXVtDSDJdT1tDQEhdKFtDSDJdMSlbQ0gyXVtOSF1DKD1PKVtOSF1jMm5uW2NIXXMy

> <s_epik_cmdline>
J2VwaWtfcHl0aG9uJywgJy1waCcsICc3LjAnLCAnLXRuJywgJzgnLCAnLW1hJywgJzIwMCcsICctbWV0YWxfYmluZGluZycsICctaW1hZScsICc8aW5maWxlLm1hZT4nLCAnLW9tYWUnLCAnPG91dGZpbGUubWFlPic=

> <r_lp_tautomer_probability>
1

> <r_epik_Ionization_Penalty>
3.15762

> <r_epik_Ionization_Penalty_Charging>
3.12229

> <r_epik_Ionization_Penalty_Neutral>
0.0353298

> <r_epik_State_Penalty>
3.11266

> <r_epik_Charging_Adjusted_Penalty>
6.23495

> <i_epik_Tot_Q>
0

> <i_epik_Tot_abs_Q>
2

> <r_epik_Metal_State_Penalty>
0.541462

> <b_epik_Metal_Only>
1

> <s_lp_Force_Field>
OPLS_2005

> <r_lp_Energy>
10.0285

> <b_lp_Chiralities_Consistent>
1

> <s_lp_Variant>
AV-unprocessed.smi:2021-7

> <Gold.Version>
5.8.1

> <Gold.Id.Protein>
6NUR|6NUR_protein|mol2

> <Gold.PLP.Fitness>
37.0879

> <Gold.PLP.PLP>
-28.6168

> <Gold.PLP.part.hbond>
-1.9961

> <Gold.PLP.part.metal>
0.0000

> <Gold.PLP.part.buried>
-4.5448

> <Gold.PLP.part.nonpolar>
-23.4487

> <Gold.PLP.part.repulsive>
0.3905

> <Gold.PLP.ligand.clash>
0.0000

> <Gold.PLP.ligand.torsion>
0.9949

> <Gold.PLP.Chemscore.Hbond>
3.4400

> <Gold.PLP.Chemscore.CHOScore>
0.0000

> <Gold.PLP.Chemscore.Metal>
0.0000

> <Gold.Chemscore.Hbonds>
donor molecule, donor type, donor heavy atom, donor atom, acceptor molecule, acceptor atom, score
      L1  H     5    41       P1  8028  2.00
      P1  H  6934  6947       L1    14  1.44

> <Gold.PLP.Chemscore.Internal.Correction>
0.1409

> <Gold.Rescore>
     Score         DG    S(hbond)    S(metal)    S(lipo)     H(rot)  DE(clash)    DE(int)     intcor
     12.66     -15.51       1.72        0.00      76.93       1.85       0.20       2.65       ----

> <Gold.Chemscore.Fitness>
12.6590

> <Gold.Chemscore.DG>
-15.5100

> <Gold.Chemscore.ZeroCoef>
-5.4800

> <Gold.Chemscore.Hbond>
1.7234

> <Gold.Chemscore.Metal>
0.0000

> <Gold.Chemscore.Lipo>
76.9335

> <Gold.Chemscore.Internal_Hbond>
0.0000

> <Gold.Chemscore.DEClash>
0.1964

> <Gold.Chemscore.DEInternal>
2.6547

> <Gold.Chemscore.Rot>
1.8466

> <Gold.Chemscore.Internal.Correction>
   9.000000E+99

> <Gold.Chemscore.Hbonds>
donor molecule, donor type, donor heavy atom, donor atom, acceptor molecule, acceptor atom, score
      L1  H     5    41       P1  8028  0.91
      P1  H  6934  6947       L1    14  0.59

> <Gold.Chemscore.Hbond.Weighted>
-5.7560

> <Gold.Chemscore.Metal.Weighted>
-0.0000

> <Gold.Chemscore.Lipo.Weighted>
-9.0012

> <Gold.Chemscore.Internal_Hbond.Weighted>
0.0000

> <Gold.Chemscore.DEClash.Weighted>
0.1964

> <Gold.Chemscore.DEInternal.Weighted>
2.6547

> <Gold.Chemscore.Rot.Weighted>
4.7272

> <Gold.Chemscore.Internal.Correction.Weighted>
   9.000000E+99

> <Gold.Protein.RotatedTorsions>
[ 6907 6896 6895 6894 ] final   64.10 input  -60.11 | X-H torsion
[ 7974 7965 7964 7962 ] final -135.14 input  175.53 | X-H torsion
[ 8008 7997 7996 7995 ] final -137.45 input   59.86 | X-H torsion
[ 10167 10162 10161 10158 ] final  122.80 input  -65.29 | X-H torsion
[ 10718 10713 10712 10709 ] final   45.08 input   66.30 | X-H torsion
[ 10763 10752 10751 10750 ] final  -67.75 input  -60.55 | X-H torsion
[ 11005 11000 10999 10996 ] final  -46.16 input  -57.11 | X-H torsion

> <Gold.Protein.ActiveResidues>
 VAL166  LYS551  ARG553  GLY616  TRP617  ASP618  TYR619  PRO620  LYS621  CYS622 
 ASP623  PHE694  ASN695  SER759  ASP760  ASP761  ALA762  ILE779  LEU786  VAL792 
 PHE793  MET794  SER795  GLU796  ALA797  LYS798  CYS799  TRP800  GLU811  SER814 

> <Gold.Protein.RotatedAtoms>
  152.4305  134.5786  159.9941 H   0  0  0  0  0  0  0  0  0  0  0  0  # atno 6907 bound_to 6896
  151.5910  133.3361  159.3036 H   0  0  0  0  0  0  0  0  0  0  0  0  # atno 6908 bound_to 6896
  150.8198  134.7435  159.6827 H   0  0  0  0  0  0  0  0  0  0  0  0  # atno 6909 bound_to 6896
  144.9040  140.6809  143.5067 H   0  0  0  0  0  0  0  0  0  0  0  0  # atno 7974 bound_to 7965
  155.4120  140.0513  157.3031 H   0  0  0  0  0  0  0  0  0  0  0  0  # atno 8008 bound_to 7997
  154.4942  140.2132  155.9443 H   0  0  0  0  0  0  0  0  0  0  0  0  # atno 8009 bound_to 7997
  156.1383  140.3159  155.8460 H   0  0  0  0  0  0  0  0  0  0  0  0  # atno 8010 bound_to 7997
  139.5837  144.6997  151.3463 H   0  0  0  0  0  0  0  0  0  0  0  0  # atno 10167 bound_to 10162
  157.4337  130.8040  149.7627 H   0  0  0  0  0  0  0  0  0  0  0  0  # atno 10718 bound_to 10713
  154.3791  135.6078  153.5781 H   0  0  0  0  0  0  0  0  0  0  0  0  # atno 10763 bound_to 10752
  152.9788  135.5856  154.4432 H   0  0  0  0  0  0  0  0  0  0  0  0  # atno 10764 bound_to 10752
  154.4198  135.2845  155.1960 H   0  0  0  0  0  0  0  0  0  0  0  0  # atno 10765 bound_to 10752
  141.0562  133.6725  156.3116 H   0  0  0  0  0  0  0  0  0  0  0  0  # atno 11005 bound_to 11000
  145.3567  139.1692  143.4405 LP  0  0  0  0  0  0  0  0  0  0  0  0  # atno 17320 bound_to 7965
  146.3124  140.3625  142.8666 LP  0  0  0  0  0  0  0  0  0  0  0  0  # atno 17321 bound_to 7965
  140.7112  143.7385  150.7570 LP  0  0  0  0  0  0  0  0  0  0  0  0  # atno 17342 bound_to 10162
  140.0924  143.4865  152.2471 LP  0  0  0  0  0  0  0  0  0  0  0  0  # atno 17343 bound_to 10162
  155.9922  130.3932  150.2950 LP  0  0  0  0  0  0  0  0  0  0  0  0  # atno 17370 bound_to 10713
  157.1109  131.0221  151.3048 LP  0  0  0  0  0  0  0  0  0  0  0  0  # atno 17371 bound_to 10713
  140.5960  134.5603  157.5508 LP  0  0  0  0  0  0  0  0  0  0  0  0  # atno 17394 bound_to 11000
  139.9392  134.7819  156.0723 LP  0  0  0  0  0  0  0  0  0  0  0  0  # atno 17395 bound_to 11000

$$$$
