#       Name:                AV-unprocessed.smi:960
#       Creating user name   scv26
#       Creation time:       Fri Mar 27 02:17:57 2020


#       File generated by GOLD software.
#

@<TRIPOS>MOLECULE
AV-unprocessed.smi:960
    51    52     1
SMALL
NO_CHARGES


@<TRIPOS>ATOM
      1 ****        -4.4508  -3.4968  -1.8496 C.2            1 S1                 0.0000
      2 ****        -4.7041  -2.2526  -1.4106 C.2            1 S1                 0.0000
      3 ****        -5.6160  -1.3050  -2.1689 C.3            1 S1                 0.0000
      4 ****        -4.1169  -1.7292  -0.1089 C.3            1 S1                 0.0000
      5 ****        -2.6940  -1.3190  -0.2404 N.4            1 S1                 1.0000
      6 ****        -2.0633  -1.1071   1.0881 C.3            1 S1                 0.0000
      7 ****        -0.5562  -0.8357   0.9585 C.3            1 S1                 0.0000
      8 ****        -0.2873   0.3723   0.0432 C.3            1 S1                 0.0000
      9 ****         1.1455   0.5704  -0.1559 N.am           1 S1                 0.0000
     10 ****         1.9743   1.1465   0.7265 C.2            1 S1                 0.0000
     11 ****         1.6101   1.5829   1.8178 O.2            1 S1                 0.0000
     12 ****         3.2300   1.2003   0.2573 N.am           1 S1                 0.0000
     13 ****         4.3637   1.7314   0.9222 C.2            1 S1                 0.0000
     14 ****         4.7369   1.6392   2.2954 C.2            1 S1                 0.0000
     15 ****         4.0666   0.9616   3.4580 C.3            1 S1                 0.0000
     16 ****         5.8978   2.2480   2.4882 N.2            1 S1                 0.0000
     17 ****         6.3193   2.7196   1.2356 O.3            1 S1                 0.0000
     18 ****         5.3906   2.3815   0.3038 C.2            1 S1                 0.0000
     19 ****         5.6693   2.7787  -1.1063 C.3            1 S1                 0.0000
     20 ****        -0.9749   0.1460  -1.3118 C.3            1 S1                 0.0000
     21 ****        -2.4737  -0.1565  -1.1420 C.3            1 S1                 0.0000
     22 ****        -4.8806  -3.8663  -2.7694 H              1 S1                 0.0000
     23 ****        -3.8089  -4.1658  -1.2950 H              1 S1                 0.0000
     24 ****        -6.5075  -1.0951  -1.5776 H              1 S1                 0.0000
     25 ****        -5.9365  -1.7373  -3.1174 H              1 S1                 0.0000
     26 ****        -5.1231  -0.3574  -2.3803 H              1 S1                 0.0000
     27 ****        -4.7188  -0.9039   0.2750 H              1 S1                 0.0000
     28 ****        -4.1881  -2.5316   0.6270 H              1 S1                 0.0000
     29 ****        -2.5520  -0.2733   1.5948 H              1 S1                 0.0000
     30 ****        -2.2142  -1.9886   1.7127 H              1 S1                 0.0000
     31 ****        -0.1320  -0.6626   1.9483 H              1 S1                 0.0000
     32 ****        -0.0601  -1.7223   0.5606 H              1 S1                 0.0000
     33 ****        -0.7102   1.2699   0.4990 H              1 S1                 0.0000
     34 ****         1.5339   0.2494  -1.0309 H              1 S1                 0.0000
     35 ****         3.3713   0.9191  -0.7018 H              1 S1                 0.0000
     36 ****         3.5546   0.0526   3.1422 H              1 S1                 0.0000
     37 ****         3.3324   1.6184   3.9242 H              1 S1                 0.0000
     38 ****         4.7877   0.6771   4.2250 H              1 S1                 0.0000
     39 ****         4.9661   2.3078  -1.7933 H              1 S1                 0.0000
     40 ****         6.6763   2.4825  -1.3998 H              1 S1                 0.0000
     41 ****         5.5856   3.8588  -1.2253 H              1 S1                 0.0000
     42 ****        -0.8476   1.0234  -1.9470 H              1 S1                 0.0000
     43 ****        -0.4985  -0.6850  -1.8347 H              1 S1                 0.0000
     44 ****        -2.8868  -0.3616  -2.1280 H              1 S1                 0.0000
     45 ****        -2.9952   0.7176  -0.7485 H              1 S1                 0.0000
     46 ****        -2.2138  -2.1026  -0.6594 H              1 S1                 0.0000
     47 ****         0.6492   1.5175   2.0871 LP             1 S1                 0.0000
     48 ****         2.2749   2.0030   2.4355 LP             1 S1                 0.0000
     49 ****         6.3802   2.3514   3.3581 LP             1 S1                 0.0000
     50 ****         7.1983   2.3056   0.9994 LP             1 S1                 0.0000
     51 ****         6.4170   3.7143   1.2668 LP             1 S1                 0.0000
@<TRIPOS>BOND
    1    1    2 2     
    2    1   22 1     
    3    1   23 1     
    4    2    3 1     
    5    2    4 1     
    6    3   24 1     
    7    3   25 1     
    8    3   26 1     
    9    4    5 1     
   10    4   27 1     
   11    4   28 1     
   12    5   21 1     
   13    5    6 1     
   14    5   46 1     
   15    6    7 1     
   16    6   29 1     
   17    6   30 1     
   18    7    8 1     
   19    7   31 1     
   20    7   32 1     
   21    8    9 1     
   22    8   20 1     
   23    8   33 1     
   24    9   10 am    
   25    9   34 1     
   26   10   11 2     
   27   10   12 am    
   28   12   13 1     
   29   12   35 1     
   30   13   18 2     
   31   13   14 1     
   32   14   15 1     
   33   14   16 2     
   34   15   36 1     
   35   15   37 1     
   36   15   38 1     
   37   16   17 1     
   38   17   18 1     
   39   18   19 1     
   40   19   39 1     
   41   19   40 1     
   42   19   41 1     
   43   20   21 1     
   44   20   42 1     
   45   20   43 1     
   46   21   44 1     
   47   21   45 1     
   48   11   47 1     
   49   11   48 1     
   50   16   49 1     
   51   17   50 1     
   52   17   51 1     
@<TRIPOS>SUBSTRUCTURE
      1 S1             1
@<TRIPOS>SET
LONE_PAIRS      STATIC     ATOMS    <user>   **** ""
5 47 48 49 50 51
DONOR_HYDROGENS      STATIC     ATOMS    <user>   **** ""
3 46 34 35
ATOM$BLUE        STATIC     ATOMS    COLORGROUP SYSTEM
5 47 48 49 50 51
ATOM$RED        STATIC     ATOMS    COLORGROUP SYSTEM
3 46 34 35
