AV-unprocessed.smi:218|AV-procd|sdf|1666|dock7
  -GOLD-   2262020 73D 1   1.00000     0.00000
 Structure written by MMmdl.
 54 57  0  0  0  0  0  0  0  0  1 V2000
  144.7091  143.7919  156.4521 C   0  0  0  0  0  0  0  0  0  0  0  0
  145.8572  143.5676  155.4610 C   0  0  0  0  0  0  0  0  0  0  0  0
  145.3285  143.3969  154.0265 C   0  0  0  0  0  0  0  0  0  0  0  0
  146.5444  142.3870  155.8812 O   0  0  0  0  0  0  0  0  0  0  0  0
  147.2286  141.6162  154.9607 C   0  0  0  0  0  0  0  0  0  0  0  0
  146.5176  140.6141  154.2687 C   0  0  0  0  0  0  0  0  0  0  0  0
  147.2052  139.8081  153.3378 C   0  0  0  0  0  0  0  0  0  0  0  0
  146.4882  138.7021  152.5832 C   0  0  0  0  0  0  0  0  0  0  0  0
  145.0675  138.5686  152.8872 N   0  0  0  0  0  0  0  0  0  0  0  0
  144.4987  137.3504  153.0253 C   0  0  0  0  0  0  0  0  0  0  0  0
  143.6532  137.0813  154.0543 N   0  0  0  0  0  0  0  0  0  0  0  0
  143.0920  135.8734  154.1595 C   0  0  0  0  0  0  0  0  0  0  0  0
  143.2307  134.8167  153.3564 N   0  0  0  0  0  0  0  0  0  0  0  0
  144.0768  135.0811  152.3192 C   0  0  0  0  0  0  0  0  0  0  0  0
  144.7476  136.3145  152.0876 C   0  0  0  0  0  0  0  0  0  0  0  0
  145.5230  136.2202  150.9394 N   0  0  0  0  0  0  0  0  0  0  0  0
  145.3141  135.0023  150.5164 C   0  0  0  0  0  0  0  0  0  0  0  0
  144.4563  134.2478  151.2859 N   0  0  0  0  0  0  0  0  0  0  0  0
  144.0260  132.8363  151.0508 C   0  0  2  0  0  0  0  0  0  0  0  0
  144.9073  131.9946  151.7231 O   0  0  0  0  0  0  0  0  0  0  0  0
  145.0679  130.8014  150.9705 C   0  0  2  0  0  0  0  0  0  0  0  0
  146.3396  130.0479  151.3975 C   0  0  0  0  0  0  0  0  0  0  0  0
  146.8430  129.2974  150.3134 O   0  0  0  0  0  0  0  0  0  0  0  0
  145.0430  131.2959  149.5154 C   0  0  2  0  0  0  0  0  0  0  0  0
  146.3239  131.7149  149.0829 O   0  0  0  0  0  0  0  0  0  0  0  0
  144.0794  132.4803  149.5543 C   0  0  1  0  0  0  0  0  0  0  0  0
  142.8106  132.0685  149.0857 O   0  0  0  0  0  0  0  0  0  0  0  0
  148.5804  140.0379  153.1343 C   0  0  0  0  0  0  0  0  0  0  0  0
  149.2039  141.0652  153.8680 C   0  0  0  0  0  0  0  0  0  0  0  0
  148.5524  141.8369  154.7638 N   0  0  0  0  0  0  0  0  0  0  0  0
  143.0271  132.7671  151.4845 H   0  0  0  0  0  0  0  0  0  0  0  0
  144.1881  130.1744  151.1298 H   0  0  0  0  0  0  0  0  0  0  0  0
  144.7128  130.5084  148.8361 H   0  0  0  0  0  0  0  0  0  0  0  0
  144.4279  133.3235  148.9549 H   0  0  0  0  0  0  0  0  0  0  0  0
  144.1395  144.6863  156.1980 H   0  0  0  0  0  0  0  0  0  0  0  0
  145.0891  143.9188  157.4660 H   0  0  0  0  0  0  0  0  0  0  0  0
  144.0201  142.9467  156.4582 H   0  0  0  0  0  0  0  0  0  0  0  0
  146.5063  144.4428  155.5177 H   0  0  0  0  0  0  0  0  0  0  0  0
  144.7723  144.2792  153.7090 H   0  0  0  0  0  0  0  0  0  0  0  0
  144.6608  142.5377  153.9540 H   0  0  0  0  0  0  0  0  0  0  0  0
  146.1371  143.2469  153.3118 H   0  0  0  0  0  0  0  0  0  0  0  0
  145.4642  140.4653  154.4554 H   0  0  0  0  0  0  0  0  0  0  0  0
  146.6182  138.8390  151.5088 H   0  0  0  0  0  0  0  0  0  0  0  0
  146.9738  137.7578  152.8290 H   0  0  0  0  0  0  0  0  0  0  0  0
  144.5471  139.4313  152.9565 H   0  0  0  0  0  0  0  0  0  0  0  0
  142.4355  135.7349  155.0059 H   0  0  0  0  0  0  0  0  0  0  0  0
  145.7832  134.6180  149.6224 H   0  0  0  0  0  0  0  0  0  0  0  0
  147.1155  130.7558  151.6906 H   0  0  0  0  0  0  0  0  0  0  0  0
  146.1499  129.3972  152.2520 H   0  0  0  0  0  0  0  0  0  0  0  0
  147.4979  129.8159  149.8707 H   0  0  0  0  0  0  0  0  0  0  0  0
  146.9746  131.1586  149.4824 H   0  0  0  0  0  0  0  0  0  0  0  0
  142.1800  132.7392  149.2990 H   0  0  0  0  0  0  0  0  0  0  0  0
  149.1464  139.4443  152.4316 H   0  0  0  0  0  0  0  0  0  0  0  0
  150.2562  141.2698  153.7356 H   0  0  0  0  0  0  0  0  0  0  0  0
  1  2  1  0  0  0  0
  1 35  1  0  0  0  0
  1 36  1  0  0  0  0
  1 37  1  0  0  0  0
  2  3  1  0  0  0  0
  2  4  1  0  0  0  0
  2 38  1  0  0  0  0
  3 39  1  0  0  0  0
  3 40  1  0  0  0  0
  3 41  1  0  0  0  0
  4  5  1  0  0  0  0
  5 30  1  0  0  0  0
  5  6  2  0  0  0  0
  6  7  1  0  0  0  0
  6 42  1  0  0  0  0
  7  8  1  0  0  0  0
  7 28  2  0  0  0  0
  8  9  1  0  0  0  0
  8 43  1  0  0  0  0
  8 44  1  0  0  0  0
  9 10  1  0  0  0  0
  9 45  1  0  0  0  0
 10 15  1  0  0  0  0
 10 11  2  0  0  0  0
 11 12  1  0  0  0  0
 12 13  2  0  0  0  0
 12 46  1  0  0  0  0
 13 14  1  0  0  0  0
 14 18  1  0  0  0  0
 14 15  2  0  0  0  0
 15 16  1  0  0  0  0
 16 17  2  0  0  0  0
 17 18  1  0  0  0  0
 17 47  1  0  0  0  0
 18 19  1  0  0  0  0
 19 31  1  0  0  0  0
 19 26  1  0  0  0  0
 19 20  1  0  0  0  0
 20 21  1  0  0  0  0
 21 32  1  0  0  0  0
 21 22  1  0  0  0  0
 21 24  1  0  0  0  0
 22 23  1  0  0  0  0
 22 48  1  0  0  0  0
 22 49  1  0  0  0  0
 23 50  1  0  0  0  0
 24 33  1  0  0  0  0
 24 25  1  0  0  0  0
 24 26  1  0  0  0  0
 25 51  1  0  0  0  0
 26 34  1  0  0  0  0
 26 27  1  0  0  0  0
 27 52  1  0  0  0  0
 28 29  1  0  0  0  0
 28 53  1  0  0  0  0
 29 30  2  0  0  0  0
 29 54  1  0  0  0  0
M  END
> <s_m_source_file>
AV-unprocessed.smi

> <i_m_source_file_index>
218

> <i_lp_mmshare_version>
43012

> <i_f3d_flags>
0

> <s_epik_input>
W0NIM11bQ0hdKFtDSDNdKU9jMVtjSF1jKFtjSF1bY0hdbjEpW0NIMl1bTkhdYyhuW2NIXW4yKWMoYzIzKW5bY0hdbjNbQ0BASF00T1tDQEhdKFtDSDJdW09IXSlbQ0BASF0oW09IXSlbQ0BIXTRbT0hd

> <s_epik_cmdline>
J2VwaWtfcHl0aG9uJywgJy1waCcsICc3LjAnLCAnLXRuJywgJzgnLCAnLW1hJywgJzIwMCcsICctbWV0YWxfYmluZGluZycsICctaW1hZScsICc8aW5maWxlLm1hZT4nLCAnLW9tYWUnLCAnPG91dGZpbGUubWFlPic=

> <r_lp_tautomer_probability>
1

> <r_epik_Ionization_Penalty>
0.00457014

> <r_epik_Ionization_Penalty_Charging>
0

> <r_epik_Ionization_Penalty_Neutral>
0.00457014

> <r_epik_State_Penalty>
-0

> <r_epik_Charging_Adjusted_Penalty>
0

> <i_epik_Tot_Q>
0

> <i_epik_Tot_abs_Q>
0

> <r_epik_Metal_State_Penalty>
-0

> <b_epik_Metal_Only>
0

> <s_epik_Chemistry_Notes>
This compound contains an acetal/aminal-like group ( X-CH(R)-Y where X, Y are N, S, or O) that may be acid/base labile, releasing an aldehyde.

> <s_lp_Force_Field>
OPLS_2005

> <r_lp_Energy>
40.0122

> <b_lp_Chiralities_Consistent>
1

> <s_lp_Variant>
AV-unprocessed.smi:218-5

> <Gold.Version>
5.8.1

> <Gold.Id.Protein>
6NUR|6NUR_protein|mol2

> <Gold.PLP.Fitness>
54.6204

> <Gold.PLP.PLP>
-42.8320

> <Gold.PLP.part.hbond>
-5.4422

> <Gold.PLP.part.metal>
0.0000

> <Gold.PLP.part.buried>
-6.0777

> <Gold.PLP.part.nonpolar>
-33.0662

> <Gold.PLP.part.repulsive>
1.2727

> <Gold.PLP.ligand.clash>
0.0000

> <Gold.PLP.ligand.torsion>
2.2651

> <Gold.PLP.Chemscore.Hbond>
4.4177

> <Gold.PLP.Chemscore.CHOScore>
1.0000

> <Gold.PLP.Chemscore.Metal>
0.0000

> <Gold.Chemscore.Hbonds>
donor molecule, donor type, donor heavy atom, donor atom, acceptor molecule, acceptor atom, score
      L1  H     9    45       P1 10175  0.76
      L1  H    23    50       P1 10747  0.82
      L1  H    25    51       P1 10747  0.71
      L1  H    27    52       P1 10186  0.94
      P1  H 10785 10796       L1    27  1.00
      L1  C    17    47       P1  7921  0.98

> <Gold.PLP.Chemscore.Internal.Correction>
0.0654

> <Gold.Rescore>
     Score         DG    S(hbond)    S(metal)    S(lipo)     H(rot)  DE(clash)    DE(int)     intcor
     12.41     -14.27       3.64        0.00      78.51       4.90       0.27       1.59       ----

> <Gold.Chemscore.Fitness>
12.4065

> <Gold.Chemscore.DG>
-14.2652

> <Gold.Chemscore.ZeroCoef>
-5.4800

> <Gold.Chemscore.Hbond>
3.6380

> <Gold.Chemscore.Metal>
0.0000

> <Gold.Chemscore.Lipo>
78.5125

> <Gold.Chemscore.Internal_Hbond>
0.0000

> <Gold.Chemscore.DEClash>
0.2715

> <Gold.Chemscore.DEInternal>
1.5872

> <Gold.Chemscore.Rot>
4.9029

> <Gold.Chemscore.Internal.Correction>
   9.000000E+99

> <Gold.Chemscore.Hbonds>
donor molecule, donor type, donor heavy atom, donor atom, acceptor molecule, acceptor atom, score
      L1  H     9    45       P1 10175  0.73
      L1  H    23    50       P1 10747  0.78
      L1  H    25    51       P1 10747  0.68
      L1  H    27    52       P1 10186  0.90
      P1  H 10785 10796       L1    27  0.25

> <Gold.Chemscore.Hbond.Weighted>
-12.1508

> <Gold.Chemscore.Metal.Weighted>
-0.0000

> <Gold.Chemscore.Lipo.Weighted>
-9.1860

> <Gold.Chemscore.Internal_Hbond.Weighted>
0.0000

> <Gold.Chemscore.DEClash.Weighted>
0.2715

> <Gold.Chemscore.DEInternal.Weighted>
1.5872

> <Gold.Chemscore.Rot.Weighted>
12.5515

> <Gold.Chemscore.Internal.Correction.Weighted>
   9.000000E+99

> <Gold.Protein.RotatedTorsions>
[ 6907 6896 6895 6894 ] final   63.34 input  -60.11 | X-H torsion
[ 7974 7965 7964 7962 ] final  123.83 input  175.53 | X-H torsion
[ 8008 7997 7996 7995 ] final   57.10 input   59.86 | X-H torsion
[ 10167 10162 10161 10158 ] final  160.84 input  -65.29 | X-H torsion
[ 10718 10713 10712 10709 ] final   93.78 input   66.30 | X-H torsion
[ 10763 10752 10751 10750 ] final  126.80 input  -60.55 | X-H torsion
[ 11005 11000 10999 10996 ] final  115.01 input  -57.11 | X-H torsion

> <Gold.Protein.ActiveResidues>
 VAL166  LYS551  ARG553  GLY616  TRP617  ASP618  TYR619  PRO620  LYS621  CYS622 
 ASP623  PHE694  ASN695  SER759  ASP760  ASP761  ALA762  ILE779  LEU786  VAL792 
 PHE793  MET794  SER795  GLU796  ALA797  LYS798  CYS799  TRP800  GLU811  SER814 

> <Gold.Protein.RotatedAtoms>
  152.4245  134.5893  159.9969 H   0  0  0  0  0  0  0  0  0  0  0  0  # atno 6907 bound_to 6896
  151.6033  133.3348  159.3060 H   0  0  0  0  0  0  0  0  0  0  0  0  # atno 6908 bound_to 6896
  150.8134  134.7340  159.6774 H   0  0  0  0  0  0  0  0  0  0  0  0  # atno 6909 bound_to 6896
  145.0914  139.3584  143.4858 H   0  0  0  0  0  0  0  0  0  0  0  0  # atno 7974 bound_to 7965
  155.5282  140.3481  155.4421 H   0  0  0  0  0  0  0  0  0  0  0  0  # atno 8008 bound_to 7997
  156.0737  140.1369  156.9825 H   0  0  0  0  0  0  0  0  0  0  0  0  # atno 8009 bound_to 7997
  154.4541  140.0960  156.6682 H   0  0  0  0  0  0  0  0  0  0  0  0  # atno 8010 bound_to 7997
  139.4843  144.4595  151.8724 H   0  0  0  0  0  0  0  0  0  0  0  0  # atno 10167 bound_to 10162
  157.6952  131.0490  150.4086 H   0  0  0  0  0  0  0  0  0  0  0  0  # atno 10718 bound_to 10713
  153.6992  135.3286  155.3220 H   0  0  0  0  0  0  0  0  0  0  0  0  # atno 10763 bound_to 10752
  154.8418  135.4450  154.1428 H   0  0  0  0  0  0  0  0  0  0  0  0  # atno 10764 bound_to 10752
  153.2491  135.6979  153.7777 H   0  0  0  0  0  0  0  0  0  0  0  0  # atno 10765 bound_to 10752
  139.8997  134.9577  156.6980 H   0  0  0  0  0  0  0  0  0  0  0  0  # atno 11005 bound_to 11000
  146.3531  140.0750  142.8621 LP  0  0  0  0  0  0  0  0  0  0  0  0  # atno 17320 bound_to 7965
  145.1061  140.9376  143.4684 LP  0  0  0  0  0  0  0  0  0  0  0  0  # atno 17321 bound_to 7965
  140.4056  144.2436  150.5891 LP  0  0  0  0  0  0  0  0  0  0  0  0  # atno 17342 bound_to 10162
  140.5015  143.2316  151.8671 LP  0  0  0  0  0  0  0  0  0  0  0  0  # atno 17343 bound_to 10162
  156.4472  130.4004  149.6659 LP  0  0  0  0  0  0  0  0  0  0  0  0  # atno 17370 bound_to 10713
  156.3821  130.7584  151.2578 LP  0  0  0  0  0  0  0  0  0  0  0  0  # atno 17371 bound_to 10713
  140.7173  133.9171  155.8123 LP  0  0  0  0  0  0  0  0  0  0  0  0  # atno 17394 bound_to 11000
  141.0255  134.0830  157.4073 LP  0  0  0  0  0  0  0  0  0  0  0  0  # atno 17395 bound_to 11000

$$$$
