#       Name:                AV-unprocessed.smi:1999
#       Creating user name   scv26
#       Creation time:       Fri Mar 27 10:31:05 2020


#       File generated by GOLD software.
#

@<TRIPOS>MOLECULE
AV-unprocessed.smi:1999
    45    46     1
SMALL
NO_CHARGES


@<TRIPOS>ATOM
      1 ****        -7.4887   2.9875  -0.3954 C.3            1 S1                 0.0000
      2 ****        -6.0575   2.5846  -0.4994 C.2            1 S1                 0.0000
      3 ****        -5.0765   3.4541  -0.7706 N.2            1 S1                 0.0000
      4 ****        -3.8298   2.8457  -0.8092 N.2            1 S1                 0.0000
      5 ****        -3.9077   1.5306  -0.5634 C.2            1 S1                 0.0000
      6 ****        -2.7826   0.6651  -0.5333 N.am           1 S1                 0.0000
      7 ****        -1.4844   0.9802  -0.6867 C.2            1 S1                 0.0000
      8 ****        -1.0476   2.1081  -0.9175 O.2            1 S1                 0.0000
      9 ****        -0.7044  -0.1023  -0.5504 N.am           1 S1                 0.0000
     10 ****         0.7548  -0.1088  -0.6089 C.3            1 S1                 0.0000
     11 ****         1.2199  -0.2188  -2.0714 C.3            1 S1                 0.0000
     12 ****         1.2745  -1.2750   0.2567 C.3            1 S1                 0.0000
     13 ****         2.7280  -1.3623   0.4007 N.3            1 S1                 0.0000
     14 ****         3.2845  -0.2570   1.1793 C.3            1 S1                 0.0000
     15 ****         4.8081  -0.3849   1.3531 C.3            1 S1                 0.0000
     16 ****         5.1204  -1.6381   1.9520 O.3            1 S1                 0.0000
     17 ****         4.6372  -2.7420   1.1941 C.3            1 S1                 0.0000
     18 ****         3.1128  -2.6222   1.0285 C.3            1 S1                 0.0000
     19 ****        -5.5280   0.9229  -0.2685 S.3            1 S1                 0.0000
     20 ****        -7.6304   4.0038  -0.7645 H              1 S1                 0.0000
     21 ****        -7.8119   2.9448   0.6448 H              1 S1                 0.0000
     22 ****        -8.1104   2.3131  -0.9843 H              1 S1                 0.0000
     23 ****        -2.9888  -0.3055  -0.3498 H              1 S1                 0.0000
     24 ****        -1.1519  -0.9886  -0.3678 H              1 S1                 0.0000
     25 ****         1.1124   0.8344  -0.1951 H              1 S1                 0.0000
     26 ****         2.3078  -0.1962  -2.1415 H              1 S1                 0.0000
     27 ****         0.8402   0.6089  -2.6713 H              1 S1                 0.0000
     28 ****         0.8772  -1.1474  -2.5292 H              1 S1                 0.0000
     29 ****         0.8211  -1.2178   1.2477 H              1 S1                 0.0000
     30 ****         0.9066  -2.2038  -0.1820 H              1 S1                 0.0000
     31 ****         3.0732   0.6953   0.6947 H              1 S1                 0.0000
     32 ****         2.8112  -0.2211   2.1618 H              1 S1                 0.0000
     33 ****         5.3140  -0.2983   0.3904 H              1 S1                 0.0000
     34 ****         5.1856   0.4175   1.9873 H              1 S1                 0.0000
     35 ****         5.1312  -2.7699   0.2216 H              1 S1                 0.0000
     36 ****         4.8913  -3.6681   1.7100 H              1 S1                 0.0000
     37 ****         2.6376  -2.7084   2.0070 H              1 S1                 0.0000
     38 ****         2.7501  -3.4596   0.4312 H              1 S1                 0.0000
     39 ****        -5.2250   4.4305  -0.9275 LP             1 S1                 0.0000
     40 ****        -2.9757   3.3305  -0.9978 LP             1 S1                 0.0000
     41 ****        -1.6774   2.8799  -1.0052 LP             1 S1                 0.0000
     42 ****        -0.0631   2.2523  -1.0172 LP             1 S1                 0.0000
     43 ****         3.1020  -1.3112  -0.5254 LP             1 S1                 0.0000
     44 ****         4.7082  -1.6697   2.8625 LP             1 S1                 0.0000
     45 ****         6.1141  -1.7156   2.0331 LP             1 S1                 0.0000
@<TRIPOS>BOND
    1    1    2 1     
    2    1   20 1     
    3    1   21 1     
    4    1   22 1     
    5    2   19 1     
    6    2    3 2     
    7    3    4 1     
    8    4    5 2     
    9    5    6 1     
   10    5   19 1     
   11    6    7 am    
   12    6   23 1     
   13    7    8 2     
   14    7    9 am    
   15    9   10 1     
   16    9   24 1     
   17   10   11 1     
   18   10   12 1     
   19   10   25 1     
   20   11   26 1     
   21   11   27 1     
   22   11   28 1     
   23   12   13 1     
   24   12   29 1     
   25   12   30 1     
   26   13   18 1     
   27   13   14 1     
   28   14   15 1     
   29   14   31 1     
   30   14   32 1     
   31   15   16 1     
   32   15   33 1     
   33   15   34 1     
   34   16   17 1     
   35   17   18 1     
   36   17   35 1     
   37   17   36 1     
   38   18   37 1     
   39   18   38 1     
   40    3   39 1     
   41    4   40 1     
   42    8   41 1     
   43    8   42 1     
   44   13   43 1     
   45   16   44 1     
   46   16   45 1     
@<TRIPOS>SUBSTRUCTURE
      1 S1             1
@<TRIPOS>SET
LONE_PAIRS      STATIC     ATOMS    <user>   **** ""
7 39 40 41 42 43 44 45
DONOR_HYDROGENS      STATIC     ATOMS    <user>   **** ""
2 23 24
ATOM$BLUE        STATIC     ATOMS    COLORGROUP SYSTEM
7 39 40 41 42 43 44 45
ATOM$RED        STATIC     ATOMS    COLORGROUP SYSTEM
2 23 24
