AV-unprocessed.smi:2540|AV-procd|sdf|9988|dock3
  -GOLD-   2272014 33D 1   1.00000     0.00000
 Structure written by MMmdl.
 27 28  0  0  0  0  0  0  0  0  1 V2000
  148.1194  145.1681  161.5913 C   0  0  0  0  0  0  0  0  0  0  0  0
  148.3675  144.0897  160.7072 O   0  0  0  0  0  0  0  0  0  0  0  0
  148.8913  144.5158  159.4596 C   0  0  0  0  0  0  0  0  0  0  0  0
  150.3671  144.9044  159.6247 C   0  0  0  0  0  0  0  0  0  0  0  0
  151.2553  143.7608  159.4688 N   0  0  0  0  0  0  0  0  0  0  0  0
  151.4447  142.9876  158.3735 C   0  0  0  0  0  0  0  0  0  0  0  0
  150.7383  143.2512  157.2092 N   0  0  0  0  0  0  0  0  0  0  0  0
  152.3213  141.9933  158.4892 N   0  0  0  0  0  0  0  0  0  0  0  0
  152.7430  142.1275  159.7992 C   0  0  0  0  0  0  0  0  0  0  0  0
  153.6740  141.3694  160.5450 C   0  0  0  0  0  0  0  0  0  0  0  0
  153.9444  141.6941  161.8907 C   0  0  0  0  0  0  0  0  0  0  0  0
  153.2905  142.7797  162.5089 C   0  0  0  0  0  0  0  0  0  0  0  0
  152.3610  143.5502  161.7839 C   0  0  0  0  0  0  0  0  0  0  0  0
  152.0941  143.2228  160.4409 C   0  0  0  0  0  0  0  0  0  0  0  0
  147.7166  144.7861  162.5291 H   0  0  0  0  0  0  0  0  0  0  0  0
  147.3930  145.8649  161.1709 H   0  0  0  0  0  0  0  0  0  0  0  0
  149.0379  145.7117  161.8164 H   0  0  0  0  0  0  0  0  0  0  0  0
  148.7947  143.7179  158.7214 H   0  0  0  0  0  0  0  0  0  0  0  0
  148.3250  145.3720  159.0905 H   0  0  0  0  0  0  0  0  0  0  0  0
  150.6416  145.6746  158.9034 H   0  0  0  0  0  0  0  0  0  0  0  0
  150.5297  145.3393  160.6114 H   0  0  0  0  0  0  0  0  0  0  0  0
  150.0787  144.0143  157.1571 H   0  0  0  0  0  0  0  0  0  0  0  0
  150.8585  142.6901  156.3784 H   0  0  0  0  0  0  0  0  0  0  0  0
  154.1791  140.5352  160.0813 H   0  0  0  0  0  0  0  0  0  0  0  0
  154.6558  141.1062  162.4517 H   0  0  0  0  0  0  0  0  0  0  0  0
  153.5020  143.0203  163.5404 H   0  0  0  0  0  0  0  0  0  0  0  0
  151.8560  144.3800  162.2553 H   0  0  0  0  0  0  0  0  0  0  0  0
  1  2  1  0  0  0  0
  1 15  1  0  0  0  0
  1 16  1  0  0  0  0
  1 17  1  0  0  0  0
  2  3  1  0  0  0  0
  3  4  1  0  0  0  0
  3 18  1  0  0  0  0
  3 19  1  0  0  0  0
  4  5  1  0  0  0  0
  4 20  1  0  0  0  0
  4 21  1  0  0  0  0
  5 14  1  0  0  0  0
  5  6  1  0  0  0  0
  6  7  1  0  0  0  0
  6  8  2  0  0  0  0
  7 22  1  0  0  0  0
  7 23  1  0  0  0  0
  8  9  1  0  0  0  0
  9 14  2  0  0  0  0
  9 10  1  0  0  0  0
 10 11  2  0  0  0  0
 10 24  1  0  0  0  0
 11 12  1  0  0  0  0
 11 25  1  0  0  0  0
 12 13  2  0  0  0  0
 12 26  1  0  0  0  0
 13 14  1  0  0  0  0
 13 27  1  0  0  0  0
M  END
> <s_m_source_file>
AV-unprocessed.smi

> <i_m_source_file_index>
2540

> <i_lp_mmshare_version>
43012

> <i_f3d_flags>
0

> <s_epik_input>
W0NIM11PW0NIMl1bQ0gyXW4oYyhuMSlbTkgyXSljKGMxMilbY0hdW2NIXVtjSF1bY0hdMg==

> <s_epik_cmdline>
J2VwaWtfcHl0aG9uJywgJy1waCcsICc3LjAnLCAnLXRuJywgJzgnLCAnLW1hJywgJzIwMCcsICctbWV0YWxfYmluZGluZycsICctaW1hZScsICc8aW5maWxlLm1hZT4nLCAnLW9tYWUnLCAnPG91dGZpbGUubWFlPic=

> <r_epik_Ionization_Penalty>
0.602407

> <r_epik_Ionization_Penalty_Charging>
0

> <r_epik_Ionization_Penalty_Neutral>
0.602407

> <r_epik_State_Penalty>
0.616889

> <r_epik_Charging_Adjusted_Penalty>
0.616889

> <i_epik_Tot_Q>
0

> <i_epik_Tot_abs_Q>
0

> <r_epik_Metal_State_Penalty>
0.00108478

> <b_epik_Metal_Only>
0

> <s_lp_Force_Field>
OPLS_2005

> <r_lp_Energy>
6.7443

> <b_lp_Chiralities_Consistent>
1

> <s_lp_Variant>
AV-unprocessed.smi:2540-2

> <Gold.Version>
5.8.1

> <Gold.Id.Protein>
6NUR|6NUR_protein|mol2

> <Gold.PLP.Fitness>
41.5210

> <Gold.PLP.PLP>
-36.9109

> <Gold.PLP.part.hbond>
-2.0000

> <Gold.PLP.part.metal>
0.0000

> <Gold.PLP.part.buried>
-2.4588

> <Gold.PLP.part.nonpolar>
-32.2970

> <Gold.PLP.part.repulsive>
0.1451

> <Gold.PLP.ligand.clash>
0.0000

> <Gold.PLP.ligand.torsion>
0.2278

> <Gold.PLP.Chemscore.Hbond>
1.6880

> <Gold.PLP.Chemscore.CHOScore>
0.0000

> <Gold.PLP.Chemscore.Metal>
0.0000

> <Gold.Chemscore.Hbonds>
donor molecule, donor type, donor heavy atom, donor atom, acceptor molecule, acceptor atom, score
      L1  H     7    22       P1  8028  0.69
      P1  H  6933  6944       L1     2  1.00

> <Gold.PLP.Chemscore.Internal.Correction>
0.0018

> <Gold.Rescore>
     Score         DG    S(hbond)    S(metal)    S(lipo)     H(rot)  DE(clash)    DE(int)     intcor
     16.28     -16.94       1.64        0.00      82.97       1.46       0.40       0.26       ----

> <Gold.Chemscore.Fitness>
16.2837

> <Gold.Chemscore.DG>
-16.9448

> <Gold.Chemscore.ZeroCoef>
-5.4800

> <Gold.Chemscore.Hbond>
1.6450

> <Gold.Chemscore.Metal>
0.0000

> <Gold.Chemscore.Lipo>
82.9723

> <Gold.Chemscore.Internal_Hbond>
0.0000

> <Gold.Chemscore.DEClash>
0.3991

> <Gold.Chemscore.DEInternal>
0.2621

> <Gold.Chemscore.Rot>
1.4598

> <Gold.Chemscore.Internal.Correction>
   9.000000E+99

> <Gold.Chemscore.Hbonds>
donor molecule, donor type, donor heavy atom, donor atom, acceptor molecule, acceptor atom, score
      L1  H     7    22       P1  8028  0.57
      P1  H  6933  6944       L1     2  0.91

> <Gold.Chemscore.Hbond.Weighted>
-5.4942

> <Gold.Chemscore.Metal.Weighted>
-0.0000

> <Gold.Chemscore.Lipo.Weighted>
-9.7078

> <Gold.Chemscore.Internal_Hbond.Weighted>
0.0000

> <Gold.Chemscore.DEClash.Weighted>
0.3991

> <Gold.Chemscore.DEInternal.Weighted>
0.2621

> <Gold.Chemscore.Rot.Weighted>
3.7371

> <Gold.Chemscore.Internal.Correction.Weighted>
   9.000000E+99

> <Gold.Protein.RotatedTorsions>
[ 6907 6896 6895 6894 ] final -146.83 input  -60.11 | X-H torsion
[ 7974 7965 7964 7962 ] final  169.65 input  175.53 | X-H torsion
[ 8008 7997 7996 7995 ] final -170.11 input   59.86 | X-H torsion
[ 10167 10162 10161 10158 ] final   35.89 input  -65.29 | X-H torsion
[ 10718 10713 10712 10709 ] final   38.69 input   66.30 | X-H torsion
[ 10763 10752 10751 10750 ] final  -90.31 input  -60.55 | X-H torsion
[ 11005 11000 10999 10996 ] final  170.22 input  -57.11 | X-H torsion

> <Gold.Protein.ActiveResidues>
 VAL166  LYS551  ARG553  GLY616  TRP617  ASP618  TYR619  PRO620  LYS621  CYS622 
 ASP623  PHE694  ASN695  SER759  ASP760  ASP761  ALA762  ILE779  LEU786  VAL792 
 PHE793  MET794  SER795  GLU796  ALA797  LYS798  CYS799  TRP800  GLU811  SER814 

> <Gold.Protein.RotatedAtoms>
  151.1471  133.4932  159.2595 H   0  0  0  0  0  0  0  0  0  0  0  0  # atno 6907 bound_to 6896
  151.1593  135.0265  159.8713 H   0  0  0  0  0  0  0  0  0  0  0  0  # atno 6908 bound_to 6896
  152.5463  134.1346  159.8507 H   0  0  0  0  0  0  0  0  0  0  0  0  # atno 6909 bound_to 6896
  144.7348  139.9085  143.6413 H   0  0  0  0  0  0  0  0  0  0  0  0  # atno 7974 bound_to 7965
  155.9139  140.1062  157.1258 H   0  0  0  0  0  0  0  0  0  0  0  0  # atno 8008 bound_to 7997
  154.4043  140.1269  156.4658 H   0  0  0  0  0  0  0  0  0  0  0  0  # atno 8009 bound_to 7997
  155.7277  140.3469  155.5047 H   0  0  0  0  0  0  0  0  0  0  0  0  # atno 8010 bound_to 7997
  140.4179  144.1501  150.6145 H   0  0  0  0  0  0  0  0  0  0  0  0  # atno 10167 bound_to 10162
  157.3618  130.7653  149.7053 H   0  0  0  0  0  0  0  0  0  0  0  0  # atno 10718 bound_to 10713
  154.6645  135.5309  153.8059 H   0  0  0  0  0  0  0  0  0  0  0  0  # atno 10763 bound_to 10752
  153.0462  135.6514  154.0821 H   0  0  0  0  0  0  0  0  0  0  0  0  # atno 10764 bound_to 10752
  154.0726  135.2953  155.3285 H   0  0  0  0  0  0  0  0  0  0  0  0  # atno 10765 bound_to 10752
  140.3060  134.7556  157.3954 H   0  0  0  0  0  0  0  0  0  0  0  0  # atno 11005 bound_to 11000
  146.1018  139.4014  143.0342 LP  0  0  0  0  0  0  0  0  0  0  0  0  # atno 17320 bound_to 7965
  145.7567  140.9951  143.1221 LP  0  0  0  0  0  0  0  0  0  0  0  0  # atno 17321 bound_to 7965
  140.4566  143.2465  151.9276 LP  0  0  0  0  0  0  0  0  0  0  0  0  # atno 17342 bound_to 10162
  139.4782  144.5509  151.8387 LP  0  0  0  0  0  0  0  0  0  0  0  0  # atno 17343 bound_to 10162
  155.9739  130.4112  150.3967 LP  0  0  0  0  0  0  0  0  0  0  0  0  # atno 17370 bound_to 10713
  157.2046  131.0446  151.2632 LP  0  0  0  0  0  0  0  0  0  0  0  0  # atno 17371 bound_to 10713
  140.1066  134.5401  155.8303 LP  0  0  0  0  0  0  0  0  0  0  0  0  # atno 17394 bound_to 11000
  141.2118  133.6711  156.6611 LP  0  0  0  0  0  0  0  0  0  0  0  0  # atno 17395 bound_to 11000

$$$$
