AV-unprocessed.smi:148|AV-procd|sdf|1214|dock2
  -GOLD-   2262018393D 1   1.00000     0.00000
 Structure written by MMmdl.
 63 67  0  0  0  0  0  0  0  0  1 V2000
  146.7441  141.0327  156.1381 O   0  0  0  0  0  0  0  0  0  0  0  0
  148.0669  140.7366  156.5346 C   0  0  0  0  0  0  0  0  0  0  0  0
  148.6505  139.5644  155.7105 C   0  0  2  0  0  0  0  0  0  0  0  0
  148.5466  138.2201  156.4780 C   0  0  0  0  0  0  0  0  0  0  0  0
  147.8132  137.2100  155.7355 N   0  0  0  0  0  0  0  0  0  0  0  0
  147.7353  135.8688  156.0336 C   0  0  0  0  0  0  0  0  0  0  0  0
  147.0233  135.1560  155.2044 N   0  0  0  0  0  0  0  0  0  0  0  0
  146.5751  136.0761  154.2637 C   0  0  0  0  0  0  0  0  0  0  0  0
  145.7790  135.9913  153.0857 C   0  0  0  0  0  0  0  0  0  0  0  0
  145.2500  134.8507  152.5852 N   0  0  0  0  0  0  0  0  0  0  0  0
  146.1528  134.3010  151.5727 C   0  0  0  0  0  0  0  0  0  0  0  0
  145.7273  132.8920  151.1388 C   0  0  0  0  0  0  0  0  0  0  0  0
  144.2691  132.8951  150.6691 C   0  0  0  0  0  0  0  0  0  0  0  0
  143.3725  133.4566  151.7796 C   0  0  0  0  0  0  0  0  0  0  0  0
  143.8221  134.8763  152.2134 C   0  0  1  0  0  0  0  0  0  0  0  0
  142.8947  135.5050  153.3045 C   0  0  1  0  0  0  0  0  0  0  0  0
  142.9043  137.0468  153.3320 C   0  0  0  0  0  0  0  0  0  0  0  0
  141.4943  137.4903  153.7531 C   0  0  0  0  0  0  0  0  0  0  0  0
  140.7404  136.2111  154.1206 C   0  0  0  0  0  0  0  0  0  0  0  0
  141.4016  135.1293  153.2683 C   0  0  2  0  0  0  0  0  0  0  0  0
  141.1463  133.8470  153.8012 O   0  0  0  0  0  0  0  0  0  0  0  0
  145.5159  137.1385  152.4127 N   0  0  0  0  0  0  0  0  0  0  0  0
  146.0257  138.2969  152.8410 C   0  0  0  0  0  0  0  0  0  0  0  0
  146.8023  138.5261  153.9022 N   0  0  0  0  0  0  0  0  0  0  0  0
  147.0498  137.3765  154.5933 C   0  0  0  0  0  0  0  0  0  0  0  0
  150.0853  139.8766  155.2009 C   0  0  2  0  0  0  0  0  0  0  0  0
  150.8133  138.7199  154.5129 C   0  0  0  0  0  0  0  0  0  0  0  0
  152.1820  138.6826  155.1932 C   0  0  0  0  0  0  0  0  0  0  0  0
  152.3439  139.9919  155.7138 O   0  0  0  0  0  0  0  0  0  0  0  0
  151.0882  140.3673  156.2543 C   0  0  0  0  0  0  0  0  0  0  0  0
  146.6583  141.9702  156.0543 H   0  0  0  0  0  0  0  0  0  0  0  0
  148.6846  141.6293  156.4332 H   0  0  0  0  0  0  0  0  0  0  0  0
  148.0332  140.4952  157.5966 H   0  0  0  0  0  0  0  0  0  0  0  0
  148.0252  139.4645  154.8217 H   0  0  0  0  0  0  0  0  0  0  0  0
  149.5315  137.8102  156.6975 H   0  0  0  0  0  0  0  0  0  0  0  0
  148.0529  138.3596  157.4391 H   0  0  0  0  0  0  0  0  0  0  0  0
  148.2345  135.4323  156.8865 H   0  0  0  0  0  0  0  0  0  0  0  0
  146.1644  134.9634  150.7056 H   0  0  0  0  0  0  0  0  0  0  0  0
  147.1731  134.2669  151.9585 H   0  0  0  0  0  0  0  0  0  0  0  0
  146.3790  132.5334  150.3420 H   0  0  0  0  0  0  0  0  0  0  0  0
  145.8445  132.1999  151.9739 H   0  0  0  0  0  0  0  0  0  0  0  0
  144.1680  133.5003  149.7673 H   0  0  0  0  0  0  0  0  0  0  0  0
  143.9561  131.8842  150.4064 H   0  0  0  0  0  0  0  0  0  0  0  0
  142.3398  133.4578  151.4340 H   0  0  0  0  0  0  0  0  0  0  0  0
  143.4150  132.7696  152.6242 H   0  0  0  0  0  0  0  0  0  0  0  0
  143.7436  135.5089  151.3292 H   0  0  0  0  0  0  0  0  0  0  0  0
  143.2611  135.2238  154.2922 H   0  0  0  0  0  0  0  0  0  0  0  0
  143.6563  137.4077  154.0350 H   0  0  0  0  0  0  0  0  0  0  0  0
  143.1507  137.4820  152.3647 H   0  0  0  0  0  0  0  0  0  0  0  0
  141.5132  138.2030  154.5782 H   0  0  0  0  0  0  0  0  0  0  0  0
  140.9999  137.9778  152.9117 H   0  0  0  0  0  0  0  0  0  0  0  0
  140.8893  135.9970  155.1803 H   0  0  0  0  0  0  0  0  0  0  0  0
  139.6671  136.2897  153.9453 H   0  0  0  0  0  0  0  0  0  0  0  0
  140.9968  135.1876  152.2592 H   0  0  0  0  0  0  0  0  0  0  0  0
  141.9721  133.4036  153.9261 H   0  0  0  0  0  0  0  0  0  0  0  0
  145.7793  139.1634  152.2453 H   0  0  0  0  0  0  0  0  0  0  0  0
  150.0134  140.6637  154.4489 H   0  0  0  0  0  0  0  0  0  0  0  0
  150.3018  137.7611  154.5881 H   0  0  0  0  0  0  0  0  0  0  0  0
  150.9276  138.9377  153.4501 H   0  0  0  0  0  0  0  0  0  0  0  0
  152.1832  137.9653  156.0155 H   0  0  0  0  0  0  0  0  0  0  0  0
  152.9874  138.4187  154.5076 H   0  0  0  0  0  0  0  0  0  0  0  0
  151.0298  141.4434  156.4182 H   0  0  0  0  0  0  0  0  0  0  0  0
  150.9636  139.8717  157.2163 H   0  0  0  0  0  0  0  0  0  0  0  0
  1  2  1  0  0  0  0
  1 31  1  0  0  0  0
  2  3  1  0  0  0  0
  2 32  1  0  0  0  0
  2 33  1  0  0  0  0
  3  4  1  0  0  0  0
  3 26  1  0  0  0  0
  3 34  1  0  0  0  0
  4  5  1  0  0  0  0
  4 35  1  0  0  0  0
  4 36  1  0  0  0  0
  5 25  1  0  0  0  0
  5  6  1  0  0  0  0
  6  7  2  0  0  0  0
  6 37  1  0  0  0  0
  7  8  1  0  0  0  0
  8 25  2  0  0  0  0
  8  9  1  0  0  0  0
  9 10  1  0  0  0  0
  9 22  2  0  0  0  0
 10 15  1  0  0  0  0
 10 11  1  0  0  0  0
 11 12  1  0  0  0  0
 11 38  1  0  0  0  0
 11 39  1  0  0  0  0
 12 13  1  0  0  0  0
 12 40  1  0  0  0  0
 12 41  1  0  0  0  0
 13 14  1  0  0  0  0
 13 42  1  0  0  0  0
 13 43  1  0  0  0  0
 14 15  1  0  0  0  0
 14 44  1  0  0  0  0
 14 45  1  0  0  0  0
 15 16  1  0  0  0  0
 15 46  1  0  0  0  0
 16 20  1  0  0  0  0
 16 17  1  0  0  0  0
 16 47  1  0  0  0  0
 17 18  1  0  0  0  0
 17 48  1  0  0  0  0
 17 49  1  0  0  0  0
 18 19  1  0  0  0  0
 18 50  1  0  0  0  0
 18 51  1  0  0  0  0
 19 20  1  0  0  0  0
 19 52  1  0  0  0  0
 19 53  1  0  0  0  0
 20 21  1  0  0  0  0
 20 54  1  0  0  0  0
 21 55  1  0  0  0  0
 22 23  1  0  0  0  0
 23 24  2  0  0  0  0
 23 56  1  0  0  0  0
 24 25  1  0  0  0  0
 26 30  1  0  0  0  0
 26 27  1  0  0  0  0
 26 57  1  0  0  0  0
 27 28  1  0  0  0  0
 27 58  1  0  0  0  0
 27 59  1  0  0  0  0
 28 29  1  0  0  0  0
 28 60  1  0  0  0  0
 28 61  1  0  0  0  0
 29 30  1  0  0  0  0
 30 62  1  0  0  0  0
 30 63  1  0  0  0  0
M  END
> <s_m_source_file>
AV-unprocessed.smi

> <i_m_source_file_index>
148

> <i_lp_mmshare_version>
43012

> <i_f3d_flags>
0

> <s_epik_input>
W0NIMl0xT1tDSDJdW0NIMl1bQ0BIXTFbQ0BIXShbQ0gyXVtPSF0pW0NIMl1uKFtjSF1uMiljKGMyMyluW2NIXW5jM040W0NIMl1bQ0gyXVtDSDJdW0NIMl1bQ0BIXTRbQ0BASF01W0NIMl1bQ0gyXVtDSDJdW0NASF01W09IXQ==

> <s_epik_cmdline>
J2VwaWtfcHl0aG9uJywgJy1waCcsICc3LjAnLCAnLXRuJywgJzgnLCAnLW1hJywgJzIwMCcsICctbWV0YWxfYmluZGluZycsICctaW1hZScsICc8aW5maWxlLm1hZT4nLCAnLW9tYWUnLCAnPG91dGZpbGUubWFlPic=

> <r_lp_tautomer_probability>
1

> <r_epik_Ionization_Penalty>
0.00556303

> <r_epik_Ionization_Penalty_Charging>
0

> <r_epik_Ionization_Penalty_Neutral>
0.00556303

> <r_epik_State_Penalty>
0.00401767

> <r_epik_Charging_Adjusted_Penalty>
0.00401767

> <i_epik_Tot_Q>
0

> <i_epik_Tot_abs_Q>
0

> <r_epik_Metal_State_Penalty>
-0

> <b_epik_Metal_Only>
0

> <s_lp_Force_Field>
OPLS_2005

> <r_lp_Energy>
68.8384

> <b_lp_Chiralities_Consistent>
1

> <s_lp_Variant>
AV-unprocessed.smi:148-13

> <Gold.Version>
5.8.1

> <Gold.Id.Protein>
6NUR|6NUR_protein|mol2

> <Gold.PLP.Fitness>
50.4753

> <Gold.PLP.PLP>
-44.0179

> <Gold.PLP.part.hbond>
-4.9823

> <Gold.PLP.part.metal>
0.0000

> <Gold.PLP.part.buried>
-6.7113

> <Gold.PLP.part.nonpolar>
-34.3098

> <Gold.PLP.part.repulsive>
0.5621

> <Gold.PLP.ligand.clash>
0.0000

> <Gold.PLP.ligand.torsion>
2.5662

> <Gold.PLP.Chemscore.Hbond>
2.8782

> <Gold.PLP.Chemscore.CHOScore>
0.7191

> <Gold.PLP.Chemscore.Metal>
0.0000

> <Gold.Chemscore.Hbonds>
donor molecule, donor type, donor heavy atom, donor atom, acceptor molecule, acceptor atom, score
      L1  H    21    55       P1 10957  0.75
      P1  H  7997  8009       L1    29  0.89
      P1  H 10995 11001       L1    21  0.13
      P1  H 11000 11005       L1    21  1.00
      L1  C    23    56       P1 10175  0.90

> <Gold.PLP.Chemscore.Internal.Correction>
0.7980

> <Gold.Rescore>
     Score         DG    S(hbond)    S(metal)    S(lipo)     H(rot)  DE(clash)    DE(int)     intcor
      9.57     -15.75       2.45        0.00      90.46       3.32       0.10       6.08       ----

> <Gold.Chemscore.Fitness>
9.5701

> <Gold.Chemscore.DG>
-15.7498

> <Gold.Chemscore.ZeroCoef>
-5.4800

> <Gold.Chemscore.Hbond>
2.4508

> <Gold.Chemscore.Metal>
0.0000

> <Gold.Chemscore.Lipo>
90.4617

> <Gold.Chemscore.Internal_Hbond>
0.0000

> <Gold.Chemscore.DEClash>
0.0979

> <Gold.Chemscore.DEInternal>
6.0818

> <Gold.Chemscore.Rot>
3.3203

> <Gold.Chemscore.Internal.Correction>
   9.000000E+99

> <Gold.Chemscore.Hbonds>
donor molecule, donor type, donor heavy atom, donor atom, acceptor molecule, acceptor atom, score
      L1  H    21    55       P1 10957  0.73
      P1  H  7997  8009       L1    29  0.43
      P1  H 10995 11001       L1    21  0.13
      P1  H 11000 11005       L1    21  0.20

> <Gold.Chemscore.Hbond.Weighted>
-8.1858

> <Gold.Chemscore.Metal.Weighted>
-0.0000

> <Gold.Chemscore.Lipo.Weighted>
-10.5840

> <Gold.Chemscore.Internal_Hbond.Weighted>
0.0000

> <Gold.Chemscore.DEClash.Weighted>
0.0979

> <Gold.Chemscore.DEInternal.Weighted>
6.0818

> <Gold.Chemscore.Rot.Weighted>
8.5000

> <Gold.Chemscore.Internal.Correction.Weighted>
   9.000000E+99

> <Gold.Protein.RotatedTorsions>
[ 6907 6896 6895 6894 ] final -157.94 input  -60.11 | X-H torsion
[ 7974 7965 7964 7962 ] final   27.29 input  175.53 | X-H torsion
[ 8008 7997 7996 7995 ] final -143.85 input   59.86 | X-H torsion
[ 10167 10162 10161 10158 ] final  -36.32 input  -65.29 | X-H torsion
[ 10718 10713 10712 10709 ] final  167.57 input   66.30 | X-H torsion
[ 10763 10752 10751 10750 ] final  -29.76 input  -60.55 | X-H torsion
[ 11005 11000 10999 10996 ] final    9.88 input  -57.11 | X-H torsion

> <Gold.Protein.ActiveResidues>
 VAL166  LYS551  ARG553  GLY616  TRP617  ASP618  TYR619  PRO620  LYS621  CYS622 
 ASP623  PHE694  ASN695  SER759  ASP760  ASP761  ALA762  ILE779  LEU786  VAL792 
 PHE793  MET794  SER795  GLU796  ALA797  LYS798  CYS799  TRP800  GLU811  SER814 

> <Gold.Protein.RotatedAtoms>
  151.3105  133.4083  159.2646 H   0  0  0  0  0  0  0  0  0  0  0  0  # atno 6907 bound_to 6896
  151.0118  134.9403  159.8022 H   0  0  0  0  0  0  0  0  0  0  0  0  # atno 6908 bound_to 6896
  152.5302  134.3069  159.9151 H   0  0  0  0  0  0  0  0  0  0  0  0  # atno 6909 bound_to 6896
  146.1792  139.7211  142.8912 H   0  0  0  0  0  0  0  0  0  0  0  0  # atno 7974 bound_to 7965
  155.5174  140.0588  157.2913 H   0  0  0  0  0  0  0  0  0  0  0  0  # atno 8008 bound_to 7997
  154.4530  140.1958  156.0410 H   0  0  0  0  0  0  0  0  0  0  0  0  # atno 8009 bound_to 7997
  156.0742  140.3256  155.7618 H   0  0  0  0  0  0  0  0  0  0  0  0  # atno 8010 bound_to 7997
  140.7145  143.3417  151.2343 H   0  0  0  0  0  0  0  0  0  0  0  0  # atno 10167 bound_to 10162
  157.0496  131.0310  151.2685 H   0  0  0  0  0  0  0  0  0  0  0  0  # atno 10718 bound_to 10713
  153.7699  135.6913  153.4908 H   0  0  0  0  0  0  0  0  0  0  0  0  # atno 10763 bound_to 10752
  153.1881  135.4481  155.0113 H   0  0  0  0  0  0  0  0  0  0  0  0  # atno 10764 bound_to 10752
  154.8121  135.3382  154.7209 H   0  0  0  0  0  0  0  0  0  0  0  0  # atno 10765 bound_to 10752
  140.5207  134.0562  155.7844 H   0  0  0  0  0  0  0  0  0  0  0  0  # atno 11005 bound_to 11000
  145.4125  141.0398  143.3009 LP  0  0  0  0  0  0  0  0  0  0  0  0  # atno 17320 bound_to 7965
  144.8286  139.5667  143.6954 LP  0  0  0  0  0  0  0  0  0  0  0  0  # atno 17321 bound_to 7965
  139.6926  143.9666  152.2867 LP  0  0  0  0  0  0  0  0  0  0  0  0  # atno 17342 bound_to 10162
  139.9333  144.6728  150.8340 LP  0  0  0  0  0  0  0  0  0  0  0  0  # atno 17343 bound_to 10162
  157.5040  130.7897  149.7634 LP  0  0  0  0  0  0  0  0  0  0  0  0  # atno 17370 bound_to 10713
  156.0012  130.3879  150.2600 LP  0  0  0  0  0  0  0  0  0  0  0  0  # atno 17371 bound_to 10713
  141.1336  133.9260  157.2483 LP  0  0  0  0  0  0  0  0  0  0  0  0  # atno 17394 bound_to 11000
  139.9607  135.0155  156.9254 LP  0  0  0  0  0  0  0  0  0  0  0  0  # atno 17395 bound_to 11000

$$$$
