#       Name:                AV-unprocessed.smi:36
#       Creating user name   scv26
#       Creation time:       Thu Mar 26 16:06:33 2020


#       File generated by GOLD software.
#

@<TRIPOS>MOLECULE
AV-unprocessed.smi:36
    73    76     1
SMALL
NO_CHARGES


@<TRIPOS>ATOM
      1 ****        -3.9149   5.3141   0.8223 C.3            1 S1                 0.0000
      2 ****        -3.0957   4.0238   0.6540 C.3            1 S1                 0.0000
      3 ****        -3.6101   2.9472   1.6244 C.3            1 S1                 0.0000
      4 ****        -3.2132   3.5158  -0.7928 C.3            1 S1                 0.0000
      5 ****        -1.2587   4.3821   1.0387 Si             1 S1                 0.0000
      6 ****        -0.5589   5.7014  -0.1372 C.3            1 S1                 0.0000
      7 ****        -1.0359   4.9528   2.8380 C.3            1 S1                 0.0000
      8 ****        -0.3944   2.9412   0.8262 O.3            1 S1                 0.0000
      9 ****         1.0129   2.8356   0.9129 C.3            1 S1                 0.0000
     10 ****         1.6263   2.8408  -0.5008 C.3            1 S1                 0.0000
     11 ****         1.1981   1.6426  -1.1569 O.3            1 S1                 0.0000
     12 ****         2.3054   0.9311  -1.6088 C.3            1 S1                 0.0000
     13 ****         2.0070  -0.5302  -1.5450 N.pl3          1 S1                 0.0000
     14 ****         2.2019  -1.4726  -2.5303 C.2            1 S1                 0.0000
     15 ****         1.8421  -2.6896  -2.2211 N.2            1 S1                 0.0000
     16 ****         1.3542  -2.5771  -0.9255 C.ar           1 S1                 0.0000
     17 ****         0.8015  -3.5009  -0.0000 C.ar           1 S1                 0.0000
     18 ****         0.6672  -4.8052  -0.3384 N.am           1 S1                 0.0000
     19 ****         0.1170  -5.8882   0.4582 C.2            1 S1                 0.0000
     20 ****        -0.3604  -5.7025   1.5779 O.2            1 S1                 0.0000
     21 ****         0.0880  -7.2387  -0.1968 C.ar           1 S1                 0.0000
     22 ****        -0.9258  -8.1648   0.1372 C.ar           1 S1                 0.0000
     23 ****        -0.9535  -9.4390  -0.4622 C.ar           1 S1                 0.0000
     24 ****         0.0370  -9.8017  -1.3940 C.ar           1 S1                 0.0000
     25 ****         1.0577  -8.8902  -1.7234 C.ar           1 S1                 0.0000
     26 ****         1.0862  -7.6151  -1.1252 C.ar           1 S1                 0.0000
     27 ****         0.4204  -3.0187   1.2123 N.ar           1 S1                 0.0000
     28 ****         0.5678  -1.7212   1.4969 C.ar           1 S1                 0.0000
     29 ****         1.0667  -0.7506   0.7291 N.ar           1 S1                 0.0000
     30 ****         1.4532  -1.2260  -0.4896 C.ar           1 S1                 0.0000
     31 ****         3.4573   1.3157  -0.6940 C.3            1 S1                 0.0000
     32 ****         3.1694   2.7938  -0.5442 C.3            1 S1                 0.0000
     33 ****         3.8190   3.3404   0.5865 O.3            1 S1                 0.0000
     34 ****        -4.9716   5.1416   0.6153 H              1 S1                 0.0000
     35 ****        -3.5709   6.0941   0.1425 H              1 S1                 0.0000
     36 ****        -3.8387   5.7047   1.8374 H              1 S1                 0.0000
     37 ****        -3.5458   3.2812   2.6603 H              1 S1                 0.0000
     38 ****        -3.0303   2.0275   1.5387 H              1 S1                 0.0000
     39 ****        -4.6530   2.6985   1.4249 H              1 S1                 0.0000
     40 ****        -4.2474   3.2822  -1.0482 H              1 S1                 0.0000
     41 ****        -2.6233   2.6110  -0.9446 H              1 S1                 0.0000
     42 ****        -2.8603   4.2607  -1.5062 H              1 S1                 0.0000
     43 ****        -1.0887   6.6484  -0.0368 H              1 S1                 0.0000
     44 ****        -0.6389   5.3933  -1.1793 H              1 S1                 0.0000
     45 ****         0.4939   5.8976   0.0641 H              1 S1                 0.0000
     46 ****        -1.5810   5.8753   3.0362 H              1 S1                 0.0000
     47 ****         0.0117   5.1405   3.0721 H              1 S1                 0.0000
     48 ****        -1.3953   4.2042   3.5436 H              1 S1                 0.0000
     49 ****         1.3913   3.6724   1.5006 H              1 S1                 0.0000
     50 ****         1.2748   1.9256   1.4520 H              1 S1                 0.0000
     51 ****         1.2728   3.7092  -1.0562 H              1 S1                 0.0000
     52 ****         2.4973   1.1504  -2.6603 H              1 S1                 0.0000
     53 ****         2.6229  -1.2270  -3.4944 H              1 S1                 0.0000
     54 ****         0.9969  -5.0585  -1.2584 H              1 S1                 0.0000
     55 ****        -1.6931  -7.9023   0.8514 H              1 S1                 0.0000
     56 ****        -1.7350 -10.1389  -0.2053 H              1 S1                 0.0000
     57 ****         0.0158 -10.7792  -1.8527 H              1 S1                 0.0000
     58 ****         1.8218  -9.1699  -2.4335 H              1 S1                 0.0000
     59 ****         1.8835  -6.9342  -1.3854 H              1 S1                 0.0000
     60 ****         0.2379  -1.4174   2.4795 H              1 S1                 0.0000
     61 ****         3.3700   0.7948   0.2606 H              1 S1                 0.0000
     62 ****         4.4226   1.0916  -1.1484 H              1 S1                 0.0000
     63 ****         3.5207   3.3169  -1.4350 H              1 S1                 0.0000
     64 ****         3.6075   4.2600   0.6398 H              1 S1                 0.0000
     65 ****         0.6159   1.8798  -1.9346 LP             1 S1                 0.0000
     66 ****         0.6809   1.0783  -0.5134 LP             1 S1                 0.0000
     67 ****         1.9036  -3.5122  -2.7865 LP             1 S1                 0.0000
     68 ****        -0.3782  -4.7817   1.9674 LP             1 S1                 0.0000
     69 ****        -0.7304  -6.4725   2.0977 LP             1 S1                 0.0000
     70 ****         0.0283  -3.6369   1.8936 LP             1 S1                 0.0000
     71 ****         1.1471   0.2053   1.0116 LP             1 S1                 0.0000
     72 ****         4.8082   3.2268   0.4945 LP             1 S1                 0.0000
     73 ****         3.5053   2.8740   1.4136 LP             1 S1                 0.0000
@<TRIPOS>BOND
    1    1    2 1     
    2    1   34 1     
    3    1   35 1     
    4    1   36 1     
    5    2    3 1     
    6    2    4 1     
    7    2    5 1     
    8    3   37 1     
    9    3   38 1     
   10    3   39 1     
   11    4   40 1     
   12    4   41 1     
   13    4   42 1     
   14    5    6 1     
   15    5    7 1     
   16    5    8 1     
   17    6   43 1     
   18    6   44 1     
   19    6   45 1     
   20    7   46 1     
   21    7   47 1     
   22    7   48 1     
   23    8    9 1     
   24    9   10 1     
   25    9   49 1     
   26    9   50 1     
   27   10   32 1     
   28   10   11 1     
   29   10   51 1     
   30   11   12 1     
   31   12   13 1     
   32   12   31 1     
   33   12   52 1     
   34   13   30 1     
   35   13   14 1     
   36   14   15 2     
   37   14   53 1     
   38   15   16 1     
   39   16   30 ar    
   40   16   17 ar    
   41   17   18 1     
   42   17   27 ar    
   43   18   19 am    
   44   18   54 1     
   45   19   20 2     
   46   19   21 1     
   47   21   26 ar    
   48   21   22 ar    
   49   22   23 ar    
   50   22   55 1     
   51   23   24 ar    
   52   23   56 1     
   53   24   25 ar    
   54   24   57 1     
   55   25   26 ar    
   56   25   58 1     
   57   26   59 1     
   58   27   28 ar    
   59   28   29 ar    
   60   28   60 1     
   61   29   30 ar    
   62   31   32 1     
   63   31   61 1     
   64   31   62 1     
   65   32   33 1     
   66   32   63 1     
   67   33   64 1     
   68   11   65 1     
   69   11   66 1     
   70   15   67 1     
   71   20   68 1     
   72   20   69 1     
   73   27   70 1     
   74   29   71 1     
   75   33   72 1     
   76   33   73 1     
@<TRIPOS>SUBSTRUCTURE
      1 S1             1
@<TRIPOS>SET
LONE_PAIRS      STATIC     ATOMS    <user>   **** ""
9 65 66 67 68 69 70 71 72 73
DONOR_HYDROGENS      STATIC     ATOMS    <user>   **** ""
2 54 64
ATOM$BLUE        STATIC     ATOMS    COLORGROUP SYSTEM
9 65 66 67 68 69 70 71 72 73
ATOM$RED        STATIC     ATOMS    COLORGROUP SYSTEM
2 54 64
