AV-unprocessed.smi:794|AV-procd|sdf|3757|dock3
  -GOLD-   22720 1193D 1   1.00000     0.00000
 Structure written by MMmdl.
 41 43  0  0  0  0  0  0  0  0  1 V2000
  154.0939  141.6645  160.0303 C   0  0  0  0  0  0  0  0  0  0  0  0
  152.8563  142.4026  159.6208 C   0  0  0  0  0  0  0  0  0  0  0  0
  152.2465  142.1043  158.3984 N   0  0  0  0  0  0  0  0  0  0  0  0
  151.1555  142.8461  158.1828 C   0  0  0  0  0  0  0  0  0  0  0  0
  150.3372  142.7517  157.0270 N   0  0  0  0  0  0  0  0  0  0  0  0
  150.2576  141.7410  156.1441 C   0  0  0  0  0  0  0  0  0  0  0  0
  150.9211  140.7047  156.1849 O   0  0  0  0  0  0  0  0  0  0  0  0
  149.3540  142.0050  155.1896 N   0  0  0  0  0  0  0  0  0  0  0  0
  148.9962  141.1115  154.0866 C   0  0  1  0  0  0  0  0  0  0  0  0
  149.0329  139.6203  154.5046 C   0  0  1  0  0  0  0  0  0  0  0  0
  148.2290  139.3782  155.8004 C   0  0  0  0  0  0  0  0  0  0  0  0
  146.7758  139.5793  155.3353 C   0  0  0  0  0  0  0  0  0  0  0  0
  146.9324  139.8742  153.8286 C   0  0  2  0  0  0  0  0  0  0  0  0
  148.1123  138.9776  153.4721 C   0  0  0  0  0  0  0  0  0  0  0  0
  147.5373  141.2759  153.5689 C   0  0  1  0  0  0  0  0  0  0  0  0
  146.7209  142.4749  154.1022 C   0  0  0  0  0  0  0  0  0  0  0  0
  146.8657  142.5838  155.5023 O   0  0  0  0  0  0  0  0  0  0  0  0
  150.8032  143.9742  159.4799 S   0  0  0  0  0  0  0  0  0  0  0  0
  152.2106  143.3883  160.3313 C   0  0  0  0  0  0  0  0  0  0  0  0
  152.5872  143.9467  161.6633 C   0  0  0  0  0  0  0  0  0  0  0  0
  153.9936  141.2567  161.0364 H   0  0  0  0  0  0  0  0  0  0  0  0
  154.9623  142.3237  160.0261 H   0  0  0  0  0  0  0  0  0  0  0  0
  154.3086  140.8319  159.3592 H   0  0  0  0  0  0  0  0  0  0  0  0
  149.7329  143.5425  156.8592 H   0  0  0  0  0  0  0  0  0  0  0  0
  148.8604  142.8843  155.2339 H   0  0  0  0  0  0  0  0  0  0  0  0
  149.6897  141.2565  153.2555 H   0  0  0  0  0  0  0  0  0  0  0  0
  150.0403  139.2041  154.5373 H   0  0  0  0  0  0  0  0  0  0  0  0
  148.3733  138.3552  156.1503 H   0  0  0  0  0  0  0  0  0  0  0  0
  148.5041  140.0394  156.6217 H   0  0  0  0  0  0  0  0  0  0  0  0
  146.2029  138.6636  155.4874 H   0  0  0  0  0  0  0  0  0  0  0  0
  146.2651  140.3722  155.8796 H   0  0  0  0  0  0  0  0  0  0  0  0
  146.0280  139.6783  153.2515 H   0  0  0  0  0  0  0  0  0  0  0  0
  148.4597  139.1024  152.4448 H   0  0  0  0  0  0  0  0  0  0  0  0
  147.9244  137.9184  153.6568 H   0  0  0  0  0  0  0  0  0  0  0  0
  147.5978  141.4037  152.4863 H   0  0  0  0  0  0  0  0  0  0  0  0
  147.0141  143.4150  153.6364 H   0  0  0  0  0  0  0  0  0  0  0  0
  145.6621  142.3318  153.8850 H   0  0  0  0  0  0  0  0  0  0  0  0
  147.4565  143.2972  155.6890 H   0  0  0  0  0  0  0  0  0  0  0  0
  153.6348  144.2488  161.6749 H   0  0  0  0  0  0  0  0  0  0  0  0
  152.4412  143.2039  162.4478 H   0  0  0  0  0  0  0  0  0  0  0  0
  151.9841  144.8209  161.9107 H   0  0  0  0  0  0  0  0  0  0  0  0
  1  2  1  0  0  0  0
  1 21  1  0  0  0  0
  1 22  1  0  0  0  0
  1 23  1  0  0  0  0
  2 19  2  0  0  0  0
  2  3  1  0  0  0  0
  3  4  2  0  0  0  0
  4  5  1  0  0  0  0
  4 18  1  0  0  0  0
  5  6  1  0  0  0  0
  5 24  1  0  0  0  0
  6  7  2  0  0  0  0
  6  8  1  0  0  0  0
  8  9  1  0  0  0  0
  8 25  1  0  0  0  0
  9 15  1  0  0  0  0
  9 10  1  0  0  0  0
  9 26  1  0  0  0  0
 10 14  1  0  0  0  0
 10 11  1  0  0  0  0
 10 27  1  0  0  0  0
 11 12  1  0  0  0  0
 11 28  1  0  0  0  0
 11 29  1  0  0  0  0
 12 13  1  0  0  0  0
 12 30  1  0  0  0  0
 12 31  1  0  0  0  0
 13 14  1  0  0  0  0
 13 15  1  0  0  0  0
 13 32  1  0  0  0  0
 14 33  1  0  0  0  0
 14 34  1  0  0  0  0
 15 16  1  0  0  0  0
 15 35  1  0  0  0  0
 16 17  1  0  0  0  0
 16 36  1  0  0  0  0
 16 37  1  0  0  0  0
 17 38  1  0  0  0  0
 18 19  1  0  0  0  0
 19 20  1  0  0  0  0
 20 39  1  0  0  0  0
 20 40  1  0  0  0  0
 20 41  1  0  0  0  0
M  END
> <s_m_source_file>
AV-unprocessed.smi

> <i_m_source_file_index>
794

> <i_lp_mmshare_version>
43012

> <i_f3d_flags>
0

> <s_epik_input>
W0NIM11jMW5jKHNjMVtDSDNdKVtOSF1DKD1PKVtOSF1bQ0BIXShbQ0BASF0yMylbQ0BIXShbQ0gyXVtPSF0pW0NAQEhdKFtDSDJdMylbQ0gyXVtDSDJdMg==

> <s_epik_cmdline>
J2VwaWtfcHl0aG9uJywgJy1waCcsICc3LjAnLCAnLXRuJywgJzgnLCAnLW1hJywgJzIwMCcsICctbWV0YWxfYmluZGluZycsICctaW1hZScsICc8aW5maWxlLm1hZT4nLCAnLW9tYWUnLCAnPG91dGZpbGUubWFlPic=

> <r_lp_tautomer_probability>
0.999

> <r_epik_Ionization_Penalty>
0.000713029

> <r_epik_Ionization_Penalty_Charging>
0

> <r_epik_Ionization_Penalty_Neutral>
0.000713029

> <r_epik_State_Penalty>
0.000177984

> <r_epik_Charging_Adjusted_Penalty>
0.000177984

> <i_epik_Tot_Q>
0

> <i_epik_Tot_abs_Q>
0

> <r_epik_Metal_State_Penalty>
-0

> <b_epik_Metal_Only>
0

> <s_lp_Force_Field>
OPLS_2005

> <r_lp_Energy>
49.1423

> <b_lp_Chiralities_Consistent>
1

> <s_lp_Variant>
AV-unprocessed.smi:794-2

> <Gold.Version>
5.8.1

> <Gold.Id.Protein>
6NUR|6NUR_protein|mol2

> <Gold.PLP.Fitness>
47.3360

> <Gold.PLP.PLP>
-40.1751

> <Gold.PLP.part.hbond>
-3.0000

> <Gold.PLP.part.metal>
0.0000

> <Gold.PLP.part.buried>
-3.2968

> <Gold.PLP.part.nonpolar>
-32.5290

> <Gold.PLP.part.repulsive>
0.2265

> <Gold.PLP.ligand.clash>
0.0000

> <Gold.PLP.ligand.torsion>
0.5497

> <Gold.PLP.Chemscore.Hbond>
2.7500

> <Gold.PLP.Chemscore.CHOScore>
0.0000

> <Gold.PLP.Chemscore.Metal>
0.0000

> <Gold.Chemscore.Hbonds>
donor molecule, donor type, donor heavy atom, donor atom, acceptor molecule, acceptor atom, score
      L1  H     5    24       P1  8028  1.00
      L1  H     8    25       P1  8028  0.99
      L1  H    17    38       P1  8028  0.65

> <Gold.PLP.Chemscore.Internal.Correction>
0.0105

> <Gold.Rescore>
     Score         DG    S(hbond)    S(metal)    S(lipo)     H(rot)  DE(clash)    DE(int)     intcor
     14.21     -19.25       2.13        0.00      95.87       1.78       0.07       4.97       ----

> <Gold.Chemscore.Fitness>
14.2142

> <Gold.Chemscore.DG>
-19.2502

> <Gold.Chemscore.ZeroCoef>
-5.4800

> <Gold.Chemscore.Hbond>
2.1285

> <Gold.Chemscore.Metal>
0.0000

> <Gold.Chemscore.Lipo>
95.8726

> <Gold.Chemscore.Internal_Hbond>
0.0000

> <Gold.Chemscore.DEClash>
0.0661

> <Gold.Chemscore.DEInternal>
4.9699

> <Gold.Chemscore.Rot>
1.7798

> <Gold.Chemscore.Internal.Correction>
   9.000000E+99

> <Gold.Chemscore.Hbonds>
donor molecule, donor type, donor heavy atom, donor atom, acceptor molecule, acceptor atom, score
      L1  H     5    24       P1  8028  0.95
      L1  H     8    25       P1  8028  0.93
      L1  H    17    38       P1  8028  0.06

> <Gold.Chemscore.Hbond.Weighted>
-7.1093

> <Gold.Chemscore.Metal.Weighted>
-0.0000

> <Gold.Chemscore.Lipo.Weighted>
-11.2171

> <Gold.Chemscore.Internal_Hbond.Weighted>
0.0000

> <Gold.Chemscore.DEClash.Weighted>
0.0661

> <Gold.Chemscore.DEInternal.Weighted>
4.9699

> <Gold.Chemscore.Rot.Weighted>
4.5562

> <Gold.Chemscore.Internal.Correction.Weighted>
   9.000000E+99

> <Gold.Protein.RotatedTorsions>
[ 6907 6896 6895 6894 ] final  161.34 input  -60.11 | X-H torsion
[ 7974 7965 7964 7962 ] final -143.26 input  175.53 | X-H torsion
[ 8008 7997 7996 7995 ] final -101.92 input   59.86 | X-H torsion
[ 10167 10162 10161 10158 ] final   50.16 input  -65.29 | X-H torsion
[ 10718 10713 10712 10709 ] final  -60.35 input   66.30 | X-H torsion
[ 10763 10752 10751 10750 ] final   82.66 input  -60.55 | X-H torsion
[ 11005 11000 10999 10996 ] final  134.28 input  -57.11 | X-H torsion

> <Gold.Protein.ActiveResidues>
 VAL166  LYS551  ARG553  GLY616  TRP617  ASP618  TYR619  PRO620  LYS621  CYS622 
 ASP623  PHE694  ASN695  SER759  ASP760  ASP761  ALA762  ILE779  LEU786  VAL792 
 PHE793  MET794  SER795  GLU796  ALA797  LYS798  CYS799  TRP800  GLU811  SER814 

> <Gold.Protein.RotatedAtoms>
  151.9571  133.3683  159.4021 H   0  0  0  0  0  0  0  0  0  0  0  0  # atno 6907 bound_to 6896
  150.6970  134.4279  159.5244 H   0  0  0  0  0  0  0  0  0  0  0  0  # atno 6908 bound_to 6896
  152.1962  134.8628  160.0563 H   0  0  0  0  0  0  0  0  0  0  0  0  # atno 6909 bound_to 6896
  144.8382  140.5856  143.5470 H   0  0  0  0  0  0  0  0  0  0  0  0  # atno 7974 bound_to 7965
  154.8493  140.0431  157.1593 H   0  0  0  0  0  0  0  0  0  0  0  0  # atno 8008 bound_to 7997
  154.8960  140.2993  155.5323 H   0  0  0  0  0  0  0  0  0  0  0  0  # atno 8009 bound_to 7997
  156.2995  140.2384  156.3982 H   0  0  0  0  0  0  0  0  0  0  0  0  # atno 8010 bound_to 7997
  140.2753  144.3219  150.6279 H   0  0  0  0  0  0  0  0  0  0  0  0  # atno 10167 bound_to 10162
  156.0997  130.4188  150.0841 H   0  0  0  0  0  0  0  0  0  0  0  0  # atno 10718 bound_to 10713
  153.1222  135.4720  154.9215 H   0  0  0  0  0  0  0  0  0  0  0  0  # atno 10763 bound_to 10752
  154.7587  135.3125  154.8423 H   0  0  0  0  0  0  0  0  0  0  0  0  # atno 10764 bound_to 10752
  153.8985  135.6877  153.4810 H   0  0  0  0  0  0  0  0  0  0  0  0  # atno 10765 bound_to 10752
  139.9905  134.9517  156.9844 H   0  0  0  0  0  0  0  0  0  0  0  0  # atno 11005 bound_to 11000
  145.4749  139.1500  143.3793 LP  0  0  0  0  0  0  0  0  0  0  0  0  # atno 17320 bound_to 7965
  146.2678  140.4884  142.8827 LP  0  0  0  0  0  0  0  0  0  0  0  0  # atno 17321 bound_to 7965
  140.5856  143.2170  151.7348 LP  0  0  0  0  0  0  0  0  0  0  0  0  # atno 17342 bound_to 10162
  139.4977  144.4015  152.0176 LP  0  0  0  0  0  0  0  0  0  0  0  0  # atno 17343 bound_to 10162
  156.8832  130.9563  151.3597 LP  0  0  0  0  0  0  0  0  0  0  0  0  # atno 17370 bound_to 10713
  157.6165  130.8622  149.9036 LP  0  0  0  0  0  0  0  0  0  0  0  0  # atno 17371 bound_to 10713
  140.4918  134.1185  155.7234 LP  0  0  0  0  0  0  0  0  0  0  0  0  # atno 17394 bound_to 11000
  141.1561  133.8879  157.1972 LP  0  0  0  0  0  0  0  0  0  0  0  0  # atno 17395 bound_to 11000

$$$$
