AV-unprocessed.smi:1401|AV-procd|sdf|5688|dock1
  -GOLD-   22720 5313D 1   1.00000     0.00000
 Structure written by MMmdl.
 48 50  0  0  0  0  0  0  0  0  1 V2000
  154.4092  135.9350  162.1123 C   0  0  0  0  0  0  0  0  0  0  0  0
  154.2008  136.1827  160.6427 C   0  0  0  0  0  0  0  0  0  0  0  0
  153.1062  136.7807  160.3049 N   0  0  0  0  0  0  0  0  0  0  0  0
  152.8212  137.0704  158.9840 N   0  0  0  0  0  0  0  0  0  0  0  0
  151.5632  137.8133  158.7964 C   0  0  0  0  0  0  0  0  0  0  0  0
  151.7417  139.2358  158.2360 C   0  0  0  0  0  0  0  0  0  0  0  0
  152.8260  139.5603  157.7536 O   0  0  0  0  0  0  0  0  0  0  0  0
  150.6853  140.0651  158.2820 N   0  0  0  0  0  0  0  0  0  0  0  0
  150.6144  141.4127  157.7284 C   0  0  2  0  0  0  0  0  0  0  0  0
  150.4851  141.3475  156.1969 C   0  0  0  0  0  0  0  0  0  0  0  0
  151.8700  142.1960  158.1795 C   0  0  2  0  0  0  0  0  0  0  0  0
  152.1362  142.1818  159.7032 C   0  0  0  0  0  0  0  0  0  0  0  0
  152.3838  143.6674  160.0243 C   0  0  2  0  0  0  0  0  0  0  0  0
  151.0409  144.4189  159.9854 C   0  0  0  0  0  0  0  0  0  0  0  0
  150.7269  144.4708  158.4789 C   0  0  0  0  0  0  0  0  0  0  0  0
  151.9143  143.7094  157.8539 C   0  0  1  0  0  0  0  0  0  0  0  0
  153.0600  144.1661  158.7521 C   0  0  0  0  0  0  0  0  0  0  0  0
  153.6313  136.7632  157.9301 C   0  0  0  0  0  0  0  0  0  0  0  0
  153.3485  137.0589  156.7684 O   0  0  0  0  0  0  0  0  0  0  0  0
  154.8640  136.0743  158.3191 C   0  0  0  0  0  0  0  0  0  0  0  0
  155.7413  135.7337  157.2458 C   0  0  0  0  0  0  0  0  0  0  0  0
  156.4422  135.4392  156.3730 N   0  0  0  0  0  0  0  0  0  0  0  0
  155.1563  135.7888  159.6127 C   0  0  0  0  0  0  0  0  0  0  0  0
  156.4270  135.0855  160.0695 C   0  0  0  0  0  0  0  0  0  0  0  0
  154.4712  134.8666  162.3196 H   0  0  0  0  0  0  0  0  0  0  0  0
  153.5936  136.3403  162.7130 H   0  0  0  0  0  0  0  0  0  0  0  0
  155.3320  136.4021  162.4564 H   0  0  0  0  0  0  0  0  0  0  0  0
  150.8804  137.2659  158.1445 H   0  0  0  0  0  0  0  0  0  0  0  0
  151.0428  137.8911  159.7526 H   0  0  0  0  0  0  0  0  0  0  0  0
  149.8383  139.7113  158.7024 H   0  0  0  0  0  0  0  0  0  0  0  0
  149.7246  141.8925  158.1367 H   0  0  0  0  0  0  0  0  0  0  0  0
  150.3911  142.3441  155.7657 H   0  0  0  0  0  0  0  0  0  0  0  0
  149.6018  140.7831  155.8968 H   0  0  0  0  0  0  0  0  0  0  0  0
  151.3544  140.8689  155.7450 H   0  0  0  0  0  0  0  0  0  0  0  0
  152.7317  141.7369  157.6905 H   0  0  0  0  0  0  0  0  0  0  0  0
  151.3022  141.7804  160.2806 H   0  0  0  0  0  0  0  0  0  0  0  0
  153.0147  141.5767  159.9315 H   0  0  0  0  0  0  0  0  0  0  0  0
  152.9485  143.8284  160.9432 H   0  0  0  0  0  0  0  0  0  0  0  0
  150.2635  143.9086  160.5553 H   0  0  0  0  0  0  0  0  0  0  0  0
  151.1456  145.4263  160.3901 H   0  0  0  0  0  0  0  0  0  0  0  0
  149.7560  144.0433  158.2328 H   0  0  0  0  0  0  0  0  0  0  0  0
  150.7178  145.5055  158.1338 H   0  0  0  0  0  0  0  0  0  0  0  0
  152.0616  143.9249  156.7952 H   0  0  0  0  0  0  0  0  0  0  0  0
  153.2172  145.2463  158.7401 H   0  0  0  0  0  0  0  0  0  0  0  0
  154.0066  143.6658  158.5402 H   0  0  0  0  0  0  0  0  0  0  0  0
  157.0554  134.7829  159.2327 H   0  0  0  0  0  0  0  0  0  0  0  0
  156.1861  134.1860  160.6367 H   0  0  0  0  0  0  0  0  0  0  0  0
  157.0196  135.7444  160.7047 H   0  0  0  0  0  0  0  0  0  0  0  0
  1  2  1  0  0  0  0
  1 25  1  0  0  0  0
  1 26  1  0  0  0  0
  1 27  1  0  0  0  0
  2 23  1  0  0  0  0
  2  3  2  0  0  0  0
  3  4  1  0  0  0  0
  4  5  1  0  0  0  0
  4 18  1  0  0  0  0
  5  6  1  0  0  0  0
  5 28  1  0  0  0  0
  5 29  1  0  0  0  0
  6  7  2  0  0  0  0
  6  8  1  0  0  0  0
  8  9  1  0  0  0  0
  8 30  1  0  0  0  0
  9 10  1  0  0  0  0
  9 11  1  0  0  0  0
  9 31  1  0  0  0  0
 10 32  1  0  0  0  0
 10 33  1  0  0  0  0
 10 34  1  0  0  0  0
 11 16  1  0  0  0  0
 11 12  1  0  0  0  0
 11 35  1  0  0  0  0
 12 13  1  0  0  0  0
 12 36  1  0  0  0  0
 12 37  1  0  0  0  0
 13 17  1  0  0  0  0
 13 14  1  0  0  0  0
 13 38  1  0  0  0  0
 14 15  1  0  0  0  0
 14 39  1  0  0  0  0
 14 40  1  0  0  0  0
 15 16  1  0  0  0  0
 15 41  1  0  0  0  0
 15 42  1  0  0  0  0
 16 17  1  0  0  0  0
 16 43  1  0  0  0  0
 17 44  1  0  0  0  0
 17 45  1  0  0  0  0
 18 19  2  0  0  0  0
 18 20  1  0  0  0  0
 20 21  1  0  0  0  0
 20 23  2  0  0  0  0
 21 22  3  0  0  0  0
 23 24  1  0  0  0  0
 24 46  1  0  0  0  0
 24 47  1  0  0  0  0
 24 48  1  0  0  0  0
M  END
> <s_m_source_file>
AV-unprocessed.smi

> <i_m_source_file_index>
1401

> <i_lp_mmshare_version>
43012

> <i_f3d_flags>
0

> <s_epik_input>
TiNDYyhjMVtDSDNdKWMoPU8pbihuYzFbQ0gzXSlbQ0gyXUMoPU8pW05IXVtDQEhdKFtDSDNdKVtDQEhdKFtDSDJdW0NASF0yMylbQ0BIXShbQ0gyXTMpW0NIMl1bQ0gyXTI=

> <s_epik_cmdline>
J2VwaWtfcHl0aG9uJywgJy1waCcsICc3LjAnLCAnLXRuJywgJzgnLCAnLW1hJywgJzIwMCcsICctbWV0YWxfYmluZGluZycsICctaW1hZScsICc8aW5maWxlLm1hZT4nLCAnLW9tYWUnLCAnPG91dGZpbGUubWFlPic=

> <r_lp_tautomer_probability>
1

> <r_epik_Ionization_Penalty>
2.16501e-08

> <r_epik_Ionization_Penalty_Charging>
2.29436e-11

> <r_epik_Ionization_Penalty_Neutral>
2.16271e-08

> <r_epik_State_Penalty>
-0

> <r_epik_Charging_Adjusted_Penalty>
2.29436e-11

> <i_epik_Tot_Q>
0

> <i_epik_Tot_abs_Q>
0

> <r_epik_Metal_State_Penalty>
-0

> <b_epik_Metal_Only>
0

> <s_lp_Force_Field>
OPLS_2005

> <r_lp_Energy>
65.8104

> <b_lp_Chiralities_Consistent>
1

> <s_lp_Variant>
AV-unprocessed.smi:1401-1

> <Gold.Version>
5.8.1

> <Gold.Id.Protein>
6NUR|6NUR_protein|mol2

> <Gold.PLP.Fitness>
44.6184

> <Gold.PLP.PLP>
-36.2840

> <Gold.PLP.part.hbond>
-3.9594

> <Gold.PLP.part.metal>
0.0000

> <Gold.PLP.part.buried>
-4.6288

> <Gold.PLP.part.nonpolar>
-28.8891

> <Gold.PLP.part.repulsive>
0.1365

> <Gold.PLP.ligand.clash>
0.0000

> <Gold.PLP.ligand.torsion>
0.3650

> <Gold.PLP.Chemscore.Hbond>
3.0081

> <Gold.PLP.Chemscore.CHOScore>
0.0000

> <Gold.PLP.Chemscore.Metal>
0.0000

> <Gold.Chemscore.Hbonds>
donor molecule, donor type, donor heavy atom, donor atom, acceptor molecule, acceptor atom, score
      P1  H  6896  6908       L1     3  0.26
      P1  H  7997  8009       L1     7  1.00
      P1  H 10752 10763       L1    19  0.40
      P1  H 10752 10764       L1    22  0.03

> <Gold.PLP.Chemscore.Internal.Correction>
0.0400

> <Gold.Rescore>
     Score         DG    S(hbond)    S(metal)    S(lipo)     H(rot)  DE(clash)    DE(int)     intcor
     19.27     -21.14       2.13        0.00     108.57       1.63       0.05       1.81       ----

> <Gold.Chemscore.Fitness>
19.2733

> <Gold.Chemscore.DG>
-21.1388

> <Gold.Chemscore.ZeroCoef>
-5.4800

> <Gold.Chemscore.Hbond>
2.1328

> <Gold.Chemscore.Metal>
0.0000

> <Gold.Chemscore.Lipo>
108.5725

> <Gold.Chemscore.Internal_Hbond>
0.0000

> <Gold.Chemscore.DEClash>
0.0548

> <Gold.Chemscore.DEInternal>
1.8106

> <Gold.Chemscore.Rot>
1.6281

> <Gold.Chemscore.Internal.Correction>
   9.000000E+99

> <Gold.Chemscore.Hbonds>
donor molecule, donor type, donor heavy atom, donor atom, acceptor molecule, acceptor atom, score
      P1  H  7997  8009       L1     7  0.99
      P1  H 10752 10763       L1    19  0.39
      P1  H 10752 10764       L1    22  0.02

> <Gold.Chemscore.Hbond.Weighted>
-7.1236

> <Gold.Chemscore.Metal.Weighted>
-0.0000

> <Gold.Chemscore.Lipo.Weighted>
-12.7030

> <Gold.Chemscore.Internal_Hbond.Weighted>
0.0000

> <Gold.Chemscore.DEClash.Weighted>
0.0548

> <Gold.Chemscore.DEInternal.Weighted>
1.8106

> <Gold.Chemscore.Rot.Weighted>
4.1678

> <Gold.Chemscore.Internal.Correction.Weighted>
   9.000000E+99

> <Gold.Protein.RotatedTorsions>
[ 6907 6896 6895 6894 ] final  -96.29 input  -60.11 | X-H torsion
[ 7974 7965 7964 7962 ] final  133.89 input  175.53 | X-H torsion
[ 8008 7997 7996 7995 ] final  172.87 input   59.86 | X-H torsion
[ 10167 10162 10161 10158 ] final  -48.83 input  -65.29 | X-H torsion
[ 10718 10713 10712 10709 ] final  -53.80 input   66.30 | X-H torsion
[ 10763 10752 10751 10750 ] final  107.52 input  -60.55 | X-H torsion
[ 11005 11000 10999 10996 ] final  147.90 input  -57.11 | X-H torsion

> <Gold.Protein.ActiveResidues>
 VAL166  LYS551  ARG553  GLY616  TRP617  ASP618  TYR619  PRO620  LYS621  CYS622 
 ASP623  PHE694  ASN695  SER759  ASP760  ASP761  ALA762  ILE779  LEU786  VAL792 
 PHE793  MET794  SER795  GLU796  ALA797  LYS798  CYS799  TRP800  GLU811  SER814 

> <Gold.Protein.RotatedAtoms>
  150.6985  134.1525  159.4145 H   0  0  0  0  0  0  0  0  0  0  0  0  # atno 6907 bound_to 6896
  151.9508  135.0168  160.0551 H   0  0  0  0  0  0  0  0  0  0  0  0  # atno 6908 bound_to 6896
  152.2013  133.4808  159.5096 H   0  0  0  0  0  0  0  0  0  0  0  0  # atno 6909 bound_to 6896
  144.9819  139.4495  143.5382 H   0  0  0  0  0  0  0  0  0  0  0  0  # atno 7974 bound_to 7965
  156.1132  140.1475  156.9309 H   0  0  0  0  0  0  0  0  0  0  0  0  # atno 8008 bound_to 7997
  154.4782  140.0888  156.7356 H   0  0  0  0  0  0  0  0  0  0  0  0  # atno 8009 bound_to 7997
  155.4559  140.3436  155.4309 H   0  0  0  0  0  0  0  0  0  0  0  0  # atno 8010 bound_to 7997
  140.6713  143.2723  151.4127 H   0  0  0  0  0  0  0  0  0  0  0  0  # atno 10167 bound_to 10162
  156.1504  130.4151  149.9954 H   0  0  0  0  0  0  0  0  0  0  0  0  # atno 10718 bound_to 10713
  153.4079  135.3842  155.2031 H   0  0  0  0  0  0  0  0  0  0  0  0  # atno 10763 bound_to 10752
  154.8735  135.3787  154.4538 H   0  0  0  0  0  0  0  0  0  0  0  0  # atno 10764 bound_to 10752
  153.5043  135.7088  153.5877 H   0  0  0  0  0  0  0  0  0  0  0  0  # atno 10765 bound_to 10752
  140.0914  134.9038  157.1657 H   0  0  0  0  0  0  0  0  0  0  0  0  # atno 11005 bound_to 11000
  146.3410  139.9097  142.8782 LP  0  0  0  0  0  0  0  0  0  0  0  0  # atno 17320 bound_to 7965
  145.2409  141.0009  143.3936 LP  0  0  0  0  0  0  0  0  0  0  0  0  # atno 17321 bound_to 7965
  139.5983  144.1350  152.2169 LP  0  0  0  0  0  0  0  0  0  0  0  0  # atno 17342 bound_to 10162
  140.0726  144.5766  150.7180 LP  0  0  0  0  0  0  0  0  0  0  0  0  # atno 17343 bound_to 10162
  156.7813  130.9222  151.3646 LP  0  0  0  0  0  0  0  0  0  0  0  0  # atno 17370 bound_to 10713
  157.6652  130.9001  149.9917 LP  0  0  0  0  0  0  0  0  0  0  0  0  # atno 17371 bound_to 10713
  140.3347  134.2771  155.7222 LP  0  0  0  0  0  0  0  0  0  0  0  0  # atno 17394 bound_to 11000
  141.2079  133.7793  157.0091 LP  0  0  0  0  0  0  0  0  0  0  0  0  # atno 17395 bound_to 11000

$$$$
