AV-unprocessed.smi:658|AV-procd|sdf|3236|dock8
  -GOLD-   22720 0183D 1   1.00000     0.00000
 Structure written by MMmdl.
 37 37  0  0  0  0  0  0  0  0  3 V2000
  146.2234  138.4422  151.5504 C   0  0  0  0  0  0  0  0  0  0  0  0
  146.1399  138.0753  153.0432 C   0  0  2  0  0  0  0  0  0  0  0  0
  147.4852  137.6714  153.5108 N   0  3  0  0  0  0  0  0  0  0  0  0
  148.3968  138.7921  153.8166 C   0  0  0  0  0  0  0  0  0  0  0  0
  149.7264  138.2780  154.3768 C   0  0  0  0  0  0  0  0  0  0  0  0
  150.6059  139.4103  154.9197 C   0  0  0  0  0  0  0  0  0  0  0  0
  152.2033  138.7525  155.5542 S   0  0  0  0  0  0  0  0  0  0  0  0
  153.2530  139.6284  154.6990 N   0  5  0  0  0  0  0  0  0  0  0  0
  152.2267  139.0799  156.9881 O   0  0  0  0  0  0  0  0  0  0  0  0
  152.2267  137.3291  155.1861 O   0  0  0  0  0  0  0  0  0  0  0  0
  145.1002  136.9587  153.3340 C   0  0  1  0  0  0  0  0  0  0  0  0
  143.6760  137.5020  153.5602 C   0  0  0  0  0  0  0  0  0  0  0  0
  145.0859  135.9443  152.2875 N   0  0  0  0  0  0  0  0  0  0  0  0
  146.1284  135.1536  151.8490 C   0  0  0  0  0  0  0  0  0  0  0  0
  145.6439  134.3544  150.8536 C   0  0  0  0  0  0  0  0  0  0  0  0
  144.2763  134.7320  150.7512 C   0  0  0  0  0  0  0  0  0  0  0  0
  143.9458  135.6844  151.6080 N   0  0  0  0  0  0  0  0  0  0  0  0
  145.2851  138.8570  151.1813 H   0  0  0  0  0  0  0  0  0  0  0  0
  146.4654  137.5711  150.9406 H   0  0  0  0  0  0  0  0  0  0  0  0
  146.9941  139.1939  151.3756 H   0  0  0  0  0  0  0  0  0  0  0  0
  145.8372  138.9794  153.5750 H   0  0  0  0  0  0  0  0  0  0  0  0
  147.3813  137.1005  154.3374 H   0  0  0  0  0  0  0  0  0  0  0  0
  148.5720  139.3683  152.9072 H   0  0  0  0  0  0  0  0  0  0  0  0
  147.9264  139.4618  154.5374 H   0  0  0  0  0  0  0  0  0  0  0  0
  149.5319  137.5581  155.1728 H   0  0  0  0  0  0  0  0  0  0  0  0
  150.2685  137.7402  153.5980 H   0  0  0  0  0  0  0  0  0  0  0  0
  150.8272  140.1395  154.1399 H   0  0  0  0  0  0  0  0  0  0  0  0
  150.1090  139.9345  155.7363 H   0  0  0  0  0  0  0  0  0  0  0  0
  153.3838  139.1710  153.7889 H   0  0  0  0  0  0  0  0  0  0  0  0
  145.4032  136.4519  154.2517 H   0  0  0  0  0  0  0  0  0  0  0  0
  143.6257  138.1378  154.4439 H   0  0  0  0  0  0  0  0  0  0  0  0
  142.9669  136.6877  153.7121 H   0  0  0  0  0  0  0  0  0  0  0  0
  143.3298  138.0885  152.7085 H   0  0  0  0  0  0  0  0  0  0  0  0
  147.1178  135.2243  152.2765 H   0  0  0  0  0  0  0  0  0  0  0  0
  146.1835  133.6113  150.2854 H   0  0  0  0  0  0  0  0  0  0  0  0
  143.5197  134.3452  150.0847 H   0  0  0  0  0  0  0  0  0  0  0  0
  147.9173  137.1119  152.7895 H   0  0  0  0  0  0  0  0  0  0  0  0
  1  2  1  0  0  0  0
  1 18  1  0  0  0  0
  1 19  1  0  0  0  0
  1 20  1  0  0  0  0
  2  3  1  0  0  0  0
  2 11  1  0  0  0  0
  2 21  1  0  0  0  0
  3  4  1  0  0  0  0
  3 22  1  0  0  0  0
  3 37  1  0  0  0  0
  4  5  1  0  0  0  0
  4 23  1  0  0  0  0
  4 24  1  0  0  0  0
  5  6  1  0  0  0  0
  5 25  1  0  0  0  0
  5 26  1  0  0  0  0
  6  7  1  0  0  0  0
  6 27  1  0  0  0  0
  6 28  1  0  0  0  0
  7  8  1  0  0  0  0
  7  9  2  0  0  0  0
  7 10  2  0  0  0  0
  8 29  1  0  0  0  0
 11 12  1  0  0  0  0
 11 13  1  0  0  0  0
 11 30  1  0  0  0  0
 12 31  1  0  0  0  0
 12 32  1  0  0  0  0
 12 33  1  0  0  0  0
 13 17  1  0  0  0  0
 13 14  1  0  0  0  0
 14 15  2  0  0  0  0
 14 34  1  0  0  0  0
 15 16  1  0  0  0  0
 15 35  1  0  0  0  0
 16 17  2  0  0  0  0
 16 36  1  0  0  0  0
M  CHG  1   3   1
M  CHG  1   8  -1
M  END
> <s_m_source_file>
AV-unprocessed.smi

> <i_m_source_file_index>
658

> <i_lp_mmshare_version>
43012

> <i_f3d_flags>
0

> <s_epik_input>
bjFbY0hdW2NIXVtjSF1uMVtDQEBIXShbQ0gzXSlbQ0BIXShbQ0gzXSlbTkhdW0NIMl1bQ0gyXVtDSDJdUyg9TykoPU8pW05IMl0=

> <s_epik_cmdline>
J2VwaWtfcHl0aG9uJywgJy1waCcsICc3LjAnLCAnLXRuJywgJzgnLCAnLW1hJywgJzIwMCcsICctbWV0YWxfYmluZGluZycsICctaW1hZScsICc8aW5maWxlLm1hZT4nLCAnLW9tYWUnLCAnPG91dGZpbGUubWFlPic=

> <r_lp_tautomer_probability>
1

> <r_epik_Ionization_Penalty>
4.63642

> <r_epik_Ionization_Penalty_Charging>
4.63641

> <r_epik_Ionization_Penalty_Neutral>
1.08396e-05

> <r_epik_State_Penalty>
4.63466

> <r_epik_Charging_Adjusted_Penalty>
9.27106

> <i_epik_Tot_Q>
0

> <i_epik_Tot_abs_Q>
2

> <r_epik_Metal_State_Penalty>
0.890424

> <b_epik_Metal_Only>
1

> <s_lp_Force_Field>
OPLS_2005

> <r_lp_Energy>
-1.73265

> <b_lp_Chiralities_Consistent>
1

> <s_lp_Variant>
AV-unprocessed.smi:658-7

> <Gold.Version>
5.8.1

> <Gold.Id.Protein>
6NUR|6NUR_protein|mol2

> <Gold.PLP.Fitness>
43.8883

> <Gold.PLP.PLP>
-25.1325

> <Gold.PLP.part.hbond>
-4.0000

> <Gold.PLP.part.metal>
0.0000

> <Gold.PLP.part.buried>
2.0794

> <Gold.PLP.part.nonpolar>
-23.8949

> <Gold.PLP.part.repulsive>
0.2648

> <Gold.PLP.ligand.clash>
0.0000

> <Gold.PLP.ligand.torsion>
0.9011

> <Gold.PLP.Chemscore.Hbond>
4.8073

> <Gold.PLP.Chemscore.CHOScore>
1.9994

> <Gold.PLP.Chemscore.Metal>
0.0000

> <Gold.Chemscore.Hbonds>
donor molecule, donor type, donor heavy atom, donor atom, acceptor molecule, acceptor atom, score
      L1  H     3    37       P1  7948  2.00
      P1  H  7989  7998       L1     8  0.01
      P1  H  7997  8009       L1     8  2.00
      P1  H 10752 10765       L1    10  0.78
      L1  C    14    34       P1  7948  1.00
      L1  C    16    36       P1 10186  0.92

> <Gold.PLP.Chemscore.Internal.Correction>
0.1377

> <Gold.Rescore>
     Score         DG    S(hbond)    S(metal)    S(lipo)     H(rot)  DE(clash)    DE(int)     intcor
     12.50     -13.47       2.96        0.00      50.36       3.04       0.04       0.93       ----

> <Gold.Chemscore.Fitness>
12.5023

> <Gold.Chemscore.DG>
-13.4715

> <Gold.Chemscore.ZeroCoef>
-5.4800

> <Gold.Chemscore.Hbond>
2.9593

> <Gold.Chemscore.Metal>
0.0000

> <Gold.Chemscore.Lipo>
50.3602

> <Gold.Chemscore.Internal_Hbond>
0.0000

> <Gold.Chemscore.DEClash>
0.0385

> <Gold.Chemscore.DEInternal>
0.9307

> <Gold.Chemscore.Rot>
3.0409

> <Gold.Chemscore.Internal.Correction>
   9.000000E+99

> <Gold.Chemscore.Hbonds>
donor molecule, donor type, donor heavy atom, donor atom, acceptor molecule, acceptor atom, score
      L1  H     3    37       P1  7948  1.00
      P1  H  7997  8009       L1     8  0.39
      P1  H 10752 10765       L1    10  0.77

> <Gold.Chemscore.Hbond.Weighted>
-9.8841

> <Gold.Chemscore.Metal.Weighted>
-0.0000

> <Gold.Chemscore.Lipo.Weighted>
-5.8921

> <Gold.Chemscore.Internal_Hbond.Weighted>
0.0000

> <Gold.Chemscore.DEClash.Weighted>
0.0385

> <Gold.Chemscore.DEInternal.Weighted>
0.9307

> <Gold.Chemscore.Rot.Weighted>
7.7848

> <Gold.Chemscore.Internal.Correction.Weighted>
   9.000000E+99

> <Gold.Protein.RotatedTorsions>
[ 6907 6896 6895 6894 ] final   -5.70 input  -60.11 | X-H torsion
[ 7974 7965 7964 7962 ] final   18.57 input  175.53 | X-H torsion
[ 8008 7997 7996 7995 ] final -141.73 input   59.86 | X-H torsion
[ 10167 10162 10161 10158 ] final  -29.09 input  -65.29 | X-H torsion
[ 10718 10713 10712 10709 ] final -104.99 input   66.30 | X-H torsion
[ 10763 10752 10751 10750 ] final -173.40 input  -60.55 | X-H torsion
[ 11005 11000 10999 10996 ] final -109.93 input  -57.11 | X-H torsion

> <Gold.Protein.ActiveResidues>
 VAL166  LYS551  ARG553  GLY616  TRP617  ASP618  TYR619  PRO620  LYS621  CYS622 
 ASP623  PHE694  ASN695  SER759  ASP760  ASP761  ALA762  ILE779  LEU786  VAL792 
 PHE793  MET794  SER795  GLU796  ALA797  LYS798  CYS799  TRP800  GLU811  SER814 

> <Gold.Protein.RotatedAtoms>
  151.4774  135.1050  159.9768 H   0  0  0  0  0  0  0  0  0  0  0  0  # atno 6907 bound_to 6896
  152.4793  133.8210  159.7064 H   0  0  0  0  0  0  0  0  0  0  0  0  # atno 6908 bound_to 6896
  150.8852  133.7256  159.2947 H   0  0  0  0  0  0  0  0  0  0  0  0  # atno 6909 bound_to 6896
  146.2180  139.8438  142.8636 H   0  0  0  0  0  0  0  0  0  0  0  0  # atno 7974 bound_to 7965
  155.4826  140.0561  157.2965 H   0  0  0  0  0  0  0  0  0  0  0  0  # atno 8008 bound_to 7997
  154.4654  140.2016  156.0084 H   0  0  0  0  0  0  0  0  0  0  0  0  # atno 8009 bound_to 7997
  156.0965  140.3225  155.7889 H   0  0  0  0  0  0  0  0  0  0  0  0  # atno 8010 bound_to 7997
  140.7264  143.3956  151.1353 H   0  0  0  0  0  0  0  0  0  0  0  0  # atno 10167 bound_to 10162
  156.0327  130.5542  150.7475 H   0  0  0  0  0  0  0  0  0  0  0  0  # atno 10718 bound_to 10713
  154.6083  135.2862  155.0460 H   0  0  0  0  0  0  0  0  0  0  0  0  # atno 10763 bound_to 10752
  154.1700  135.6474  153.5011 H   0  0  0  0  0  0  0  0  0  0  0  0  # atno 10764 bound_to 10752
  153.0184  135.5398  154.6827 H   0  0  0  0  0  0  0  0  0  0  0  0  # atno 10765 bound_to 10752
  141.0820  133.9203  157.2267 H   0  0  0  0  0  0  0  0  0  0  0  0  # atno 11005 bound_to 11000
  145.2871  141.0156  143.3684 LP  0  0  0  0  0  0  0  0  0  0  0  0  # atno 17320 bound_to 7965
  144.9105  139.4534  143.6589 LP  0  0  0  0  0  0  0  0  0  0  0  0  # atno 17321 bound_to 7965
  139.7568  143.8695  152.3091 LP  0  0  0  0  0  0  0  0  0  0  0  0  # atno 17342 bound_to 10162
  139.8567  144.7137  150.9148 LP  0  0  0  0  0  0  0  0  0  0  0  0  # atno 17343 bound_to 10162
  157.5028  131.0920  151.0293 LP  0  0  0  0  0  0  0  0  0  0  0  0  # atno 17370 bound_to 10713
  157.0669  130.5848  149.5395 LP  0  0  0  0  0  0  0  0  0  0  0  0  # atno 17371 bound_to 10713
  139.9635  135.0148  156.9325 LP  0  0  0  0  0  0  0  0  0  0  0  0  # atno 17394 bound_to 11000
  140.5446  134.0686  155.7351 LP  0  0  0  0  0  0  0  0  0  0  0  0  # atno 17395 bound_to 11000

$$$$
