AV-unprocessed.smi:2553|AV-procd|sdf|10018|dock2
  -GOLD-   2272014 63D 1   1.00000     0.00000
 Structure written by MMmdl.
 28 29  0  0  0  0  0  0  0  0  2 V2000
  154.5898  135.3179  164.1303 O   0  0  0  0  0  0  0  0  0  0  0  0
  154.3287  136.1485  163.2612 C   0  0  0  0  0  0  0  0  0  0  0  0
  153.8995  135.7986  162.0131 N   0  5  0  0  0  0  0  0  0  0  0  0
  153.6022  136.7075  161.0339 C   0  0  0  0  0  0  0  0  0  0  0  0
  153.2309  136.3671  159.9102 O   0  0  0  0  0  0  0  0  0  0  0  0
  153.7256  138.0386  161.3134 N   0  0  0  0  0  0  0  0  0  0  0  0
  153.4441  139.0833  160.3191 C   0  0  0  0  0  0  0  0  0  0  0  0
  154.5880  140.1057  160.2398 C   0  0  0  0  0  0  0  0  0  0  0  0
  154.3460  141.1285  161.1964 O   0  0  0  0  0  0  0  0  0  0  0  0
  153.5590  142.2002  160.8348 C   0  0  0  0  0  0  0  0  0  0  0  0
  153.0886  142.4262  159.5164 C   0  0  0  0  0  0  0  0  0  0  0  0
  152.2832  143.5450  159.2283 C   0  0  0  0  0  0  0  0  0  0  0  0
  151.9386  144.4493  160.2493 C   0  0  0  0  0  0  0  0  0  0  0  0
  151.1638  145.5243  159.9708 F   0  0  0  0  0  0  0  0  0  0  0  0
  152.3999  144.2336  161.5607 C   0  0  0  0  0  0  0  0  0  0  0  0
  153.2056  143.1153  161.8515 C   0  0  0  0  0  0  0  0  0  0  0  0
  153.7637  142.8731  163.4686 Cl  0  0  0  0  0  0  0  0  0  0  0  0
  154.1715  138.4524  162.5801 C   0  0  0  0  0  0  0  0  0  0  0  0
  154.4772  137.5730  163.5534 C   0  0  0  0  0  0  0  0  0  0  0  0
  155.0352  138.1119  165.0969 Cl  0  0  0  0  0  0  0  0  0  0  0  0
  153.2798  138.6379  159.3368 H   0  0  0  0  0  0  0  0  0  0  0  0
  152.5098  139.5934  160.5581 H   0  0  0  0  0  0  0  0  0  0  0  0
  155.5450  139.6157  160.4266 H   0  0  0  0  0  0  0  0  0  0  0  0
  154.6193  140.5366  159.2383 H   0  0  0  0  0  0  0  0  0  0  0  0
  153.3296  141.7530  158.7080 H   0  0  0  0  0  0  0  0  0  0  0  0
  151.9287  143.7085  158.2213 H   0  0  0  0  0  0  0  0  0  0  0  0
  152.1353  144.9277  162.3447 H   0  0  0  0  0  0  0  0  0  0  0  0
  154.2600  139.5218  162.7059 H   0  0  0  0  0  0  0  0  0  0  0  0
  1  2  2  0  0  0  0
  2 19  1  0  0  0  0
  2  3  1  0  0  0  0
  3  4  1  0  0  0  0
  4  5  2  0  0  0  0
  4  6  1  0  0  0  0
  6  7  1  0  0  0  0
  6 18  1  0  0  0  0
  7  8  1  0  0  0  0
  7 21  1  0  0  0  0
  7 22  1  0  0  0  0
  8  9  1  0  0  0  0
  8 23  1  0  0  0  0
  8 24  1  0  0  0  0
  9 10  1  0  0  0  0
 10 16  1  0  0  0  0
 10 11  2  0  0  0  0
 11 12  1  0  0  0  0
 11 25  1  0  0  0  0
 12 13  2  0  0  0  0
 12 26  1  0  0  0  0
 13 14  1  0  0  0  0
 13 15  1  0  0  0  0
 15 16  2  0  0  0  0
 15 27  1  0  0  0  0
 16 17  1  0  0  0  0
 18 19  2  0  0  0  0
 18 28  1  0  0  0  0
 19 20  1  0  0  0  0
M  CHG  1   3  -1
M  END
> <s_m_source_file>
AV-unprocessed.smi

> <i_m_source_file_index>
2553

> <i_lp_mmshare_version>
43012

> <i_f3d_flags>
0

> <s_epik_input>
Tz1jMVtuSF1jKD1PKW4oW2NIXWMxQ2wpW0NIMl1bQ0gyXU9jMltjSF1bY0hdYyhGKVtjSF1jMkNs

> <s_epik_cmdline>
J2VwaWtfcHl0aG9uJywgJy1waCcsICc3LjAnLCAnLXRuJywgJzgnLCAnLW1hJywgJzIwMCcsICctbWV0YWxfYmluZGluZycsICctaW1hZScsICc8aW5maWxlLm1hZT4nLCAnLW9tYWUnLCAnPG91dGZpbGUubWFlPic=

> <r_lp_tautomer_probability>
1

> <r_epik_Ionization_Penalty>
1.51646

> <r_epik_Ionization_Penalty_Charging>
6.90068e-09

> <r_epik_Ionization_Penalty_Neutral>
1.51646

> <r_epik_State_Penalty>
1.60792

> <r_epik_Charging_Adjusted_Penalty>
1.60792

> <i_epik_Tot_Q>
-1

> <i_epik_Tot_abs_Q>
1

> <r_epik_Metal_State_Penalty>
0.00828827

> <b_epik_Metal_Only>
0

> <s_lp_Force_Field>
OPLS_2005

> <r_lp_Energy>
21.8883

> <b_lp_Chiralities_Consistent>
1

> <s_lp_Variant>
AV-unprocessed.smi:2553-2

> <Gold.Version>
5.8.1

> <Gold.Id.Protein>
6NUR|6NUR_protein|mol2

> <Gold.PLP.Fitness>
51.2604

> <Gold.PLP.PLP>
-49.2221

> <Gold.PLP.part.hbond>
-1.3044

> <Gold.PLP.part.metal>
0.0000

> <Gold.PLP.part.buried>
-6.7270

> <Gold.PLP.part.nonpolar>
-40.9725

> <Gold.PLP.part.repulsive>
0.0657

> <Gold.PLP.ligand.clash>
0.0000

> <Gold.PLP.ligand.torsion>
0.4955

> <Gold.PLP.Chemscore.Hbond>
1.0000

> <Gold.PLP.Chemscore.CHOScore>
0.0000

> <Gold.PLP.Chemscore.Metal>
0.0000

> <Gold.Chemscore.Hbonds>
donor molecule, donor type, donor heavy atom, donor atom, acceptor molecule, acceptor atom, score
      P1  H  6896  6907       L1     5  1.00

> <Gold.PLP.Chemscore.Internal.Correction>
0.0292

> <Gold.Rescore>
     Score         DG    S(hbond)    S(metal)    S(lipo)     H(rot)  DE(clash)    DE(int)     intcor
     17.08     -17.77       0.98        0.00     118.10       1.88       0.06       0.62       ----

> <Gold.Chemscore.Fitness>
17.0813

> <Gold.Chemscore.DG>
-17.7676

> <Gold.Chemscore.ZeroCoef>
-5.4800

> <Gold.Chemscore.Hbond>
0.9838

> <Gold.Chemscore.Metal>
0.0000

> <Gold.Chemscore.Lipo>
118.1022

> <Gold.Chemscore.Internal_Hbond>
0.0000

> <Gold.Chemscore.DEClash>
0.0620

> <Gold.Chemscore.DEInternal>
0.6244

> <Gold.Chemscore.Rot>
1.8814

> <Gold.Chemscore.Internal.Correction>
   9.000000E+99

> <Gold.Chemscore.Hbonds>
donor molecule, donor type, donor heavy atom, donor atom, acceptor molecule, acceptor atom, score
      P1  H  6896  6907       L1     5  0.70

> <Gold.Chemscore.Hbond.Weighted>
-3.2860

> <Gold.Chemscore.Metal.Weighted>
-0.0000

> <Gold.Chemscore.Lipo.Weighted>
-13.8180

> <Gold.Chemscore.Internal_Hbond.Weighted>
0.0000

> <Gold.Chemscore.DEClash.Weighted>
0.0620

> <Gold.Chemscore.DEInternal.Weighted>
0.6244

> <Gold.Chemscore.Rot.Weighted>
4.8163

> <Gold.Chemscore.Internal.Correction.Weighted>
   9.000000E+99

> <Gold.Protein.RotatedTorsions>
[ 6907 6896 6895 6894 ] final   43.42 input  -60.11 | X-H torsion
[ 7974 7965 7964 7962 ] final  140.60 input  175.53 | X-H torsion
[ 8008 7997 7996 7995 ] final  168.82 input   59.86 | X-H torsion
[ 10167 10162 10161 10158 ] final   86.35 input  -65.29 | X-H torsion
[ 10718 10713 10712 10709 ] final  123.48 input   66.30 | X-H torsion
[ 10763 10752 10751 10750 ] final   33.50 input  -60.55 | X-H torsion
[ 11005 11000 10999 10996 ] final    7.51 input  -57.11 | X-H torsion

> <Gold.Protein.ActiveResidues>
 VAL166  LYS551  ARG553  GLY616  TRP617  ASP618  TYR619  PRO620  LYS621  CYS622 
 ASP623  PHE694  ASN695  SER759  ASP760  ASP761  ALA762  ILE779  LEU786  VAL792 
 PHE793  MET794  SER795  GLU796  ALA797  LYS798  CYS799  TRP800  GLU811  SER814 

> <Gold.Protein.RotatedAtoms>
  152.2200  134.8422  160.0486 H   0  0  0  0  0  0  0  0  0  0  0  0  # atno 6907 bound_to 6896
  151.9209  133.3580  159.3905 H   0  0  0  0  0  0  0  0  0  0  0  0  # atno 6908 bound_to 6896
  150.6997  134.4561  159.5403 H   0  0  0  0  0  0  0  0  0  0  0  0  # atno 6909 bound_to 6896
  144.9172  139.5215  143.5680 H   0  0  0  0  0  0  0  0  0  0  0  0  # atno 7974 bound_to 7965
  156.1512  140.1580  156.8766 H   0  0  0  0  0  0  0  0  0  0  0  0  # atno 8008 bound_to 7997
  154.5073  140.0810  156.7957 H   0  0  0  0  0  0  0  0  0  0  0  0  # atno 8009 bound_to 7997
  155.3891  140.3409  155.4252 H   0  0  0  0  0  0  0  0  0  0  0  0  # atno 8010 bound_to 7997
  139.8884  144.6400  150.8766 H   0  0  0  0  0  0  0  0  0  0  0  0  # atno 10167 bound_to 10162
  157.5661  131.1086  150.8451 H   0  0  0  0  0  0  0  0  0  0  0  0  # atno 10718 bound_to 10713
  153.0209  135.6385  154.1521 H   0  0  0  0  0  0  0  0  0  0  0  0  # atno 10763 bound_to 10752
  154.1255  135.2844  155.3199 H   0  0  0  0  0  0  0  0  0  0  0  0  # atno 10764 bound_to 10752
  154.6232  135.5518  153.7660 H   0  0  0  0  0  0  0  0  0  0  0  0  # atno 10765 bound_to 10752
  140.5474  134.0315  155.7925 H   0  0  0  0  0  0  0  0  0  0  0  0  # atno 11005 bound_to 11000
  146.3187  139.8024  142.8962 LP  0  0  0  0  0  0  0  0  0  0  0  0  # atno 17320 bound_to 7965
  145.3356  141.0276  143.3422 LP  0  0  0  0  0  0  0  0  0  0  0  0  # atno 17321 bound_to 7965
  140.7731  143.3530  151.1977 LP  0  0  0  0  0  0  0  0  0  0  0  0  # atno 17342 bound_to 10162
  139.7132  143.9343  152.2956 LP  0  0  0  0  0  0  0  0  0  0  0  0  # atno 17343 bound_to 10162
  156.8936  130.5221  149.5285 LP  0  0  0  0  0  0  0  0  0  0  0  0  # atno 17370 bound_to 10713
  156.0709  130.5742  150.9382 LP  0  0  0  0  0  0  0  0  0  0  0  0  # atno 17371 bound_to 10713
  141.1191  133.9490  157.2764 LP  0  0  0  0  0  0  0  0  0  0  0  0  # atno 17394 bound_to 11000
  139.9472  135.0182  156.8888 LP  0  0  0  0  0  0  0  0  0  0  0  0  # atno 17395 bound_to 11000

$$$$
