AV-unprocessed.smi:844|AV-procd|sdf|3924|dock5
  -GOLD-   22720 1383D 1   1.00000     0.00000
 Structure written by MMmdl.
 32 34  0  0  0  0  0  0  0  0  1 V2000
  153.1981  139.8378  158.2417 O   0  0  0  0  0  0  0  0  0  0  0  0
  152.4907  141.0389  158.4752 C   0  0  1  0  0  0  0  0  0  0  0  0
  150.9858  140.7493  158.3067 C   0  0  0  0  0  0  0  0  0  0  0  0
  150.5971  140.6555  156.9108 N   0  0  0  0  0  0  0  0  0  0  0  0
  151.3109  140.1121  155.9062 C   0  0  0  0  0  0  0  0  0  0  0  0
  150.7731  140.1421  154.6901 N   0  0  0  0  0  0  0  0  0  0  0  0
  149.5689  140.7802  154.9332 C   0  0  0  0  0  0  0  0  0  0  0  0
  148.5224  141.1314  154.0507 C   0  0  0  0  0  0  0  0  0  0  0  0
  147.3732  141.7926  154.5322 C   0  0  0  0  0  0  0  0  0  0  0  0
  147.2516  142.1110  155.9004 C   0  0  0  0  0  0  0  0  0  0  0  0
  148.2802  141.7695  156.7990 C   0  0  0  0  0  0  0  0  0  0  0  0
  149.4262  141.1116  156.3145 C   0  0  0  0  0  0  0  0  0  0  0  0
  152.8157  141.6458  159.8362 C   0  0  0  0  0  0  0  0  0  0  0  0
  153.6490  140.9540  160.7438 C   0  0  0  0  0  0  0  0  0  0  0  0
  153.9305  141.4996  162.0109 C   0  0  0  0  0  0  0  0  0  0  0  0
  153.3800  142.7407  162.3811 C   0  0  0  0  0  0  0  0  0  0  0  0
  153.6494  143.2647  163.6003 F   0  0  0  0  0  0  0  0  0  0  0  0
  152.5474  143.4355  161.4835 C   0  0  0  0  0  0  0  0  0  0  0  0
  152.2639  142.8914  160.2156 C   0  0  0  0  0  0  0  0  0  0  0  0
  151.4492  143.5678  159.3702 F   0  0  0  0  0  0  0  0  0  0  0  0
  153.3559  139.4170  159.0730 H   0  0  0  0  0  0  0  0  0  0  0  0
  152.8064  141.7297  157.6925 H   0  0  0  0  0  0  0  0  0  0  0  0
  150.7295  139.8041  158.7879 H   0  0  0  0  0  0  0  0  0  0  0  0
  150.3832  141.5182  158.7921 H   0  0  0  0  0  0  0  0  0  0  0  0
  152.2834  139.6736  156.0768 H   0  0  0  0  0  0  0  0  0  0  0  0
  148.6051  140.8931  153.0005 H   0  0  0  0  0  0  0  0  0  0  0  0
  146.5808  142.0575  153.8476 H   0  0  0  0  0  0  0  0  0  0  0  0
  146.3682  142.6182  156.2596 H   0  0  0  0  0  0  0  0  0  0  0  0
  148.1917  142.0148  157.8468 H   0  0  0  0  0  0  0  0  0  0  0  0
  154.0697  139.9961  160.4746 H   0  0  0  0  0  0  0  0  0  0  0  0
  154.5668  140.9640  162.6999 H   0  0  0  0  0  0  0  0  0  0  0  0
  152.1222  144.3861  161.7691 H   0  0  0  0  0  0  0  0  0  0  0  0
  1  2  1  0  0  0  0
  1 21  1  0  0  0  0
  2  3  1  0  0  0  0
  2 13  1  0  0  0  0
  2 22  1  0  0  0  0
  3  4  1  0  0  0  0
  3 23  1  0  0  0  0
  3 24  1  0  0  0  0
  4 12  1  0  0  0  0
  4  5  1  0  0  0  0
  5  6  2  0  0  0  0
  5 25  1  0  0  0  0
  6  7  1  0  0  0  0
  7 12  2  0  0  0  0
  7  8  1  0  0  0  0
  8  9  2  0  0  0  0
  8 26  1  0  0  0  0
  9 10  1  0  0  0  0
  9 27  1  0  0  0  0
 10 11  2  0  0  0  0
 10 28  1  0  0  0  0
 11 12  1  0  0  0  0
 11 29  1  0  0  0  0
 13 19  1  0  0  0  0
 13 14  2  0  0  0  0
 14 15  1  0  0  0  0
 14 30  1  0  0  0  0
 15 16  2  0  0  0  0
 15 31  1  0  0  0  0
 16 17  1  0  0  0  0
 16 18  1  0  0  0  0
 18 19  2  0  0  0  0
 18 32  1  0  0  0  0
 19 20  1  0  0  0  0
M  END
> <s_m_source_file>
AV-unprocessed.smi

> <i_m_source_file_index>
844

> <i_lp_mmshare_version>
43012

> <i_f3d_flags>
0

> <s_epik_input>
RmMxW2NIXWMoRilbY0hdW2NIXWMxW0NASF0oW09IXSlbQ0gyXW4oW2NIXW4yKWMoYzIzKVtjSF1bY0hdW2NIXVtjSF0z

> <s_epik_cmdline>
J2VwaWtfcHl0aG9uJywgJy1waCcsICc3LjAnLCAnLXRuJywgJzgnLCAnLW1hJywgJzIwMCcsICctbWV0YWxfYmluZGluZycsICctaW1hZScsICc8aW5maWxlLm1hZT4nLCAnLW9tYWUnLCAnPG91dGZpbGUubWFlPic=

> <r_epik_Ionization_Penalty>
0.0696514

> <r_epik_Ionization_Penalty_Charging>
0

> <r_epik_Ionization_Penalty_Neutral>
0.0696514

> <r_epik_State_Penalty>
0.0610247

> <r_epik_Charging_Adjusted_Penalty>
0.0610247

> <i_epik_Tot_Q>
0

> <i_epik_Tot_abs_Q>
0

> <r_epik_Metal_State_Penalty>
6.42746e-05

> <b_epik_Metal_Only>
0

> <s_lp_Force_Field>
OPLS_2005

> <r_lp_Energy>
12.0275

> <b_lp_Chiralities_Consistent>
1

> <s_lp_Variant>
AV-unprocessed.smi:844-2

> <Gold.Version>
5.8.1

> <Gold.Id.Protein>
6NUR|6NUR_protein|mol2

> <Gold.PLP.Fitness>
55.6443

> <Gold.PLP.PLP>
-50.6667

> <Gold.PLP.part.hbond>
-2.0000

> <Gold.PLP.part.metal>
0.0000

> <Gold.PLP.part.buried>
-3.2944

> <Gold.PLP.part.nonpolar>
-43.2420

> <Gold.PLP.part.repulsive>
0.0786

> <Gold.PLP.ligand.clash>
0.0000

> <Gold.PLP.ligand.torsion>
0.5203

> <Gold.PLP.Chemscore.Hbond>
2.0000

> <Gold.PLP.Chemscore.CHOScore>
0.0000

> <Gold.PLP.Chemscore.Metal>
0.0000

> <Gold.Chemscore.Hbonds>
donor molecule, donor type, donor heavy atom, donor atom, acceptor molecule, acceptor atom, score
      P1  H  7989  7998       L1     6  1.00
      P1  H  7997  8008       L1     1  0.99

> <Gold.PLP.Chemscore.Internal.Correction>
0.0181

> <Gold.Rescore>
     Score         DG    S(hbond)    S(metal)    S(lipo)     H(rot)  DE(clash)    DE(int)     intcor
     17.58     -18.41       1.61        0.00     108.25       2.00       0.08       0.75       ----

> <Gold.Chemscore.Fitness>
17.5800

> <Gold.Chemscore.DG>
-18.4084

> <Gold.Chemscore.ZeroCoef>
-5.4800

> <Gold.Chemscore.Hbond>
1.6147

> <Gold.Chemscore.Metal>
0.0000

> <Gold.Chemscore.Lipo>
108.2541

> <Gold.Chemscore.Internal_Hbond>
0.0000

> <Gold.Chemscore.DEClash>
0.0833

> <Gold.Chemscore.DEInternal>
0.7451

> <Gold.Chemscore.Rot>
2.0040

> <Gold.Chemscore.Internal.Correction>
   9.000000E+99

> <Gold.Chemscore.Hbonds>
donor molecule, donor type, donor heavy atom, donor atom, acceptor molecule, acceptor atom, score
      P1  H  7989  7998       L1     6  0.78
      P1  H  7997  8008       L1     1  0.73

> <Gold.Chemscore.Hbond.Weighted>
-5.3930

> <Gold.Chemscore.Metal.Weighted>
-0.0000

> <Gold.Chemscore.Lipo.Weighted>
-12.6657

> <Gold.Chemscore.Internal_Hbond.Weighted>
0.0000

> <Gold.Chemscore.DEClash.Weighted>
0.0833

> <Gold.Chemscore.DEInternal.Weighted>
0.7451

> <Gold.Chemscore.Rot.Weighted>
5.1303

> <Gold.Chemscore.Internal.Correction.Weighted>
   9.000000E+99

> <Gold.Protein.RotatedTorsions>
[ 6907 6896 6895 6894 ] final   35.94 input  -60.11 | X-H torsion
[ 7974 7965 7964 7962 ] final   10.26 input  175.53 | X-H torsion
[ 8008 7997 7996 7995 ] final -100.51 input   59.86 | X-H torsion
[ 10167 10162 10161 10158 ] final  119.55 input  -65.29 | X-H torsion
[ 10718 10713 10712 10709 ] final  -56.40 input   66.30 | X-H torsion
[ 10763 10752 10751 10750 ] final -142.31 input  -60.55 | X-H torsion
[ 11005 11000 10999 10996 ] final -161.46 input  -57.11 | X-H torsion

> <Gold.Protein.ActiveResidues>
 VAL166  LYS551  ARG553  GLY616  TRP617  ASP618  TYR619  PRO620  LYS621  CYS622 
 ASP623  PHE694  ASN695  SER759  ASP760  ASP761  ALA762  ILE779  LEU786  VAL792 
 PHE793  MET794  SER795  GLU796  ALA797  LYS798  CYS799  TRP800  GLU811  SER814 

> <Gold.Protein.RotatedAtoms>
  152.1229  134.9192  160.0562 H   0  0  0  0  0  0  0  0  0  0  0  0  # atno 6907 bound_to 6896
  152.0326  133.3939  159.4312 H   0  0  0  0  0  0  0  0  0  0  0  0  # atno 6908 bound_to 6896
  150.6850  134.3425  159.4918 H   0  0  0  0  0  0  0  0  0  0  0  0  # atno 6909 bound_to 6896
  146.2391  139.9661  142.8452 H   0  0  0  0  0  0  0  0  0  0  0  0  # atno 7974 bound_to 7965
  154.8296  140.0440  157.1467 H   0  0  0  0  0  0  0  0  0  0  0  0  # atno 8008 bound_to 7997
  154.9167  140.3021  155.5217 H   0  0  0  0  0  0  0  0  0  0  0  0  # atno 8009 bound_to 7997
  156.2986  140.2348  156.4213 H   0  0  0  0  0  0  0  0  0  0  0  0  # atno 8010 bound_to 7997
  139.6039  144.7064  151.2998 H   0  0  0  0  0  0  0  0  0  0  0  0  # atno 10167 bound_to 10162
  156.1292  130.4160  150.0300 H   0  0  0  0  0  0  0  0  0  0  0  0  # atno 10718 bound_to 10713
  154.8513  135.3499  154.6008 H   0  0  0  0  0  0  0  0  0  0  0  0  # atno 10763 bound_to 10752
  153.6617  135.6989  153.5180 H   0  0  0  0  0  0  0  0  0  0  0  0  # atno 10764 bound_to 10752
  153.2813  135.4263  155.1038 H   0  0  0  0  0  0  0  0  0  0  0  0  # atno 10765 bound_to 10752
  140.6202  134.4759  157.5223 H   0  0  0  0  0  0  0  0  0  0  0  0  # atno 11005 bound_to 11000
  145.1725  140.9728  143.4313 LP  0  0  0  0  0  0  0  0  0  0  0  0  # atno 17320 bound_to 7965
  145.0015  139.3594  143.6165 LP  0  0  0  0  0  0  0  0  0  0  0  0  # atno 17321 bound_to 7965
  140.7270  143.6974  150.7872 LP  0  0  0  0  0  0  0  0  0  0  0  0  # atno 17342 bound_to 10162
  140.0556  143.5206  152.2653 LP  0  0  0  0  0  0  0  0  0  0  0  0  # atno 17343 bound_to 10162
  156.8217  130.9361  151.3641 LP  0  0  0  0  0  0  0  0  0  0  0  0  # atno 17370 bound_to 10713
  157.6471  130.8853  149.9560 LP  0  0  0  0  0  0  0  0  0  0  0  0  # atno 17371 bound_to 10713
  139.9156  134.8252  156.1376 LP  0  0  0  0  0  0  0  0  0  0  0  0  # atno 17394 bound_to 11000
  141.0748  133.6780  156.2213 LP  0  0  0  0  0  0  0  0  0  0  0  0  # atno 17395 bound_to 11000

$$$$
