AV-unprocessed.smi:1570|AV-procd|sdf|6318|dock9
  -GOLD-   22720 6523D 1   1.00000     0.00000
 Structure written by MMmdl.
 52 54  0  0  0  0  0  0  0  0  2 V2000
  155.5608  140.1259  160.6610 C   0  0  0  0  0  0  0  0  0  0  0  0
  154.2581  140.6962  161.2367 C   0  0  0  0  0  0  0  0  0  0  0  0
  153.3650  141.1493  160.1735 N   0  0  0  0  0  0  0  0  0  0  0  0
  153.0334  140.4656  159.0533 C   0  0  0  0  0  0  0  0  0  0  0  0
  153.4233  139.3378  158.7518 O   0  0  0  0  0  0  0  0  0  0  0  0
  152.2287  141.2538  158.3014 N   0  0  0  0  0  0  0  0  0  0  0  0
  151.6760  140.9369  156.9848 C   0  0  0  0  0  0  0  0  0  0  0  0
  150.1367  140.8428  157.0122 C   0  0  2  0  0  0  0  0  0  0  0  0
  149.7877  139.5461  157.4522 O   0  0  0  0  0  0  0  0  0  0  0  0
  149.4884  141.0848  155.6318 C   0  0  0  0  0  0  0  0  0  0  0  0
  148.3979  142.0901  155.6816 N   0  3  1  0  0  0  0  0  0  0  0  0
  147.6680  142.2314  154.3974 C   0  0  0  0  0  0  0  0  0  0  0  0
  146.5822  143.3178  154.5087 C   0  0  1  0  0  0  0  0  0  0  0  0
  145.7508  143.4333  153.2263 C   0  0  0  0  0  0  0  0  0  0  0  0
  145.7034  142.9893  155.5792 O   0  0  0  0  0  0  0  0  0  0  0  0
  146.3676  142.9357  156.8371 C   0  0  1  0  0  0  0  0  0  0  0  0
  145.3172  142.6681  157.9207 C   0  0  0  0  0  0  0  0  0  0  0  0
  147.4464  141.8373  156.7890 C   0  0  0  0  0  0  0  0  0  0  0  0
  152.0500  142.4813  158.9554 C   0  0  0  0  0  0  0  0  0  0  0  0
  151.3231  143.6272  158.5882 C   0  0  0  0  0  0  0  0  0  0  0  0
  151.3548  144.7258  159.4787 C   0  0  0  0  0  0  0  0  0  0  0  0
  152.0952  144.6606  160.6876 C   0  0  0  0  0  0  0  0  0  0  0  0
  152.8183  143.4946  161.0325 C   0  0  0  0  0  0  0  0  0  0  0  0
  152.7671  142.4167  160.1315 C   0  0  0  0  0  0  0  0  0  0  0  0
  156.2223  139.7896  161.4595 H   0  0  0  0  0  0  0  0  0  0  0  0
  156.0971  140.8763  160.0794 H   0  0  0  0  0  0  0  0  0  0  0  0
  155.3653  139.2730  160.0102 H   0  0  0  0  0  0  0  0  0  0  0  0
  153.7588  139.9398  161.8441 H   0  0  0  0  0  0  0  0  0  0  0  0
  154.4779  141.5261  161.9089 H   0  0  0  0  0  0  0  0  0  0  0  0
  151.9989  141.6744  156.2477 H   0  0  0  0  0  0  0  0  0  0  0  0
  152.1030  139.9865  156.6616 H   0  0  0  0  0  0  0  0  0  0  0  0
  149.7567  141.5507  157.7477 H   0  0  0  0  0  0  0  0  0  0  0  0
  149.2763  139.6225  158.2437 H   0  0  0  0  0  0  0  0  0  0  0  0
  150.2266  141.4173  154.9023 H   0  0  0  0  0  0  0  0  0  0  0  0
  149.1034  140.1343  155.2582 H   0  0  0  0  0  0  0  0  0  0  0  0
  148.3572  142.4898  153.5941 H   0  0  0  0  0  0  0  0  0  0  0  0
  147.2138  141.2754  154.1308 H   0  0  0  0  0  0  0  0  0  0  0  0
  147.0470  144.2848  154.7090 H   0  0  0  0  0  0  0  0  0  0  0  0
  146.3776  143.6977  152.3743 H   0  0  0  0  0  0  0  0  0  0  0  0
  144.9851  144.2030  153.3260 H   0  0  0  0  0  0  0  0  0  0  0  0
  145.2494  142.4932  152.9942 H   0  0  0  0  0  0  0  0  0  0  0  0
  146.8350  143.9016  157.0383 H   0  0  0  0  0  0  0  0  0  0  0  0
  145.7743  142.6251  158.9094 H   0  0  0  0  0  0  0  0  0  0  0  0
  144.8030  141.7222  157.7478 H   0  0  0  0  0  0  0  0  0  0  0  0
  144.5649  143.4571  157.9369 H   0  0  0  0  0  0  0  0  0  0  0  0
  146.9847  140.8576  156.6546 H   0  0  0  0  0  0  0  0  0  0  0  0
  147.9855  141.8112  157.7370 H   0  0  0  0  0  0  0  0  0  0  0  0
  150.7633  143.6720  157.6657 H   0  0  0  0  0  0  0  0  0  0  0  0
  150.8098  145.6258  159.2348 H   0  0  0  0  0  0  0  0  0  0  0  0
  152.1077  145.5118  161.3523 H   0  0  0  0  0  0  0  0  0  0  0  0
  153.3855  143.4406  161.9498 H   0  0  0  0  0  0  0  0  0  0  0  0
  148.8357  142.9787  155.8804 H   0  0  0  0  0  0  0  0  0  0  0  0
  1  2  1  0  0  0  0
  1 25  1  0  0  0  0
  1 26  1  0  0  0  0
  1 27  1  0  0  0  0
  2  3  1  0  0  0  0
  2 28  1  0  0  0  0
  2 29  1  0  0  0  0
  3 24  1  0  0  0  0
  3  4  1  0  0  0  0
  4  5  2  0  0  0  0
  4  6  1  0  0  0  0
  6  7  1  0  0  0  0
  6 19  1  0  0  0  0
  7  8  1  0  0  0  0
  7 30  1  0  0  0  0
  7 31  1  0  0  0  0
  8  9  1  0  0  0  0
  8 10  1  0  0  0  0
  8 32  1  0  0  0  0
  9 33  1  0  0  0  0
 10 11  1  0  0  0  0
 10 34  1  0  0  0  0
 10 35  1  0  0  0  0
 11 18  1  0  0  0  0
 11 12  1  0  0  0  0
 11 52  1  0  0  0  0
 12 13  1  0  0  0  0
 12 36  1  0  0  0  0
 12 37  1  0  0  0  0
 13 14  1  0  0  0  0
 13 15  1  0  0  0  0
 13 38  1  0  0  0  0
 14 39  1  0  0  0  0
 14 40  1  0  0  0  0
 14 41  1  0  0  0  0
 15 16  1  0  0  0  0
 16 17  1  0  0  0  0
 16 18  1  0  0  0  0
 16 42  1  0  0  0  0
 17 43  1  0  0  0  0
 17 44  1  0  0  0  0
 17 45  1  0  0  0  0
 18 46  1  0  0  0  0
 18 47  1  0  0  0  0
 19 24  2  0  0  0  0
 19 20  1  0  0  0  0
 20 21  2  0  0  0  0
 20 48  1  0  0  0  0
 21 22  1  0  0  0  0
 21 49  1  0  0  0  0
 22 23  2  0  0  0  0
 22 50  1  0  0  0  0
 23 24  1  0  0  0  0
 23 51  1  0  0  0  0
M  CHG  1  11   1
M  END
> <s_m_source_file>
AV-unprocessed.smi

> <i_m_source_file_index>
1570

> <i_lp_mmshare_version>
43012

> <i_f3d_flags>
0

> <s_epik_input>
W2NIXTFbY0hdW2NIXVtjSF1jKGMxMiluKFtDSDJdW0NIM10pYyg9TyluMltDSDJdW0NASF0oW09IXSlbQ0gyXU4zW0NIMl1bQ0BASF0oW0NIM10pT1tDQEBIXShbQ0gzXSlbQ0gyXTM=

> <s_epik_cmdline>
J2VwaWtfcHl0aG9uJywgJy1waCcsICc3LjAnLCAnLXRuJywgJzgnLCAnLW1hJywgJzIwMCcsICctbWV0YWxfYmluZGluZycsICctaW1hZScsICc8aW5maWxlLm1hZT4nLCAnLW9tYWUnLCAnPG91dGZpbGUubWFlPic=

> <r_epik_Ionization_Penalty>
0.706332

> <r_epik_Ionization_Penalty_Charging>
0.706318

> <r_epik_Ionization_Penalty_Neutral>
1.42224e-05

> <r_epik_State_Penalty>
0.729493

> <r_epik_Charging_Adjusted_Penalty>
1.43581

> <i_epik_Tot_Q>
1

> <i_epik_Tot_abs_Q>
1

> <r_epik_Metal_State_Penalty>
0.729493

> <b_epik_Metal_Only>
0

> <s_lp_Force_Field>
OPLS_2005

> <r_lp_Energy>
50.1879

> <b_lp_Chiralities_Consistent>
1

> <s_lp_Variant>
AV-unprocessed.smi:1570-7

> <Gold.Version>
5.8.1

> <Gold.Id.Protein>
6NUR|6NUR_protein|mol2

> <Gold.PLP.Fitness>
51.9785

> <Gold.PLP.PLP>
-45.1574

> <Gold.PLP.part.hbond>
-2.0000

> <Gold.PLP.part.metal>
0.0000

> <Gold.PLP.part.buried>
-4.4779

> <Gold.PLP.part.nonpolar>
-38.5375

> <Gold.PLP.part.repulsive>
0.2374

> <Gold.PLP.ligand.clash>
0.0000

> <Gold.PLP.ligand.torsion>
1.1393

> <Gold.PLP.Chemscore.Hbond>
3.0000

> <Gold.PLP.Chemscore.CHOScore>
0.0000

> <Gold.PLP.Chemscore.Metal>
0.0000

> <Gold.Chemscore.Hbonds>
donor molecule, donor type, donor heavy atom, donor atom, acceptor molecule, acceptor atom, score
      L1  H    11    52       P1  8028  1.95
      P1  H  7997  8009       L1     5  0.44

> <Gold.PLP.Chemscore.Internal.Correction>
0.0997

> <Gold.Rescore>
     Score         DG    S(hbond)    S(metal)    S(lipo)     H(rot)  DE(clash)    DE(int)     intcor
     17.49     -18.85       1.10        0.00     129.60       2.13       0.27       1.09       ----

> <Gold.Chemscore.Fitness>
17.4895

> <Gold.Chemscore.DG>
-18.8510

> <Gold.Chemscore.ZeroCoef>
-5.4800

> <Gold.Chemscore.Hbond>
1.0962

> <Gold.Chemscore.Metal>
0.0000

> <Gold.Chemscore.Lipo>
129.6008

> <Gold.Chemscore.Internal_Hbond>
0.0000

> <Gold.Chemscore.DEClash>
0.2736

> <Gold.Chemscore.DEInternal>
1.0879

> <Gold.Chemscore.Rot>
2.1303

> <Gold.Chemscore.Internal.Correction>
   9.000000E+99

> <Gold.Chemscore.Hbonds>
donor molecule, donor type, donor heavy atom, donor atom, acceptor molecule, acceptor atom, score
      L1  H    11    52       P1  8028  0.93
      P1  H  7997  8009       L1     5  0.05

> <Gold.Chemscore.Hbond.Weighted>
-3.6612

> <Gold.Chemscore.Metal.Weighted>
-0.0000

> <Gold.Chemscore.Lipo.Weighted>
-15.1633

> <Gold.Chemscore.Internal_Hbond.Weighted>
0.0000

> <Gold.Chemscore.DEClash.Weighted>
0.2736

> <Gold.Chemscore.DEInternal.Weighted>
1.0879

> <Gold.Chemscore.Rot.Weighted>
5.4535

> <Gold.Chemscore.Internal.Correction.Weighted>
   9.000000E+99

> <Gold.Protein.RotatedTorsions>
[ 6907 6896 6895 6894 ] final -128.99 input  -60.11 | X-H torsion
[ 7974 7965 7964 7962 ] final   18.73 input  175.53 | X-H torsion
[ 8008 7997 7996 7995 ] final  148.42 input   59.86 | X-H torsion
[ 10167 10162 10161 10158 ] final -160.45 input  -65.29 | X-H torsion
[ 10718 10713 10712 10709 ] final  -65.89 input   66.30 | X-H torsion
[ 10763 10752 10751 10750 ] final  -85.83 input  -60.55 | X-H torsion
[ 11005 11000 10999 10996 ] final   99.52 input  -57.11 | X-H torsion

> <Gold.Protein.ActiveResidues>
 VAL166  LYS551  ARG553  GLY616  TRP617  ASP618  TYR619  PRO620  LYS621  CYS622 
 ASP623  PHE694  ASN695  SER759  ASP760  ASP761  ALA762  ILE779  LEU786  VAL792 
 PHE793  MET794  SER795  GLU796  ALA797  LYS798  CYS799  TRP800  GLU811  SER814 

> <Gold.Protein.RotatedAtoms>
  150.9239  133.6847  159.2825 H   0  0  0  0  0  0  0  0  0  0  0  0  # atno 6907 bound_to 6896
  151.4292  135.1006  159.9647 H   0  0  0  0  0  0  0  0  0  0  0  0  # atno 6908 bound_to 6896
  152.4993  133.8673  159.7335 H   0  0  0  0  0  0  0  0  0  0  0  0  # atno 6909 bound_to 6896
  146.2175  139.8415  142.8640 H   0  0  0  0  0  0  0  0  0  0  0  0  # atno 7974 bound_to 7965
  156.2791  140.2129  156.5696 H   0  0  0  0  0  0  0  0  0  0  0  0  # atno 8008 bound_to 7997
  154.7146  140.0509  157.0606 H   0  0  0  0  0  0  0  0  0  0  0  0  # atno 8009 bound_to 7997
  155.0559  140.3161  155.4679 H   0  0  0  0  0  0  0  0  0  0  0  0  # atno 8010 bound_to 7997
  139.6538  144.0035  152.2180 H   0  0  0  0  0  0  0  0  0  0  0  0  # atno 10167 bound_to 10162
  156.0644  130.4254  150.1629 H   0  0  0  0  0  0  0  0  0  0  0  0  # atno 10718 bound_to 10713
  154.6156  135.5471  153.7520 H   0  0  0  0  0  0  0  0  0  0  0  0  # atno 10763 bound_to 10752
  153.0214  135.6400  154.1515 H   0  0  0  0  0  0  0  0  0  0  0  0  # atno 10764 bound_to 10752
  154.1451  135.2906  155.3130 H   0  0  0  0  0  0  0  0  0  0  0  0  # atno 10765 bound_to 10752
  139.8771  134.9099  156.4619 H   0  0  0  0  0  0  0  0  0  0  0  0  # atno 11005 bound_to 11000
  145.2894  141.0162  143.3672 LP  0  0  0  0  0  0  0  0  0  0  0  0  # atno 17320 bound_to 7965
  144.9089  139.4553  143.6596 LP  0  0  0  0  0  0  0  0  0  0  0  0  # atno 17321 bound_to 7965
  139.9757  144.6463  150.7948 LP  0  0  0  0  0  0  0  0  0  0  0  0  # atno 17342 bound_to 10162
  140.7550  143.3037  151.3015 LP  0  0  0  0  0  0  0  0  0  0  0  0  # atno 17343 bound_to 10162
  156.9692  130.9829  151.3462 LP  0  0  0  0  0  0  0  0  0  0  0  0  # atno 17370 bound_to 10713
  157.5675  130.8287  149.8347 LP  0  0  0  0  0  0  0  0  0  0  0  0  # atno 17371 bound_to 10713
  140.8858  133.7884  155.9517 LP  0  0  0  0  0  0  0  0  0  0  0  0  # atno 17394 bound_to 11000
  140.8806  134.2616  157.5146 LP  0  0  0  0  0  0  0  0  0  0  0  0  # atno 17395 bound_to 11000

$$$$
