AV-unprocessed.smi:53|AV-procd|sdf|522|dock3
  -GOLD-   2262016393D 1   1.00000     0.00000
 Structure written by MMmdl.
 30 31  0  0  0  0  0  0  0  0  1 V2000
  154.8635  141.3613  160.0301 N   0  0  0  0  0  0  0  0  0  0  0  0
  153.8221  140.9538  159.2913 C   0  0  0  0  0  0  0  0  0  0  0  0
  152.6378  141.7754  159.1833 C   0  0  0  0  0  0  0  0  0  0  0  0
  151.6289  141.2966  158.4223 C   0  0  0  0  0  0  0  0  0  0  0  0
  151.7115  140.0730  157.7697 N   0  0  0  0  0  0  0  0  0  0  0  0
  150.5789  139.5344  156.9142 C   0  0  1  0  0  0  0  0  0  0  0  0
  149.4488  140.3455  157.0627 O   0  0  0  0  0  0  0  0  0  0  0  0
  149.2205  141.0967  155.8734 C   0  0  2  0  0  0  0  0  0  0  0  0
  147.7376  141.4869  155.7827 C   0  0  0  0  0  0  0  0  0  0  0  0
  147.4101  142.3867  156.8199 O   0  0  0  0  0  0  0  0  0  0  0  0
  149.6640  140.1093  154.7950 C   0  0  1  0  0  0  0  0  0  0  0  0
  149.8856  140.7198  153.5369 O   0  0  0  0  0  0  0  0  0  0  0  0
  150.9202  139.4954  155.4047 C   0  0  1  0  0  0  0  0  0  0  0  0
  152.0891  140.2276  155.0663 O   0  0  0  0  0  0  0  0  0  0  0  0
  152.8882  139.2954  157.8897 C   0  0  0  0  0  0  0  0  0  0  0  0
  153.0104  138.2159  157.3116 O   0  0  0  0  0  0  0  0  0  0  0  0
  153.8986  139.7949  158.6665 N   0  0  0  0  0  0  0  0  0  0  0  0
  150.3291  138.5558  157.3286 H   0  0  0  0  0  0  0  0  0  0  0  0
  149.8648  141.9778  155.8524 H   0  0  0  0  0  0  0  0  0  0  0  0
  148.9073  139.3314  154.6810 H   0  0  0  0  0  0  0  0  0  0  0  0
  151.0569  138.4614  155.0866 H   0  0  0  0  0  0  0  0  0  0  0  0
  155.6894  140.7851  160.1023 H   0  0  0  0  0  0  0  0  0  0  0  0
  154.8194  142.2468  160.5136 H   0  0  0  0  0  0  0  0  0  0  0  0
  152.5311  142.7319  159.6750 H   0  0  0  0  0  0  0  0  0  0  0  0
  150.7429  141.9067  158.3372 H   0  0  0  0  0  0  0  0  0  0  0  0
  147.5395  141.9928  154.8372 H   0  0  0  0  0  0  0  0  0  0  0  0
  147.0923  140.6090  155.8224 H   0  0  0  0  0  0  0  0  0  0  0  0
  148.0268  143.1026  156.8029 H   0  0  0  0  0  0  0  0  0  0  0  0
  149.7851  140.0640  152.8641 H   0  0  0  0  0  0  0  0  0  0  0  0
  152.7778  139.9795  155.6645 H   0  0  0  0  0  0  0  0  0  0  0  0
  1  2  1  0  0  0  0
  1 22  1  0  0  0  0
  1 23  1  0  0  0  0
  2 17  2  0  0  0  0
  2  3  1  0  0  0  0
  3  4  2  0  0  0  0
  3 24  1  0  0  0  0
  4  5  1  0  0  0  0
  4 25  1  0  0  0  0
  5  6  1  0  0  0  0
  5 15  1  0  0  0  0
  6 18  1  0  0  0  0
  6 13  1  0  0  0  0
  6  7  1  0  0  0  0
  7  8  1  0  0  0  0
  8 19  1  0  0  0  0
  8  9  1  0  0  0  0
  8 11  1  0  0  0  0
  9 10  1  0  0  0  0
  9 26  1  0  0  0  0
  9 27  1  0  0  0  0
 10 28  1  0  0  0  0
 11 20  1  0  0  0  0
 11 12  1  0  0  0  0
 11 13  1  0  0  0  0
 12 29  1  0  0  0  0
 13 21  1  0  0  0  0
 13 14  1  0  0  0  0
 14 30  1  0  0  0  0
 15 16  2  0  0  0  0
 15 17  1  0  0  0  0
M  END
> <s_m_source_file>
AV-unprocessed.smi

> <i_m_source_file_index>
53

> <i_lp_mmshare_version>
43012

> <i_f3d_flags>
0

> <s_epik_input>
W05IMl1jMVtjSF1bY0hdbihjKD1PKW4xKVtDQEBIXTJPW0NASF0oW0NIMl1bT0hdKVtDQEBIXShbT0hdKVtDQEBIXTJbT0hd

> <s_epik_cmdline>
J2VwaWtfcHl0aG9uJywgJy1waCcsICc3LjAnLCAnLXRuJywgJzgnLCAnLW1hJywgJzIwMCcsICctbWV0YWxfYmluZGluZycsICctaW1hZScsICc8aW5maWxlLm1hZT4nLCAnLW9tYWUnLCAnPG91dGZpbGUubWFlPic=

> <r_lp_tautomer_probability>
0.99996

> <r_epik_Ionization_Penalty>
0.00069087

> <r_epik_Ionization_Penalty_Charging>
2.61959e-08

> <r_epik_Ionization_Penalty_Neutral>
0.000690844

> <r_epik_State_Penalty>
1.15523e-05

> <r_epik_Charging_Adjusted_Penalty>
1.15785e-05

> <i_epik_Tot_Q>
0

> <i_epik_Tot_abs_Q>
0

> <r_epik_Metal_State_Penalty>
-0

> <b_epik_Metal_Only>
0

> <s_epik_Chemistry_Notes>
This compound contains an acetal/aminal-like group ( X-CH(R)-Y where X, Y are N, S, or O) that may be acid/base labile, releasing an aldehyde.

> <s_lp_Force_Field>
OPLS_2005

> <r_lp_Energy>
37.6612

> <b_lp_Chiralities_Consistent>
1

> <s_lp_Variant>
AV-unprocessed.smi:53-10

> <Gold.Version>
5.8.1

> <Gold.Id.Protein>
6NUR|6NUR_protein|mol2

> <Gold.PLP.Fitness>
36.6513

> <Gold.PLP.PLP>
-24.1077

> <Gold.PLP.part.hbond>
-5.3102

> <Gold.PLP.part.metal>
0.0000

> <Gold.PLP.part.buried>
-0.0395

> <Gold.PLP.part.nonpolar>
-14.9696

> <Gold.PLP.part.repulsive>
0.0970

> <Gold.PLP.ligand.clash>
0.0000

> <Gold.PLP.ligand.torsion>
0.1394

> <Gold.PLP.Chemscore.Hbond>
4.2480

> <Gold.PLP.Chemscore.CHOScore>
0.0000

> <Gold.PLP.Chemscore.Metal>
0.0000

> <Gold.Chemscore.Hbonds>
donor molecule, donor type, donor heavy atom, donor atom, acceptor molecule, acceptor atom, score
      L1  H    10    28       P1  8028  0.58
      L1  H    12    29       P1  7957  0.74
      P1  H  7989  7998       L1    14  0.72
      P1  H  7997  8008       L1    17  0.74
      P1  H  8011  8017       L1    12  0.80

> <Gold.PLP.Chemscore.Internal.Correction>
0.0786

> <Gold.Rescore>
     Score         DG    S(hbond)    S(metal)    S(lipo)     H(rot)  DE(clash)    DE(int)     intcor
      6.61      -7.05       1.90        0.00      40.21       3.71       0.22       0.22       ----

> <Gold.Chemscore.Fitness>
6.6104

> <Gold.Chemscore.DG>
-7.0500

> <Gold.Chemscore.ZeroCoef>
-5.4800

> <Gold.Chemscore.Hbond>
1.9046

> <Gold.Chemscore.Metal>
0.0000

> <Gold.Chemscore.Lipo>
40.2134

> <Gold.Chemscore.Internal_Hbond>
0.0000

> <Gold.Chemscore.DEClash>
0.2187

> <Gold.Chemscore.DEInternal>
0.2209

> <Gold.Chemscore.Rot>
3.7095

> <Gold.Chemscore.Internal.Correction>
   9.000000E+99

> <Gold.Chemscore.Hbonds>
donor molecule, donor type, donor heavy atom, donor atom, acceptor molecule, acceptor atom, score
      L1  H    10    28       P1  8028  0.10
      L1  H    12    29       P1  7957  0.74
      P1  H  7989  7998       L1    14  0.25
      P1  H  7997  8008       L1    17  0.05
      P1  H  8011  8017       L1    12  0.15

> <Gold.Chemscore.Hbond.Weighted>
-6.3614

> <Gold.Chemscore.Metal.Weighted>
-0.0000

> <Gold.Chemscore.Lipo.Weighted>
-4.7050

> <Gold.Chemscore.Internal_Hbond.Weighted>
0.0000

> <Gold.Chemscore.DEClash.Weighted>
0.2187

> <Gold.Chemscore.DEInternal.Weighted>
0.2209

> <Gold.Chemscore.Rot.Weighted>
9.4964

> <Gold.Chemscore.Internal.Correction.Weighted>
   9.000000E+99

> <Gold.Protein.RotatedTorsions>
[ 6907 6896 6895 6894 ] final  -36.12 input  -60.11 | X-H torsion
[ 7974 7965 7964 7962 ] final -169.84 input  175.53 | X-H torsion
[ 8008 7997 7996 7995 ] final -117.02 input   59.86 | X-H torsion
[ 10167 10162 10161 10158 ] final  163.78 input  -65.29 | X-H torsion
[ 10718 10713 10712 10709 ] final  -37.26 input   66.30 | X-H torsion
[ 10763 10752 10751 10750 ] final -163.62 input  -60.55 | X-H torsion
[ 11005 11000 10999 10996 ] final   95.87 input  -57.11 | X-H torsion

> <Gold.Protein.ActiveResidues>
 VAL166  LYS551  ARG553  GLY616  TRP617  ASP618  TYR619  PRO620  LYS621  CYS622 
 ASP623  PHE694  ASN695  SER759  ASP760  ASP761  ALA762  ILE779  LEU786  VAL792 
 PHE793  MET794  SER795  GLU796  ALA797  LYS798  CYS799  TRP800  GLU811  SER814 

> <Gold.Protein.RotatedAtoms>
  151.0312  134.9540  159.8111 H   0  0  0  0  0  0  0  0  0  0  0  0  # atno 6907 bound_to 6896
  152.5346  134.2778  159.9006 H   0  0  0  0  0  0  0  0  0  0  0  0  # atno 6908 bound_to 6896
  151.2788  133.4177  159.2659 H   0  0  0  0  0  0  0  0  0  0  0  0  # atno 6909 bound_to 6896
  144.7179  140.2160  143.6322 H   0  0  0  0  0  0  0  0  0  0  0  0  # atno 7974 bound_to 7965
  155.0771  140.0394  157.2627 H   0  0  0  0  0  0  0  0  0  0  0  0  # atno 8008 bound_to 7997
  154.6936  140.2658  155.6764 H   0  0  0  0  0  0  0  0  0  0  0  0  # atno 8009 bound_to 7997
  156.2737  140.2754  156.1522 H   0  0  0  0  0  0  0  0  0  0  0  0  # atno 8010 bound_to 7997
  139.4879  144.4302  151.9080 H   0  0  0  0  0  0  0  0  0  0  0  0  # atno 10167 bound_to 10162
  156.3172  130.4260  149.7994 H   0  0  0  0  0  0  0  0  0  0  0  0  # atno 10718 bound_to 10713
  154.7105  135.3005  154.9204 H   0  0  0  0  0  0  0  0  0  0  0  0  # atno 10763 bound_to 10752
  154.0108  135.6695  153.4769 H   0  0  0  0  0  0  0  0  0  0  0  0  # atno 10764 bound_to 10752
  153.0751  135.5039  154.8300 H   0  0  0  0  0  0  0  0  0  0  0  0  # atno 10765 bound_to 10752
  139.8785  134.8921  156.4074 H   0  0  0  0  0  0  0  0  0  0  0  0  # atno 11005 bound_to 11000
  145.8546  139.2192  143.1752 LP  0  0  0  0  0  0  0  0  0  0  0  0  # atno 17320 bound_to 7965
  146.0230  140.8330  142.9914 LP  0  0  0  0  0  0  0  0  0  0  0  0  # atno 17321 bound_to 7965
  140.3749  144.2809  150.5915 LP  0  0  0  0  0  0  0  0  0  0  0  0  # atno 17342 bound_to 10162
  140.5285  143.2248  151.8276 LP  0  0  0  0  0  0  0  0  0  0  0  0  # atno 17343 bound_to 10162
  156.5315  130.8260  151.3238 LP  0  0  0  0  0  0  0  0  0  0  0  0  # atno 17370 bound_to 10713
  157.7404  130.9850  150.2376 LP  0  0  0  0  0  0  0  0  0  0  0  0  # atno 17371 bound_to 10713
  140.9224  133.7636  155.9923 LP  0  0  0  0  0  0  0  0  0  0  0  0  # atno 17394 bound_to 11000
  140.8424  134.3051  157.5308 LP  0  0  0  0  0  0  0  0  0  0  0  0  # atno 17395 bound_to 11000

$$$$
