AV-unprocessed.smi:2938|AV-procd|sdf|11260|dock3
  -GOLD-   2272016153D 1   1.00000     0.00000
 Structure written by MMmdl.
 26 27  0  0  0  0  0  0  0  0  2 V2000
  153.9699  138.3546  157.3825 N   0  0  0  0  0  0  0  0  0  0  0  0
  153.0555  138.6972  156.7610 C   0  0  0  0  0  0  0  0  0  0  0  0
  151.9012  139.1316  155.9769 C   0  0  0  0  0  0  0  0  0  0  0  0
  151.3650  138.3382  154.9309 C   0  0  0  0  0  0  0  0  0  0  0  0
  151.8787  137.1208  154.5777 O   0  5  0  0  0  0  0  0  0  0  0  0
  150.2987  138.7375  154.2053 N   0  0  0  0  0  0  0  0  0  0  0  0
  149.7680  139.9183  154.5175 C   0  0  0  0  0  0  0  0  0  0  0  0
  148.6848  140.3167  153.7748 N   0  0  0  0  0  0  0  0  0  0  0  0
  150.1778  140.7523  155.4734 N   0  0  0  0  0  0  0  0  0  0  0  0
  151.2479  140.3705  156.2142 C   0  0  0  0  0  0  0  0  0  0  0  0
  151.6863  141.2478  157.2221 N   0  0  0  0  0  0  0  0  0  0  0  0
  151.0737  142.5683  157.1531 C   0  0  0  0  0  0  0  0  0  0  0  0
  151.7129  143.4979  158.1991 C   0  0  0  0  0  0  0  0  0  0  0  0
  151.5996  142.9119  159.4933 O   0  0  0  0  0  0  0  0  0  0  0  0
  152.2654  141.6541  159.5708 C   0  0  0  0  0  0  0  0  0  0  0  0
  151.6394  140.6758  158.5616 C   0  0  0  0  0  0  0  0  0  0  0  0
  148.3267  139.7297  153.0362 H   0  0  0  0  0  0  0  0  0  0  0  0
  148.2385  141.2017  153.9650 H   0  0  0  0  0  0  0  0  0  0  0  0
  151.2027  142.9837  156.1529 H   0  0  0  0  0  0  0  0  0  0  0  0
  150.0010  142.4877  157.3349 H   0  0  0  0  0  0  0  0  0  0  0  0
  152.7622  143.6846  157.9640 H   0  0  0  0  0  0  0  0  0  0  0  0
  151.2098  144.4649  158.2010 H   0  0  0  0  0  0  0  0  0  0  0  0
  153.3316  141.7830  159.3775 H   0  0  0  0  0  0  0  0  0  0  0  0
  152.1700  141.2626  160.5836 H   0  0  0  0  0  0  0  0  0  0  0  0
  150.6051  140.4684  158.8395 H   0  0  0  0  0  0  0  0  0  0  0  0
  152.1761  139.7264  158.5766 H   0  0  0  0  0  0  0  0  0  0  0  0
  1  2  3  0  0  0  0
  2  3  1  0  0  0  0
  3 10  1  0  0  0  0
  3  4  2  0  0  0  0
  4  5  1  0  0  0  0
  4  6  1  0  0  0  0
  6  7  2  0  0  0  0
  7  8  1  0  0  0  0
  7  9  1  0  0  0  0
  8 17  1  0  0  0  0
  8 18  1  0  0  0  0
  9 10  2  0  0  0  0
 10 11  1  0  0  0  0
 11 16  1  0  0  0  0
 11 12  1  0  0  0  0
 12 13  1  0  0  0  0
 12 19  1  0  0  0  0
 12 20  1  0  0  0  0
 13 14  1  0  0  0  0
 13 21  1  0  0  0  0
 13 22  1  0  0  0  0
 14 15  1  0  0  0  0
 15 16  1  0  0  0  0
 15 23  1  0  0  0  0
 15 24  1  0  0  0  0
 16 25  1  0  0  0  0
 16 26  1  0  0  0  0
M  CHG  1   5  -1
M  END
> <s_m_source_file>
AV-unprocessed.smi

> <i_m_source_file_index>
2938

> <i_lp_mmshare_version>
43012

> <i_f3d_flags>
0

> <s_epik_input>
TiNDYzFjKFtPSF0pbmMoW05IMl0pbmMxTjJbQ0gyXVtDSDJdT1tDSDJdW0NIMl0y

> <s_epik_cmdline>
J2VwaWtfcHl0aG9uJywgJy1waCcsICc3LjAnLCAnLXRuJywgJzgnLCAnLW1hJywgJzIwMCcsICctbWV0YWxfYmluZGluZycsICctaW1hZScsICc8aW5maWxlLm1hZT4nLCAnLW9tYWUnLCAnPG91dGZpbGUubWFlPic=

> <r_lp_tautomer_probability>
1

> <r_epik_Ionization_Penalty>
0.00503702

> <r_epik_Ionization_Penalty_Charging>
2.31924e-12

> <r_epik_Ionization_Penalty_Neutral>
0.00503702

> <r_epik_State_Penalty>
-0

> <r_epik_Charging_Adjusted_Penalty>
2.31924e-12

> <i_epik_Tot_Q>
-1

> <i_epik_Tot_abs_Q>
1

> <r_epik_Metal_State_Penalty>
-0

> <b_epik_Metal_Only>
0

> <s_lp_Force_Field>
OPLS_2005

> <r_lp_Energy>
14.7587

> <b_lp_Chiralities_Consistent>
1

> <s_lp_Variant>
AV-unprocessed.smi:2938-1

> <Gold.Version>
5.8.1

> <Gold.Id.Protein>
6NUR|6NUR_protein|mol2

> <Gold.PLP.Fitness>
33.8363

> <Gold.PLP.PLP>
-26.1341

> <Gold.PLP.part.hbond>
-3.1715

> <Gold.PLP.part.metal>
0.0000

> <Gold.PLP.part.buried>
-2.8535

> <Gold.PLP.part.nonpolar>
-20.6792

> <Gold.PLP.part.repulsive>
0.6374

> <Gold.PLP.ligand.clash>
0.0000

> <Gold.PLP.ligand.torsion>
0.1139

> <Gold.PLP.Chemscore.Hbond>
2.6045

> <Gold.PLP.Chemscore.CHOScore>
0.0000

> <Gold.PLP.Chemscore.Metal>
0.0000

> <Gold.Chemscore.Hbonds>
donor molecule, donor type, donor heavy atom, donor atom, acceptor molecule, acceptor atom, score
      L1  H     8    17       P1  7957  0.07
      P1  H  7997  8009       L1     1  0.44
      P1  H 10752 10765       L1     5  1.70

> <Gold.PLP.Chemscore.Internal.Correction>
0.1165

> <Gold.Rescore>
     Score         DG    S(hbond)    S(metal)    S(lipo)     H(rot)  DE(clash)    DE(int)     intcor
     10.72     -11.73       1.34        0.00      37.05       1.00       0.76       0.26       ----

> <Gold.Chemscore.Fitness>
10.7169

> <Gold.Chemscore.DG>
-11.7292

> <Gold.Chemscore.ZeroCoef>
-5.4800

> <Gold.Chemscore.Hbond>
1.3397

> <Gold.Chemscore.Metal>
0.0000

> <Gold.Chemscore.Lipo>
37.0467

> <Gold.Chemscore.Internal_Hbond>
0.0000

> <Gold.Chemscore.DEClash>
0.7552

> <Gold.Chemscore.DEInternal>
0.2571

> <Gold.Chemscore.Rot>
1.0000

> <Gold.Chemscore.Internal.Correction>
   9.000000E+99

> <Gold.Chemscore.Hbonds>
donor molecule, donor type, donor heavy atom, donor atom, acceptor molecule, acceptor atom, score
      L1  H     8    17       P1  7957  0.07
      P1  H  7997  8009       L1     1  0.03
      P1  H 10752 10765       L1     5  0.83

> <Gold.Chemscore.Hbond.Weighted>
-4.4748

> <Gold.Chemscore.Metal.Weighted>
-0.0000

> <Gold.Chemscore.Lipo.Weighted>
-4.3345

> <Gold.Chemscore.Internal_Hbond.Weighted>
0.0000

> <Gold.Chemscore.DEClash.Weighted>
0.7552

> <Gold.Chemscore.DEInternal.Weighted>
0.2571

> <Gold.Chemscore.Rot.Weighted>
2.5600

> <Gold.Chemscore.Internal.Correction.Weighted>
   9.000000E+99

> <Gold.Protein.RotatedTorsions>
[ 6907 6896 6895 6894 ] final  -68.02 input  -60.11 | X-H torsion
[ 7974 7965 7964 7962 ] final -150.36 input  175.53 | X-H torsion
[ 8008 7997 7996 7995 ] final  139.35 input   59.86 | X-H torsion
[ 10167 10162 10161 10158 ] final  163.87 input  -65.29 | X-H torsion
[ 10718 10713 10712 10709 ] final  -52.57 input   66.30 | X-H torsion
[ 10763 10752 10751 10750 ] final  147.17 input  -60.55 | X-H torsion
[ 11005 11000 10999 10996 ] final   98.14 input  -57.11 | X-H torsion

> <Gold.Protein.ActiveResidues>
 VAL166  LYS551  ARG553  GLY616  TRP617  ASP618  TYR619  PRO620  LYS621  CYS622 
 ASP623  PHE694  ASN695  SER759  ASP760  ASP761  ALA762  ILE779  LEU786  VAL792 
 PHE793  MET794  SER795  GLU796  ALA797  LYS798  CYS799  TRP800  GLU811  SER814 

> <Gold.Protein.RotatedAtoms>
  150.7378  134.5799  159.5932 H   0  0  0  0  0  0  0  0  0  0  0  0  # atno 6907 bound_to 6896
  152.3215  134.7371  160.0321 H   0  0  0  0  0  0  0  0  0  0  0  0  # atno 6908 bound_to 6896
  151.7885  133.3321  159.3528 H   0  0  0  0  0  0  0  0  0  0  0  0  # atno 6909 bound_to 6896
  144.7912  140.4942  143.5771 H   0  0  0  0  0  0  0  0  0  0  0  0  # atno 7974 bound_to 7965
  156.2990  140.2370  156.4223 H   0  0  0  0  0  0  0  0  0  0  0  0  # atno 8008 bound_to 7997
  154.8344  140.0431  157.1519 H   0  0  0  0  0  0  0  0  0  0  0  0  # atno 8009 bound_to 7997
  154.9172  140.2998  155.5239 H   0  0  0  0  0  0  0  0  0  0  0  0  # atno 8010 bound_to 7997
  139.4880  144.4293  151.9091 H   0  0  0  0  0  0  0  0  0  0  0  0  # atno 10167 bound_to 10162
  156.1610  130.4149  149.9794 H   0  0  0  0  0  0  0  0  0  0  0  0  # atno 10718 bound_to 10713
  154.0339  135.2895  155.3364 H   0  0  0  0  0  0  0  0  0  0  0  0  # atno 10763 bound_to 10752
  154.6971  135.5203  153.8477 H   0  0  0  0  0  0  0  0  0  0  0  0  # atno 10764 bound_to 10752
  153.0628  135.6620  154.0549 H   0  0  0  0  0  0  0  0  0  0  0  0  # atno 10765 bound_to 10752
  139.8773  134.9035  156.4412 H   0  0  0  0  0  0  0  0  0  0  0  0  # atno 11005 bound_to 11000
  145.5789  139.1487  143.3246 LP  0  0  0  0  0  0  0  0  0  0  0  0  # atno 17320 bound_to 7965
  146.2165  140.5920  142.9036 LP  0  0  0  0  0  0  0  0  0  0  0  0  # atno 17321 bound_to 7965
  140.3740  144.2820  150.5916 LP  0  0  0  0  0  0  0  0  0  0  0  0  # atno 17342 bound_to 10162
  140.5293  143.2247  151.8264 LP  0  0  0  0  0  0  0  0  0  0  0  0  # atno 17343 bound_to 10162
  156.7623  130.9155  151.3642 LP  0  0  0  0  0  0  0  0  0  0  0  0  # atno 17370 bound_to 10713
  157.6732  130.9070  150.0089 LP  0  0  0  0  0  0  0  0  0  0  0  0  # atno 17371 bound_to 10713
  140.8998  133.7787  155.9667 LP  0  0  0  0  0  0  0  0  0  0  0  0  # atno 17394 bound_to 11000
  140.8663  134.2780  157.5211 LP  0  0  0  0  0  0  0  0  0  0  0  0  # atno 17395 bound_to 11000

$$$$
