AV-unprocessed.smi:2706|AV-procd|sdf|10449|dock3
  -GOLD-   2272014493D 1   1.00000     0.00000
 Structure written by MMmdl.
 44 47  0  0  0  0  0  0  0  0  2 V2000
  150.7642  141.9494  156.0435 C   0  0  0  0  0  0  0  0  0  0  0  0
  150.4645  140.7802  155.2238 N   0  0  0  0  0  0  0  0  0  0  0  0
  151.4091  139.6725  155.1540 C   0  0  0  0  0  0  0  0  0  0  0  0
  149.2070  140.6679  154.5936 C   0  0  0  0  0  0  0  0  0  0  0  0
  148.3279  141.7626  154.4174 C   0  0  0  0  0  0  0  0  0  0  0  0
  147.0916  141.5647  153.7733 C   0  0  0  0  0  0  0  0  0  0  0  0
  146.7440  140.2794  153.3143 C   0  0  0  0  0  0  0  0  0  0  0  0
  147.6439  139.2025  153.5121 C   0  0  0  0  0  0  0  0  0  0  0  0
  147.4217  137.8604  153.0945 N   0  0  0  0  0  0  0  0  0  0  0  0
  146.2787  137.1516  153.0584 C   0  0  0  0  0  0  0  0  0  0  0  0
  145.1738  137.5571  153.4173 O   0  0  0  0  0  0  0  0  0  0  0  0
  146.4917  135.9185  152.5776 N   0  0  0  0  0  0  0  0  0  0  0  0
  145.4919  134.9164  152.3938 C   0  0  2  0  0  0  0  0  0  0  0  0
  145.9668  133.4782  152.2535 C   0  0  1  0  0  0  0  0  0  0  0  0
  145.0817  132.2366  152.3138 C   0  0  2  0  0  0  0  0  0  0  0  0
  145.4987  131.3021  151.1591 C   0  0  0  0  0  0  0  0  0  0  0  0
  144.9797  132.0592  149.9118 C   0  0  0  0  0  0  0  0  0  0  0  0
  144.3383  133.3191  150.5295 C   0  0  1  0  0  0  0  0  0  0  0  0
  143.7247  132.7136  151.7931 C   0  0  0  0  0  0  0  0  0  0  0  0
  145.4635  134.2106  151.0465 C   0  0  1  0  0  0  0  0  0  0  0  0
  148.8194  139.4530  154.1338 N   0  3  0  0  0  0  0  0  0  0  0  0
  150.0707  142.0174  156.8824 H   0  0  0  0  0  0  0  0  0  0  0  0
  150.6882  142.8631  155.4527 H   0  0  0  0  0  0  0  0  0  0  0  0
  151.7751  141.9007  156.4483 H   0  0  0  0  0  0  0  0  0  0  0  0
  150.9700  138.7663  155.5730 H   0  0  0  0  0  0  0  0  0  0  0  0
  152.3189  139.8910  155.7138 H   0  0  0  0  0  0  0  0  0  0  0  0
  151.6946  139.4767  154.1199 H   0  0  0  0  0  0  0  0  0  0  0  0
  148.5816  142.7530  154.7648 H   0  0  0  0  0  0  0  0  0  0  0  0
  146.4147  142.3943  153.6306 H   0  0  0  0  0  0  0  0  0  0  0  0
  145.7948  140.1578  152.8174 H   0  0  0  0  0  0  0  0  0  0  0  0
  148.2476  137.3672  152.7890 H   0  0  0  0  0  0  0  0  0  0  0  0
  147.4325  135.6666  152.3116 H   0  0  0  0  0  0  0  0  0  0  0  0
  144.5392  135.0854  152.8912 H   0  0  0  0  0  0  0  0  0  0  0  0
  147.0381  133.2970  152.3262 H   0  0  0  0  0  0  0  0  0  0  0  0
  145.0705  131.7715  153.2997 H   0  0  0  0  0  0  0  0  0  0  0  0
  146.5765  131.1380  151.1276 H   0  0  0  0  0  0  0  0  0  0  0  0
  145.0141  130.3289  151.2489 H   0  0  0  0  0  0  0  0  0  0  0  0
  145.7787  132.3032  149.2106 H   0  0  0  0  0  0  0  0  0  0  0  0
  144.2376  131.4624  149.3797 H   0  0  0  0  0  0  0  0  0  0  0  0
  143.6444  133.8489  149.8764 H   0  0  0  0  0  0  0  0  0  0  0  0
  143.0261  131.8996  151.5895 H   0  0  0  0  0  0  0  0  0  0  0  0
  143.2227  133.4333  152.4389 H   0  0  0  0  0  0  0  0  0  0  0  0
  146.1948  134.5243  150.3035 H   0  0  0  0  0  0  0  0  0  0  0  0
  149.4640  138.6745  154.2694 H   0  0  0  0  0  0  0  0  0  0  0  0
  1  2  1  0  0  0  0
  1 22  1  0  0  0  0
  1 23  1  0  0  0  0
  1 24  1  0  0  0  0
  2  3  1  0  0  0  0
  2  4  1  0  0  0  0
  3 25  1  0  0  0  0
  3 26  1  0  0  0  0
  3 27  1  0  0  0  0
  4 21  1  0  0  0  0
  4  5  2  0  0  0  0
  5  6  1  0  0  0  0
  5 28  1  0  0  0  0
  6  7  2  0  0  0  0
  6 29  1  0  0  0  0
  7  8  1  0  0  0  0
  7 30  1  0  0  0  0
  8  9  1  0  0  0  0
  8 21  2  0  0  0  0
  9 10  1  0  0  0  0
  9 31  1  0  0  0  0
 10 11  2  0  0  0  0
 10 12  1  0  0  0  0
 12 13  1  0  0  0  0
 12 32  1  0  0  0  0
 13 20  1  0  0  0  0
 13 14  1  0  0  0  0
 13 33  1  0  0  0  0
 14 20  1  0  0  0  0
 14 15  1  0  0  0  0
 14 34  1  0  0  0  0
 15 19  1  0  0  0  0
 15 16  1  0  0  0  0
 15 35  1  0  0  0  0
 16 17  1  0  0  0  0
 16 36  1  0  0  0  0
 16 37  1  0  0  0  0
 17 18  1  0  0  0  0
 17 38  1  0  0  0  0
 17 39  1  0  0  0  0
 18 19  1  0  0  0  0
 18 20  1  0  0  0  0
 18 40  1  0  0  0  0
 19 41  1  0  0  0  0
 19 42  1  0  0  0  0
 20 43  1  0  0  0  0
 21 44  1  0  0  0  0
M  CHG  1  21   1
M  END
> <s_m_source_file>
AV-unprocessed.smi

> <i_m_source_file_index>
2706

> <i_lp_mmshare_version>
43012

> <i_f3d_flags>
0

> <s_epik_input>
W0NIM11OKFtDSDNdKWMxW2NIXVtjSF1bY0hdYyhuMSlbTkhdQyg9TylbTkhdW0NASF0yW0NAQEhdM1tDQEBIXShbQ0gyXTQpW0NIMl1bQ0gyXVtDQEBIXTRbQ0BIXTIz

> <s_epik_cmdline>
J2VwaWtfcHl0aG9uJywgJy1waCcsICc3LjAnLCAnLXRuJywgJzgnLCAnLW1hJywgJzIwMCcsICctbWV0YWxfYmluZGluZycsICctaW1hZScsICc8aW5maWxlLm1hZT4nLCAnLW9tYWUnLCAnPG91dGZpbGUubWFlPic=

> <r_lp_tautomer_probability>
0.999994

> <r_epik_Ionization_Penalty>
1.8105

> <r_epik_Ionization_Penalty_Charging>
1.79227

> <r_epik_Ionization_Penalty_Neutral>
0.0182286

> <r_epik_State_Penalty>
1.90588

> <r_epik_Charging_Adjusted_Penalty>
3.69815

> <i_epik_Tot_Q>
1

> <i_epik_Tot_abs_Q>
1

> <r_epik_Metal_State_Penalty>
1.93501

> <b_epik_Metal_Only>
0

> <s_lp_Force_Field>
OPLS_2005

> <r_lp_Energy>
85.2099

> <b_lp_Chiralities_Consistent>
1

> <s_lp_Variant>
AV-unprocessed.smi:2706-6

> <Gold.Version>
5.8.1

> <Gold.Id.Protein>
6NUR|6NUR_protein|mol2

> <Gold.PLP.Fitness>
47.5871

> <Gold.PLP.PLP>
-42.6753

> <Gold.PLP.part.hbond>
-2.5473

> <Gold.PLP.part.metal>
0.0000

> <Gold.PLP.part.buried>
-2.8495

> <Gold.PLP.part.nonpolar>
-37.5411

> <Gold.PLP.part.repulsive>
0.3327

> <Gold.PLP.ligand.clash>
0.0000

> <Gold.PLP.ligand.torsion>
0.5257

> <Gold.PLP.Chemscore.Hbond>
1.9760

> <Gold.PLP.Chemscore.CHOScore>
0.0000

> <Gold.PLP.Chemscore.Metal>
0.0000

> <Gold.Chemscore.Hbonds>
donor molecule, donor type, donor heavy atom, donor atom, acceptor molecule, acceptor atom, score
      L1  H     9    31       P1  7948  1.00
      L1  H    12    32       P1  7948  0.94

> <Gold.PLP.Chemscore.Internal.Correction>
0.0352

> <Gold.Rescore>
     Score         DG    S(hbond)    S(metal)    S(lipo)     H(rot)  DE(clash)    DE(int)     intcor
     19.24     -19.91       1.94        0.00      89.95       1.00       0.10       0.57       ----

> <Gold.Chemscore.Fitness>
19.2419

> <Gold.Chemscore.DG>
-19.9099

> <Gold.Chemscore.ZeroCoef>
-5.4800

> <Gold.Chemscore.Hbond>
1.9359

> <Gold.Chemscore.Metal>
0.0000

> <Gold.Chemscore.Lipo>
89.9473

> <Gold.Chemscore.Internal_Hbond>
0.0000

> <Gold.Chemscore.DEClash>
0.0990

> <Gold.Chemscore.DEInternal>
0.5690

> <Gold.Chemscore.Rot>
1.0000

> <Gold.Chemscore.Internal.Correction>
   9.000000E+99

> <Gold.Chemscore.Hbonds>
donor molecule, donor type, donor heavy atom, donor atom, acceptor molecule, acceptor atom, score
      L1  H     9    31       P1  7948  0.95
      L1  H    12    32       P1  7948  0.91

> <Gold.Chemscore.Hbond.Weighted>
-6.4660

> <Gold.Chemscore.Metal.Weighted>
-0.0000

> <Gold.Chemscore.Lipo.Weighted>
-10.5238

> <Gold.Chemscore.Internal_Hbond.Weighted>
0.0000

> <Gold.Chemscore.DEClash.Weighted>
0.0990

> <Gold.Chemscore.DEInternal.Weighted>
0.5690

> <Gold.Chemscore.Rot.Weighted>
2.5600

> <Gold.Chemscore.Internal.Correction.Weighted>
   9.000000E+99

> <Gold.Protein.RotatedTorsions>
[ 6907 6896 6895 6894 ] final   -6.93 input  -60.11 | X-H torsion
[ 7974 7965 7964 7962 ] final   73.19 input  175.53 | X-H torsion
[ 8008 7997 7996 7995 ] final -127.04 input   59.86 | X-H torsion
[ 10167 10162 10161 10158 ] final -116.97 input  -65.29 | X-H torsion
[ 10718 10713 10712 10709 ] final  152.84 input   66.30 | X-H torsion
[ 10763 10752 10751 10750 ] final   78.02 input  -60.55 | X-H torsion
[ 11005 11000 10999 10996 ] final  137.27 input  -57.11 | X-H torsion

> <Gold.Protein.ActiveResidues>
 VAL166  LYS551  ARG553  GLY616  TRP617  ASP618  TYR619  PRO620  LYS621  CYS622 
 ASP623  PHE694  ASN695  SER759  ASP760  ASP761  ALA762  ILE779  LEU786  VAL792 
 PHE793  MET794  SER795  GLU796  ALA797  LYS798  CYS799  TRP800  GLU811  SER814 

> <Gold.Protein.RotatedAtoms>
  151.4577  135.1035  159.9715 H   0  0  0  0  0  0  0  0  0  0  0  0  # atno 6907 bound_to 6896
  152.4865  133.8382  159.7149 H   0  0  0  0  0  0  0  0  0  0  0  0  # atno 6908 bound_to 6896
  150.8978  133.7097  159.2914 H   0  0  0  0  0  0  0  0  0  0  0  0  # atno 6909 bound_to 6896
  145.7440  139.2732  143.1470 H   0  0  0  0  0  0  0  0  0  0  0  0  # atno 7974 bound_to 7965
  155.2396  140.0428  157.2973 H   0  0  0  0  0  0  0  0  0  0  0  0  # atno 8008 bound_to 7997
  154.5836  140.2407  155.7988 H   0  0  0  0  0  0  0  0  0  0  0  0  # atno 8009 bound_to 7997
  156.2211  140.2969  155.9962 H   0  0  0  0  0  0  0  0  0  0  0  0  # atno 8010 bound_to 7997
  140.0735  143.4855  152.1966 H   0  0  0  0  0  0  0  0  0  0  0  0  # atno 10167 bound_to 10162
  157.2525  131.0782  151.1720 H   0  0  0  0  0  0  0  0  0  0  0  0  # atno 10718 bound_to 10713
  153.0842  135.4892  154.8564 H   0  0  0  0  0  0  0  0  0  0  0  0  # atno 10763 bound_to 10752
  154.7190  135.3035  154.9080 H   0  0  0  0  0  0  0  0  0  0  0  0  # atno 10764 bound_to 10752
  153.9750  135.6796  153.4801 H   0  0  0  0  0  0  0  0  0  0  0  0  # atno 10765 bound_to 10752
  140.0102  134.9442  157.0262 H   0  0  0  0  0  0  0  0  0  0  0  0  # atno 11005 bound_to 11000
  146.0420  140.8155  142.9824 LP  0  0  0  0  0  0  0  0  0  0  0  0  # atno 17320 bound_to 7965
  144.6864  140.2925  143.7276 LP  0  0  0  0  0  0  0  0  0  0  0  0  # atno 17321 bound_to 7965
  139.5822  144.7515  151.3611 LP  0  0  0  0  0  0  0  0  0  0  0  0  # atno 17342 bound_to 10162
  140.7114  143.7381  150.7573 LP  0  0  0  0  0  0  0  0  0  0  0  0  # atno 17343 bound_to 10162
  157.3262  130.6962  149.6298 LP  0  0  0  0  0  0  0  0  0  0  0  0  # atno 17370 bound_to 10713
  155.9666  130.4321  150.4948 LP  0  0  0  0  0  0  0  0  0  0  0  0  # atno 17371 bound_to 10713
  140.4568  134.1526  155.7187 LP  0  0  0  0  0  0  0  0  0  0  0  0  # atno 17394 bound_to 11000
  141.1706  133.8617  157.1583 LP  0  0  0  0  0  0  0  0  0  0  0  0  # atno 17395 bound_to 11000

$$$$
