AV-unprocessed.smi:1081|AV-procd|sdf|4710|dock3
  -GOLD-   22720 3233D 1   1.00000     0.00000
 Structure written by MMmdl.
 52 54  0  0  0  0  0  0  0  0  1 V2000
  146.5901  137.3551  155.4791 O   0  0  0  0  0  0  0  0  0  0  0  0
  147.3528  137.1671  154.5320 C   0  0  0  0  0  0  0  0  0  0  0  0
  147.0644  136.3521  153.5061 N   0  0  0  0  0  0  0  0  0  0  0  0
  145.8315  135.5775  153.3683 C   0  0  0  0  0  0  0  0  0  0  0  0
  146.0611  134.0550  153.2925 C   0  0  0  0  0  0  0  0  0  0  0  0
  146.2570  133.4274  154.3353 O   0  0  0  0  0  0  0  0  0  0  0  0
  146.0501  133.4492  152.0798 N   0  0  0  0  0  0  0  0  0  0  0  0
  146.1671  132.0024  151.8447 C   0  0  0  0  0  0  0  0  0  0  0  0
  144.8215  131.4714  151.3166 C   0  0  0  0  0  0  0  0  0  0  0  0
  144.3879  132.2301  150.0486 C   0  0  0  0  0  0  0  0  0  0  0  0
  144.4428  133.7549  150.2552 C   0  0  0  0  0  0  0  0  0  0  0  0
  145.8051  134.1829  150.8303 C   0  0  0  0  0  0  0  0  0  0  0  0
  148.5683  137.7214  154.3830 N   0  0  0  0  0  0  0  0  0  0  0  0
  149.2558  138.6261  155.2382 C   0  0  0  0  0  0  0  0  0  0  0  0
  149.1568  138.6401  156.6495 C   0  0  0  0  0  0  0  0  0  0  0  0
  149.8883  139.5997  157.3751 C   0  0  0  0  0  0  0  0  0  0  0  0
  150.6975  140.5267  156.6783 C   0  0  0  0  0  0  0  0  0  0  0  0
  151.4401  141.4915  157.3917 N   0  0  0  0  0  0  0  0  0  0  0  0
  150.9961  142.8750  157.2116 C   0  0  0  0  0  0  0  0  0  0  0  0
  152.0729  143.8696  157.6786 C   0  0  0  0  0  0  0  0  0  0  0  0
  152.5147  143.5719  159.1193 C   0  0  0  0  0  0  0  0  0  0  0  0
  152.9728  142.1108  159.2371 C   0  0  0  0  0  0  0  0  0  0  0  0
  151.8783  141.1476  158.7467 C   0  0  0  0  0  0  0  0  0  0  0  0
  150.7792  140.5206  155.3255 N   0  0  0  0  0  0  0  0  0  0  0  0
  150.0783  139.5979  154.6344 C   0  0  0  0  0  0  0  0  0  0  0  0
  147.7512  136.2462  152.7742 H   0  0  0  0  0  0  0  0  0  0  0  0
  145.1692  135.8113  154.2035 H   0  0  0  0  0  0  0  0  0  0  0  0
  145.3297  135.9054  152.4574 H   0  0  0  0  0  0  0  0  0  0  0  0
  146.9525  131.8240  151.1089 H   0  0  0  0  0  0  0  0  0  0  0  0
  146.4599  131.4325  152.7247 H   0  0  0  0  0  0  0  0  0  0  0  0
  144.8959  130.4045  151.1050 H   0  0  0  0  0  0  0  0  0  0  0  0
  144.0587  131.5819  152.0883 H   0  0  0  0  0  0  0  0  0  0  0  0
  145.0508  131.9578  149.2262 H   0  0  0  0  0  0  0  0  0  0  0  0
  143.3847  131.9252  149.7497 H   0  0  0  0  0  0  0  0  0  0  0  0
  144.2556  134.2670  149.3110 H   0  0  0  0  0  0  0  0  0  0  0  0
  143.6482  134.0611  150.9371 H   0  0  0  0  0  0  0  0  0  0  0  0
  145.8263  135.2655  150.9605 H   0  0  0  0  0  0  0  0  0  0  0  0
  146.6004  133.9559  150.1189 H   0  0  0  0  0  0  0  0  0  0  0  0
  149.0869  137.4267  153.5687 H   0  0  0  0  0  0  0  0  0  0  0  0
  148.5322  137.9513  157.1948 H   0  0  0  0  0  0  0  0  0  0  0  0
  149.8089  139.6255  158.4517 H   0  0  0  0  0  0  0  0  0  0  0  0
  150.7478  143.0860  156.1722 H   0  0  0  0  0  0  0  0  0  0  0  0
  150.0805  143.0225  157.7860 H   0  0  0  0  0  0  0  0  0  0  0  0
  152.9352  143.8109  157.0130 H   0  0  0  0  0  0  0  0  0  0  0  0
  151.6941  144.8894  157.6062 H   0  0  0  0  0  0  0  0  0  0  0  0
  153.3207  144.2449  159.4132 H   0  0  0  0  0  0  0  0  0  0  0  0
  151.6862  143.7548  159.8047 H   0  0  0  0  0  0  0  0  0  0  0  0
  153.8784  141.9640  158.6468 H   0  0  0  0  0  0  0  0  0  0  0  0
  153.2361  141.8819  160.2700 H   0  0  0  0  0  0  0  0  0  0  0  0
  151.0208  141.1832  159.4200 H   0  0  0  0  0  0  0  0  0  0  0  0
  152.2652  140.1279  158.7693 H   0  0  0  0  0  0  0  0  0  0  0  0
  150.1810  139.6380  153.5596 H   0  0  0  0  0  0  0  0  0  0  0  0
  1  2  2  0  0  0  0
  2  3  1  0  0  0  0
  2 13  1  0  0  0  0
  3  4  1  0  0  0  0
  3 26  1  0  0  0  0
  4  5  1  0  0  0  0
  4 27  1  0  0  0  0
  4 28  1  0  0  0  0
  5  6  2  0  0  0  0
  5  7  1  0  0  0  0
  7 12  1  0  0  0  0
  7  8  1  0  0  0  0
  8  9  1  0  0  0  0
  8 29  1  0  0  0  0
  8 30  1  0  0  0  0
  9 10  1  0  0  0  0
  9 31  1  0  0  0  0
  9 32  1  0  0  0  0
 10 11  1  0  0  0  0
 10 33  1  0  0  0  0
 10 34  1  0  0  0  0
 11 12  1  0  0  0  0
 11 35  1  0  0  0  0
 11 36  1  0  0  0  0
 12 37  1  0  0  0  0
 12 38  1  0  0  0  0
 13 14  1  0  0  0  0
 13 39  1  0  0  0  0
 14 25  1  0  0  0  0
 14 15  2  0  0  0  0
 15 16  1  0  0  0  0
 15 40  1  0  0  0  0
 16 17  2  0  0  0  0
 16 41  1  0  0  0  0
 17 18  1  0  0  0  0
 17 24  1  0  0  0  0
 18 23  1  0  0  0  0
 18 19  1  0  0  0  0
 19 20  1  0  0  0  0
 19 42  1  0  0  0  0
 19 43  1  0  0  0  0
 20 21  1  0  0  0  0
 20 44  1  0  0  0  0
 20 45  1  0  0  0  0
 21 22  1  0  0  0  0
 21 46  1  0  0  0  0
 21 47  1  0  0  0  0
 22 23  1  0  0  0  0
 22 48  1  0  0  0  0
 22 49  1  0  0  0  0
 23 50  1  0  0  0  0
 23 51  1  0  0  0  0
 24 25  2  0  0  0  0
 25 52  1  0  0  0  0
M  END
> <s_m_source_file>
AV-unprocessed.smi

> <i_m_source_file_index>
1081

> <i_lp_mmshare_version>
43012

> <i_f3d_flags>
0

> <s_epik_input>
W0NIMl0xW0NIMl1bQ0gyXVtDSDJdW0NIMl1OMUMoPU8pW0NIMl1bTkhdQyg9TylbTkhdYzJbY0hdW2NIXWMobltjSF0yKU4zW0NIMl1bQ0gyXVtDSDJdW0NIMl1bQ0gyXTM=

> <s_epik_cmdline>
J2VwaWtfcHl0aG9uJywgJy1waCcsICc3LjAnLCAnLXRuJywgJzgnLCAnLW1hJywgJzIwMCcsICctbWV0YWxfYmluZGluZycsICctaW1hZScsICc8aW5maWxlLm1hZT4nLCAnLW9tYWUnLCAnPG91dGZpbGUubWFlPic=

> <r_lp_tautomer_probability>
1

> <r_epik_Ionization_Penalty>
0.2566

> <r_epik_Ionization_Penalty_Charging>
0

> <r_epik_Ionization_Penalty_Neutral>
0.2566

> <r_epik_State_Penalty>
0.242651

> <r_epik_Charging_Adjusted_Penalty>
0.242651

> <i_epik_Tot_Q>
0

> <i_epik_Tot_abs_Q>
0

> <r_epik_Metal_State_Penalty>
0.169478

> <b_epik_Metal_Only>
0

> <s_lp_Force_Field>
OPLS_2005

> <r_lp_Energy>
36.1946

> <b_lp_Chiralities_Consistent>
1

> <s_lp_Variant>
AV-unprocessed.smi:1081-1

> <Gold.Version>
5.8.1

> <Gold.Id.Protein>
6NUR|6NUR_protein|mol2

> <Gold.PLP.Fitness>
48.8562

> <Gold.PLP.PLP>
-41.2935

> <Gold.PLP.part.hbond>
-2.9674

> <Gold.PLP.part.metal>
0.0000

> <Gold.PLP.part.buried>
-5.3615

> <Gold.PLP.part.nonpolar>
-33.5024

> <Gold.PLP.part.repulsive>
0.1817

> <Gold.PLP.ligand.clash>
0.0000

> <Gold.PLP.ligand.torsion>
0.9509

> <Gold.PLP.Chemscore.Hbond>
2.0115

> <Gold.PLP.Chemscore.CHOScore>
1.0000

> <Gold.PLP.Chemscore.Metal>
0.0000

> <Gold.Chemscore.Hbonds>
donor molecule, donor type, donor heavy atom, donor atom, acceptor molecule, acceptor atom, score
      L1  H     3    26       P1  7948  0.94
      L1  H    13    39       P1  7948  0.80
      P1  H  7989  7998       L1    24  0.14
      L1  C    25    52       P1  7957  1.00

> <Gold.PLP.Chemscore.Internal.Correction>
0.4300

> <Gold.Rescore>
     Score         DG    S(hbond)    S(metal)    S(lipo)     H(rot)  DE(clash)    DE(int)     intcor
     19.76     -20.83       1.89        0.00     108.09       1.41       0.04       1.03       ----

> <Gold.Chemscore.Fitness>
19.7595

> <Gold.Chemscore.DG>
-20.8297

> <Gold.Chemscore.ZeroCoef>
-5.4800

> <Gold.Chemscore.Hbond>
1.8905

> <Gold.Chemscore.Metal>
0.0000

> <Gold.Chemscore.Lipo>
108.0949

> <Gold.Chemscore.Internal_Hbond>
0.0000

> <Gold.Chemscore.DEClash>
0.0402

> <Gold.Chemscore.DEInternal>
1.0299

> <Gold.Chemscore.Rot>
1.4109

> <Gold.Chemscore.Internal.Correction>
   9.000000E+99

> <Gold.Chemscore.Hbonds>
donor molecule, donor type, donor heavy atom, donor atom, acceptor molecule, acceptor atom, score
      L1  H     3    26       P1  7948  0.90
      L1  H    13    39       P1  7948  0.75

> <Gold.Chemscore.Hbond.Weighted>
-6.3144

> <Gold.Chemscore.Metal.Weighted>
-0.0000

> <Gold.Chemscore.Lipo.Weighted>
-12.6471

> <Gold.Chemscore.Internal_Hbond.Weighted>
0.0000

> <Gold.Chemscore.DEClash.Weighted>
0.0402

> <Gold.Chemscore.DEInternal.Weighted>
1.0299

> <Gold.Chemscore.Rot.Weighted>
3.6118

> <Gold.Chemscore.Internal.Correction.Weighted>
   9.000000E+99

> <Gold.Protein.RotatedTorsions>
[ 6907 6896 6895 6894 ] final   76.68 input  -60.11 | X-H torsion
[ 7974 7965 7964 7962 ] final  123.31 input  175.53 | X-H torsion
[ 8008 7997 7996 7995 ] final  -84.44 input   59.86 | X-H torsion
[ 10167 10162 10161 10158 ] final  133.64 input  -65.29 | X-H torsion
[ 10718 10713 10712 10709 ] final -131.65 input   66.30 | X-H torsion
[ 10763 10752 10751 10750 ] final  -68.09 input  -60.55 | X-H torsion
[ 11005 11000 10999 10996 ] final   -5.73 input  -57.11 | X-H torsion

> <Gold.Protein.ActiveResidues>
 VAL166  LYS551  ARG553  GLY616  TRP617  ASP618  TYR619  PRO620  LYS621  CYS622 
 ASP623  PHE694  ASN695  SER759  ASP760  ASP761  ALA762  ILE779  LEU786  VAL792 
 PHE793  MET794  SER795  GLU796  ALA797  LYS798  CYS799  TRP800  GLU811  SER814 

> <Gold.Protein.RotatedAtoms>
  152.5084  134.3933  159.9391 H   0  0  0  0  0  0  0  0  0  0  0  0  # atno 6907 bound_to 6896
  151.3894  133.3788  159.2727 H   0  0  0  0  0  0  0  0  0  0  0  0  # atno 6908 bound_to 6896
  150.9444  134.8871  159.7691 H   0  0  0  0  0  0  0  0  0  0  0  0  # atno 6909 bound_to 6896
  145.0974  139.3543  143.4829 H   0  0  0  0  0  0  0  0  0  0  0  0  # atno 7974 bound_to 7965
  154.6298  140.0605  156.9718 H   0  0  0  0  0  0  0  0  0  0  0  0  # atno 8008 bound_to 7997
  155.1683  140.3289  155.4379 H   0  0  0  0  0  0  0  0  0  0  0  0  # atno 8009 bound_to 7997
  156.2477  140.1918  156.6787 H   0  0  0  0  0  0  0  0  0  0  0  0  # atno 8010 bound_to 7997
  139.5289  144.6606  151.5025 H   0  0  0  0  0  0  0  0  0  0  0  0  # atno 10167 bound_to 10162
  156.2266  130.7011  151.0813 H   0  0  0  0  0  0  0  0  0  0  0  0  # atno 10718 bound_to 10713
  154.3840  135.6068  153.5806 H   0  0  0  0  0  0  0  0  0  0  0  0  # atno 10763 bound_to 10752
  152.9788  135.5867  154.4376 H   0  0  0  0  0  0  0  0  0  0  0  0  # atno 10764 bound_to 10752
  154.4150  135.2845  155.1990 H   0  0  0  0  0  0  0  0  0  0  0  0  # atno 10765 bound_to 10752
  140.6943  133.9044  155.8639 H   0  0  0  0  0  0  0  0  0  0  0  0  # atno 11005 bound_to 11000
  146.3530  140.0836  142.8616 LP  0  0  0  0  0  0  0  0  0  0  0  0  # atno 17320 bound_to 7965
  145.0995  140.9336  143.4721 LP  0  0  0  0  0  0  0  0  0  0  0  0  # atno 17321 bound_to 7965
  140.6452  143.8808  150.6730 LP  0  0  0  0  0  0  0  0  0  0  0  0  # atno 17342 bound_to 10162
  140.2156  143.3849  152.1684 LP  0  0  0  0  0  0  0  0  0  0  0  0  # atno 17343 bound_to 10162
  157.7113  131.0732  150.6489 LP  0  0  0  0  0  0  0  0  0  0  0  0  # atno 17370 bound_to 10713
  156.6555  130.4497  149.5705 LP  0  0  0  0  0  0  0  0  0  0  0  0  # atno 17371 bound_to 10713
  141.0216  134.0881  157.4114 LP  0  0  0  0  0  0  0  0  0  0  0  0  # atno 17394 bound_to 11000
  139.8914  135.0118  156.6792 LP  0  0  0  0  0  0  0  0  0  0  0  0  # atno 17395 bound_to 11000

$$$$
