AV-unprocessed.smi:2387|AV-procd|sdf|9469|dock3
  -GOLD-   2272013 93D 1   1.00000     0.00000
 Structure written by MMmdl.
 47 49  0  0  0  0  0  0  0  0  1 V2000
  154.2609  141.7021  160.4661 C   0  0  0  0  0  0  0  0  0  0  0  0
  153.1223  142.0147  159.5176 C   0  0  0  0  0  0  0  0  0  0  0  0
  152.9404  143.3168  159.0082 C   0  0  0  0  0  0  0  0  0  0  0  0
  151.8640  143.5529  158.1315 C   0  0  0  0  0  0  0  0  0  0  0  0
  151.0023  142.4788  157.8016 C   0  0  0  0  0  0  0  0  0  0  0  0
  149.8948  142.5824  156.9172 N   0  0  0  0  0  0  0  0  0  0  0  0
  149.0110  141.6327  156.5670 C   0  0  0  0  0  0  0  0  0  0  0  0
  149.0305  140.4651  156.9552 O   0  0  0  0  0  0  0  0  0  0  0  0
  148.0919  142.1199  155.7150 N   0  0  0  0  0  0  0  0  0  0  0  0
  146.9799  141.3930  155.0756 C   0  0  0  0  0  0  0  0  0  0  0  0
  145.7301  141.2702  155.9911 C   0  0  0  0  0  0  0  0  0  0  0  0
  145.8085  141.5838  157.1798 O   0  0  0  0  0  0  0  0  0  0  0  0
  144.5935  140.7971  155.4514 N   0  0  0  0  0  0  0  0  0  0  0  0
  143.3400  140.5995  156.1666 C   0  0  0  0  0  0  0  0  0  0  0  0
  142.1722  141.4147  155.6448 C   0  0  0  0  0  0  0  0  0  0  0  0
  140.8439  141.4194  156.3639 C   0  0  0  0  0  0  0  0  0  0  0  0
  140.9758  140.7311  155.0262 C   0  0  0  0  0  0  0  0  0  0  0  0
  146.5868  142.1463  153.7724 C   0  0  0  0  0  0  0  0  0  0  0  0
  146.9107  141.2262  152.5913 C   0  0  0  0  0  0  0  0  0  0  0  0
  146.8654  139.8206  153.1724 C   0  0  0  0  0  0  0  0  0  0  0  0
  147.4482  139.9965  154.5729 C   0  0  0  0  0  0  0  0  0  0  0  0
  151.2864  141.2139  158.3579 C   0  0  0  0  0  0  0  0  0  0  0  0
  152.3156  140.9795  159.1995 N   0  0  0  0  0  0  0  0  0  0  0  0
  154.8873  142.5783  160.6352 H   0  0  0  0  0  0  0  0  0  0  0  0
  154.8888  140.9094  160.0582 H   0  0  0  0  0  0  0  0  0  0  0  0
  153.8714  141.3713  161.4292 H   0  0  0  0  0  0  0  0  0  0  0  0
  153.6114  144.1192  159.2776 H   0  0  0  0  0  0  0  0  0  0  0  0
  151.7320  144.5427  157.7231 H   0  0  0  0  0  0  0  0  0  0  0  0
  149.7969  143.4729  156.4518 H   0  0  0  0  0  0  0  0  0  0  0  0
  148.1729  143.0945  155.4654 H   0  0  0  0  0  0  0  0  0  0  0  0
  144.6009  140.5594  154.4704 H   0  0  0  0  0  0  0  0  0  0  0  0
  143.0682  139.5430  156.1424 H   0  0  0  0  0  0  0  0  0  0  0  0
  143.5087  140.8458  157.2155 H   0  0  0  0  0  0  0  0  0  0  0  0
  142.4662  142.3512  155.1742 H   0  0  0  0  0  0  0  0  0  0  0  0
  140.7414  140.7891  157.2450 H   0  0  0  0  0  0  0  0  0  0  0  0
  140.2944  142.3582  156.3955 H   0  0  0  0  0  0  0  0  0  0  0  0
  140.5130  141.2105  154.1659 H   0  0  0  0  0  0  0  0  0  0  0  0
  140.9601  139.6431  155.0184 H   0  0  0  0  0  0  0  0  0  0  0  0
  145.5208  142.3814  153.7486 H   0  0  0  0  0  0  0  0  0  0  0  0
  147.1035  143.1013  153.6648 H   0  0  0  0  0  0  0  0  0  0  0  0
  146.2225  141.3569  151.7557 H   0  0  0  0  0  0  0  0  0  0  0  0
  147.9175  141.4371  152.2283 H   0  0  0  0  0  0  0  0  0  0  0  0
  145.8323  139.4771  153.2372 H   0  0  0  0  0  0  0  0  0  0  0  0
  147.4218  139.0996  152.5731 H   0  0  0  0  0  0  0  0  0  0  0  0
  148.5361  139.9601  154.4945 H   0  0  0  0  0  0  0  0  0  0  0  0
  147.1609  139.1771  155.2340 H   0  0  0  0  0  0  0  0  0  0  0  0
  150.6655  140.3610  158.1251 H   0  0  0  0  0  0  0  0  0  0  0  0
  1  2  1  0  0  0  0
  1 24  1  0  0  0  0
  1 25  1  0  0  0  0
  1 26  1  0  0  0  0
  2 23  1  0  0  0  0
  2  3  2  0  0  0  0
  3  4  1  0  0  0  0
  3 27  1  0  0  0  0
  4  5  2  0  0  0  0
  4 28  1  0  0  0  0
  5  6  1  0  0  0  0
  5 22  1  0  0  0  0
  6  7  1  0  0  0  0
  6 29  1  0  0  0  0
  7  8  2  0  0  0  0
  7  9  1  0  0  0  0
  9 10  1  0  0  0  0
  9 30  1  0  0  0  0
 10 21  1  0  0  0  0
 10 11  1  0  0  0  0
 10 18  1  0  0  0  0
 11 12  2  0  0  0  0
 11 13  1  0  0  0  0
 13 14  1  0  0  0  0
 13 31  1  0  0  0  0
 14 15  1  0  0  0  0
 14 32  1  0  0  0  0
 14 33  1  0  0  0  0
 15 17  1  0  0  0  0
 15 16  1  0  0  0  0
 15 34  1  0  0  0  0
 16 17  1  0  0  0  0
 16 35  1  0  0  0  0
 16 36  1  0  0  0  0
 17 37  1  0  0  0  0
 17 38  1  0  0  0  0
 18 19  1  0  0  0  0
 18 39  1  0  0  0  0
 18 40  1  0  0  0  0
 19 20  1  0  0  0  0
 19 41  1  0  0  0  0
 19 42  1  0  0  0  0
 20 21  1  0  0  0  0
 20 43  1  0  0  0  0
 20 44  1  0  0  0  0
 21 45  1  0  0  0  0
 21 46  1  0  0  0  0
 22 23  2  0  0  0  0
 22 47  1  0  0  0  0
M  END
> <s_m_source_file>
AV-unprocessed.smi

> <i_m_source_file_index>
2387

> <i_lp_mmshare_version>
43012

> <i_f3d_flags>
0

> <s_epik_input>
W0NIM11jMVtjSF1bY0hdYyhbY0hdbjEpW05IXUMoPU8pW05IXUMyKFtDSDJdW0NIMl1bQ0gyXVtDSDJdMilDKD1PKVtOSF1bQ0gyXVtDSF0zW0NIMl1bQ0gyXTM=

> <s_epik_cmdline>
J2VwaWtfcHl0aG9uJywgJy1waCcsICc3LjAnLCAnLXRuJywgJzgnLCAnLW1hJywgJzIwMCcsICctbWV0YWxfYmluZGluZycsICctaW1hZScsICc8aW5maWxlLm1hZT4nLCAnLW9tYWUnLCAnPG91dGZpbGUubWFlPic=

> <r_epik_Ionization_Penalty>
0.0173464

> <r_epik_Ionization_Penalty_Charging>
0

> <r_epik_Ionization_Penalty_Neutral>
0.0173464

> <r_epik_State_Penalty>
0.0137159

> <r_epik_Charging_Adjusted_Penalty>
0.0137159

> <i_epik_Tot_Q>
0

> <i_epik_Tot_abs_Q>
0

> <r_epik_Metal_State_Penalty>
0.0133255

> <b_epik_Metal_Only>
0

> <s_lp_Force_Field>
OPLS_2005

> <r_lp_Energy>
29.6161

> <b_lp_Chiralities_Consistent>
1

> <s_lp_Variant>
AV-unprocessed.smi:2387-1

> <Gold.Version>
5.8.1

> <Gold.Id.Protein>
6NUR|6NUR_protein|mol2

> <Gold.PLP.Fitness>
41.0269

> <Gold.PLP.PLP>
-33.6900

> <Gold.PLP.part.hbond>
-3.0000

> <Gold.PLP.part.metal>
0.0000

> <Gold.PLP.part.buried>
-4.5088

> <Gold.PLP.part.nonpolar>
-26.3444

> <Gold.PLP.part.repulsive>
0.1648

> <Gold.PLP.ligand.clash>
0.0000

> <Gold.PLP.ligand.torsion>
1.0432

> <Gold.PLP.Chemscore.Hbond>
2.9277

> <Gold.PLP.Chemscore.CHOScore>
0.0000

> <Gold.PLP.Chemscore.Metal>
0.0000

> <Gold.Chemscore.Hbonds>
donor molecule, donor type, donor heavy atom, donor atom, acceptor molecule, acceptor atom, score
      L1  H     6    29       P1  8028  1.00
      L1  H     9    30       P1  8028  1.00
      L1  H    13    31       P1 10175  0.62

> <Gold.PLP.Chemscore.Internal.Correction>
0.6401

> <Gold.Rescore>
     Score         DG    S(hbond)    S(metal)    S(lipo)     H(rot)  DE(clash)    DE(int)     intcor
     16.98     -21.60       2.74        0.00      94.53       1.59       1.39       3.23       ----

> <Gold.Chemscore.Fitness>
16.9834

> <Gold.Chemscore.DG>
-21.5968

> <Gold.Chemscore.ZeroCoef>
-5.4800

> <Gold.Chemscore.Hbond>
2.7357

> <Gold.Chemscore.Metal>
0.0000

> <Gold.Chemscore.Lipo>
94.5338

> <Gold.Chemscore.Internal_Hbond>
0.0000

> <Gold.Chemscore.DEClash>
1.3874

> <Gold.Chemscore.DEInternal>
3.2260

> <Gold.Chemscore.Rot>
1.5941

> <Gold.Chemscore.Internal.Correction>
   9.000000E+99

> <Gold.Chemscore.Hbonds>
donor molecule, donor type, donor heavy atom, donor atom, acceptor molecule, acceptor atom, score
      L1  H     6    29       P1  8028  0.98
      L1  H     9    30       P1  8028  0.90
      L1  H    13    31       P1 10175  0.60

> <Gold.Chemscore.Hbond.Weighted>
-9.1372

> <Gold.Chemscore.Metal.Weighted>
-0.0000

> <Gold.Chemscore.Lipo.Weighted>
-11.0605

> <Gold.Chemscore.Internal_Hbond.Weighted>
0.0000

> <Gold.Chemscore.DEClash.Weighted>
1.3874

> <Gold.Chemscore.DEInternal.Weighted>
3.2260

> <Gold.Chemscore.Rot.Weighted>
4.0809

> <Gold.Chemscore.Internal.Correction.Weighted>
   9.000000E+99

> <Gold.Protein.RotatedTorsions>
[ 6907 6896 6895 6894 ] final   -2.98 input  -60.11 | X-H torsion
[ 7974 7965 7964 7962 ] final  154.33 input  175.53 | X-H torsion
[ 8008 7997 7996 7995 ] final  -43.53 input   59.86 | X-H torsion
[ 10167 10162 10161 10158 ] final -105.59 input  -65.29 | X-H torsion
[ 10718 10713 10712 10709 ] final  117.98 input   66.30 | X-H torsion
[ 10763 10752 10751 10750 ] final   61.10 input  -60.55 | X-H torsion
[ 11005 11000 10999 10996 ] final  -20.26 input  -57.11 | X-H torsion

> <Gold.Protein.ActiveResidues>
 VAL166  LYS551  ARG553  GLY616  TRP617  ASP618  TYR619  PRO620  LYS621  CYS622 
 ASP623  PHE694  ASN695  SER759  ASP760  ASP761  ALA762  ILE779  LEU786  VAL792 
 PHE793  MET794  SER795  GLU796  ALA797  LYS798  CYS799  TRP800  GLU811  SER814 

> <Gold.Protein.RotatedAtoms>
  151.5211  135.1067  159.9878 H   0  0  0  0  0  0  0  0  0  0  0  0  # atno 6907 bound_to 6896
  152.4620  133.7838  159.6875 H   0  0  0  0  0  0  0  0  0  0  0  0  # atno 6908 bound_to 6896
  150.8586  133.7613  159.3025 H   0  0  0  0  0  0  0  0  0  0  0  0  # atno 6909 bound_to 6896
  144.8095  139.6920  143.6147 H   0  0  0  0  0  0  0  0  0  0  0  0  # atno 7974 bound_to 7965
  154.3997  140.1445  156.3535 H   0  0  0  0  0  0  0  0  0  0  0  0  # atno 8008 bound_to 7997
  155.8247  140.3468  155.5515 H   0  0  0  0  0  0  0  0  0  0  0  0  # atno 8009 bound_to 7997
  155.8251  140.0904  157.1816 H   0  0  0  0  0  0  0  0  0  0  0  0  # atno 8010 bound_to 7997
  140.1969  143.3849  152.1161 H   0  0  0  0  0  0  0  0  0  0  0  0  # atno 10167 bound_to 10162
  157.6060  131.1043  150.7692 H   0  0  0  0  0  0  0  0  0  0  0  0  # atno 10718 bound_to 10713
  152.9940  135.5513  154.5979 H   0  0  0  0  0  0  0  0  0  0  0  0  # atno 10763 bound_to 10752
  154.5327  135.2814  155.1168 H   0  0  0  0  0  0  0  0  0  0  0  0  # atno 10764 bound_to 10752
  154.2477  135.6404  153.5282 H   0  0  0  0  0  0  0  0  0  0  0  0  # atno 10765 bound_to 10752
  140.8447  133.7900  155.9899 H   0  0  0  0  0  0  0  0  0  0  0  0  # atno 11005 bound_to 11000
  146.2392  139.5967  142.9503 LP  0  0  0  0  0  0  0  0  0  0  0  0  # atno 17320 bound_to 7965
  145.5357  141.0424  143.2358 LP  0  0  0  0  0  0  0  0  0  0  0  0  # atno 17321 bound_to 7965
  139.5233  144.7070  151.5325 LP  0  0  0  0  0  0  0  0  0  0  0  0  # atno 17342 bound_to 10162
  140.6417  143.8875  150.6698 LP  0  0  0  0  0  0  0  0  0  0  0  0  # atno 17343 bound_to 10162
  156.8080  130.4943  149.5360 LP  0  0  0  0  0  0  0  0  0  0  0  0  # atno 17370 bound_to 10713
  156.1147  130.6066  151.0102 LP  0  0  0  0  0  0  0  0  0  0  0  0  # atno 17371 bound_to 10713
  140.8856  134.2557  157.5121 LP  0  0  0  0  0  0  0  0  0  0  0  0  # atno 17394 bound_to 11000
  139.8703  134.9637  156.4469 LP  0  0  0  0  0  0  0  0  0  0  0  0  # atno 17395 bound_to 11000

$$$$
