AV-unprocessed.smi:767|AV-procd|sdf|3657|dock7
  -GOLD-   22720 1 63D 1   1.00000     0.00000
 Structure written by MMmdl.
 47 49  0  0  0  0  0  0  0  0  1 V2000
  142.4670  134.4160  162.5197 C   0  0  0  0  0  0  0  0  0  0  0  0
  143.8941  134.8469  162.2523 C   0  0  0  0  0  0  0  0  0  0  0  0
  144.9496  133.9111  162.2856 C   0  0  0  0  0  0  0  0  0  0  0  0
  146.2572  134.3657  162.0277 C   0  0  0  0  0  0  0  0  0  0  0  0
  146.4586  135.7323  161.7448 C   0  0  0  0  0  0  0  0  0  0  0  0
  147.8452  136.2710  161.4540 C   0  0  0  0  0  0  0  0  0  0  0  0
  148.2669  136.0234  159.9969 C   0  0  0  0  0  0  0  0  0  0  0  0
  148.5658  137.2718  159.3062 N   0  0  0  0  0  0  0  0  0  0  0  0
  149.7978  137.7238  159.0352 C   0  0  0  0  0  0  0  0  0  0  0  0
  150.8338  137.1344  159.3439 O   0  0  0  0  0  0  0  0  0  0  0  0
  149.7657  138.8915  158.3808 N   0  0  0  0  0  0  0  0  0  0  0  0
  150.9490  139.6140  157.9303 C   0  0  2  0  0  0  0  0  0  0  0  0
  151.3468  140.7390  158.8862 C   0  0  1  0  0  0  0  0  0  0  0  0
  152.5096  140.9899  159.7787 C   0  0  0  0  0  0  0  0  0  0  0  0
  152.7701  142.4665  159.3764 C   0  0  0  0  0  0  0  0  0  0  0  0
  151.9526  142.7096  158.2051 O   0  0  0  0  0  0  0  0  0  0  0  0
  151.8144  141.4307  157.6206 C   0  0  2  0  0  0  0  0  0  0  0  0
  150.6329  140.7573  156.8937 C   0  0  0  0  0  0  0  0  0  0  0  0
  150.8869  140.3992  155.4292 C   0  0  0  0  0  0  0  0  0  0  0  0
  149.2655  141.4694  156.9338 C   0  0  0  0  0  0  0  0  0  0  0  0
  145.3343  136.5847  161.7324 C   0  0  0  0  0  0  0  0  0  0  0  0
  144.0773  136.1578  161.9799 N   0  0  0  0  0  0  0  0  0  0  0  0
  142.4366  133.4488  163.0221 H   0  0  0  0  0  0  0  0  0  0  0  0
  141.9171  134.3326  161.5821 H   0  0  0  0  0  0  0  0  0  0  0  0
  141.9574  135.1420  163.1543 H   0  0  0  0  0  0  0  0  0  0  0  0
  144.7644  132.8694  162.5033 H   0  0  0  0  0  0  0  0  0  0  0  0
  147.0882  133.6757  162.0453 H   0  0  0  0  0  0  0  0  0  0  0  0
  147.8597  137.3387  161.6766 H   0  0  0  0  0  0  0  0  0  0  0  0
  148.5588  135.8051  162.1350 H   0  0  0  0  0  0  0  0  0  0  0  0
  149.1624  135.4018  159.9702 H   0  0  0  0  0  0  0  0  0  0  0  0
  147.4909  135.4750  159.4598 H   0  0  0  0  0  0  0  0  0  0  0  0
  147.7776  137.8285  159.0095 H   0  0  0  0  0  0  0  0  0  0  0  0
  148.8675  139.3010  158.1690 H   0  0  0  0  0  0  0  0  0  0  0  0
  151.7892  138.9717  157.6505 H   0  0  0  0  0  0  0  0  0  0  0  0
  150.4566  141.1995  159.3217 H   0  0  0  0  0  0  0  0  0  0  0  0
  152.2659  140.8802  160.8357 H   0  0  0  0  0  0  0  0  0  0  0  0
  153.3553  140.3440  159.5380 H   0  0  0  0  0  0  0  0  0  0  0  0
  152.4864  143.1600  160.1684 H   0  0  0  0  0  0  0  0  0  0  0  0
  153.8240  142.6267  159.1462 H   0  0  0  0  0  0  0  0  0  0  0  0
  152.7809  141.0698  157.2501 H   0  0  0  0  0  0  0  0  0  0  0  0
  150.9333  141.2896  154.8014 H   0  0  0  0  0  0  0  0  0  0  0  0
  150.1020  139.7545  155.0323 H   0  0  0  0  0  0  0  0  0  0  0  0
  151.8306  139.8675  155.3047 H   0  0  0  0  0  0  0  0  0  0  0  0
  149.2850  142.3873  156.3457 H   0  0  0  0  0  0  0  0  0  0  0  0
  148.9453  141.7497  157.9357 H   0  0  0  0  0  0  0  0  0  0  0  0
  148.4781  140.8385  156.5203 H   0  0  0  0  0  0  0  0  0  0  0  0
  145.4452  137.6369  161.5153 H   0  0  0  0  0  0  0  0  0  0  0  0
  1  2  1  0  0  0  0
  1 23  1  0  0  0  0
  1 24  1  0  0  0  0
  1 25  1  0  0  0  0
  2 22  1  0  0  0  0
  2  3  2  0  0  0  0
  3  4  1  0  0  0  0
  3 26  1  0  0  0  0
  4  5  2  0  0  0  0
  4 27  1  0  0  0  0
  5  6  1  0  0  0  0
  5 21  1  0  0  0  0
  6  7  1  0  0  0  0
  6 28  1  0  0  0  0
  6 29  1  0  0  0  0
  7  8  1  0  0  0  0
  7 30  1  0  0  0  0
  7 31  1  0  0  0  0
  8  9  1  0  0  0  0
  8 32  1  0  0  0  0
  9 10  2  0  0  0  0
  9 11  1  0  0  0  0
 11 12  1  0  0  0  0
 11 33  1  0  0  0  0
 12 18  1  0  0  0  0
 12 13  1  0  0  0  0
 12 34  1  0  0  0  0
 13 17  1  0  0  0  0
 13 14  1  0  0  0  0
 13 35  1  0  0  0  0
 14 15  1  0  0  0  0
 14 36  1  0  0  0  0
 14 37  1  0  0  0  0
 15 16  1  0  0  0  0
 15 38  1  0  0  0  0
 15 39  1  0  0  0  0
 16 17  1  0  0  0  0
 17 18  1  0  0  0  0
 17 40  1  0  0  0  0
 18 19  1  0  0  0  0
 18 20  1  0  0  0  0
 19 41  1  0  0  0  0
 19 42  1  0  0  0  0
 19 43  1  0  0  0  0
 20 44  1  0  0  0  0
 20 45  1  0  0  0  0
 20 46  1  0  0  0  0
 21 22  2  0  0  0  0
 21 47  1  0  0  0  0
M  END
> <s_m_source_file>
AV-unprocessed.smi

> <i_m_source_file_index>
767

> <i_lp_mmshare_version>
43012

> <i_f3d_flags>
0

> <s_epik_input>
W0NIM11jMVtjSF1bY0hdYyhbY0hdbjEpW0NIMl1bQ0gyXVtOSF1DKD1PKVtOSF1bQ0BIXTJDKFtDSDNdKShbQ0gzXSlbQ0BIXShbQ0BASF0yMylPW0NIMl1bQ0gyXTM=

> <s_epik_cmdline>
J2VwaWtfcHl0aG9uJywgJy1waCcsICc3LjAnLCAnLXRuJywgJzgnLCAnLW1hJywgJzIwMCcsICctbWV0YWxfYmluZGluZycsICctaW1hZScsICc8aW5maWxlLm1hZT4nLCAnLW9tYWUnLCAnPG91dGZpbGUubWFlPic=

> <r_epik_Ionization_Penalty>
0.0567523

> <r_epik_Ionization_Penalty_Charging>
0

> <r_epik_Ionization_Penalty_Neutral>
0.0567523

> <r_epik_State_Penalty>
0.0489186

> <r_epik_Charging_Adjusted_Penalty>
0.0489186

> <i_epik_Tot_Q>
0

> <i_epik_Tot_abs_Q>
0

> <r_epik_Metal_State_Penalty>
0.044622

> <b_epik_Metal_Only>
0

> <s_lp_Force_Field>
OPLS_2005

> <r_lp_Energy>
54.5337

> <b_lp_Chiralities_Consistent>
1

> <s_lp_Variant>
AV-unprocessed.smi:767-1

> <Gold.Version>
5.8.1

> <Gold.Id.Protein>
6NUR|6NUR_protein|mol2

> <Gold.PLP.Fitness>
42.6911

> <Gold.PLP.PLP>
-41.4744

> <Gold.PLP.part.hbond>
-1.0000

> <Gold.PLP.part.metal>
0.0000

> <Gold.PLP.part.buried>
-6.4303

> <Gold.PLP.part.nonpolar>
-34.8069

> <Gold.PLP.part.repulsive>
0.4743

> <Gold.PLP.ligand.clash>
0.0000

> <Gold.PLP.ligand.torsion>
1.0254

> <Gold.PLP.Chemscore.Hbond>
1.0000

> <Gold.PLP.Chemscore.CHOScore>
0.0000

> <Gold.PLP.Chemscore.Metal>
0.0000

> <Gold.Chemscore.Hbonds>
donor molecule, donor type, donor heavy atom, donor atom, acceptor molecule, acceptor atom, score
      P1  H  6896  6908       L1    10  0.78

> <Gold.PLP.Chemscore.Internal.Correction>
0.2675

> <Gold.Rescore>
     Score         DG    S(hbond)    S(metal)    S(lipo)     H(rot)  DE(clash)    DE(int)     intcor
     17.50     -18.52       0.98        0.00     115.13       1.45       0.04       0.99       ----

> <Gold.Chemscore.Fitness>
17.4969

> <Gold.Chemscore.DG>
-18.5197

> <Gold.Chemscore.ZeroCoef>
-5.4800

> <Gold.Chemscore.Hbond>
0.9822

> <Gold.Chemscore.Metal>
0.0000

> <Gold.Chemscore.Lipo>
115.1322

> <Gold.Chemscore.Internal_Hbond>
0.0000

> <Gold.Chemscore.DEClash>
0.0357

> <Gold.Chemscore.DEInternal>
0.9872

> <Gold.Chemscore.Rot>
1.4497

> <Gold.Chemscore.Internal.Correction>
   9.000000E+99

> <Gold.Chemscore.Hbonds>
donor molecule, donor type, donor heavy atom, donor atom, acceptor molecule, acceptor atom, score
      P1  H  6896  6908       L1    10  0.77

> <Gold.Chemscore.Hbond.Weighted>
-3.2805

> <Gold.Chemscore.Metal.Weighted>
-0.0000

> <Gold.Chemscore.Lipo.Weighted>
-13.4705

> <Gold.Chemscore.Internal_Hbond.Weighted>
0.0000

> <Gold.Chemscore.DEClash.Weighted>
0.0357

> <Gold.Chemscore.DEInternal.Weighted>
0.9872

> <Gold.Chemscore.Rot.Weighted>
3.7112

> <Gold.Chemscore.Internal.Correction.Weighted>
   9.000000E+99

> <Gold.Protein.RotatedTorsions>
[ 6907 6896 6895 6894 ] final -143.51 input  -60.11 | X-H torsion
[ 7974 7965 7964 7962 ] final  122.01 input  175.53 | X-H torsion
[ 8008 7997 7996 7995 ] final  -42.09 input   59.86 | X-H torsion
[ 10167 10162 10161 10158 ] final   88.33 input  -65.29 | X-H torsion
[ 10718 10713 10712 10709 ] final   20.24 input   66.30 | X-H torsion
[ 10763 10752 10751 10750 ] final -161.44 input  -60.55 | X-H torsion
[ 11005 11000 10999 10996 ] final  120.28 input  -57.11 | X-H torsion

> <Gold.Protein.ActiveResidues>
 VAL166  LYS551  ARG553  GLY616  TRP617  ASP618  TYR619  PRO620  LYS621  CYS622 
 ASP623  PHE694  ASN695  SER759  ASP760  ASP761  ALA762  ILE779  LEU786  VAL792 
 PHE793  MET794  SER795  GLU796  ALA797  LYS798  CYS799  TRP800  GLU811  SER814 

> <Gold.Protein.RotatedAtoms>
  151.1014  133.5241  159.2609 H   0  0  0  0  0  0  0  0  0  0  0  0  # atno 6907 bound_to 6896
  151.2070  135.0465  159.8905 H   0  0  0  0  0  0  0  0  0  0  0  0  # atno 6908 bound_to 6896
  152.5443  134.0835  159.8299 H   0  0  0  0  0  0  0  0  0  0  0  0  # atno 6909 bound_to 6896
  145.1126  139.3443  143.4755 H   0  0  0  0  0  0  0  0  0  0  0  0  # atno 7974 bound_to 7965
  154.4000  140.1482  156.3298 H   0  0  0  0  0  0  0  0  0  0  0  0  # atno 8008 bound_to 7997
  155.8453  140.3460  155.5637 H   0  0  0  0  0  0  0  0  0  0  0  0  # atno 8009 bound_to 7997
  155.8043  140.0874  157.1930 H   0  0  0  0  0  0  0  0  0  0  0  0  # atno 8010 bound_to 7997
  139.8684  144.6506  150.8978 H   0  0  0  0  0  0  0  0  0  0  0  0  # atno 10167 bound_to 10162
  157.1218  130.6553  149.5926 H   0  0  0  0  0  0  0  0  0  0  0  0  # atno 10718 bound_to 10713
  154.7303  135.3045  154.8902 H   0  0  0  0  0  0  0  0  0  0  0  0  # atno 10763 bound_to 10752
  153.9747  135.6737  153.4752 H   0  0  0  0  0  0  0  0  0  0  0  0  # atno 10764 bound_to 10752
  153.0912  135.4958  154.8614 H   0  0  0  0  0  0  0  0  0  0  0  0  # atno 10765 bound_to 10752
  139.9179  134.9634  156.7782 H   0  0  0  0  0  0  0  0  0  0  0  0  # atno 11005 bound_to 11000
  146.3525  140.1051  142.8606 LP  0  0  0  0  0  0  0  0  0  0  0  0  # atno 17320 bound_to 7965
  145.0830  140.9234  143.4814 LP  0  0  0  0  0  0  0  0  0  0  0  0  # atno 17321 bound_to 7965
  140.7764  143.3684  151.1694 LP  0  0  0  0  0  0  0  0  0  0  0  0  # atno 17342 bound_to 10162
  139.7307  143.9077  152.3018 LP  0  0  0  0  0  0  0  0  0  0  0  0  # atno 17343 bound_to 10162
  155.9827  130.4842  150.6894 LP  0  0  0  0  0  0  0  0  0  0  0  0  # atno 17370 bound_to 10713
  157.4470  131.0868  151.0885 LP  0  0  0  0  0  0  0  0  0  0  0  0  # atno 17371 bound_to 10713
  140.6565  133.9684  155.7782 LP  0  0  0  0  0  0  0  0  0  0  0  0  # atno 17394 bound_to 11000
  141.0672  134.0259  157.3577 LP  0  0  0  0  0  0  0  0  0  0  0  0  # atno 17395 bound_to 11000

$$$$
