AV-unprocessed.smi:978|AV-procd|sdf|4309|dock6
  -GOLD-   22720 2213D 1   1.00000     0.00000
 Structure written by MMmdl.
 39 40  0  0  0  0  0  0  0  0  2 V2000
  151.0161  143.0731  159.2151 C   0  0  0  0  0  0  0  0  0  0  0  0
  151.4820  141.9500  158.3308 C   0  0  0  0  0  0  0  0  0  0  0  0
  152.5053  141.2053  158.7228 N   0  0  0  0  0  0  0  0  0  0  0  0
  152.7613  140.2937  157.6869 O   0  0  0  0  0  0  0  0  0  0  0  0
  151.8746  140.5111  156.6808 C   0  0  0  0  0  0  0  0  0  0  0  0
  151.9950  139.6453  155.4724 C   0  0  0  0  0  0  0  0  0  0  0  0
  151.0338  141.5204  157.0469 C   0  0  0  0  0  0  0  0  0  0  0  0
  149.9947  142.0386  156.2342 N   0  0  0  0  0  0  0  0  0  0  0  0
  149.2141  141.3467  155.3905 C   0  0  0  0  0  0  0  0  0  0  0  0
  149.3047  140.1382  155.1776 O   0  0  0  0  0  0  0  0  0  0  0  0
  148.3250  142.1433  154.7802 N   0  0  0  0  0  0  0  0  0  0  0  0
  147.3528  141.7094  153.7772 C   0  0  2  0  0  0  0  0  0  0  0  0
  146.2441  142.7640  153.6107 C   0  0  0  0  0  0  0  0  0  0  0  0
  145.2963  142.8040  154.8238 C   0  0  0  0  0  0  0  0  0  0  0  0
  144.7194  141.4641  155.0967 N   0  3  2  0  0  0  0  0  0  0  0  0
  143.7109  141.4947  156.1777 C   0  0  0  0  0  0  0  0  0  0  0  0
  145.7701  140.4435  155.3341 C   0  0  0  0  0  0  0  0  0  0  0  0
  146.7264  140.3450  154.1323 C   0  0  0  0  0  0  0  0  0  0  0  0
  150.6731  143.9230  158.6250 H   0  0  0  0  0  0  0  0  0  0  0  0
  151.8175  143.4304  159.8625 H   0  0  0  0  0  0  0  0  0  0  0  0
  150.1939  142.7525  159.8551 H   0  0  0  0  0  0  0  0  0  0  0  0
  151.3407  139.9926  154.6728 H   0  0  0  0  0  0  0  0  0  0  0  0
  151.7226  138.6165  155.7081 H   0  0  0  0  0  0  0  0  0  0  0  0
  153.0180  139.6471  155.0959 H   0  0  0  0  0  0  0  0  0  0  0  0
  149.9026  143.0438  156.2216 H   0  0  0  0  0  0  0  0  0  0  0  0
  148.3346  143.1256  155.0124 H   0  0  0  0  0  0  0  0  0  0  0  0
  147.8764  141.6177  152.8237 H   0  0  0  0  0  0  0  0  0  0  0  0
  146.6801  143.7494  153.4416 H   0  0  0  0  0  0  0  0  0  0  0  0
  145.6645  142.5331  152.7158 H   0  0  0  0  0  0  0  0  0  0  0  0
  145.8263  143.1614  155.7081 H   0  0  0  0  0  0  0  0  0  0  0  0
  144.4916  143.5145  154.6303 H   0  0  0  0  0  0  0  0  0  0  0  0
  144.1644  141.7792  157.1282 H   0  0  0  0  0  0  0  0  0  0  0  0
  143.2465  140.5155  156.2987 H   0  0  0  0  0  0  0  0  0  0  0  0
  142.9208  142.2103  155.9476 H   0  0  0  0  0  0  0  0  0  0  0  0
  146.3250  140.6908  156.2404 H   0  0  0  0  0  0  0  0  0  0  0  0
  145.3034  139.4727  155.5049 H   0  0  0  0  0  0  0  0  0  0  0  0
  146.1723  139.9741  153.2690 H   0  0  0  0  0  0  0  0  0  0  0  0
  147.5009  139.6033  154.3303 H   0  0  0  0  0  0  0  0  0  0  0  0
  144.2306  141.1846  154.2580 H   0  0  0  0  0  0  0  0  0  0  0  0
  1  2  1  0  0  0  0
  1 19  1  0  0  0  0
  1 20  1  0  0  0  0
  1 21  1  0  0  0  0
  2  7  1  0  0  0  0
  2  3  2  0  0  0  0
  3  4  1  0  0  0  0
  4  5  1  0  0  0  0
  5  6  1  0  0  0  0
  5  7  2  0  0  0  0
  6 22  1  0  0  0  0
  6 23  1  0  0  0  0
  6 24  1  0  0  0  0
  7  8  1  0  0  0  0
  8  9  1  0  0  0  0
  8 25  1  0  0  0  0
  9 10  2  0  0  0  0
  9 11  1  0  0  0  0
 11 12  1  0  0  0  0
 11 26  1  0  0  0  0
 12 18  1  0  0  0  0
 12 13  1  0  0  0  0
 12 27  1  0  0  0  0
 13 14  1  0  0  0  0
 13 28  1  0  0  0  0
 13 29  1  0  0  0  0
 14 15  1  0  0  0  0
 14 30  1  0  0  0  0
 14 31  1  0  0  0  0
 15 16  1  0  0  0  0
 15 17  1  0  0  0  0
 15 39  1  0  0  0  0
 16 32  1  0  0  0  0
 16 33  1  0  0  0  0
 16 34  1  0  0  0  0
 17 18  1  0  0  0  0
 17 35  1  0  0  0  0
 17 36  1  0  0  0  0
 18 37  1  0  0  0  0
 18 38  1  0  0  0  0
M  CHG  1  15   1
M  END
> <s_m_source_file>
AV-unprocessed.smi

> <i_m_source_file_index>
978

> <i_lp_mmshare_version>
43012

> <i_f3d_flags>
0

> <s_epik_input>
W0NIM11jMW5vYyhbQ0gzXSljMVtOSF1DKD1PKVtOSF1bQ0hdMltDSDJdW0NIMl1OKFtDSDNdKVtDSDJdW0NIMl0y

> <s_epik_cmdline>
J2VwaWtfcHl0aG9uJywgJy1waCcsICc3LjAnLCAnLXRuJywgJzgnLCAnLW1hJywgJzIwMCcsICctbWV0YWxfYmluZGluZycsICctaW1hZScsICc8aW5maWxlLm1hZT4nLCAnLW9tYWUnLCAnPG91dGZpbGUubWFlPic=

> <r_epik_Ionization_Penalty>
0.00369783

> <r_epik_Ionization_Penalty_Charging>
0.00366825

> <r_epik_Ionization_Penalty_Neutral>
2.95799e-05

> <r_epik_State_Penalty>
0.00261101

> <r_epik_Charging_Adjusted_Penalty>
0.00627926

> <i_epik_Tot_Q>
1

> <i_epik_Tot_abs_Q>
1

> <r_epik_Metal_State_Penalty>
-0

> <b_epik_Metal_Only>
0

> <s_lp_Force_Field>
OPLS_2005

> <r_lp_Energy>
17.545

> <b_lp_Chiralities_Consistent>
1

> <s_lp_Variant>
AV-unprocessed.smi:978-2

> <Gold.Version>
5.8.1

> <Gold.Id.Protein>
6NUR|6NUR_protein|mol2

> <Gold.PLP.Fitness>
41.3529

> <Gold.PLP.PLP>
-29.1030

> <Gold.PLP.part.hbond>
-4.0000

> <Gold.PLP.part.metal>
0.0000

> <Gold.PLP.part.buried>
-4.9813

> <Gold.PLP.part.nonpolar>
-19.4231

> <Gold.PLP.part.repulsive>
0.3572

> <Gold.PLP.ligand.clash>
0.0000

> <Gold.PLP.ligand.torsion>
0.4869

> <Gold.PLP.Chemscore.Hbond>
4.3182

> <Gold.PLP.Chemscore.CHOScore>
0.0000

> <Gold.PLP.Chemscore.Metal>
0.0000

> <Gold.Chemscore.Hbonds>
donor molecule, donor type, donor heavy atom, donor atom, acceptor molecule, acceptor atom, score
      L1  H     8    25       P1  8028  0.98
      L1  H    11    26       P1  8028  1.00
      L1  H    15    39       P1 10175  2.00
      P1  H  7997  8010       L1     4  0.35

> <Gold.PLP.Chemscore.Internal.Correction>
0.2691

> <Gold.Rescore>
     Score         DG    S(hbond)    S(metal)    S(lipo)     H(rot)  DE(clash)    DE(int)     intcor
     16.10     -20.52       3.08        0.00      62.63       1.00       0.02       4.40       ----

> <Gold.Chemscore.Fitness>
16.1016

> <Gold.Chemscore.DG>
-20.5195

> <Gold.Chemscore.ZeroCoef>
-5.4800

> <Gold.Chemscore.Hbond>
3.0754

> <Gold.Chemscore.Metal>
0.0000

> <Gold.Chemscore.Lipo>
62.6302

> <Gold.Chemscore.Internal_Hbond>
0.0000

> <Gold.Chemscore.DEClash>
0.0207

> <Gold.Chemscore.DEInternal>
4.3972

> <Gold.Chemscore.Rot>
1.0000

> <Gold.Chemscore.Internal.Correction>
   9.000000E+99

> <Gold.Chemscore.Hbonds>
donor molecule, donor type, donor heavy atom, donor atom, acceptor molecule, acceptor atom, score
      L1  H     8    25       P1  8028  0.88
      L1  H    11    26       P1  8028  0.99
      L1  H    15    39       P1 10175  0.69
      P1  H  7997  8010       L1     4  0.30

> <Gold.Chemscore.Hbond.Weighted>
-10.2718

> <Gold.Chemscore.Metal.Weighted>
-0.0000

> <Gold.Chemscore.Lipo.Weighted>
-7.3277

> <Gold.Chemscore.Internal_Hbond.Weighted>
0.0000

> <Gold.Chemscore.DEClash.Weighted>
0.0207

> <Gold.Chemscore.DEInternal.Weighted>
4.3972

> <Gold.Chemscore.Rot.Weighted>
2.5600

> <Gold.Chemscore.Internal.Correction.Weighted>
   9.000000E+99

> <Gold.Protein.RotatedTorsions>
[ 6907 6896 6895 6894 ] final   94.22 input  -60.11 | X-H torsion
[ 7974 7965 7964 7962 ] final  112.07 input  175.53 | X-H torsion
[ 8008 7997 7996 7995 ] final   16.05 input   59.86 | X-H torsion
[ 10167 10162 10161 10158 ] final  144.43 input  -65.29 | X-H torsion
[ 10718 10713 10712 10709 ] final -137.10 input   66.30 | X-H torsion
[ 10763 10752 10751 10750 ] final  -30.70 input  -60.55 | X-H torsion
[ 11005 11000 10999 10996 ] final  136.83 input  -57.11 | X-H torsion

> <Gold.Protein.ActiveResidues>
 VAL166  LYS551  ARG553  GLY616  TRP617  ASP618  TYR619  PRO620  LYS621  CYS622 
 ASP623  PHE694  ASN695  SER759  ASP760  ASP761  ALA762  ILE779  LEU786  VAL792 
 PHE793  MET794  SER795  GLU796  ALA797  LYS798  CYS799  TRP800  GLU811  SER814 

> <Gold.Protein.RotatedAtoms>
  152.5450  134.1227  159.8405 H   0  0  0  0  0  0  0  0  0  0  0  0  # atno 6907 bound_to 6896
  151.1281  133.5049  159.2607 H   0  0  0  0  0  0  0  0  0  0  0  0  # atno 6908 bound_to 6896
  151.1705  135.0325  159.8804 H   0  0  0  0  0  0  0  0  0  0  0  0  # atno 6909 bound_to 6896
  145.2343  139.2806  143.4152 H   0  0  0  0  0  0  0  0  0  0  0  0  # atno 7974 bound_to 7965
  154.8714  140.2959  155.5479 H   0  0  0  0  0  0  0  0  0  0  0  0  # atno 8008 bound_to 7997
  156.3021  140.2459  156.3636 H   0  0  0  0  0  0  0  0  0  0  0  0  # atno 8009 bound_to 7997
  154.8813  140.0398  157.1773 H   0  0  0  0  0  0  0  0  0  0  0  0  # atno 8010 bound_to 7997
  139.4947  144.5972  151.6558 H   0  0  0  0  0  0  0  0  0  0  0  0  # atno 10167 bound_to 10162
  156.2843  130.7339  151.1346 H   0  0  0  0  0  0  0  0  0  0  0  0  # atno 10718 bound_to 10713
  153.7853  135.6902  153.4881 H   0  0  0  0  0  0  0  0  0  0  0  0  # atno 10763 bound_to 10752
  153.1785  135.4515  154.9995 H   0  0  0  0  0  0  0  0  0  0  0  0  # atno 10764 bound_to 10752
  154.8066  135.3359  154.7353 H   0  0  0  0  0  0  0  0  0  0  0  0  # atno 10765 bound_to 10752
  140.0072  134.9454  157.0201 H   0  0  0  0  0  0  0  0  0  0  0  0  # atno 11005 bound_to 11000
  146.3345  140.2687  142.8605 LP  0  0  0  0  0  0  0  0  0  0  0  0  # atno 17320 bound_to 7965
  144.9648  140.8311  143.5491 LP  0  0  0  0  0  0  0  0  0  0  0  0  # atno 17321 bound_to 7965
  140.5613  144.0264  150.6171 LP  0  0  0  0  0  0  0  0  0  0  0  0  # atno 17342 bound_to 10162
  140.3351  143.3054  152.0647 LP  0  0  0  0  0  0  0  0  0  0  0  0  # atno 17343 bound_to 10162
  157.7324  131.0600  150.5630 LP  0  0  0  0  0  0  0  0  0  0  0  0  # atno 17370 bound_to 10713
  156.5740  130.4287  149.6007 LP  0  0  0  0  0  0  0  0  0  0  0  0  # atno 17371 bound_to 10713
  140.4619  134.1475  155.7192 LP  0  0  0  0  0  0  0  0  0  0  0  0  # atno 17394 bound_to 11000
  141.1685  133.8655  157.1641 LP  0  0  0  0  0  0  0  0  0  0  0  0  # atno 17395 bound_to 11000

$$$$
