#       Name:                AV-unprocessed.smi:2270
#       Creating user name   scv26
#       Creation time:       Fri Mar 27 12:36:21 2020


#       File generated by GOLD software.
#

@<TRIPOS>MOLECULE
AV-unprocessed.smi:2270
    57    58     1
SMALL
NO_CHARGES


@<TRIPOS>ATOM
      1 ****        -4.9249   5.7714   0.1180 C.3            1 S1                 0.0000
      2 ****        -4.6943   4.4668  -0.6152 C.ar           1 S1                 0.0000
      3 ****        -5.5920   4.0244  -1.6059 C.ar           1 S1                 0.0000
      4 ****        -5.3165   2.8071  -2.2533 C.ar           1 S1                 0.0000
      5 ****        -4.1674   2.0832  -1.8816 C.ar           1 S1                 0.0000
      6 ****        -3.3253   2.5917  -0.8596 C.ar           1 S1                 0.0000
      7 ****        -2.1444   1.8976  -0.4855 N.am           1 S1                 0.0000
      8 ****        -1.9439   0.5694  -0.4289 C.2            1 S1                 0.0000
      9 ****        -2.7845  -0.2882  -0.7003 O.2            1 S1                 0.0000
     10 ****        -0.6988   0.2838  -0.0226 N.am           1 S1                 0.0000
     11 ****        -0.1467  -1.0583   0.1161 C.3            1 S1                 0.0000
     12 ****         1.3739  -1.1241  -0.2246 C.3            1 S1                 0.0000
     13 ****         1.7058  -0.6272  -1.6754 C.3            1 S1                 0.0000
     14 ****         1.8495   0.9022  -1.7809 C.3            1 S1                 0.0000
     15 ****         0.7529  -1.1729  -2.7553 C.3            1 S1                 0.0000
     16 ****         1.9446  -2.4800  -0.0316 N.3            1 S1                 0.0000
     17 ****         3.4114  -2.5205   0.1110 C.3            1 S1                 0.0000
     18 ****         3.8887  -2.0068   1.4873 C.3            1 S1                 0.0000
     19 ****         3.2696  -2.7925   2.5782 N.4            1 S1                 1.0000
     20 ****         3.7265  -2.3709   3.9192 C.3            1 S1                 0.0000
     21 ****         1.7962  -2.7867   2.4432 C.3            1 S1                 0.0000
     22 ****         1.3935  -3.3119   1.0491 C.3            1 S1                 0.0000
     23 ****        -3.5899   3.7750  -0.2590 N.ar           1 S1                 0.0000
     24 ****        -5.8227   6.2744  -0.2424 H              1 S1                 0.0000
     25 ****        -4.0778   6.4427  -0.0257 H              1 S1                 0.0000
     26 ****        -5.0430   5.5896   1.1865 H              1 S1                 0.0000
     27 ****        -6.4660   4.6022  -1.8689 H              1 S1                 0.0000
     28 ****        -5.9728   2.4358  -3.0263 H              1 S1                 0.0000
     29 ****        -3.9439   1.1588  -2.3926 H              1 S1                 0.0000
     30 ****        -1.3989   2.4770  -0.1291 H              1 S1                 0.0000
     31 ****        -0.0791   1.0535   0.1842 H              1 S1                 0.0000
     32 ****        -0.3314  -1.3297   1.1542 H              1 S1                 0.0000
     33 ****        -0.7002  -1.7747  -0.4933 H              1 S1                 0.0000
     34 ****         1.8717  -0.4606   0.4811 H              1 S1                 0.0000
     35 ****         2.6875  -0.9934  -1.9630 H              1 S1                 0.0000
     36 ****         0.8972   1.4220  -1.6935 H              1 S1                 0.0000
     37 ****         2.2722   1.1814  -2.7464 H              1 S1                 0.0000
     38 ****         2.5174   1.2902  -1.0115 H              1 S1                 0.0000
     39 ****        -0.2510  -0.7588  -2.6643 H              1 S1                 0.0000
     40 ****         0.6740  -2.2589  -2.6985 H              1 S1                 0.0000
     41 ****         1.1141  -0.9242  -3.7536 H              1 S1                 0.0000
     42 ****         3.7373  -3.5539  -0.0153 H              1 S1                 0.0000
     43 ****         3.9190  -1.9647  -0.6735 H              1 S1                 0.0000
     44 ****         4.9730  -2.1055   1.5510 H              1 S1                 0.0000
     45 ****         3.6672  -0.9468   1.6141 H              1 S1                 0.0000
     46 ****         3.4321  -1.3415   4.1285 H              1 S1                 0.0000
     47 ****         4.8123  -2.4381   3.9934 H              1 S1                 0.0000
     48 ****         3.2996  -3.0131   4.6901 H              1 S1                 0.0000
     49 ****         1.3630  -3.4280   3.2115 H              1 S1                 0.0000
     50 ****         1.4111  -1.7811   2.6163 H              1 S1                 0.0000
     51 ****         0.3122  -3.4109   0.9628 H              1 S1                 0.0000
     52 ****         1.7745  -4.3272   0.9286 H              1 S1                 0.0000
     53 ****         3.5680  -3.7495   2.4538 H              1 S1                 0.0000
     54 ****        -3.7018  -0.0151  -0.9901 LP             1 S1                 0.0000
     55 ****        -2.5500  -1.2578  -0.6310 LP             1 S1                 0.0000
     56 ****         1.6524  -2.8778  -0.9013 LP             1 S1                 0.0000
     57 ****        -2.9737   4.1341   0.4420 LP             1 S1                 0.0000
@<TRIPOS>BOND
    1    1    2 1     
    2    1   24 1     
    3    1   25 1     
    4    1   26 1     
    5    2   23 ar    
    6    2    3 ar    
    7    3    4 ar    
    8    3   27 1     
    9    4    5 ar    
   10    4   28 1     
   11    5    6 ar    
   12    5   29 1     
   13    6    7 1     
   14    6   23 ar    
   15    7    8 am    
   16    7   30 1     
   17    8    9 2     
   18    8   10 am    
   19   10   11 1     
   20   10   31 1     
   21   11   12 1     
   22   11   32 1     
   23   11   33 1     
   24   12   13 1     
   25   12   16 1     
   26   12   34 1     
   27   13   14 1     
   28   13   15 1     
   29   13   35 1     
   30   14   36 1     
   31   14   37 1     
   32   14   38 1     
   33   15   39 1     
   34   15   40 1     
   35   15   41 1     
   36   16   22 1     
   37   16   17 1     
   38   17   18 1     
   39   17   42 1     
   40   17   43 1     
   41   18   19 1     
   42   18   44 1     
   43   18   45 1     
   44   19   20 1     
   45   19   21 1     
   46   19   53 1     
   47   20   46 1     
   48   20   47 1     
   49   20   48 1     
   50   21   22 1     
   51   21   49 1     
   52   21   50 1     
   53   22   51 1     
   54   22   52 1     
   55    9   54 1     
   56    9   55 1     
   57   16   56 1     
   58   23   57 1     
@<TRIPOS>SUBSTRUCTURE
      1 S1             1
@<TRIPOS>SET
LONE_PAIRS      STATIC     ATOMS    <user>   **** ""
4 54 55 56 57
DONOR_HYDROGENS      STATIC     ATOMS    <user>   **** ""
3 30 31 53
ATOM$BLUE        STATIC     ATOMS    COLORGROUP SYSTEM
4 54 55 56 57
ATOM$RED        STATIC     ATOMS    COLORGROUP SYSTEM
3 30 31 53
