AV-unprocessed.smi:1208|AV-procd|sdf|5061|dock3
  -GOLD-   22720 4103D 1   1.00000     0.00000
 Structure written by MMmdl.
 35 36  0  0  0  0  0  0  0  0  2 V2000
  151.8899  139.4903  156.8375 C   0  0  0  0  0  0  0  0  0  0  0  0
  151.6225  139.1916  158.3209 C   0  0  2  0  0  0  0  0  0  0  0  0
  150.2457  138.7213  158.4598 N   0  0  0  0  0  0  0  0  0  0  0  0
  149.8619  137.4611  158.7176 C   0  0  0  0  0  0  0  0  0  0  0  0
  150.6549  136.5298  158.8679 O   0  0  0  0  0  0  0  0  0  0  0  0
  148.3432  137.2432  158.8158 C   0  0  0  0  0  0  0  0  0  0  0  0
  147.9173  136.4464  159.9761 N   0  0  0  0  0  0  0  0  0  0  0  0
  148.0311  137.1525  161.2497 N   0  5  0  0  0  0  0  0  0  0  0  0
  147.6554  136.5205  162.3932 C   0  0  0  0  0  0  0  0  0  0  0  0
  147.7111  137.0540  163.4989 O   0  0  0  0  0  0  0  0  0  0  0  0
  147.1722  135.1532  162.2924 C   0  0  0  0  0  0  0  0  0  0  0  0
  147.0979  134.5188  161.1059 C   0  0  0  0  0  0  0  0  0  0  0  0
  147.4891  135.1574  159.8549 C   0  0  0  0  0  0  0  0  0  0  0  0
  147.4352  134.5797  158.7689 O   0  0  0  0  0  0  0  0  0  0  0  0
  151.8409  140.4265  159.2186 C   0  0  2  0  0  0  0  0  0  0  0  0
  151.2626  141.7294  158.6609 C   0  0  0  0  0  0  0  0  0  0  0  0
  152.1250  142.7669  159.3407 C   0  0  0  0  0  0  0  0  0  0  0  0
  153.4912  142.0910  159.3138 C   0  0  0  0  0  0  0  0  0  0  0  0
  153.2341  140.6912  159.3808 O   0  0  0  0  0  0  0  0  0  0  0  0
  152.9213  139.8022  156.6731 H   0  0  0  0  0  0  0  0  0  0  0  0
  151.2392  140.2837  156.4683 H   0  0  0  0  0  0  0  0  0  0  0  0
  151.7179  138.6057  156.2235 H   0  0  0  0  0  0  0  0  0  0  0  0
  152.3195  138.4118  158.6327 H   0  0  0  0  0  0  0  0  0  0  0  0
  149.5198  139.4149  158.3557 H   0  0  0  0  0  0  0  0  0  0  0  0
  147.8505  138.2167  158.8381 H   0  0  0  0  0  0  0  0  0  0  0  0
  148.0069  136.7686  157.8918 H   0  0  0  0  0  0  0  0  0  0  0  0
  146.8681  134.6343  163.1894 H   0  0  0  0  0  0  0  0  0  0  0  0
  146.7340  133.5025  161.0782 H   0  0  0  0  0  0  0  0  0  0  0  0
  151.4238  140.2498  160.2114 H   0  0  0  0  0  0  0  0  0  0  0  0
  151.4013  141.7822  157.5799 H   0  0  0  0  0  0  0  0  0  0  0  0
  150.2009  141.8516  158.8764 H   0  0  0  0  0  0  0  0  0  0  0  0
  152.1158  143.7333  158.8362 H   0  0  0  0  0  0  0  0  0  0  0  0
  151.7955  142.9122  160.3704 H   0  0  0  0  0  0  0  0  0  0  0  0
  154.0018  142.3029  158.3737 H   0  0  0  0  0  0  0  0  0  0  0  0
  154.1345  142.4185  160.1305 H   0  0  0  0  0  0  0  0  0  0  0  0
  1  2  1  0  0  0  0
  1 20  1  0  0  0  0
  1 21  1  0  0  0  0
  1 22  1  0  0  0  0
  2  3  1  0  0  0  0
  2 15  1  0  0  0  0
  2 23  1  0  0  0  0
  3  4  1  0  0  0  0
  3 24  1  0  0  0  0
  4  5  2  0  0  0  0
  4  6  1  0  0  0  0
  6 25  1  0  0  0  0
  6 26  1  0  0  0  0
  6  7  1  0  0  0  0
  7  8  1  0  0  0  0
  7 13  1  0  0  0  0
  8  9  1  0  0  0  0
  9 10  2  0  0  0  0
  9 11  1  0  0  0  0
 11 27  1  0  0  0  0
 11 12  2  0  0  0  0
 12 28  1  0  0  0  0
 12 13  1  0  0  0  0
 13 14  2  0  0  0  0
 15 19  1  0  0  0  0
 15 16  1  0  0  0  0
 15 29  1  0  0  0  0
 16 17  1  0  0  0  0
 16 30  1  0  0  0  0
 16 31  1  0  0  0  0
 17 18  1  0  0  0  0
 17 32  1  0  0  0  0
 17 33  1  0  0  0  0
 18 19  1  0  0  0  0
 18 34  1  0  0  0  0
 18 35  1  0  0  0  0
M  CHG  1   8  -1
M  END
> <s_m_source_file>
AV-unprocessed.smi

> <i_m_source_file_index>
1208

> <i_lp_mmshare_version>
43012

> <i_f3d_flags>
0

> <s_epik_input>
TzFbQ0gyXVtDSDJdW0NIMl1bQ0BIXTFbQ0BIXShbQ0gzXSlbTkhdQyg9TylbQ0gyXW4yW25IXWMoPU8pW2NIXVtjSF1jMj1P

> <s_epik_cmdline>
J2VwaWtfcHl0aG9uJywgJy1waCcsICc3LjAnLCAnLXRuJywgJzgnLCAnLW1hJywgJzIwMCcsICctbWV0YWxfYmluZGluZycsICctaW1hZScsICc8aW5maWxlLm1hZT4nLCAnLW9tYWUnLCAnPG91dGZpbGUubWFlPic=

> <r_lp_tautomer_probability>
1

> <r_epik_Ionization_Penalty>
0.0975494

> <r_epik_Ionization_Penalty_Charging>
0.0975494

> <r_epik_Ionization_Penalty_Neutral>
2.30132e-08

> <r_epik_State_Penalty>
0.034345

> <r_epik_Charging_Adjusted_Penalty>
0.131894

> <i_epik_Tot_Q>
-1

> <i_epik_Tot_abs_Q>
1

> <r_epik_Metal_State_Penalty>
0.034345

> <b_epik_Metal_Only>
0

> <s_lp_Force_Field>
OPLS_2005

> <r_lp_Energy>
34.668

> <b_lp_Chiralities_Consistent>
1

> <s_lp_Variant>
AV-unprocessed.smi:1208-1

> <Gold.Version>
5.8.1

> <Gold.Id.Protein>
6NUR|6NUR_protein|mol2

> <Gold.PLP.Fitness>
44.5533

> <Gold.PLP.PLP>
-32.9602

> <Gold.PLP.part.hbond>
-3.7007

> <Gold.PLP.part.metal>
0.0000

> <Gold.PLP.part.buried>
-3.2811

> <Gold.PLP.part.nonpolar>
-26.0691

> <Gold.PLP.part.repulsive>
0.2025

> <Gold.PLP.ligand.clash>
0.0000

> <Gold.PLP.ligand.torsion>
0.6599

> <Gold.PLP.Chemscore.Hbond>
4.3005

> <Gold.PLP.Chemscore.CHOScore>
0.0000

> <Gold.PLP.Chemscore.Metal>
0.0000

> <Gold.Chemscore.Hbonds>
donor molecule, donor type, donor heavy atom, donor atom, acceptor molecule, acceptor atom, score
      P1  H  6896  6908       L1     5  1.00
      P1  H  6931  6943       L1     8  1.90
      P1  H  6934  6947       L1     8  1.23

> <Gold.PLP.Chemscore.Internal.Correction>
0.0112

> <Gold.Rescore>
     Score         DG    S(hbond)    S(metal)    S(lipo)     H(rot)  DE(clash)    DE(int)     intcor
     13.61     -14.54       2.08        0.00      61.75       1.99       0.12       0.81       ----

> <Gold.Chemscore.Fitness>
13.6138

> <Gold.Chemscore.DG>
-14.5422

> <Gold.Chemscore.ZeroCoef>
-5.4800

> <Gold.Chemscore.Hbond>
2.0784

> <Gold.Chemscore.Metal>
0.0000

> <Gold.Chemscore.Lipo>
61.7509

> <Gold.Chemscore.Internal_Hbond>
0.0000

> <Gold.Chemscore.DEClash>
0.1214

> <Gold.Chemscore.DEInternal>
0.8069

> <Gold.Chemscore.Rot>
1.9940

> <Gold.Chemscore.Internal.Correction>
   9.000000E+99

> <Gold.Chemscore.Hbonds>
donor molecule, donor type, donor heavy atom, donor atom, acceptor molecule, acceptor atom, score
      P1  H  6896  6908       L1     5  0.96
      P1  H  6931  6943       L1     8  0.21
      P1  H  6934  6947       L1     8  0.30

> <Gold.Chemscore.Hbond.Weighted>
-6.9420

> <Gold.Chemscore.Metal.Weighted>
-0.0000

> <Gold.Chemscore.Lipo.Weighted>
-7.2249

> <Gold.Chemscore.Internal_Hbond.Weighted>
0.0000

> <Gold.Chemscore.DEClash.Weighted>
0.1214

> <Gold.Chemscore.DEInternal.Weighted>
0.8069

> <Gold.Chemscore.Rot.Weighted>
5.1047

> <Gold.Chemscore.Internal.Correction.Weighted>
   9.000000E+99

> <Gold.Protein.RotatedTorsions>
[ 6907 6896 6895 6894 ] final -145.05 input  -60.11 | X-H torsion
[ 7974 7965 7964 7962 ] final  -89.19 input  175.53 | X-H torsion
[ 8008 7997 7996 7995 ] final  -18.09 input   59.86 | X-H torsion
[ 10167 10162 10161 10158 ] final  -13.77 input  -65.29 | X-H torsion
[ 10718 10713 10712 10709 ] final  -28.69 input   66.30 | X-H torsion
[ 10763 10752 10751 10750 ] final -150.89 input  -60.55 | X-H torsion
[ 11005 11000 10999 10996 ] final  144.44 input  -57.11 | X-H torsion

> <Gold.Protein.ActiveResidues>
 VAL166  LYS551  ARG553  GLY616  TRP617  ASP618  TYR619  PRO620  LYS621  CYS622 
 ASP623  PHE694  ASN695  SER759  ASP760  ASP761  ALA762  ILE779  LEU786  VAL792 
 PHE793  MET794  SER795  GLU796  ALA797  LYS798  CYS799  TRP800  GLU811  SER814 

> <Gold.Protein.RotatedAtoms>
  151.1224  133.5095  159.2601 H   0  0  0  0  0  0  0  0  0  0  0  0  # atno 6907 bound_to 6896
  151.1847  135.0376  159.8817 H   0  0  0  0  0  0  0  0  0  0  0  0  # atno 6908 bound_to 6896
  152.5456  134.1072  159.8396 H   0  0  0  0  0  0  0  0  0  0  0  0  # atno 6909 bound_to 6896
  145.4431  140.9559  143.2064 H   0  0  0  0  0  0  0  0  0  0  0  0  # atno 7974 bound_to 7965
  154.4931  140.2125  155.9505 H   0  0  0  0  0  0  0  0  0  0  0  0  # atno 8008 bound_to 7997
  156.1333  140.3193  155.8350 H   0  0  0  0  0  0  0  0  0  0  0  0  # atno 8009 bound_to 7997
  155.4256  140.0500  157.3013 H   0  0  0  0  0  0  0  0  0  0  0  0  # atno 8010 bound_to 7997
  140.7188  143.5391  150.9430 H   0  0  0  0  0  0  0  0  0  0  0  0  # atno 10167 bound_to 10162
  156.4220  130.4428  149.7177 H   0  0  0  0  0  0  0  0  0  0  0  0  # atno 10718 bound_to 10713
  154.8091  135.3273  154.7352 H   0  0  0  0  0  0  0  0  0  0  0  0  # atno 10763 bound_to 10752
  153.8005  135.6904  153.4861 H   0  0  0  0  0  0  0  0  0  0  0  0  # atno 10764 bound_to 10752
  153.1857  135.4570  155.0031 H   0  0  0  0  0  0  0  0  0  0  0  0  # atno 10765 bound_to 10752
  140.0632  134.9193  157.1220 H   0  0  0  0  0  0  0  0  0  0  0  0  # atno 11005 bound_to 11000
  144.8109  139.5965  143.7030 LP  0  0  0  0  0  0  0  0  0  0  0  0  # atno 17320 bound_to 7965
  146.2545  139.6272  142.9404 LP  0  0  0  0  0  0  0  0  0  0  0  0  # atno 17321 bound_to 7965
  139.9113  143.6716  152.3114 LP  0  0  0  0  0  0  0  0  0  0  0  0  # atno 17342 bound_to 10162
  139.7100  144.7621  151.1127 LP  0  0  0  0  0  0  0  0  0  0  0  0  # atno 17343 bound_to 10162
  156.4114  130.7724  151.2737 LP  0  0  0  0  0  0  0  0  0  0  0  0  # atno 17370 bound_to 10713
  157.7508  131.0210  150.3733 LP  0  0  0  0  0  0  0  0  0  0  0  0  # atno 17371 bound_to 10713
  140.3738  134.2361  155.7176 LP  0  0  0  0  0  0  0  0  0  0  0  0  # atno 17394 bound_to 11000
  141.1982  133.8041  157.0594 LP  0  0  0  0  0  0  0  0  0  0  0  0  # atno 17395 bound_to 11000

$$$$
