AV-unprocessed.smi:2326|AV-procd|sdf|9297|dock2
  -GOLD-   2272012513D 1   1.00000     0.00000
 Structure written by MMmdl.
 37 38  0  0  0  0  0  0  0  0  1 V2000
  151.6304  145.6425  160.0954 C   0  0  0  0  0  0  0  0  0  0  0  0
  151.9384  144.1619  160.0133 C   0  0  0  0  0  0  0  0  0  0  0  0
  152.5579  143.4895  161.0850 C   0  0  0  0  0  0  0  0  0  0  0  0
  152.8225  142.1158  160.9412 C   0  0  0  0  0  0  0  0  0  0  0  0
  152.4612  141.4758  159.7399 C   0  0  0  0  0  0  0  0  0  0  0  0
  151.8419  142.2236  158.7132 C   0  0  0  0  0  0  0  0  0  0  0  0
  151.5274  141.4895  157.5390 N   0  0  0  0  0  0  0  0  0  0  0  0
  152.0507  140.3226  157.1238 C   0  0  0  0  0  0  0  0  0  0  0  0
  152.9793  139.7283  157.6713 O   0  0  0  0  0  0  0  0  0  0  0  0
  151.4242  139.8837  156.0187 N   0  0  0  0  0  0  0  0  0  0  0  0
  151.6565  138.6419  155.2655 C   0  0  0  0  0  0  0  0  0  0  0  0
  153.0965  138.6293  154.7090 C   0  0  0  0  0  0  0  0  0  0  0  0
  151.3896  137.3838  156.1286 C   0  0  0  0  0  0  0  0  0  0  0  0
  149.9067  137.2587  156.5219 C   0  0  0  0  0  0  0  0  0  0  0  0
  149.0978  137.2305  155.3515 O   0  0  0  0  0  0  0  0  0  0  0  0
  149.2028  138.4185  154.5758 C   0  0  0  0  0  0  0  0  0  0  0  0
  150.6534  138.6087  154.0920 C   0  0  0  0  0  0  0  0  0  0  0  0
  151.5903  143.5482  158.8619 N   0  0  0  0  0  0  0  0  0  0  0  0
  151.7654  146.0182  161.1101 H   0  0  0  0  0  0  0  0  0  0  0  0
  150.5998  145.8366  159.7967 H   0  0  0  0  0  0  0  0  0  0  0  0
  152.2913  146.2020  159.4329 H   0  0  0  0  0  0  0  0  0  0  0  0
  152.8252  144.0100  161.9932 H   0  0  0  0  0  0  0  0  0  0  0  0
  153.2965  141.5618  161.7381 H   0  0  0  0  0  0  0  0  0  0  0  0
  152.6604  140.4215  159.6120 H   0  0  0  0  0  0  0  0  0  0  0  0
  150.7954  141.8821  156.9660 H   0  0  0  0  0  0  0  0  0  0  0  0
  150.6824  140.4680  155.6622 H   0  0  0  0  0  0  0  0  0  0  0  0
  153.2682  137.7569  154.0775 H   0  0  0  0  0  0  0  0  0  0  0  0
  153.8417  138.5977  155.5037 H   0  0  0  0  0  0  0  0  0  0  0  0
  153.2955  139.5146  154.1040 H   0  0  0  0  0  0  0  0  0  0  0  0
  151.6704  136.4942  155.5631 H   0  0  0  0  0  0  0  0  0  0  0  0
  152.0137  137.3698  157.0216 H   0  0  0  0  0  0  0  0  0  0  0  0
  149.7467  136.3359  157.0797 H   0  0  0  0  0  0  0  0  0  0  0  0
  149.5992  138.0781  157.1732 H   0  0  0  0  0  0  0  0  0  0  0  0
  148.5327  138.3371  153.7200 H   0  0  0  0  0  0  0  0  0  0  0  0
  148.8639  139.2761  155.1586 H   0  0  0  0  0  0  0  0  0  0  0  0
  150.7300  139.5199  153.4968 H   0  0  0  0  0  0  0  0  0  0  0  0
  150.9027  137.7862  153.4198 H   0  0  0  0  0  0  0  0  0  0  0  0
  1  2  1  0  0  0  0
  1 19  1  0  0  0  0
  1 20  1  0  0  0  0
  1 21  1  0  0  0  0
  2 18  1  0  0  0  0
  2  3  2  0  0  0  0
  3  4  1  0  0  0  0
  3 22  1  0  0  0  0
  4  5  2  0  0  0  0
  4 23  1  0  0  0  0
  5  6  1  0  0  0  0
  5 24  1  0  0  0  0
  6  7  1  0  0  0  0
  6 18  2  0  0  0  0
  7  8  1  0  0  0  0
  7 25  1  0  0  0  0
  8  9  2  0  0  0  0
  8 10  1  0  0  0  0
 10 11  1  0  0  0  0
 10 26  1  0  0  0  0
 11 17  1  0  0  0  0
 11 12  1  0  0  0  0
 11 13  1  0  0  0  0
 12 27  1  0  0  0  0
 12 28  1  0  0  0  0
 12 29  1  0  0  0  0
 13 14  1  0  0  0  0
 13 30  1  0  0  0  0
 13 31  1  0  0  0  0
 14 15  1  0  0  0  0
 14 32  1  0  0  0  0
 14 33  1  0  0  0  0
 15 16  1  0  0  0  0
 16 17  1  0  0  0  0
 16 34  1  0  0  0  0
 16 35  1  0  0  0  0
 17 36  1  0  0  0  0
 17 37  1  0  0  0  0
M  END
> <s_m_source_file>
AV-unprocessed.smi

> <i_m_source_file_index>
2326

> <i_lp_mmshare_version>
43012

> <i_f3d_flags>
0

> <s_epik_input>
W0NIM11jMVtjSF1bY0hdW2NIXWMobjEpW05IXUMoPU8pW05IXUMyKFtDSDNdKVtDSDJdW0NIMl1PW0NIMl1bQ0gyXTI=

> <s_epik_cmdline>
J2VwaWtfcHl0aG9uJywgJy1waCcsICc3LjAnLCAnLXRuJywgJzgnLCAnLW1hJywgJzIwMCcsICctbWV0YWxfYmluZGluZycsICctaW1hZScsICc8aW5maWxlLm1hZT4nLCAnLW9tYWUnLCAnPG91dGZpbGUubWFlPic=

> <r_lp_tautomer_probability>
1

> <r_epik_Ionization_Penalty>
8.85415e-05

> <r_epik_Ionization_Penalty_Charging>
0

> <r_epik_Ionization_Penalty_Neutral>
8.85415e-05

> <r_epik_State_Penalty>
-0

> <r_epik_Charging_Adjusted_Penalty>
0

> <i_epik_Tot_Q>
0

> <i_epik_Tot_abs_Q>
0

> <r_epik_Metal_State_Penalty>
-0

> <b_epik_Metal_Only>
0

> <s_lp_Force_Field>
OPLS_2005

> <r_lp_Energy>
11.1562

> <b_lp_Chiralities_Consistent>
1

> <s_lp_Variant>
AV-unprocessed.smi:2326-1

> <Gold.Version>
5.8.1

> <Gold.Id.Protein>
6NUR|6NUR_protein|mol2

> <Gold.PLP.Fitness>
38.5389

> <Gold.PLP.PLP>
-35.7245

> <Gold.PLP.part.hbond>
-1.0000

> <Gold.PLP.part.metal>
0.0000

> <Gold.PLP.part.buried>
-6.0835

> <Gold.PLP.part.nonpolar>
-29.7659

> <Gold.PLP.part.repulsive>
0.3431

> <Gold.PLP.ligand.clash>
0.0000

> <Gold.PLP.ligand.torsion>
0.0966

> <Gold.PLP.Chemscore.Hbond>
1.0000

> <Gold.PLP.Chemscore.CHOScore>
0.0000

> <Gold.PLP.Chemscore.Metal>
0.0000

> <Gold.Chemscore.Hbonds>
donor molecule, donor type, donor heavy atom, donor atom, acceptor molecule, acceptor atom, score
      P1  H  7997  8009       L1     9  1.00

> <Gold.PLP.Chemscore.Internal.Correction>
0.0076

> <Gold.Rescore>
     Score         DG    S(hbond)    S(metal)    S(lipo)     H(rot)  DE(clash)    DE(int)     intcor
     15.33     -16.97       0.98        0.00      92.03       1.00       0.07       1.58       ----

> <Gold.Chemscore.Fitness>
15.3301

> <Gold.Chemscore.DG>
-16.9737

> <Gold.Chemscore.ZeroCoef>
-5.4800

> <Gold.Chemscore.Hbond>
0.9840

> <Gold.Chemscore.Metal>
0.0000

> <Gold.Chemscore.Lipo>
92.0258

> <Gold.Chemscore.Internal_Hbond>
0.0000

> <Gold.Chemscore.DEClash>
0.0672

> <Gold.Chemscore.DEInternal>
1.5764

> <Gold.Chemscore.Rot>
1.0000

> <Gold.Chemscore.Internal.Correction>
   9.000000E+99

> <Gold.Chemscore.Hbonds>
donor molecule, donor type, donor heavy atom, donor atom, acceptor molecule, acceptor atom, score
      P1  H  7997  8009       L1     9  0.85

> <Gold.Chemscore.Hbond.Weighted>
-3.2867

> <Gold.Chemscore.Metal.Weighted>
-0.0000

> <Gold.Chemscore.Lipo.Weighted>
-10.7670

> <Gold.Chemscore.Internal_Hbond.Weighted>
0.0000

> <Gold.Chemscore.DEClash.Weighted>
0.0672

> <Gold.Chemscore.DEInternal.Weighted>
1.5764

> <Gold.Chemscore.Rot.Weighted>
2.5600

> <Gold.Chemscore.Internal.Correction.Weighted>
   9.000000E+99

> <Gold.Protein.RotatedTorsions>
[ 6907 6896 6895 6894 ] final  -46.37 input  -60.11 | X-H torsion
[ 7974 7965 7964 7962 ] final   -6.56 input  175.53 | X-H torsion
[ 8008 7997 7996 7995 ] final  160.55 input   59.86 | X-H torsion
[ 10167 10162 10161 10158 ] final  100.14 input  -65.29 | X-H torsion
[ 10718 10713 10712 10709 ] final   36.54 input   66.30 | X-H torsion
[ 10763 10752 10751 10750 ] final   87.59 input  -60.55 | X-H torsion
[ 11005 11000 10999 10996 ] final  171.08 input  -57.11 | X-H torsion

> <Gold.Protein.ActiveResidues>
 VAL166  LYS551  ARG553  GLY616  TRP617  ASP618  TYR619  PRO620  LYS621  CYS622 
 ASP623  PHE694  ASN695  SER759  ASP760  ASP761  ALA762  ILE779  LEU786  VAL792 
 PHE793  MET794  SER795  GLU796  ALA797  LYS798  CYS799  TRP800  GLU811  SER814 

> <Gold.Protein.RotatedAtoms>
  150.9120  134.8536  159.7431 H   0  0  0  0  0  0  0  0  0  0  0  0  # atno 6907 bound_to 6896
  152.4949  134.4346  159.9533 H   0  0  0  0  0  0  0  0  0  0  0  0  # atno 6908 bound_to 6896
  151.4387  133.3610  159.2814 H   0  0  0  0  0  0  0  0  0  0  0  0  # atno 6909 bound_to 6896
  146.2328  140.2189  142.8337 H   0  0  0  0  0  0  0  0  0  0  0  0  # atno 7974 bound_to 7965
  156.2164  140.1801  156.7579 H   0  0  0  0  0  0  0  0  0  0  0  0  # atno 8008 bound_to 7997
  154.5798  140.0668  156.9117 H   0  0  0  0  0  0  0  0  0  0  0  0  # atno 8009 bound_to 7997
  155.2522  140.3330  155.4283 H   0  0  0  0  0  0  0  0  0  0  0  0  # atno 8010 bound_to 7997
  139.7554  144.6971  151.0370 H   0  0  0  0  0  0  0  0  0  0  0  0  # atno 10167 bound_to 10162
  157.3361  130.7523  149.6880 H   0  0  0  0  0  0  0  0  0  0  0  0  # atno 10718 bound_to 10713
  153.1684  135.4538  154.9868 H   0  0  0  0  0  0  0  0  0  0  0  0  # atno 10763 bound_to 10752
  154.7948  135.3233  154.7695 H   0  0  0  0  0  0  0  0  0  0  0  0  # atno 10764 bound_to 10752
  153.8175  135.6949  153.4886 H   0  0  0  0  0  0  0  0  0  0  0  0  # atno 10765 bound_to 10752
  140.3151  134.7484  157.4021 H   0  0  0  0  0  0  0  0  0  0  0  0  # atno 11005 bound_to 11000
  144.9648  140.8311  143.5491 LP  0  0  0  0  0  0  0  0  0  0  0  0  # atno 17320 bound_to 7965
  145.2163  139.2180  143.5116 LP  0  0  0  0  0  0  0  0  0  0  0  0  # atno 17321 bound_to 7965
  140.7802  143.4759  151.0083 LP  0  0  0  0  0  0  0  0  0  0  0  0  # atno 17342 bound_to 10162
  139.8446  143.7518  152.3179 LP  0  0  0  0  0  0  0  0  0  0  0  0  # atno 17343 bound_to 10162
  155.9701  130.4181  150.4311 LP  0  0  0  0  0  0  0  0  0  0  0  0  # atno 17370 bound_to 10713
  157.2351  131.0513  151.2469 LP  0  0  0  0  0  0  0  0  0  0  0  0  # atno 17371 bound_to 10713
  140.0990  134.5498  155.8371 LP  0  0  0  0  0  0  0  0  0  0  0  0  # atno 17394 bound_to 11000
  141.2099  133.6689  156.6473 LP  0  0  0  0  0  0  0  0  0  0  0  0  # atno 17395 bound_to 11000

$$$$
