AV-unprocessed.smi:1012|AV-procd|sdf|4423|dock8
  -GOLD-   22720 2373D 1   1.00000     0.00000
 Structure written by MMmdl.
 43 45  0  0  0  0  0  0  0  0  1 V2000
  153.9487  140.7325  161.5974 C   0  0  0  0  0  0  0  0  0  0  0  0
  153.1528  140.9960  160.4517 O   0  0  0  0  0  0  0  0  0  0  0  0
  152.5087  142.2138  160.3669 C   0  0  0  0  0  0  0  0  0  0  0  0
  152.4541  143.1481  161.4328 C   0  0  0  0  0  0  0  0  0  0  0  0
  151.7828  144.3757  161.2762 C   0  0  0  0  0  0  0  0  0  0  0  0
  151.1577  144.6871  160.0561 C   0  0  0  0  0  0  0  0  0  0  0  0
  151.2048  143.7692  158.9915 C   0  0  0  0  0  0  0  0  0  0  0  0
  151.8739  142.5361  159.1430 C   0  0  0  0  0  0  0  0  0  0  0  0
  151.9229  141.5631  157.9784 C   0  0  0  0  0  0  0  0  0  0  0  0
  151.5056  140.2643  158.3661 O   0  0  0  0  0  0  0  0  0  0  0  0
  151.8456  139.2691  157.4153 C   0  0  0  0  0  0  0  0  0  0  0  0
  151.3476  137.9065  157.9211 C   0  0  1  0  0  0  0  0  0  0  0  0
  152.0026  137.6157  159.1405 O   0  0  0  0  0  0  0  0  0  0  0  0
  149.8243  137.9006  158.1535 C   0  0  0  0  0  0  0  0  0  0  0  0
  149.2831  136.5571  158.2596 N   0  0  0  0  0  0  0  0  0  0  0  0
  149.3448  135.5853  157.3294 C   0  0  0  0  0  0  0  0  0  0  0  0
  148.7808  134.4185  157.6281 N   0  0  0  0  0  0  0  0  0  0  0  0
  148.2974  134.6603  158.9026 C   0  0  0  0  0  0  0  0  0  0  0  0
  147.5896  133.8182  159.7895 C   0  0  0  0  0  0  0  0  0  0  0  0
  147.1947  134.2880  161.0593 C   0  0  0  0  0  0  0  0  0  0  0  0
  146.5179  133.4675  161.8974 F   0  0  0  0  0  0  0  0  0  0  0  0
  147.5010  135.6053  161.4607 C   0  0  0  0  0  0  0  0  0  0  0  0
  147.1198  136.0477  162.6824 F   0  0  0  0  0  0  0  0  0  0  0  0
  148.2043  136.4631  160.5934 C   0  0  0  0  0  0  0  0  0  0  0  0
  148.5957  135.9902  159.3274 C   0  0  0  0  0  0  0  0  0  0  0  0
  154.3644  139.7278  161.5218 H   0  0  0  0  0  0  0  0  0  0  0  0
  153.3566  140.7755  162.5126 H   0  0  0  0  0  0  0  0  0  0  0  0
  154.7838  141.4301  161.6724 H   0  0  0  0  0  0  0  0  0  0  0  0
  152.9228  142.9483  162.3842 H   0  0  0  0  0  0  0  0  0  0  0  0
  151.7490  145.0796  162.0946 H   0  0  0  0  0  0  0  0  0  0  0  0
  150.6440  145.6294  159.9360 H   0  0  0  0  0  0  0  0  0  0  0  0
  150.7227  144.0164  158.0571 H   0  0  0  0  0  0  0  0  0  0  0  0
  151.2921  141.9213  157.1635 H   0  0  0  0  0  0  0  0  0  0  0  0
  152.9464  141.5335  157.6012 H   0  0  0  0  0  0  0  0  0  0  0  0
  151.4383  139.5011  156.4293 H   0  0  0  0  0  0  0  0  0  0  0  0
  152.9325  139.2476  157.3188 H   0  0  0  0  0  0  0  0  0  0  0  0
  151.5969  137.1339  157.1922 H   0  0  0  0  0  0  0  0  0  0  0  0
  151.7771  136.7342  159.3962 H   0  0  0  0  0  0  0  0  0  0  0  0
  149.5714  138.4545  159.0585 H   0  0  0  0  0  0  0  0  0  0  0  0
  149.3170  138.4042  157.3296 H   0  0  0  0  0  0  0  0  0  0  0  0
  149.8325  135.7441  156.3788 H   0  0  0  0  0  0  0  0  0  0  0  0
  147.3503  132.8078  159.4933 H   0  0  0  0  0  0  0  0  0  0  0  0
  148.4435  137.4707  160.8990 H   0  0  0  0  0  0  0  0  0  0  0  0
  1  2  1  0  0  0  0
  1 26  1  0  0  0  0
  1 27  1  0  0  0  0
  1 28  1  0  0  0  0
  2  3  1  0  0  0  0
  3  8  1  0  0  0  0
  3  4  2  0  0  0  0
  4  5  1  0  0  0  0
  4 29  1  0  0  0  0
  5  6  2  0  0  0  0
  5 30  1  0  0  0  0
  6  7  1  0  0  0  0
  6 31  1  0  0  0  0
  7  8  2  0  0  0  0
  7 32  1  0  0  0  0
  8  9  1  0  0  0  0
  9 10  1  0  0  0  0
  9 33  1  0  0  0  0
  9 34  1  0  0  0  0
 10 11  1  0  0  0  0
 11 12  1  0  0  0  0
 11 35  1  0  0  0  0
 11 36  1  0  0  0  0
 12 13  1  0  0  0  0
 12 14  1  0  0  0  0
 12 37  1  0  0  0  0
 13 38  1  0  0  0  0
 14 15  1  0  0  0  0
 14 39  1  0  0  0  0
 14 40  1  0  0  0  0
 15 25  1  0  0  0  0
 15 16  1  0  0  0  0
 16 17  2  0  0  0  0
 16 41  1  0  0  0  0
 17 18  1  0  0  0  0
 18 25  2  0  0  0  0
 18 19  1  0  0  0  0
 19 20  2  0  0  0  0
 19 42  1  0  0  0  0
 20 21  1  0  0  0  0
 20 22  1  0  0  0  0
 22 23  1  0  0  0  0
 22 24  2  0  0  0  0
 24 25  1  0  0  0  0
 24 43  1  0  0  0  0
M  END
> <s_m_source_file>
AV-unprocessed.smi

> <i_m_source_file_index>
1012

> <i_lp_mmshare_version>
43012

> <i_f3d_flags>
0

> <s_epik_input>
W0NIM11PYzFbY0hdW2NIXVtjSF1bY0hdYzFbQ0gyXU9bQ0gyXVtDQEhdKFtPSF0pW0NIMl1uKFtjSF1uMiljKGMyMylbY0hdYyhGKWMoRilbY0hdMw==

> <s_epik_cmdline>
J2VwaWtfcHl0aG9uJywgJy1waCcsICc3LjAnLCAnLXRuJywgJzgnLCAnLW1hJywgJzIwMCcsICctbWV0YWxfYmluZGluZycsICctaW1hZScsICc8aW5maWxlLm1hZT4nLCAnLW9tYWUnLCAnPG91dGZpbGUubWFlPic=

> <r_lp_tautomer_probability>
1

> <r_epik_Ionization_Penalty>
0.0160257

> <r_epik_Ionization_Penalty_Charging>
0

> <r_epik_Ionization_Penalty_Neutral>
0.0160257

> <r_epik_State_Penalty>
0.0126263

> <r_epik_Charging_Adjusted_Penalty>
0.0126263

> <i_epik_Tot_Q>
0

> <i_epik_Tot_abs_Q>
0

> <r_epik_Metal_State_Penalty>
1.27616e-05

> <b_epik_Metal_Only>
0

> <s_lp_Force_Field>
OPLS_2005

> <r_lp_Energy>
17.5925

> <b_lp_Chiralities_Consistent>
1

> <s_lp_Variant>
AV-unprocessed.smi:1012-2

> <Gold.Version>
5.8.1

> <Gold.Id.Protein>
6NUR|6NUR_protein|mol2

> <Gold.PLP.Fitness>
50.7945

> <Gold.PLP.PLP>
-51.3165

> <Gold.PLP.part.hbond>
0.0000

> <Gold.PLP.part.metal>
0.0000

> <Gold.PLP.part.buried>
-5.8902

> <Gold.PLP.part.nonpolar>
-45.0952

> <Gold.PLP.part.repulsive>
0.0000

> <Gold.PLP.ligand.clash>
0.0000

> <Gold.PLP.ligand.torsion>
0.3241

> <Gold.PLP.Chemscore.Hbond>
0.0000

> <Gold.PLP.Chemscore.CHOScore>
0.0000

> <Gold.PLP.Chemscore.Metal>
0.0000

> <Gold.PLP.Chemscore.Internal.Correction>
0.1263

> <Gold.Rescore>
     Score         DG    S(hbond)    S(metal)    S(lipo)     H(rot)  DE(clash)    DE(int)     intcor
     11.66     -13.67       0.00        0.00     134.22       2.93       0.28       1.74       ----

> <Gold.Chemscore.Fitness>
11.6586

> <Gold.Chemscore.DG>
-13.6735

> <Gold.Chemscore.ZeroCoef>
-5.4800

> <Gold.Chemscore.Hbond>
0.0000

> <Gold.Chemscore.Metal>
0.0000

> <Gold.Chemscore.Lipo>
134.2151

> <Gold.Chemscore.Internal_Hbond>
0.0000

> <Gold.Chemscore.DEClash>
0.2798

> <Gold.Chemscore.DEInternal>
1.7351

> <Gold.Chemscore.Rot>
2.9335

> <Gold.Chemscore.Internal.Correction>
   9.000000E+99

> <Gold.Chemscore.Hbond.Weighted>
-0.0000

> <Gold.Chemscore.Metal.Weighted>
-0.0000

> <Gold.Chemscore.Lipo.Weighted>
-15.7032

> <Gold.Chemscore.Internal_Hbond.Weighted>
0.0000

> <Gold.Chemscore.DEClash.Weighted>
0.2798

> <Gold.Chemscore.DEInternal.Weighted>
1.7351

> <Gold.Chemscore.Rot.Weighted>
7.5097

> <Gold.Chemscore.Internal.Correction.Weighted>
   9.000000E+99

> <Gold.Protein.RotatedTorsions>
[ 6907 6896 6895 6894 ] final  140.48 input  -60.11 | X-H torsion
[ 7974 7965 7964 7962 ] final -135.82 input  175.53 | X-H torsion
[ 8008 7997 7996 7995 ] final  128.68 input   59.86 | X-H torsion
[ 10167 10162 10161 10158 ] final   88.97 input  -65.29 | X-H torsion
[ 10718 10713 10712 10709 ] final  160.47 input   66.30 | X-H torsion
[ 10763 10752 10751 10750 ] final  111.27 input  -60.55 | X-H torsion
[ 11005 11000 10999 10996 ] final   88.98 input  -57.11 | X-H torsion

> <Gold.Protein.ActiveResidues>
 VAL166  LYS551  ARG553  GLY616  TRP617  ASP618  TYR619  PRO620  LYS621  CYS622 
 ASP623  PHE694  ASN695  SER759  ASP760  ASP761  ALA762  ILE779  LEU786  VAL792 
 PHE793  MET794  SER795  GLU796  ALA797  LYS798  CYS799  TRP800  GLU811  SER814 

> <Gold.Protein.RotatedAtoms>
  152.2425  133.5147  159.5277 H   0  0  0  0  0  0  0  0  0  0  0  0  # atno 6907 bound_to 6896
  150.7068  134.1070  159.3995 H   0  0  0  0  0  0  0  0  0  0  0  0  # atno 6908 bound_to 6896
  151.8991  135.0386  160.0555 H   0  0  0  0  0  0  0  0  0  0  0  0  # atno 6909 bound_to 6896
  144.8980  140.6733  143.5103 H   0  0  0  0  0  0  0  0  0  0  0  0  # atno 7974 bound_to 7965
  156.2920  140.2639  156.2475 H   0  0  0  0  0  0  0  0  0  0  0  0  # atno 8008 bound_to 7997
  154.9916  140.0388  157.2340 H   0  0  0  0  0  0  0  0  0  0  0  0  # atno 8009 bound_to 7997
  154.7681  140.2773  155.6164 H   0  0  0  0  0  0  0  0  0  0  0  0  # atno 8010 bound_to 7997
  139.8619  144.6539  150.9048 H   0  0  0  0  0  0  0  0  0  0  0  0  # atno 10167 bound_to 10162
  157.1500  131.0561  151.2285 H   0  0  0  0  0  0  0  0  0  0  0  0  # atno 10718 bound_to 10713
  153.4609  135.3722  155.2337 H   0  0  0  0  0  0  0  0  0  0  0  0  # atno 10763 bound_to 10752
  154.8757  135.3908  154.3926 H   0  0  0  0  0  0  0  0  0  0  0  0  # atno 10764 bound_to 10752
  153.4500  135.7085  153.6179 H   0  0  0  0  0  0  0  0  0  0  0  0  # atno 10765 bound_to 10752
  139.8885  134.8522  156.3077 H   0  0  0  0  0  0  0  0  0  0  0  0  # atno 11005 bound_to 11000
  145.3666  139.1669  143.4355 LP  0  0  0  0  0  0  0  0  0  0  0  0  # atno 17320 bound_to 7965
  146.3092  140.3733  142.8676 LP  0  0  0  0  0  0  0  0  0  0  0  0  # atno 17321 bound_to 7965
  140.7774  143.3737  151.1603 LP  0  0  0  0  0  0  0  0  0  0  0  0  # atno 17342 bound_to 10162
  139.7365  143.8990  152.3036 LP  0  0  0  0  0  0  0  0  0  0  0  0  # atno 17343 bound_to 10162
  157.4229  130.7447  149.6928 LP  0  0  0  0  0  0  0  0  0  0  0  0  # atno 17370 bound_to 10713
  155.9772  130.4066  150.3726 LP  0  0  0  0  0  0  0  0  0  0  0  0  # atno 17371 bound_to 10713
  140.9871  133.7231  156.0758 LP  0  0  0  0  0  0  0  0  0  0  0  0  # atno 17394 bound_to 11000
  140.7674  134.3871  157.5514 LP  0  0  0  0  0  0  0  0  0  0  0  0  # atno 17395 bound_to 11000

$$$$
