AV-unprocessed.smi:2584|AV-procd|sdf|10143|dock5
  -GOLD-   2272014153D 1   1.00000     0.00000
 Structure written by MMmdl.
 35 36  0  0  0  0  0  0  0  0  2 V2000
  147.6088  139.4593  154.7230 O   0  0  0  0  0  0  0  0  0  0  0  0
  148.1312  138.6022  154.0097 C   0  0  0  0  0  0  0  0  0  0  0  0
  147.4636  137.9216  153.0667 N   0  0  0  0  0  0  0  0  0  0  0  0
  146.0435  138.0799  152.7747 C   0  0  0  0  0  0  0  0  0  0  0  0
  145.4895  136.8830  151.9770 C   0  0  0  0  0  0  0  0  0  0  0  0
  146.2720  135.6415  152.2023 N   0  3  0  0  0  0  0  0  0  0  0  0
  145.9283  134.5766  151.2234 C   0  0  0  0  0  0  0  0  0  0  0  0
  146.8434  133.3512  151.3875 C   0  0  0  0  0  0  0  0  0  0  0  0
  146.7855  132.8096  152.8215 C   0  0  0  0  0  0  0  0  0  0  0  0
  147.1098  133.9306  153.8167 C   0  0  0  0  0  0  0  0  0  0  0  0
  146.1879  135.1429  153.6022 C   0  0  0  0  0  0  0  0  0  0  0  0
  149.4198  138.2261  154.0658 N   0  0  0  0  0  0  0  0  0  0  0  0
  150.3833  138.6957  154.8976 C   0  0  0  0  0  0  0  0  0  0  0  0
  150.4118  139.7670  155.7568 C   0  0  0  0  0  0  0  0  0  0  0  0
  151.6258  139.9078  156.4476 N   0  0  0  0  0  0  0  0  0  0  0  0
  152.5121  139.0015  156.1566 N   0  0  0  0  0  0  0  0  0  0  0  0
  151.9215  137.9220  155.0211 S   0  0  0  0  0  0  0  0  0  0  0  0
  147.9690  137.2348  152.5256 H   0  0  0  0  0  0  0  0  0  0  0  0
  145.5118  138.1720  153.7221 H   0  0  0  0  0  0  0  0  0  0  0  0
  145.8944  139.0203  152.2436 H   0  0  0  0  0  0  0  0  0  0  0  0
  144.4403  136.6997  152.2140 H   0  0  0  0  0  0  0  0  0  0  0  0
  145.5230  137.1428  150.9178 H   0  0  0  0  0  0  0  0  0  0  0  0
  144.8838  134.2873  151.3504 H   0  0  0  0  0  0  0  0  0  0  0  0
  146.0294  134.9615  150.2078 H   0  0  0  0  0  0  0  0  0  0  0  0
  146.5524  132.5713  150.6832 H   0  0  0  0  0  0  0  0  0  0  0  0
  147.8699  133.6246  151.1396 H   0  0  0  0  0  0  0  0  0  0  0  0
  145.7911  132.4103  153.0257 H   0  0  0  0  0  0  0  0  0  0  0  0
  147.4859  131.9826  152.9422 H   0  0  0  0  0  0  0  0  0  0  0  0
  147.0097  133.5618  154.8381 H   0  0  0  0  0  0  0  0  0  0  0  0
  148.1504  134.2364  153.6992 H   0  0  0  0  0  0  0  0  0  0  0  0
  146.4712  135.9261  154.3040 H   0  0  0  0  0  0  0  0  0  0  0  0
  145.1557  134.8736  153.8323 H   0  0  0  0  0  0  0  0  0  0  0  0
  149.7119  137.5045  153.4230 H   0  0  0  0  0  0  0  0  0  0  0  0
  149.6301  140.4862  155.9496 H   0  0  0  0  0  0  0  0  0  0  0  0
  147.2390  135.8770  152.0306 H   0  0  0  0  0  0  0  0  0  0  0  0
  1  2  2  0  0  0  0
  2  3  1  0  0  0  0
  2 12  1  0  0  0  0
  3  4  1  0  0  0  0
  3 18  1  0  0  0  0
  4  5  1  0  0  0  0
  4 19  1  0  0  0  0
  4 20  1  0  0  0  0
  5  6  1  0  0  0  0
  5 21  1  0  0  0  0
  5 22  1  0  0  0  0
  6 11  1  0  0  0  0
  6  7  1  0  0  0  0
  6 35  1  0  0  0  0
  7  8  1  0  0  0  0
  7 23  1  0  0  0  0
  7 24  1  0  0  0  0
  8  9  1  0  0  0  0
  8 25  1  0  0  0  0
  8 26  1  0  0  0  0
  9 10  1  0  0  0  0
  9 27  1  0  0  0  0
  9 28  1  0  0  0  0
 10 11  1  0  0  0  0
 10 29  1  0  0  0  0
 10 30  1  0  0  0  0
 11 31  1  0  0  0  0
 11 32  1  0  0  0  0
 12 13  1  0  0  0  0
 12 33  1  0  0  0  0
 13 17  1  0  0  0  0
 13 14  2  0  0  0  0
 14 15  1  0  0  0  0
 14 34  1  0  0  0  0
 15 16  2  0  0  0  0
 16 17  1  0  0  0  0
M  CHG  1   6   1
M  END
> <s_m_source_file>
AV-unprocessed.smi

> <i_m_source_file_index>
2584

> <i_lp_mmshare_version>
43012

> <i_f3d_flags>
0

> <s_epik_input>
czFubltjSF1jMVtOSF1DKD1PKVtOSF1bQ0gyXVtDSDJdTjJbQ0gyXVtDSDJdW0NIMl1bQ0gyXVtDSDJdMg==

> <s_epik_cmdline>
J2VwaWtfcHl0aG9uJywgJy1waCcsICc3LjAnLCAnLXRuJywgJzgnLCAnLW1hJywgJzIwMCcsICctbWV0YWxfYmluZGluZycsICctaW1hZScsICc8aW5maWxlLm1hZT4nLCAnLW9tYWUnLCAnPG91dGZpbGUubWFlPic=

> <r_lp_tautomer_probability>
1

> <r_epik_Ionization_Penalty>
0.00255984

> <r_epik_Ionization_Penalty_Charging>
0.0025387

> <r_epik_Ionization_Penalty_Neutral>
2.11374e-05

> <r_epik_State_Penalty>
0.00176242

> <r_epik_Charging_Adjusted_Penalty>
0.00430112

> <i_epik_Tot_Q>
1

> <i_epik_Tot_abs_Q>
1

> <r_epik_Metal_State_Penalty>
-0

> <b_epik_Metal_Only>
0

> <s_lp_Force_Field>
OPLS_2005

> <r_lp_Energy>
17.0629

> <b_lp_Chiralities_Consistent>
1

> <s_lp_Variant>
AV-unprocessed.smi:2584-1

> <Gold.Version>
5.8.1

> <Gold.Id.Protein>
6NUR|6NUR_protein|mol2

> <Gold.PLP.Fitness>
42.4382

> <Gold.PLP.PLP>
-28.6930

> <Gold.PLP.part.hbond>
-5.2751

> <Gold.PLP.part.metal>
0.0000

> <Gold.PLP.part.buried>
-3.1473

> <Gold.PLP.part.nonpolar>
-20.9840

> <Gold.PLP.part.repulsive>
0.2344

> <Gold.PLP.ligand.clash>
0.0000

> <Gold.PLP.ligand.torsion>
0.4218

> <Gold.PLP.Chemscore.Hbond>
4.8553

> <Gold.PLP.Chemscore.CHOScore>
0.0000

> <Gold.PLP.Chemscore.Metal>
0.0000

> <Gold.Chemscore.Hbonds>
donor molecule, donor type, donor heavy atom, donor atom, acceptor molecule, acceptor atom, score
      L1  H     3    18       P1  7948  1.00
      L1  H     6    35       P1  7948  2.00
      L1  H    12    33       P1  7948  0.67
      P1  H  7997  8009       L1    16  0.63

> <Gold.PLP.Chemscore.Internal.Correction>
0.0232

> <Gold.Rescore>
     Score         DG    S(hbond)    S(metal)    S(lipo)     H(rot)  DE(clash)    DE(int)     intcor
     18.08     -19.62       3.45        0.00      58.59       1.65       0.04       1.49       ----

> <Gold.Chemscore.Fitness>
18.0846

> <Gold.Chemscore.DG>
-19.6212

> <Gold.Chemscore.ZeroCoef>
-5.4800

> <Gold.Chemscore.Hbond>
3.4458

> <Gold.Chemscore.Metal>
0.0000

> <Gold.Chemscore.Lipo>
58.5942

> <Gold.Chemscore.Internal_Hbond>
0.0000

> <Gold.Chemscore.DEClash>
0.0424

> <Gold.Chemscore.DEInternal>
1.4942

> <Gold.Chemscore.Rot>
1.6497

> <Gold.Chemscore.Internal.Correction>
   9.000000E+99

> <Gold.Chemscore.Hbonds>
donor molecule, donor type, donor heavy atom, donor atom, acceptor molecule, acceptor atom, score
      L1  H     3    18       P1  7948  0.94
      L1  H     6    35       P1  7948  1.00
      L1  H    12    33       P1  7948  0.48
      P1  H  7997  8009       L1    16  0.25

> <Gold.Chemscore.Hbond.Weighted>
-11.5089

> <Gold.Chemscore.Metal.Weighted>
-0.0000

> <Gold.Chemscore.Lipo.Weighted>
-6.8555

> <Gold.Chemscore.Internal_Hbond.Weighted>
0.0000

> <Gold.Chemscore.DEClash.Weighted>
0.0424

> <Gold.Chemscore.DEInternal.Weighted>
1.4942

> <Gold.Chemscore.Rot.Weighted>
4.2232

> <Gold.Chemscore.Internal.Correction.Weighted>
   9.000000E+99

> <Gold.Protein.RotatedTorsions>
[ 6907 6896 6895 6894 ] final -142.31 input  -60.11 | X-H torsion
[ 7974 7965 7964 7962 ] final   -1.69 input  175.53 | X-H torsion
[ 8008 7997 7996 7995 ] final -149.76 input   59.86 | X-H torsion
[ 10167 10162 10161 10158 ] final  128.69 input  -65.29 | X-H torsion
[ 10718 10713 10712 10709 ] final  -73.18 input   66.30 | X-H torsion
[ 10763 10752 10751 10750 ] final   99.41 input  -60.55 | X-H torsion
[ 11005 11000 10999 10996 ] final   90.97 input  -57.11 | X-H torsion

> <Gold.Protein.ActiveResidues>
 VAL166  LYS551  ARG553  GLY616  TRP617  ASP618  TYR619  PRO620  LYS621  CYS622 
 ASP623  PHE694  ASN695  SER759  ASP760  ASP761  ALA762  ILE779  LEU786  VAL792 
 PHE793  MET794  SER795  GLU796  ALA797  LYS798  CYS799  TRP800  GLU811  SER814 

> <Gold.Protein.RotatedAtoms>
  151.0854  133.5357  159.2617 H   0  0  0  0  0  0  0  0  0  0  0  0  # atno 6907 bound_to 6896
  151.2245  135.0530  159.8973 H   0  0  0  0  0  0  0  0  0  0  0  0  # atno 6908 bound_to 6896
  152.5428  134.0652  159.8223 H   0  0  0  0  0  0  0  0  0  0  0  0  # atno 6909 bound_to 6896
  146.2414  140.1458  142.8334 H   0  0  0  0  0  0  0  0  0  0  0  0  # atno 7974 bound_to 7965
  155.6127  140.0673  157.2701 H   0  0  0  0  0  0  0  0  0  0  0  0  # atno 8008 bound_to 7997
  154.4249  140.1798  156.1337 H   0  0  0  0  0  0  0  0  0  0  0  0  # atno 8009 bound_to 7997
  156.0072  140.3330  155.6908 H   0  0  0  0  0  0  0  0  0  0  0  0  # atno 8010 bound_to 7997
  139.5514  144.6816  151.4311 H   0  0  0  0  0  0  0  0  0  0  0  0  # atno 10167 bound_to 10162
  156.0290  130.4388  150.2704 H   0  0  0  0  0  0  0  0  0  0  0  0  # atno 10718 bound_to 10713
  153.3011  135.4114  155.1253 H   0  0  0  0  0  0  0  0  0  0  0  0  # atno 10763 bound_to 10752
  154.8549  135.3541  154.5850 H   0  0  0  0  0  0  0  0  0  0  0  0  # atno 10764 bound_to 10752
  153.6275  135.7062  153.5346 H   0  0  0  0  0  0  0  0  0  0  0  0  # atno 10765 bound_to 10752
  139.8846  134.8646  156.3361 H   0  0  0  0  0  0  0  0  0  0  0  0  # atno 11005 bound_to 11000
  145.0209  140.8792  143.5167 LP  0  0  0  0  0  0  0  0  0  0  0  0  # atno 17320 bound_to 7965
  145.1506  139.2516  143.5443 LP  0  0  0  0  0  0  0  0  0  0  0  0  # atno 17321 bound_to 7965
  140.6778  143.8151  150.7081 LP  0  0  0  0  0  0  0  0  0  0  0  0  # atno 17342 bound_to 10162
  140.1595  143.4288  152.2077 LP  0  0  0  0  0  0  0  0  0  0  0  0  # atno 17343 bound_to 10162
  157.0807  131.0142  151.3157 LP  0  0  0  0  0  0  0  0  0  0  0  0  # atno 17370 bound_to 10713
  157.4929  130.7833  149.7526 LP  0  0  0  0  0  0  0  0  0  0  0  0  # atno 17371 bound_to 10713
  140.9690  133.7339  156.0507 LP  0  0  0  0  0  0  0  0  0  0  0  0  # atno 17394 bound_to 11000
  140.7895  134.3634  157.5468 LP  0  0  0  0  0  0  0  0  0  0  0  0  # atno 17395 bound_to 11000

$$$$
