AV-unprocessed.smi:287|AV-procd|sdf|2185|dock8
  -GOLD-   2262021563D 1   1.00000     0.00000
 Structure written by MMmdl.
 55 58  0  0  0  0  0  0  0  0  1 V2000
  154.5046  140.8742  161.4006 C   0  0  0  0  0  0  0  0  0  0  0  0
  153.4531  141.6575  160.6922 C   0  0  0  0  0  0  0  0  0  0  0  0
  152.7878  141.4955  159.5118 C   0  0  0  0  0  0  0  0  0  0  0  0
  151.8922  142.5982  159.3721 C   0  0  0  0  0  0  0  0  0  0  0  0
  150.9333  142.8460  158.2148 C   0  0  1  0  0  0  0  0  0  0  0  0
  149.4959  142.9567  158.7484 C   0  0  0  0  0  0  0  0  0  0  0  0
  151.1864  144.0705  157.5530 O   0  0  0  0  0  0  0  0  0  0  0  0
  151.0096  141.7551  157.1212 C   0  0  0  0  0  0  0  0  0  0  0  0
  150.0870  141.9901  156.0154 N   0  0  0  0  0  0  0  0  0  0  0  0
  149.7171  140.9714  155.2118 C   0  0  0  0  0  0  0  0  0  0  0  0
  150.6288  140.0755  154.7510 N   0  0  0  0  0  0  0  0  0  0  0  0
  150.2363  139.0703  153.9626 C   0  0  0  0  0  0  0  0  0  0  0  0
  149.0083  138.7852  153.5235 N   0  0  0  0  0  0  0  0  0  0  0  0
  148.0900  139.6854  153.9802 C   0  0  0  0  0  0  0  0  0  0  0  0
  148.3641  140.7984  154.8228 C   0  0  0  0  0  0  0  0  0  0  0  0
  147.1901  141.4923  155.0843 N   0  0  0  0  0  0  0  0  0  0  0  0
  146.2765  140.8223  154.4344 C   0  0  0  0  0  0  0  0  0  0  0  0
  146.7314  139.7221  153.7416 N   0  0  0  0  0  0  0  0  0  0  0  0
  145.9296  138.7685  152.9186 C   0  0  2  0  0  0  0  0  0  0  0  0
  145.1563  137.9974  153.7819 O   0  0  0  0  0  0  0  0  0  0  0  0
  145.0219  136.6986  153.2269 C   0  0  2  0  0  0  0  0  0  0  0  0
  144.5276  135.6927  154.2818 C   0  0  0  0  0  0  0  0  0  0  0  0
  144.5537  134.3817  153.7584 O   0  0  0  0  0  0  0  0  0  0  0  0
  146.3954  136.4329  152.5911 C   0  0  2  0  0  0  0  0  0  0  0  0
  147.3152  135.9123  153.5319 O   0  0  0  0  0  0  0  0  0  0  0  0
  146.8400  137.8169  152.1191 C   0  0  1  0  0  0  0  0  0  0  0  0
  146.6033  137.9385  150.7308 O   0  0  0  0  0  0  0  0  0  0  0  0
  152.0749  143.3429  160.5123 C   0  0  0  0  0  0  0  0  0  0  0  0
  151.4584  144.5963  161.0397 C   0  0  0  0  0  0  0  0  0  0  0  0
  153.0245  142.7844  161.3135 O   0  0  0  0  0  0  0  0  0  0  0  0
  145.2922  139.3962  152.2937 H   0  0  0  0  0  0  0  0  0  0  0  0
  144.2782  136.7731  152.4311 H   0  0  0  0  0  0  0  0  0  0  0  0
  146.3209  135.7134  151.7744 H   0  0  0  0  0  0  0  0  0  0  0  0
  147.8953  138.0090  152.3214 H   0  0  0  0  0  0  0  0  0  0  0  0
  154.7874  139.9922  160.8256 H   0  0  0  0  0  0  0  0  0  0  0  0
  154.1481  140.5422  162.3757 H   0  0  0  0  0  0  0  0  0  0  0  0
  155.3990  141.4782  161.5544 H   0  0  0  0  0  0  0  0  0  0  0  0
  152.9320  140.6788  158.8199 H   0  0  0  0  0  0  0  0  0  0  0  0
  149.1915  142.0390  159.2533 H   0  0  0  0  0  0  0  0  0  0  0  0
  148.7826  143.1392  157.9437 H   0  0  0  0  0  0  0  0  0  0  0  0
  149.4005  143.7725  159.4662 H   0  0  0  0  0  0  0  0  0  0  0  0
  152.1185  144.2247  157.5547 H   0  0  0  0  0  0  0  0  0  0  0  0
  152.0157  141.7499  156.6993 H   0  0  0  0  0  0  0  0  0  0  0  0
  150.8477  140.7654  157.5517 H   0  0  0  0  0  0  0  0  0  0  0  0
  149.7993  142.9481  155.8733 H   0  0  0  0  0  0  0  0  0  0  0  0
  151.0166  138.3969  153.6397 H   0  0  0  0  0  0  0  0  0  0  0  0
  145.2371  141.1162  154.4428 H   0  0  0  0  0  0  0  0  0  0  0  0
  145.1209  135.7400  155.1951 H   0  0  0  0  0  0  0  0  0  0  0  0
  143.5002  135.9263  154.5619 H   0  0  0  0  0  0  0  0  0  0  0  0
  145.3224  134.2900  153.2163 H   0  0  0  0  0  0  0  0  0  0  0  0
  148.1893  136.0260  153.1888 H   0  0  0  0  0  0  0  0  0  0  0  0
  145.7025  137.7102  150.5594 H   0  0  0  0  0  0  0  0  0  0  0  0
  150.3706  144.5364  161.0041 H   0  0  0  0  0  0  0  0  0  0  0  0
  151.7703  145.4582  160.4500 H   0  0  0  0  0  0  0  0  0  0  0  0
  151.7495  144.7737  162.0753 H   0  0  0  0  0  0  0  0  0  0  0  0
  1  2  1  0  0  0  0
  1 35  1  0  0  0  0
  1 36  1  0  0  0  0
  1 37  1  0  0  0  0
  2 30  1  0  0  0  0
  2  3  2  0  0  0  0
  3  4  1  0  0  0  0
  3 38  1  0  0  0  0
  4  5  1  0  0  0  0
  4 28  2  0  0  0  0
  5  6  1  0  0  0  0
  5  7  1  0  0  0  0
  5  8  1  0  0  0  0
  6 39  1  0  0  0  0
  6 40  1  0  0  0  0
  6 41  1  0  0  0  0
  7 42  1  0  0  0  0
  8  9  1  0  0  0  0
  8 43  1  0  0  0  0
  8 44  1  0  0  0  0
  9 10  1  0  0  0  0
  9 45  1  0  0  0  0
 10 15  1  0  0  0  0
 10 11  2  0  0  0  0
 11 12  1  0  0  0  0
 12 13  2  0  0  0  0
 12 46  1  0  0  0  0
 13 14  1  0  0  0  0
 14 18  1  0  0  0  0
 14 15  2  0  0  0  0
 15 16  1  0  0  0  0
 16 17  2  0  0  0  0
 17 18  1  0  0  0  0
 17 47  1  0  0  0  0
 18 19  1  0  0  0  0
 19 31  1  0  0  0  0
 19 26  1  0  0  0  0
 19 20  1  0  0  0  0
 20 21  1  0  0  0  0
 21 32  1  0  0  0  0
 21 22  1  0  0  0  0
 21 24  1  0  0  0  0
 22 23  1  0  0  0  0
 22 48  1  0  0  0  0
 22 49  1  0  0  0  0
 23 50  1  0  0  0  0
 24 33  1  0  0  0  0
 24 25  1  0  0  0  0
 24 26  1  0  0  0  0
 25 51  1  0  0  0  0
 26 34  1  0  0  0  0
 26 27  1  0  0  0  0
 27 52  1  0  0  0  0
 28 29  1  0  0  0  0
 28 30  1  0  0  0  0
 29 53  1  0  0  0  0
 29 54  1  0  0  0  0
 29 55  1  0  0  0  0
M  END
> <s_m_source_file>
AV-unprocessed.smi

> <i_m_source_file_index>
287

> <i_lp_mmshare_version>
43012

> <i_f3d_flags>
0

> <s_epik_input>
W0NIM11jMVtjSF1jKGMobzEpW0NIM10pW0NAQF0oW0NIM10pKFtPSF0pW0NIMl1bTkhdYyhuW2NIXW4yKWMoYzIzKW5bY0hdbjNbQ0BASF00T1tDQEhdKFtDSDJdW09IXSlbQ0BASF0oW09IXSlbQ0BIXTRbT0hd

> <s_epik_cmdline>
J2VwaWtfcHl0aG9uJywgJy1waCcsICc3LjAnLCAnLXRuJywgJzgnLCAnLW1hJywgJzIwMCcsICctbWV0YWxfYmluZGluZycsICctaW1hZScsICc8aW5maWxlLm1hZT4nLCAnLW9tYWUnLCAnPG91dGZpbGUubWFlPic=

> <r_lp_tautomer_probability>
1

> <r_epik_Ionization_Penalty>
0.000992612

> <r_epik_Ionization_Penalty_Charging>
0

> <r_epik_Ionization_Penalty_Neutral>
0.000992612

> <r_epik_State_Penalty>
-0

> <r_epik_Charging_Adjusted_Penalty>
0

> <i_epik_Tot_Q>
0

> <i_epik_Tot_abs_Q>
0

> <r_epik_Metal_State_Penalty>
-0

> <b_epik_Metal_Only>
0

> <s_epik_Chemistry_Notes>
This compound contains an acetal/aminal-like group ( X-CH(R)-Y where X, Y are N, S, or O) that may be acid/base labile, releasing an aldehyde.

> <s_lp_Force_Field>
OPLS_2005

> <r_lp_Energy>
37.4731

> <b_lp_Chiralities_Consistent>
1

> <s_lp_Variant>
AV-unprocessed.smi:287-9

> <Gold.Version>
5.8.1

> <Gold.Id.Protein>
6NUR|6NUR_protein|mol2

> <Gold.PLP.Fitness>
56.6518

> <Gold.PLP.PLP>
-42.2898

> <Gold.PLP.part.hbond>
-5.7709

> <Gold.PLP.part.metal>
0.0000

> <Gold.PLP.part.buried>
0.5162

> <Gold.PLP.part.nonpolar>
-43.6157

> <Gold.PLP.part.repulsive>
5.7484

> <Gold.PLP.ligand.clash>
0.0000

> <Gold.PLP.ligand.torsion>
0.7632

> <Gold.PLP.Chemscore.Hbond>
4.8360

> <Gold.PLP.Chemscore.CHOScore>
0.4285

> <Gold.PLP.Chemscore.Metal>
0.0000

> <Gold.Chemscore.Hbonds>
donor molecule, donor type, donor heavy atom, donor atom, acceptor molecule, acceptor atom, score
      L1  H     9    45       P1  8028  1.00
      L1  H    25    51       P1  7948  0.85
      L1  H    27    52       P1 10171  0.55
      P1  H  7954  7966       L1    27  1.00
      P1  H  7989  7998       L1    11  0.75
      L1  C    17    47       P1 10175  0.74

> <Gold.PLP.Chemscore.Internal.Correction>
0.0950

> <Gold.Rescore>
     Score         DG    S(hbond)    S(metal)    S(lipo)     H(rot)  DE(clash)    DE(int)     intcor
      8.15     -15.40       3.20        0.00     108.73       5.27       5.10       2.15       ----

> <Gold.Chemscore.Fitness>
8.1486

> <Gold.Chemscore.DG>
-15.4035

> <Gold.Chemscore.ZeroCoef>
-5.4800

> <Gold.Chemscore.Hbond>
3.1993

> <Gold.Chemscore.Metal>
0.0000

> <Gold.Chemscore.Lipo>
108.7315

> <Gold.Chemscore.Internal_Hbond>
0.0000

> <Gold.Chemscore.DEClash>
5.1003

> <Gold.Chemscore.DEInternal>
2.1545

> <Gold.Chemscore.Rot>
5.2672

> <Gold.Chemscore.Internal.Correction>
   9.000000E+99

> <Gold.Chemscore.Hbonds>
donor molecule, donor type, donor heavy atom, donor atom, acceptor molecule, acceptor atom, score
      L1  H     9    45       P1  8028  0.96
      L1  H    25    51       P1  7948  0.79
      L1  H    27    52       P1 10171  0.55
      P1  H  7954  7966       L1    27  0.68
      P1  H  7989  7998       L1    11  0.07

> <Gold.Chemscore.Hbond.Weighted>
-10.6858

> <Gold.Chemscore.Metal.Weighted>
-0.0000

> <Gold.Chemscore.Lipo.Weighted>
-12.7216

> <Gold.Chemscore.Internal_Hbond.Weighted>
0.0000

> <Gold.Chemscore.DEClash.Weighted>
5.1003

> <Gold.Chemscore.DEInternal.Weighted>
2.1545

> <Gold.Chemscore.Rot.Weighted>
13.4839

> <Gold.Chemscore.Internal.Correction.Weighted>
   9.000000E+99

> <Gold.Protein.RotatedTorsions>
[ 6907 6896 6895 6894 ] final  -49.99 input  -60.11 | X-H torsion
[ 7974 7965 7964 7962 ] final  -19.77 input  175.53 | X-H torsion
[ 8008 7997 7996 7995 ] final  -77.50 input   59.86 | X-H torsion
[ 10167 10162 10161 10158 ] final   85.76 input  -65.29 | X-H torsion
[ 10718 10713 10712 10709 ] final   13.30 input   66.30 | X-H torsion
[ 10763 10752 10751 10750 ] final  -76.23 input  -60.55 | X-H torsion
[ 11005 11000 10999 10996 ] final  -30.07 input  -57.11 | X-H torsion

> <Gold.Protein.ActiveResidues>
 VAL166  LYS551  ARG553  GLY616  TRP617  ASP618  TYR619  PRO620  LYS621  CYS622 
 ASP623  PHE694  ASN695  SER759  ASP760  ASP761  ALA762  ILE779  LEU786  VAL792 
 PHE793  MET794  SER795  GLU796  ALA797  LYS798  CYS799  TRP800  GLU811  SER814 

> <Gold.Protein.RotatedAtoms>
  150.8751  134.8132  159.7183 H   0  0  0  0  0  0  0  0  0  0  0  0  # atno 6907 bound_to 6896
  152.4741  134.4885  159.9697 H   0  0  0  0  0  0  0  0  0  0  0  0  # atno 6908 bound_to 6896
  151.4967  133.3474  159.2898 H   0  0  0  0  0  0  0  0  0  0  0  0  # atno 6909 bound_to 6896
  146.1823  140.4109  142.8489 H   0  0  0  0  0  0  0  0  0  0  0  0  # atno 7974 bound_to 7965
  154.5602  140.0709  156.8807 H   0  0  0  0  0  0  0  0  0  0  0  0  # atno 8008 bound_to 7997
  155.2826  140.3372  155.4239 H   0  0  0  0  0  0  0  0  0  0  0  0  # atno 8009 bound_to 7997
  156.2036  140.1731  156.7833 H   0  0  0  0  0  0  0  0  0  0  0  0  # atno 8010 bound_to 7997
  139.8945  144.6366  150.8703 H   0  0  0  0  0  0  0  0  0  0  0  0  # atno 10167 bound_to 10162
  157.0227  130.6161  149.5723 H   0  0  0  0  0  0  0  0  0  0  0  0  # atno 10718 bound_to 10713
  154.4971  135.5804  153.6503 H   0  0  0  0  0  0  0  0  0  0  0  0  # atno 10763 bound_to 10752
  152.9872  135.6127  154.3050 H   0  0  0  0  0  0  0  0  0  0  0  0  # atno 10764 bound_to 10752
  154.2955  135.2848  155.2615 H   0  0  0  0  0  0  0  0  0  0  0  0  # atno 10765 bound_to 10752
  140.9351  133.7314  156.0993 H   0  0  0  0  0  0  0  0  0  0  0  0  # atno 11005 bound_to 11000
  144.8337  140.6748  143.6274 LP  0  0  0  0  0  0  0  0  0  0  0  0  # atno 17320 bound_to 7965
  145.4039  139.1592  143.4162 LP  0  0  0  0  0  0  0  0  0  0  0  0  # atno 17321 bound_to 7965
  140.7720  143.3484  151.2063 LP  0  0  0  0  0  0  0  0  0  0  0  0  # atno 17342 bound_to 10162
  139.7080  143.9423  152.2935 LP  0  0  0  0  0  0  0  0  0  0  0  0  # atno 17343 bound_to 10162
  156.0097  130.5187  150.7947 LP  0  0  0  0  0  0  0  0  0  0  0  0  # atno 17370 bound_to 10713
  157.5238  131.0933  151.0045 LP  0  0  0  0  0  0  0  0  0  0  0  0  # atno 17371 bound_to 10713
  140.7810  134.3725  157.5487 LP  0  0  0  0  0  0  0  0  0  0  0  0  # atno 17394 bound_to 11000
  139.8806  134.9082  156.2961 LP  0  0  0  0  0  0  0  0  0  0  0  0  # atno 17395 bound_to 11000

$$$$
