#       Name:                AV-unprocessed.smi:3032
#       Creating user name   scv26
#       Creation time:       Fri Mar 27 16:53:36 2020


#       File generated by GOLD software.
#

@<TRIPOS>MOLECULE
AV-unprocessed.smi:3032
    41    42     1
SMALL
NO_CHARGES


@<TRIPOS>ATOM
      1 ****        -2.2158   2.1842   1.3027 C.3            1 S1                 0.0000
      2 ****        -1.5206   1.6288   0.0517 C.3            1 S1                 0.0000
      3 ****        -2.2074   2.1167  -1.2373 C.3            1 S1                 0.0000
      4 ****        -1.5046   1.5758  -2.4917 C.3            1 S1                 0.0000
      5 ****        -1.4078   0.0379  -2.4691 C.3            1 S1                 0.0000
      6 ****        -0.7922  -0.5297  -1.1672 C.3            1 S1                 0.0000
      7 ****         0.7420  -0.4062  -1.1081 C.2            1 S1                 0.0000
      8 ****         1.3085   0.6441  -1.4114 O.2            1 S1                 0.0000
      9 ****         1.4057  -1.5004  -0.7058 N.am           1 S1                 0.0000
     10 ****         2.8472  -1.5777  -0.4933 C.3            1 S1                 0.0000
     11 ****         3.2827  -0.9454   0.8425 C.3            1 S1                 0.0000
     12 ****         2.5283  -1.4895   2.0400 C.2            1 S1                 0.0000
     13 ****         2.8351  -2.6164   2.7150 N.pl3          1 S1                -1.0000
     14 ****         1.9562  -2.8233   3.6762 N.2            1 S1                 0.0000
     15 ****         1.1024  -1.7988   3.5654 C.2            1 S1                 0.0000
     16 ****         1.4238  -0.9674   2.5689 N.2            1 S1                 0.0000
     17 ****        -1.4708   0.0868   0.0774 C.3            1 S1                 0.0000
     18 ****        -3.2500   1.8447   1.3665 H              1 S1                 0.0000
     19 ****        -2.2220   3.2746   1.2964 H              1 S1                 0.0000
     20 ****        -1.7028   1.8635   2.2101 H              1 S1                 0.0000
     21 ****        -0.4989   2.0100   0.0574 H              1 S1                 0.0000
     22 ****        -3.2514   1.8003  -1.2413 H              1 S1                 0.0000
     23 ****        -2.2154   3.2067  -1.2669 H              1 S1                 0.0000
     24 ****        -2.0474   1.8945  -3.3820 H              1 S1                 0.0000
     25 ****        -0.5127   2.0188  -2.5740 H              1 S1                 0.0000
     26 ****        -2.4101  -0.3753  -2.5874 H              1 S1                 0.0000
     27 ****        -0.8424  -0.3065  -3.3362 H              1 S1                 0.0000
     28 ****        -1.0127  -1.5987  -1.1573 H              1 S1                 0.0000
     29 ****         0.8673  -2.3196  -0.4635 H              1 S1                 0.0000
     30 ****         3.1221  -2.6326  -0.4990 H              1 S1                 0.0000
     31 ****         3.3801  -1.1158  -1.3256 H              1 S1                 0.0000
     32 ****         4.3497  -1.1071   0.9975 H              1 S1                 0.0000
     33 ****         3.1385   0.1351   0.8069 H              1 S1                 0.0000
     34 ****         0.2434  -1.6601   4.2101 H              1 S1                 0.0000
     35 ****        -0.9617  -0.2496   0.9822 H              1 S1                 0.0000
     36 ****        -2.4871  -0.3027   0.1504 H              1 S1                 0.0000
     37 ****         0.7715   1.4359  -1.7023 LP             1 S1                 0.0000
     38 ****         2.3057   0.7053  -1.3668 LP             1 S1                 0.0000
     39 ****         3.6156  -3.2088   2.5155 LP             1 S1                 0.0000
     40 ****         1.9331  -3.5738   4.3366 LP             1 S1                 0.0000
     41 ****         0.9421  -0.1385   2.2844 LP             1 S1                 0.0000
@<TRIPOS>BOND
    1    1    2 1     
    2    1   18 1     
    3    1   19 1     
    4    1   20 1     
    5    2   17 1     
    6    2    3 1     
    7    2   21 1     
    8    3    4 1     
    9    3   22 1     
   10    3   23 1     
   11    4    5 1     
   12    4   24 1     
   13    4   25 1     
   14    5    6 1     
   15    5   26 1     
   16    5   27 1     
   17    6    7 1     
   18    6   17 1     
   19    6   28 1     
   20    7    8 2     
   21    7    9 am    
   22    9   10 1     
   23    9   29 1     
   24   10   11 1     
   25   10   30 1     
   26   10   31 1     
   27   11   32 1     
   28   11   33 1     
   29   11   12 1     
   30   12   16 2     
   31   12   13 1     
   32   13   14 1     
   33   14   15 2     
   34   15   16 1     
   35   15   34 1     
   36   17   35 1     
   37   17   36 1     
   38    8   37 1     
   39    8   38 1     
   40   13   39 1     
   41   14   40 1     
   42   16   41 1     
@<TRIPOS>SUBSTRUCTURE
      1 S1             1
@<TRIPOS>SET
LONE_PAIRS      STATIC     ATOMS    <user>   **** ""
5 37 38 39 40 41
DONOR_HYDROGENS      STATIC     ATOMS    <user>   **** ""
1 29
ATOM$BLUE        STATIC     ATOMS    COLORGROUP SYSTEM
5 37 38 39 40 41
ATOM$RED        STATIC     ATOMS    COLORGROUP SYSTEM
1 29
