AV-unprocessed.smi:1383|AV-procd|sdf|5622|dock9
  -GOLD-   22720 5233D 1   1.00000     0.00000
 Structure written by MMmdl.
 31 31  0  0  0  0  0  0  0  0  1 V2000
  152.6470  143.0114  160.4110 C   0  0  0  0  0  0  0  0  0  0  0  0
  152.9880  143.7543  159.1094 C   0  0  0  0  0  0  0  0  0  0  0  0
  151.7565  144.1825  158.2812 C   0  0  2  0  0  0  0  0  0  0  0  0
  150.8872  145.1811  159.0648 C   0  0  0  0  0  0  0  0  0  0  0  0
  150.9122  142.9755  157.8431 C   0  0  0  0  0  0  0  0  0  0  0  0
  150.2771  142.3389  158.6848 O   0  0  0  0  0  0  0  0  0  0  0  0
  150.9334  142.6920  156.5270 N   0  0  0  0  0  0  0  0  0  0  0  0
  150.2629  141.6469  155.8403 C   0  0  0  0  0  0  0  0  0  0  0  0
  149.0623  141.7709  155.2637 N   0  0  0  0  0  0  0  0  0  0  0  0
  148.6432  140.5854  154.6501 C   0  0  0  0  0  0  0  0  0  0  0  0
  147.3175  140.5310  153.9459 C   0  0  0  0  0  0  0  0  0  0  0  0
  147.0604  139.1322  153.3788 C   0  0  0  0  0  0  0  0  0  0  0  0
  147.8924  138.6912  152.4307 N   0  0  0  0  0  0  0  0  0  0  0  0
  146.1279  138.4512  153.7998 O   0  0  0  0  0  0  0  0  0  0  0  0
  149.5463  139.5582  154.7856 C   0  0  0  0  0  0  0  0  0  0  0  0
  150.9635  140.0449  155.6763 S   0  0  0  0  0  0  0  0  0  0  0  0
  153.5554  142.6819  160.9154 H   0  0  0  0  0  0  0  0  0  0  0  0
  152.0394  142.1282  160.2125 H   0  0  0  0  0  0  0  0  0  0  0  0
  152.0997  143.6469  161.1075 H   0  0  0  0  0  0  0  0  0  0  0  0
  153.6040  144.6243  159.3420 H   0  0  0  0  0  0  0  0  0  0  0  0
  153.6142  143.1025  158.4993 H   0  0  0  0  0  0  0  0  0  0  0  0
  152.1143  144.6956  157.3867 H   0  0  0  0  0  0  0  0  0  0  0  0
  150.0008  145.4684  158.4975 H   0  0  0  0  0  0  0  0  0  0  0  0
  151.4427  146.0935  159.2833 H   0  0  0  0  0  0  0  0  0  0  0  0
  150.5530  144.7633  160.0153 H   0  0  0  0  0  0  0  0  0  0  0  0
  151.4996  143.2967  155.9502 H   0  0  0  0  0  0  0  0  0  0  0  0
  146.5067  140.7930  154.6270 H   0  0  0  0  0  0  0  0  0  0  0  0
  147.2845  141.2604  153.1354 H   0  0  0  0  0  0  0  0  0  0  0  0
  147.7657  137.7713  152.0349 H   0  0  0  0  0  0  0  0  0  0  0  0
  148.6522  139.2791  152.1198 H   0  0  0  0  0  0  0  0  0  0  0  0
  149.4645  138.5477  154.4139 H   0  0  0  0  0  0  0  0  0  0  0  0
  1  2  1  0  0  0  0
  1 17  1  0  0  0  0
  1 18  1  0  0  0  0
  1 19  1  0  0  0  0
  2  3  1  0  0  0  0
  2 20  1  0  0  0  0
  2 21  1  0  0  0  0
  3  4  1  0  0  0  0
  3  5  1  0  0  0  0
  3 22  1  0  0  0  0
  4 23  1  0  0  0  0
  4 24  1  0  0  0  0
  4 25  1  0  0  0  0
  5  6  2  0  0  0  0
  5  7  1  0  0  0  0
  7  8  1  0  0  0  0
  7 26  1  0  0  0  0
  8 16  1  0  0  0  0
  8  9  2  0  0  0  0
  9 10  1  0  0  0  0
 10 11  1  0  0  0  0
 10 15  2  0  0  0  0
 11 12  1  0  0  0  0
 11 27  1  0  0  0  0
 11 28  1  0  0  0  0
 12 13  1  0  0  0  0
 12 14  2  0  0  0  0
 13 29  1  0  0  0  0
 13 30  1  0  0  0  0
 15 16  1  0  0  0  0
 15 31  1  0  0  0  0
M  END
> <s_m_source_file>
AV-unprocessed.smi

> <i_m_source_file_index>
1383

> <i_lp_mmshare_version>
43012

> <i_f3d_flags>
0

> <s_epik_input>
W0NIM11bQ0gyXVtDQEhdKFtDSDNdKUMoPU8pW05IXWMxbmMoW2NIXXMxKVtDSDJdQyg9TylbTkgyXQ==

> <s_epik_cmdline>
J2VwaWtfcHl0aG9uJywgJy1waCcsICc3LjAnLCAnLXRuJywgJzgnLCAnLW1hJywgJzIwMCcsICctbWV0YWxfYmluZGluZycsICctaW1hZScsICc8aW5maWxlLm1hZT4nLCAnLW9tYWUnLCAnPG91dGZpbGUubWFlPic=

> <r_lp_tautomer_probability>
1

> <r_epik_Ionization_Penalty>
0.00017492

> <r_epik_Ionization_Penalty_Charging>
0

> <r_epik_Ionization_Penalty_Neutral>
0.00017492

> <r_epik_State_Penalty>
-0

> <r_epik_Charging_Adjusted_Penalty>
0

> <i_epik_Tot_Q>
0

> <i_epik_Tot_abs_Q>
0

> <r_epik_Metal_State_Penalty>
0.109333

> <b_epik_Metal_Only>
0

> <s_lp_Force_Field>
OPLS_2005

> <r_lp_Energy>
2.98053

> <b_lp_Chiralities_Consistent>
1

> <s_lp_Variant>
AV-unprocessed.smi:1383-1

> <Gold.Version>
5.8.1

> <Gold.Id.Protein>
6NUR|6NUR_protein|mol2

> <Gold.PLP.Fitness>
39.3252

> <Gold.PLP.PLP>
-36.2091

> <Gold.PLP.part.hbond>
-2.7462

> <Gold.PLP.part.metal>
0.0000

> <Gold.PLP.part.buried>
-5.9444

> <Gold.PLP.part.nonpolar>
-29.9741

> <Gold.PLP.part.repulsive>
1.3151

> <Gold.PLP.ligand.clash>
0.0000

> <Gold.PLP.ligand.torsion>
0.8859

> <Gold.PLP.Chemscore.Hbond>
1.6153

> <Gold.PLP.Chemscore.CHOScore>
0.0000

> <Gold.PLP.Chemscore.Metal>
0.0000

> <Gold.Chemscore.Hbonds>
donor molecule, donor type, donor heavy atom, donor atom, acceptor molecule, acceptor atom, score
      L1  H    13    29       P1  7948  0.66
      L1  H    13    30       P1  7957  1.00

> <Gold.PLP.Chemscore.Internal.Correction>
0.0422

> <Gold.Rescore>
     Score         DG    S(hbond)    S(metal)    S(lipo)     H(rot)  DE(clash)    DE(int)     intcor
     13.47     -14.47       1.85        0.00      72.04       2.19       0.07       0.93       ----

> <Gold.Chemscore.Fitness>
13.4679

> <Gold.Chemscore.DG>
-14.4668

> <Gold.Chemscore.ZeroCoef>
-5.4800

> <Gold.Chemscore.Hbond>
1.8494

> <Gold.Chemscore.Metal>
0.0000

> <Gold.Chemscore.Lipo>
72.0393

> <Gold.Chemscore.Internal_Hbond>
0.0000

> <Gold.Chemscore.DEClash>
0.0689

> <Gold.Chemscore.DEInternal>
0.9300

> <Gold.Chemscore.Rot>
2.1948

> <Gold.Chemscore.Internal.Correction>
   9.000000E+99

> <Gold.Chemscore.Hbonds>
donor molecule, donor type, donor heavy atom, donor atom, acceptor molecule, acceptor atom, score
      L1  H    13    29       P1  7948  0.66
      L1  H    13    30       P1  7957  0.93

> <Gold.Chemscore.Hbond.Weighted>
-6.1768

> <Gold.Chemscore.Metal.Weighted>
-0.0000

> <Gold.Chemscore.Lipo.Weighted>
-8.4286

> <Gold.Chemscore.Internal_Hbond.Weighted>
0.0000

> <Gold.Chemscore.DEClash.Weighted>
0.0689

> <Gold.Chemscore.DEInternal.Weighted>
0.9300

> <Gold.Chemscore.Rot.Weighted>
5.6186

> <Gold.Chemscore.Internal.Correction.Weighted>
   9.000000E+99

> <Gold.Protein.RotatedTorsions>
[ 6907 6896 6895 6894 ] final  -15.07 input  -60.11 | X-H torsion
[ 7974 7965 7964 7962 ] final -161.89 input  175.53 | X-H torsion
[ 8008 7997 7996 7995 ] final -109.91 input   59.86 | X-H torsion
[ 10167 10162 10161 10158 ] final   58.71 input  -65.29 | X-H torsion
[ 10718 10713 10712 10709 ] final   43.25 input   66.30 | X-H torsion
[ 10763 10752 10751 10750 ] final   66.55 input  -60.55 | X-H torsion
[ 11005 11000 10999 10996 ] final  101.72 input  -57.11 | X-H torsion

> <Gold.Protein.ActiveResidues>
 VAL166  LYS551  ARG553  GLY616  TRP617  ASP618  TYR619  PRO620  LYS621  CYS622 
 ASP623  PHE694  ASN695  SER759  ASP760  ASP761  ALA762  ILE779  LEU786  VAL792 
 PHE793  MET794  SER795  GLU796  ALA797  LYS798  CYS799  TRP800  GLU811  SER814 

> <Gold.Protein.RotatedAtoms>
  151.3296  135.0838  159.9333 H   0  0  0  0  0  0  0  0  0  0  0  0  # atno 6907 bound_to 6896
  152.5237  133.9556  159.7703 H   0  0  0  0  0  0  0  0  0  0  0  0  # atno 6908 bound_to 6896
  150.9892  133.6114  159.2741 H   0  0  0  0  0  0  0  0  0  0  0  0  # atno 6909 bound_to 6896
  144.7375  140.3332  143.6149 H   0  0  0  0  0  0  0  0  0  0  0  0  # atno 7974 bound_to 7965
  154.9666  140.0398  157.2215 H   0  0  0  0  0  0  0  0  0  0  0  0  # atno 8008 bound_to 7997
  154.7840  140.2824  155.6020 H   0  0  0  0  0  0  0  0  0  0  0  0  # atno 8009 bound_to 7997
  156.2940  140.2586  156.2672 H   0  0  0  0  0  0  0  0  0  0  0  0  # atno 8010 bound_to 7997
  140.1843  144.4150  150.6600 H   0  0  0  0  0  0  0  0  0  0  0  0  # atno 10167 bound_to 10162
  157.4139  130.7930  149.7454 H   0  0  0  0  0  0  0  0  0  0  0  0  # atno 10718 bound_to 10713
  153.0145  135.5316  154.6841 H   0  0  0  0  0  0  0  0  0  0  0  0  # atno 10763 bound_to 10752
  154.5993  135.2866  155.0554 H   0  0  0  0  0  0  0  0  0  0  0  0  # atno 10764 bound_to 10752
  154.1617  135.6546  153.5040 H   0  0  0  0  0  0  0  0  0  0  0  0  # atno 10765 bound_to 10752
  139.8774  134.9194  156.4949 H   0  0  0  0  0  0  0  0  0  0  0  0  # atno 11005 bound_to 11000
  145.7450  139.1776  143.2354 LP  0  0  0  0  0  0  0  0  0  0  0  0  # atno 17320 bound_to 7965
  146.1104  140.7435  142.9506 LP  0  0  0  0  0  0  0  0  0  0  0  0  # atno 17321 bound_to 7965
  140.6499  143.2222  151.6102 LP  0  0  0  0  0  0  0  0  0  0  0  0  # atno 17342 bound_to 10162
  139.5283  144.2993  152.1087 LP  0  0  0  0  0  0  0  0  0  0  0  0  # atno 17343 bound_to 10162
  155.9859  130.3979  150.3239 LP  0  0  0  0  0  0  0  0  0  0  0  0  # atno 17370 bound_to 10713
  157.1380  131.0289  151.2940 LP  0  0  0  0  0  0  0  0  0  0  0  0  # atno 17371 bound_to 10713
  140.8632  133.8044  155.9286 LP  0  0  0  0  0  0  0  0  0  0  0  0  # atno 17394 bound_to 11000
  140.9028  134.2357  157.5031 LP  0  0  0  0  0  0  0  0  0  0  0  0  # atno 17395 bound_to 11000

$$$$
