AV-unprocessed.smi:1328|AV-procd|sdf|5479|dock10
  -GOLD-   22720 5 53D 1   1.00000     0.00000
 Structure written by MMmdl.
 38 39  0  0  0  0  0  0  0  0  1 V2000
  152.3553  138.5482  154.9600 C   0  0  0  0  0  0  0  0  0  0  0  0
  151.5394  139.6524  155.5685 C   0  0  0  0  0  0  0  0  0  0  0  0
  150.8735  140.4787  154.7795 N   0  0  0  0  0  0  0  0  0  0  0  0
  150.2259  141.3811  155.6285 O   0  0  0  0  0  0  0  0  0  0  0  0
  150.5287  141.0571  156.9111 C   0  0  0  0  0  0  0  0  0  0  0  0
  149.9338  141.9171  157.9744 C   0  0  0  0  0  0  0  0  0  0  0  0
  151.3570  139.9687  156.9458 C   0  0  0  0  0  0  0  0  0  0  0  0
  151.9446  139.2720  158.1460 C   0  0  0  0  0  0  0  0  0  0  0  0
  152.9940  140.1736  158.7947 C   0  0  0  0  0  0  0  0  0  0  0  0
  154.1754  139.8290  158.8094 O   0  0  0  0  0  0  0  0  0  0  0  0
  152.5436  141.3180  159.3329 N   0  0  0  0  0  0  0  0  0  0  0  0
  153.3442  142.3030  160.0572 C   0  0  2  0  0  0  0  0  0  0  0  0
  153.2839  141.9712  161.5555 C   0  0  0  0  0  0  0  0  0  0  0  0
  152.8443  143.7334  159.7654 C   0  0  2  0  0  0  0  0  0  0  0  0
  151.5216  144.1082  160.4382 C   0  0  0  0  0  0  0  0  0  0  0  0
  151.0202  145.2108  159.5350 C   0  0  0  0  0  0  0  0  0  0  0  0
  151.4287  144.6918  158.1605 C   0  0  0  0  0  0  0  0  0  0  0  0
  152.5965  143.9021  158.3705 O   0  0  0  0  0  0  0  0  0  0  0  0
  151.7824  137.6222  154.9142 H   0  0  0  0  0  0  0  0  0  0  0  0
  153.2546  138.3543  155.5443 H   0  0  0  0  0  0  0  0  0  0  0  0
  152.6717  138.7957  153.9460 H   0  0  0  0  0  0  0  0  0  0  0  0
  150.5338  142.8151  158.1222 H   0  0  0  0  0  0  0  0  0  0  0  0
  149.8833  141.3854  158.9247 H   0  0  0  0  0  0  0  0  0  0  0  0
  148.9228  142.2244  157.7068 H   0  0  0  0  0  0  0  0  0  0  0  0
  151.1762  139.0346  158.8826 H   0  0  0  0  0  0  0  0  0  0  0  0
  152.4033  138.3205  157.8742 H   0  0  0  0  0  0  0  0  0  0  0  0
  151.5548  141.5084  159.2628 H   0  0  0  0  0  0  0  0  0  0  0  0
  154.3880  142.2311  159.7464 H   0  0  0  0  0  0  0  0  0  0  0  0
  153.9002  142.6573  162.1371 H   0  0  0  0  0  0  0  0  0  0  0  0
  153.6479  140.9615  161.7485 H   0  0  0  0  0  0  0  0  0  0  0  0
  152.2640  142.0363  161.9365 H   0  0  0  0  0  0  0  0  0  0  0  0
  153.6042  144.4617  160.0540 H   0  0  0  0  0  0  0  0  0  0  0  0
  150.8265  143.2674  160.4178 H   0  0  0  0  0  0  0  0  0  0  0  0
  151.6440  144.4268  161.4737 H   0  0  0  0  0  0  0  0  0  0  0  0
  149.9480  145.3873  159.6234 H   0  0  0  0  0  0  0  0  0  0  0  0
  151.5414  146.1430  159.7567 H   0  0  0  0  0  0  0  0  0  0  0  0
  150.6485  144.0506  157.7489 H   0  0  0  0  0  0  0  0  0  0  0  0
  151.6144  145.4979  157.4503 H   0  0  0  0  0  0  0  0  0  0  0  0
  1  2  1  0  0  0  0
  1 19  1  0  0  0  0
  1 20  1  0  0  0  0
  1 21  1  0  0  0  0
  2  7  1  0  0  0  0
  2  3  2  0  0  0  0
  3  4  1  0  0  0  0
  4  5  1  0  0  0  0
  5  6  1  0  0  0  0
  5  7  2  0  0  0  0
  6 22  1  0  0  0  0
  6 23  1  0  0  0  0
  6 24  1  0  0  0  0
  7  8  1  0  0  0  0
  8  9  1  0  0  0  0
  8 25  1  0  0  0  0
  8 26  1  0  0  0  0
  9 10  2  0  0  0  0
  9 11  1  0  0  0  0
 11 12  1  0  0  0  0
 11 27  1  0  0  0  0
 12 13  1  0  0  0  0
 12 14  1  0  0  0  0
 12 28  1  0  0  0  0
 13 29  1  0  0  0  0
 13 30  1  0  0  0  0
 13 31  1  0  0  0  0
 14 18  1  0  0  0  0
 14 15  1  0  0  0  0
 14 32  1  0  0  0  0
 15 16  1  0  0  0  0
 15 33  1  0  0  0  0
 15 34  1  0  0  0  0
 16 17  1  0  0  0  0
 16 35  1  0  0  0  0
 16 36  1  0  0  0  0
 17 18  1  0  0  0  0
 17 37  1  0  0  0  0
 17 38  1  0  0  0  0
M  END
> <s_m_source_file>
AV-unprocessed.smi

> <i_m_source_file_index>
1328

> <i_lp_mmshare_version>
43012

> <i_f3d_flags>
0

> <s_epik_input>
W0NIM11jMW5vYyhbQ0gzXSljMVtDSDJdQyg9TylbTkhdW0NASF0oW0NIM10pW0NAQEhdMltDSDJdW0NIMl1bQ0gyXU8y

> <s_epik_cmdline>
J2VwaWtfcHl0aG9uJywgJy1waCcsICc3LjAnLCAnLXRuJywgJzgnLCAnLW1hJywgJzIwMCcsICctbWV0YWxfYmluZGluZycsICctaW1hZScsICc8aW5maWxlLm1hZT4nLCAnLW9tYWUnLCAnPG91dGZpbGUubWFlPic=

> <r_lp_tautomer_probability>
1

> <r_epik_Ionization_Penalty>
2.66156e-08

> <r_epik_Ionization_Penalty_Charging>
0

> <r_epik_Ionization_Penalty_Neutral>
2.66156e-08

> <r_epik_State_Penalty>
-0

> <r_epik_Charging_Adjusted_Penalty>
0

> <i_epik_Tot_Q>
0

> <i_epik_Tot_abs_Q>
0

> <r_epik_Metal_State_Penalty>
-0

> <b_epik_Metal_Only>
0

> <s_lp_Force_Field>
OPLS_2005

> <r_lp_Energy>
12.1854

> <b_lp_Chiralities_Consistent>
1

> <s_lp_Variant>
AV-unprocessed.smi:1328-1

> <Gold.Version>
5.8.1

> <Gold.Id.Protein>
6NUR|6NUR_protein|mol2

> <Gold.PLP.Fitness>
45.5403

> <Gold.PLP.PLP>
-40.8695

> <Gold.PLP.part.hbond>
-2.0000

> <Gold.PLP.part.metal>
0.0000

> <Gold.PLP.part.buried>
-6.0142

> <Gold.PLP.part.nonpolar>
-32.5556

> <Gold.PLP.part.repulsive>
0.2930

> <Gold.PLP.ligand.clash>
0.0000

> <Gold.PLP.ligand.torsion>
0.6700

> <Gold.PLP.Chemscore.Hbond>
2.0000

> <Gold.PLP.Chemscore.CHOScore>
0.0000

> <Gold.PLP.Chemscore.Metal>
0.0000

> <Gold.Chemscore.Hbonds>
donor molecule, donor type, donor heavy atom, donor atom, acceptor molecule, acceptor atom, score
      P1  H  7989  7998       L1     3  1.00
      P1  H  7997  8010       L1    10  1.00

> <Gold.PLP.Chemscore.Internal.Correction>
0.0108

> <Gold.Rescore>
     Score         DG    S(hbond)    S(metal)    S(lipo)     H(rot)  DE(clash)    DE(int)     intcor
     19.14     -19.84       1.86        0.00     102.70       1.52       0.01       0.69       ----

> <Gold.Chemscore.Fitness>
19.1429

> <Gold.Chemscore.DG>
-19.8425

> <Gold.Chemscore.ZeroCoef>
-5.4800

> <Gold.Chemscore.Hbond>
1.8646

> <Gold.Chemscore.Metal>
0.0000

> <Gold.Chemscore.Lipo>
102.6976

> <Gold.Chemscore.Internal_Hbond>
0.0000

> <Gold.Chemscore.DEClash>
0.0104

> <Gold.Chemscore.DEInternal>
0.6892

> <Gold.Chemscore.Rot>
1.5159

> <Gold.Chemscore.Internal.Correction>
   9.000000E+99

> <Gold.Chemscore.Hbonds>
donor molecule, donor type, donor heavy atom, donor atom, acceptor molecule, acceptor atom, score
      P1  H  7989  7998       L1     3  0.80
      P1  H  7997  8010       L1    10  0.91

> <Gold.Chemscore.Hbond.Weighted>
-6.2276

> <Gold.Chemscore.Metal.Weighted>
-0.0000

> <Gold.Chemscore.Lipo.Weighted>
-12.0156

> <Gold.Chemscore.Internal_Hbond.Weighted>
0.0000

> <Gold.Chemscore.DEClash.Weighted>
0.0104

> <Gold.Chemscore.DEInternal.Weighted>
0.6892

> <Gold.Chemscore.Rot.Weighted>
3.8807

> <Gold.Chemscore.Internal.Correction.Weighted>
   9.000000E+99

> <Gold.Protein.RotatedTorsions>
[ 6907 6896 6895 6894 ] final   39.40 input  -60.11 | X-H torsion
[ 7974 7965 7964 7962 ] final  120.62 input  175.53 | X-H torsion
[ 8008 7997 7996 7995 ] final    1.92 input   59.86 | X-H torsion
[ 10167 10162 10161 10158 ] final -174.32 input  -65.29 | X-H torsion
[ 10718 10713 10712 10709 ] final   15.47 input   66.30 | X-H torsion
[ 10763 10752 10751 10750 ] final -120.58 input  -60.55 | X-H torsion
[ 11005 11000 10999 10996 ] final   71.01 input  -57.11 | X-H torsion

> <Gold.Protein.ActiveResidues>
 VAL166  LYS551  ARG553  GLY616  TRP617  ASP618  TYR619  PRO620  LYS621  CYS622 
 ASP623  PHE694  ASN695  SER759  ASP760  ASP761  ALA762  ILE779  LEU786  VAL792 
 PHE793  MET794  SER795  GLU796  ALA797  LYS798  CYS799  TRP800  GLU811  SER814 

> <Gold.Protein.RotatedAtoms>
  152.1691  134.8849  160.0535 H   0  0  0  0  0  0  0  0  0  0  0  0  # atno 6907 bound_to 6896
  151.9816  133.3755  159.4118 H   0  0  0  0  0  0  0  0  0  0  0  0  # atno 6908 bound_to 6896
  150.6899  134.3955  159.5139 H   0  0  0  0  0  0  0  0  0  0  0  0  # atno 6909 bound_to 6896
  145.1290  139.3340  143.4675 H   0  0  0  0  0  0  0  0  0  0  0  0  # atno 7974 bound_to 7965
  154.6855  140.2642  155.6865 H   0  0  0  0  0  0  0  0  0  0  0  0  # atno 8008 bound_to 7997
  156.2713  140.2801  156.1337 H   0  0  0  0  0  0  0  0  0  0  0  0  # atno 8009 bound_to 7997
  155.0971  140.0374  157.2676 H   0  0  0  0  0  0  0  0  0  0  0  0  # atno 8010 bound_to 7997
  139.5640  144.1800  152.1284 H   0  0  0  0  0  0  0  0  0  0  0  0  # atno 10167 bound_to 10162
  157.0540  130.6281  149.5773 H   0  0  0  0  0  0  0  0  0  0  0  0  # atno 10718 bound_to 10713
  154.8647  135.4198  154.2482 H   0  0  0  0  0  0  0  0  0  0  0  0  # atno 10763 bound_to 10752
  153.3434  135.6995  153.6854 H   0  0  0  0  0  0  0  0  0  0  0  0  # atno 10764 bound_to 10752
  153.5823  135.3570  155.2852 H   0  0  0  0  0  0  0  0  0  0  0  0  # atno 10765 bound_to 10752
  139.9566  134.7133  156.0739 H   0  0  0  0  0  0  0  0  0  0  0  0  # atno 11005 bound_to 11000
  146.3515  140.1281  142.8598 LP  0  0  0  0  0  0  0  0  0  0  0  0  # atno 17320 bound_to 7965
  145.0656  140.9119  143.4912 LP  0  0  0  0  0  0  0  0  0  0  0  0  # atno 17321 bound_to 7965
  140.1319  144.5280  150.6797 LP  0  0  0  0  0  0  0  0  0  0  0  0  # atno 17342 bound_to 10162
  140.6922  143.2383  151.5099 LP  0  0  0  0  0  0  0  0  0  0  0  0  # atno 17343 bound_to 10162
  155.9999  130.5075  150.7622 LP  0  0  0  0  0  0  0  0  0  0  0  0  # atno 17370 bound_to 10713
  157.5007  131.0918  151.0317 LP  0  0  0  0  0  0  0  0  0  0  0  0  # atno 17371 bound_to 10713
  141.1239  133.6605  156.3285 LP  0  0  0  0  0  0  0  0  0  0  0  0  # atno 17394 bound_to 11000
  140.5594  134.5949  157.5429 LP  0  0  0  0  0  0  0  0  0  0  0  0  # atno 17395 bound_to 11000

$$$$
