AV-unprocessed.smi:3245|AV-procd|sdf|12403|dock8
  -GOLD-   2272018283D 1   1.00000     0.00000
 Structure written by MMmdl.
 36 37  0  0  0  0  0  0  0  0  2 V2000
  150.8404  141.0511  157.9767 C   0  0  0  0  0  0  0  0  0  0  0  0
  150.5042  142.4340  157.4027 C   0  0  1  0  0  0  0  0  0  0  0  0
  151.7211  143.3788  157.5114 C   0  0  0  0  0  0  0  0  0  0  0  0
  151.8637  143.9716  158.8293 N   0  0  0  0  0  0  0  0  0  0  0  0
  152.1254  143.3438  160.0287 C   0  0  0  0  0  0  0  0  0  0  0  0
  152.1476  144.3085  160.9950 C   0  0  0  0  0  0  0  0  0  0  0  0
  151.8907  145.5113  160.2794 C   0  0  0  0  0  0  0  0  0  0  0  0
  151.7210  145.3063  158.9829 N   0  0  0  0  0  0  0  0  0  0  0  0
  150.0633  142.2889  155.9965 N   0  3  0  0  0  0  0  0  0  0  0  0
  148.8950  141.4072  155.7970 C   0  0  0  0  0  0  0  0  0  0  0  0
  148.9572  140.7173  154.4268 C   0  0  0  0  0  0  0  0  0  0  0  0
  149.5098  139.3653  154.5380 N   0  0  0  0  0  0  0  0  0  0  0  0
  150.7921  139.0935  154.8118 C   0  0  0  0  0  0  0  0  0  0  0  0
  151.7018  139.8982  155.0083 O   0  0  0  0  0  0  0  0  0  0  0  0
  150.9632  137.5907  154.8586 C   0  0  0  0  0  0  0  0  0  0  0  0
  149.5987  137.1904  154.5893 N   0  0  0  0  0  0  0  0  0  0  0  0
  148.7844  138.2388  154.4122 C   0  0  0  0  0  0  0  0  0  0  0  0
  147.5779  138.1707  154.1830 O   0  0  0  0  0  0  0  0  0  0  0  0
  151.1325  141.1219  159.0251 H   0  0  0  0  0  0  0  0  0  0  0  0
  151.6628  140.5837  157.4338 H   0  0  0  0  0  0  0  0  0  0  0  0
  149.9812  140.3818  157.9209 H   0  0  0  0  0  0  0  0  0  0  0  0
  149.6831  142.8397  157.9964 H   0  0  0  0  0  0  0  0  0  0  0  0
  152.6386  142.8307  157.2930 H   0  0  0  0  0  0  0  0  0  0  0  0
  151.6553  144.1762  156.7690 H   0  0  0  0  0  0  0  0  0  0  0  0
  152.2675  142.2752  160.0953 H   0  0  0  0  0  0  0  0  0  0  0  0
  152.3216  144.1760  162.0526 H   0  0  0  0  0  0  0  0  0  0  0  0
  151.8203  146.5191  160.6612 H   0  0  0  0  0  0  0  0  0  0  0  0
  149.8452  143.2083  155.6388 H   0  0  0  0  0  0  0  0  0  0  0  0
  148.8687  140.6663  156.5972 H   0  0  0  0  0  0  0  0  0  0  0  0
  147.9749  141.9864  155.8716 H   0  0  0  0  0  0  0  0  0  0  0  0
  147.9582  140.6678  153.9897 H   0  0  0  0  0  0  0  0  0  0  0  0
  149.5543  141.3137  153.7347 H   0  0  0  0  0  0  0  0  0  0  0  0
  151.6466  137.2387  154.0850 H   0  0  0  0  0  0  0  0  0  0  0  0
  151.2965  137.2525  155.8402 H   0  0  0  0  0  0  0  0  0  0  0  0
  149.3068  136.2245  154.5484 H   0  0  0  0  0  0  0  0  0  0  0  0
  150.8286  141.9081  155.4583 H   0  0  0  0  0  0  0  0  0  0  0  0
  1  2  1  0  0  0  0
  1 19  1  0  0  0  0
  1 20  1  0  0  0  0
  1 21  1  0  0  0  0
  2  3  1  0  0  0  0
  2  9  1  0  0  0  0
  2 22  1  0  0  0  0
  3  4  1  0  0  0  0
  3 23  1  0  0  0  0
  3 24  1  0  0  0  0
  4  8  1  0  0  0  0
  4  5  1  0  0  0  0
  5  6  2  0  0  0  0
  5 25  1  0  0  0  0
  6  7  1  0  0  0  0
  6 26  1  0  0  0  0
  7  8  2  0  0  0  0
  7 27  1  0  0  0  0
  9 10  1  0  0  0  0
  9 28  1  0  0  0  0
  9 36  1  0  0  0  0
 10 11  1  0  0  0  0
 10 29  1  0  0  0  0
 10 30  1  0  0  0  0
 11 12  1  0  0  0  0
 11 31  1  0  0  0  0
 11 32  1  0  0  0  0
 12 17  1  0  0  0  0
 12 13  1  0  0  0  0
 13 14  2  0  0  0  0
 13 15  1  0  0  0  0
 15 16  1  0  0  0  0
 15 33  1  0  0  0  0
 15 34  1  0  0  0  0
 16 17  1  0  0  0  0
 16 35  1  0  0  0  0
 17 18  2  0  0  0  0
M  CHG  1   9   1
M  END
> <s_m_source_file>
AV-unprocessed.smi

> <i_m_source_file_index>
3245

> <i_lp_mmshare_version>
43012

> <i_f3d_flags>
0

> <s_epik_input>
bjFbY0hdW2NIXVtjSF1uMVtDSDJdW0NAQEhdKFtDSDNdKVtOSF1bQ0gyXVtDSDJdTjJDKD1PKVtDSDJdW05IXUMyPU8=

> <s_epik_cmdline>
J2VwaWtfcHl0aG9uJywgJy1waCcsICc3LjAnLCAnLXRuJywgJzgnLCAnLW1hJywgJzIwMCcsICctbWV0YWxfYmluZGluZycsICctaW1hZScsICc8aW5maWxlLm1hZT4nLCAnLW9tYWUnLCAnPG91dGZpbGUubWFlPic=

> <r_lp_tautomer_probability>
1

> <r_epik_Ionization_Penalty>
0.0160742

> <r_epik_Ionization_Penalty_Charging>
0.0159586

> <r_epik_Ionization_Penalty_Neutral>
0.000115543

> <r_epik_State_Penalty>
0.0125702

> <r_epik_Charging_Adjusted_Penalty>
0.0285288

> <i_epik_Tot_Q>
1

> <i_epik_Tot_abs_Q>
1

> <r_epik_Metal_State_Penalty>
0.0881892

> <b_epik_Metal_Only>
0

> <s_lp_Force_Field>
OPLS_2005

> <r_lp_Energy>
19.8129

> <b_lp_Chiralities_Consistent>
1

> <s_lp_Variant>
AV-unprocessed.smi:3245-2

> <Gold.Version>
5.8.1

> <Gold.Id.Protein>
6NUR|6NUR_protein|mol2

> <Gold.PLP.Fitness>
47.6628

> <Gold.PLP.PLP>
-40.2505

> <Gold.PLP.part.hbond>
-3.0000

> <Gold.PLP.part.metal>
0.0000

> <Gold.PLP.part.buried>
-6.3345

> <Gold.PLP.part.nonpolar>
-32.6901

> <Gold.PLP.part.repulsive>
0.4519

> <Gold.PLP.ligand.clash>
0.0000

> <Gold.PLP.ligand.torsion>
0.8211

> <Gold.PLP.Chemscore.Hbond>
3.0000

> <Gold.PLP.Chemscore.CHOScore>
0.0000

> <Gold.PLP.Chemscore.Metal>
0.0000

> <Gold.Chemscore.Hbonds>
donor molecule, donor type, donor heavy atom, donor atom, acceptor molecule, acceptor atom, score
      L1  H     9    28       P1  8028  2.00
      P1  H  7989  7998       L1    14  1.00

> <Gold.PLP.Chemscore.Internal.Correction>
0.0546

> <Gold.Rescore>
     Score         DG    S(hbond)    S(metal)    S(lipo)     H(rot)  DE(clash)    DE(int)     intcor
     13.05     -14.10       1.97        0.00      77.22       2.74       0.01       1.04       ----

> <Gold.Chemscore.Fitness>
13.0504

> <Gold.Chemscore.DG>
-14.1020

> <Gold.Chemscore.ZeroCoef>
-5.4800

> <Gold.Chemscore.Hbond>
1.9742

> <Gold.Chemscore.Metal>
0.0000

> <Gold.Chemscore.Lipo>
77.2190

> <Gold.Chemscore.Internal_Hbond>
0.0000

> <Gold.Chemscore.DEClash>
0.0131

> <Gold.Chemscore.DEInternal>
1.0386

> <Gold.Chemscore.Rot>
2.7369

> <Gold.Chemscore.Internal.Correction>
   9.000000E+99

> <Gold.Chemscore.Hbonds>
donor molecule, donor type, donor heavy atom, donor atom, acceptor molecule, acceptor atom, score
      L1  H     9    28       P1  8028  0.96
      P1  H  7989  7998       L1    14  0.33

> <Gold.Chemscore.Hbond.Weighted>
-6.5939

> <Gold.Chemscore.Metal.Weighted>
-0.0000

> <Gold.Chemscore.Lipo.Weighted>
-9.0346

> <Gold.Chemscore.Internal_Hbond.Weighted>
0.0000

> <Gold.Chemscore.DEClash.Weighted>
0.0131

> <Gold.Chemscore.DEInternal.Weighted>
1.0386

> <Gold.Chemscore.Rot.Weighted>
7.0065

> <Gold.Chemscore.Internal.Correction.Weighted>
   9.000000E+99

> <Gold.Protein.RotatedTorsions>
[ 6907 6896 6895 6894 ] final    5.11 input  -60.11 | X-H torsion
[ 7974 7965 7964 7962 ] final  148.18 input  175.53 | X-H torsion
[ 8008 7997 7996 7995 ] final   15.29 input   59.86 | X-H torsion
[ 10167 10162 10161 10158 ] final  -86.59 input  -65.29 | X-H torsion
[ 10718 10713 10712 10709 ] final  110.89 input   66.30 | X-H torsion
[ 10763 10752 10751 10750 ] final -179.30 input  -60.55 | X-H torsion
[ 11005 11000 10999 10996 ] final  -52.59 input  -57.11 | X-H torsion

> <Gold.Protein.ActiveResidues>
 VAL166  LYS551  ARG553  GLY616  TRP617  ASP618  TYR619  PRO620  LYS621  CYS622 
 ASP623  PHE694  ASN695  SER759  ASP760  ASP761  ALA762  ILE779  LEU786  VAL792 
 PHE793  MET794  SER795  GLU796  ALA797  LYS798  CYS799  TRP800  GLU811  SER814 

> <Gold.Protein.RotatedAtoms>
  151.6522  135.1000  160.0162 H   0  0  0  0  0  0  0  0  0  0  0  0  # atno 6907 bound_to 6896
  152.3994  133.6791  159.6312 H   0  0  0  0  0  0  0  0  0  0  0  0  # atno 6908 bound_to 6896
  150.7896  133.8734  159.3306 H   0  0  0  0  0  0  0  0  0  0  0  0  # atno 6909 bound_to 6896
  144.8533  139.6122  143.5964 H   0  0  0  0  0  0  0  0  0  0  0  0  # atno 7974 bound_to 7965
  154.8605  140.2943  155.5542 H   0  0  0  0  0  0  0  0  0  0  0  0  # atno 8008 bound_to 7997
  156.3019  140.2479  156.3511 H   0  0  0  0  0  0  0  0  0  0  0  0  # atno 8009 bound_to 7997
  154.8923  140.0394  157.1835 H   0  0  0  0  0  0  0  0  0  0  0  0  # atno 8010 bound_to 7997
  140.3927  143.2697  151.9244 H   0  0  0  0  0  0  0  0  0  0  0  0  # atno 10167 bound_to 10162
  157.6472  131.0941  150.6668 H   0  0  0  0  0  0  0  0  0  0  0  0  # atno 10718 bound_to 10713
  154.5368  135.2803  155.1131 H   0  0  0  0  0  0  0  0  0  0  0  0  # atno 10763 bound_to 10752
  154.2629  135.6318  153.5285 H   0  0  0  0  0  0  0  0  0  0  0  0  # atno 10764 bound_to 10752
  152.9969  135.5610  154.5897 H   0  0  0  0  0  0  0  0  0  0  0  0  # atno 10765 bound_to 10752
  141.0932  133.6629  156.4047 H   0  0  0  0  0  0  0  0  0  0  0  0  # atno 11005 bound_to 11000
  146.2803  139.6859  142.9234 LP  0  0  0  0  0  0  0  0  0  0  0  0  # atno 17320 bound_to 7965
  145.4456  141.0425  143.2833 LP  0  0  0  0  0  0  0  0  0  0  0  0  # atno 17321 bound_to 7965
  139.4788  144.5712  151.8085 LP  0  0  0  0  0  0  0  0  0  0  0  0  # atno 17342 bound_to 10162
  140.4823  144.1432  150.5935 LP  0  0  0  0  0  0  0  0  0  0  0  0  # atno 17343 bound_to 10162
  156.6983  130.4616  149.5580 LP  0  0  0  0  0  0  0  0  0  0  0  0  # atno 17370 bound_to 10713
  156.1813  130.6500  151.0954 LP  0  0  0  0  0  0  0  0  0  0  0  0  # atno 17371 bound_to 10713
  140.5202  134.6311  157.5315 LP  0  0  0  0  0  0  0  0  0  0  0  0  # atno 17394 bound_to 11000
  139.9763  134.7211  155.9944 LP  0  0  0  0  0  0  0  0  0  0  0  0  # atno 17395 bound_to 11000

$$$$
