#       Name:                AV-unprocessed.smi:1760
#       Creating user name   scv26
#       Creation time:       Fri Mar 27 08:30:59 2020


#       File generated by GOLD software.
#

@<TRIPOS>MOLECULE
AV-unprocessed.smi:1760
    48    50     1
SMALL
NO_CHARGES


@<TRIPOS>ATOM
      1 ****         1.7872   0.9832   0.0464 O.2            1 S1                 0.0000
      2 ****         1.3936  -0.1817  -0.0058 C.2            1 S1                 0.0000
      3 ****         2.1768  -1.2752  -0.0552 N.am           1 S1                 0.0000
      4 ****         3.5789  -1.3684  -0.0365 C.2            1 S1                 0.0000
      5 ****         4.4197  -0.3757   0.3564 C.2            1 S1                 0.0000
      6 ****         5.8634  -0.5431   0.3584 C.2            1 S1                 0.0000
      7 ****         6.7968   0.6006   0.7243 C.3            1 S1                 0.0000
      8 ****         7.9590   0.5031   0.0774 F              1 S1                 0.0000
      9 ****         6.2495   1.7790   0.4262 F              1 S1                 0.0000
     10 ****         7.0472   0.5786   2.0326 F              1 S1                 0.0000
     11 ****         6.3303  -1.7338  -0.0602 C.2            1 S1                 0.0000
     12 ****         5.4725  -2.7670  -0.4435 N.am           1 S1                 0.0000
     13 ****         4.1242  -2.6698  -0.4574 C.2            1 S1                 0.0000
     14 ****         3.4364  -3.6288  -0.8062 O.2            1 S1                 0.0000
     15 ****         0.0976  -0.5237  -0.0445 N.am           1 S1                 0.0000
     16 ****        -1.0325   0.4019  -0.0432 C.3            1 S1                 0.0000
     17 ****        -1.9146   0.1609   1.1916 C.3            1 S1                 0.0000
     18 ****        -3.1912   1.0181   1.1313 C.3            1 S1                 0.0000
     19 ****        -3.9469   0.7133  -0.0841 N.3            1 S1                 0.0000
     20 ****        -5.1671   1.5033  -0.0910 C.3            1 S1                 0.0000
     21 ****        -6.3611   0.9532   0.6550 C.3            1 S1                 0.0000
     22 ****        -6.3498   0.9528  -0.8545 C.3            1 S1                 0.0000
     23 ****        -3.1538   1.0602  -1.2637 C.3            1 S1                 0.0000
     24 ****        -1.8744   0.2068  -1.3138 C.3            1 S1                 0.0000
     25 ****         5.8997  -3.6375  -0.7259 H              1 S1                 0.0000
     26 ****         1.7016  -2.1598  -0.1627 H              1 S1                 0.0000
     27 ****         4.0390   0.5714   0.7018 H              1 S1                 0.0000
     28 ****         7.3782  -1.9836  -0.1370 H              1 S1                 0.0000
     29 ****        -0.1279  -1.5065  -0.0919 H              1 S1                 0.0000
     30 ****        -0.6857   1.4367  -0.0191 H              1 S1                 0.0000
     31 ****        -2.1901  -0.8930   1.2563 H              1 S1                 0.0000
     32 ****        -1.3573   0.3920   2.1000 H              1 S1                 0.0000
     33 ****        -3.8092   0.8107   2.0058 H              1 S1                 0.0000
     34 ****        -2.9377   2.0791   1.1622 H              1 S1                 0.0000
     35 ****        -5.0817   2.5889  -0.0886 H              1 S1                 0.0000
     36 ****        -6.2512  -0.0060   1.1576 H              1 S1                 0.0000
     37 ****        -7.0127   1.6680   1.1533 H              1 S1                 0.0000
     38 ****        -6.9943   1.6668  -1.3629 H              1 S1                 0.0000
     39 ****        -6.2331  -0.0073  -1.3539 H              1 S1                 0.0000
     40 ****        -3.7438   0.8832  -2.1640 H              1 S1                 0.0000
     41 ****        -2.9007   2.1217  -1.2498 H              1 S1                 0.0000
     42 ****        -1.2883   0.4716  -2.1944 H              1 S1                 0.0000
     43 ****        -2.1457  -0.8442  -1.4265 H              1 S1                 0.0000
     44 ****         2.7676   1.1798   0.0549 LP             1 S1                 0.0000
     45 ****         1.1265   1.7331   0.0803 LP             1 S1                 0.0000
     46 ****         2.4394  -3.5520  -0.8156 LP             1 S1                 0.0000
     47 ****         3.8745  -4.4849  -1.0803 LP             1 S1                 0.0000
     48 ****        -4.1632  -0.2628  -0.1035 LP             1 S1                 0.0000
@<TRIPOS>BOND
    1    1    2 2     
    2    2    3 am    
    3    2   15 am    
    4    3    4 1     
    5    3   26 1     
    6    4   13 1     
    7    4    5 2     
    8    5    6 1     
    9    5   27 1     
   10    6    7 1     
   11    6   11 2     
   12    7    8 1     
   13    7    9 1     
   14    7   10 1     
   15   11   12 1     
   16   11   28 1     
   17   12   25 1     
   18   12   13 am    
   19   13   14 2     
   20   15   16 1     
   21   15   29 1     
   22   16   24 1     
   23   16   17 1     
   24   16   30 1     
   25   17   18 1     
   26   17   31 1     
   27   17   32 1     
   28   18   19 1     
   29   18   33 1     
   30   18   34 1     
   31   19   20 1     
   32   19   23 1     
   33   20   22 1     
   34   20   21 1     
   35   20   35 1     
   36   21   22 1     
   37   21   36 1     
   38   21   37 1     
   39   22   38 1     
   40   22   39 1     
   41   23   24 1     
   42   23   40 1     
   43   23   41 1     
   44   24   42 1     
   45   24   43 1     
   46    1   44 1     
   47    1   45 1     
   48   14   46 1     
   49   14   47 1     
   50   19   48 1     
@<TRIPOS>SUBSTRUCTURE
      1 S1             1
@<TRIPOS>SET
LONE_PAIRS      STATIC     ATOMS    <user>   **** ""
5 44 45 46 47 48
DONOR_HYDROGENS      STATIC     ATOMS    <user>   **** ""
3 26 25 29
ATOM$BLUE        STATIC     ATOMS    COLORGROUP SYSTEM
5 44 45 46 47 48
ATOM$RED        STATIC     ATOMS    COLORGROUP SYSTEM
3 26 25 29
