AV-unprocessed.smi:3339|AV-procd|sdf|12877|dock6
  -GOLD-   2272019283D 1   1.00000     0.00000
 Structure written by MMmdl.
 39 40  0  0  0  0  0  0  0  0  1 V2000
  149.6876  138.3974  155.9958 C   0  0  0  0  0  0  0  0  0  0  0  0
  150.1632  138.9107  154.6317 C   0  0  0  0  0  0  0  0  0  0  0  0
  151.3571  138.0925  154.1120 C   0  0  0  0  0  0  0  0  0  0  0  0
  150.5208  140.2764  154.8025 O   0  0  0  0  0  0  0  0  0  0  0  0
  149.4884  141.1005  155.3265 C   0  0  0  0  0  0  0  0  0  0  0  0
  149.8658  141.5196  156.7576 C   0  0  2  0  0  0  0  0  0  0  0  0
  148.9181  142.4820  157.1762 O   0  0  0  0  0  0  0  0  0  0  0  0
  151.2613  142.1742  156.8169 C   0  0  0  0  0  0  0  0  0  0  0  0
  151.8788  142.0070  158.1312 N   0  0  0  0  0  0  0  0  0  0  0  0
  152.5722  140.9284  158.5659 C   0  0  0  0  0  0  0  0  0  0  0  0
  152.7952  139.9052  157.9195 O   0  0  0  0  0  0  0  0  0  0  0  0
  152.9913  141.1804  159.8280 N   0  0  0  0  0  0  0  0  0  0  0  0
  153.7862  140.3014  160.6771 C   0  0  0  0  0  0  0  0  0  0  0  0
  152.5748  142.4642  160.2033 C   0  0  0  0  0  0  0  0  0  0  0  0
  152.7723  143.1890  161.3910 C   0  0  0  0  0  0  0  0  0  0  0  0
  152.2206  144.4904  161.4523 C   0  0  0  0  0  0  0  0  0  0  0  0
  151.5030  145.0288  160.3524 C   0  0  0  0  0  0  0  0  0  0  0  0
  151.3199  144.2768  159.1682 C   0  0  0  0  0  0  0  0  0  0  0  0
  151.8755  142.9858  159.1355 C   0  0  0  0  0  0  0  0  0  0  0  0
  149.3706  137.3558  155.9363 H   0  0  0  0  0  0  0  0  0  0  0  0
  148.8405  138.9809  156.3578 H   0  0  0  0  0  0  0  0  0  0  0  0
  150.4803  138.4643  156.7417 H   0  0  0  0  0  0  0  0  0  0  0  0
  149.3301  138.8284  153.9318 H   0  0  0  0  0  0  0  0  0  0  0  0
  151.1074  137.0326  154.0579 H   0  0  0  0  0  0  0  0  0  0  0  0
  152.2211  138.1973  154.7689 H   0  0  0  0  0  0  0  0  0  0  0  0
  151.6583  138.4024  153.1119 H   0  0  0  0  0  0  0  0  0  0  0  0
  149.4000  141.9874  154.6995 H   0  0  0  0  0  0  0  0  0  0  0  0
  148.5212  140.5948  155.3058 H   0  0  0  0  0  0  0  0  0  0  0  0
  149.8302  140.6479  157.4127 H   0  0  0  0  0  0  0  0  0  0  0  0
  149.0280  143.2608  156.6521 H   0  0  0  0  0  0  0  0  0  0  0  0
  151.9253  141.7059  156.0898 H   0  0  0  0  0  0  0  0  0  0  0  0
  151.2158  143.2272  156.5335 H   0  0  0  0  0  0  0  0  0  0  0  0
  153.4026  140.3042  161.6978 H   0  0  0  0  0  0  0  0  0  0  0  0
  154.8223  140.6394  160.6992 H   0  0  0  0  0  0  0  0  0  0  0  0
  153.7719  139.2707  160.3200 H   0  0  0  0  0  0  0  0  0  0  0  0
  153.3231  142.7742  162.2221 H   0  0  0  0  0  0  0  0  0  0  0  0
  152.3495  145.0823  162.3466 H   0  0  0  0  0  0  0  0  0  0  0  0
  151.0932  146.0259  160.4195 H   0  0  0  0  0  0  0  0  0  0  0  0
  150.7786  144.6825  158.3262 H   0  0  0  0  0  0  0  0  0  0  0  0
  1  2  1  0  0  0  0
  1 20  1  0  0  0  0
  1 21  1  0  0  0  0
  1 22  1  0  0  0  0
  2  3  1  0  0  0  0
  2  4  1  0  0  0  0
  2 23  1  0  0  0  0
  3 24  1  0  0  0  0
  3 25  1  0  0  0  0
  3 26  1  0  0  0  0
  4  5  1  0  0  0  0
  5  6  1  0  0  0  0
  5 27  1  0  0  0  0
  5 28  1  0  0  0  0
  6  7  1  0  0  0  0
  6  8  1  0  0  0  0
  6 29  1  0  0  0  0
  7 30  1  0  0  0  0
  8  9  1  0  0  0  0
  8 31  1  0  0  0  0
  8 32  1  0  0  0  0
  9 19  1  0  0  0  0
  9 10  1  0  0  0  0
 10 11  2  0  0  0  0
 10 12  1  0  0  0  0
 12 13  1  0  0  0  0
 12 14  1  0  0  0  0
 13 33  1  0  0  0  0
 13 34  1  0  0  0  0
 13 35  1  0  0  0  0
 14 19  2  0  0  0  0
 14 15  1  0  0  0  0
 15 16  2  0  0  0  0
 15 36  1  0  0  0  0
 16 17  1  0  0  0  0
 16 37  1  0  0  0  0
 17 18  2  0  0  0  0
 17 38  1  0  0  0  0
 18 19  1  0  0  0  0
 18 39  1  0  0  0  0
M  END
> <s_m_source_file>
AV-unprocessed.smi

> <i_m_source_file_index>
3339

> <i_lp_mmshare_version>
43012

> <i_f3d_flags>
0

> <s_epik_input>
W0NIM11bQ0hdKFtDSDNdKU9bQ0gyXVtDQEhdKFtPSF0pW0NIMl1uKGMoPU8pbjFbQ0gzXSljKGMxMilbY0hdW2NIXVtjSF1bY0hdMg==

> <s_epik_cmdline>
J2VwaWtfcHl0aG9uJywgJy1waCcsICc3LjAnLCAnLXRuJywgJzgnLCAnLW1hJywgJzIwMCcsICctbWV0YWxfYmluZGluZycsICctaW1hZScsICc8aW5maWxlLm1hZT4nLCAnLW9tYWUnLCAnPG91dGZpbGUubWFlPic=

> <r_lp_tautomer_probability>
1

> <r_epik_Ionization_Penalty>
3.68683e-07

> <r_epik_Ionization_Penalty_Charging>
2.29158e-09

> <r_epik_Ionization_Penalty_Neutral>
3.66391e-07

> <r_epik_State_Penalty>
-0

> <r_epik_Charging_Adjusted_Penalty>
2.29158e-09

> <i_epik_Tot_Q>
0

> <i_epik_Tot_abs_Q>
0

> <r_epik_Metal_State_Penalty>
-0

> <b_epik_Metal_Only>
0

> <s_lp_Force_Field>
OPLS_2005

> <r_lp_Energy>
41.4945

> <b_lp_Chiralities_Consistent>
1

> <s_lp_Variant>
AV-unprocessed.smi:3339-1

> <Gold.Version>
5.8.1

> <Gold.Id.Protein>
6NUR|6NUR_protein|mol2

> <Gold.PLP.Fitness>
51.9196

> <Gold.PLP.PLP>
-44.9434

> <Gold.PLP.part.hbond>
-3.0000

> <Gold.PLP.part.metal>
0.0000

> <Gold.PLP.part.buried>
-6.5557

> <Gold.PLP.part.nonpolar>
-35.0107

> <Gold.PLP.part.repulsive>
0.0736

> <Gold.PLP.ligand.clash>
0.0000

> <Gold.PLP.ligand.torsion>
1.0319

> <Gold.PLP.Chemscore.Hbond>
3.0000

> <Gold.PLP.Chemscore.CHOScore>
0.0000

> <Gold.PLP.Chemscore.Metal>
0.0000

> <Gold.Chemscore.Hbonds>
donor molecule, donor type, donor heavy atom, donor atom, acceptor molecule, acceptor atom, score
      L1  H     7    30       P1  8028  1.00
      P1  H  7989  7998       L1     4  1.00
      P1  H  7997  8008       L1    11  1.00

> <Gold.PLP.Chemscore.Internal.Correction>
0.0400

> <Gold.Rescore>
     Score         DG    S(hbond)    S(metal)    S(lipo)     H(rot)  DE(clash)    DE(int)     intcor
     21.83     -22.97       2.78        0.00     116.70       2.13       0.12       1.03       ----

> <Gold.Chemscore.Fitness>
21.8256

> <Gold.Chemscore.DG>
-22.9723

> <Gold.Chemscore.ZeroCoef>
-5.4800

> <Gold.Chemscore.Hbond>
2.7829

> <Gold.Chemscore.Metal>
0.0000

> <Gold.Chemscore.Lipo>
116.6996

> <Gold.Chemscore.Internal_Hbond>
0.0000

> <Gold.Chemscore.DEClash>
0.1209

> <Gold.Chemscore.DEInternal>
1.0259

> <Gold.Chemscore.Rot>
2.1314

> <Gold.Chemscore.Internal.Correction>
   9.000000E+99

> <Gold.Chemscore.Hbonds>
donor molecule, donor type, donor heavy atom, donor atom, acceptor molecule, acceptor atom, score
      L1  H     7    30       P1  8028  0.96
      P1  H  7989  7998       L1     4  0.83
      P1  H  7997  8008       L1    11  0.72

> <Gold.Chemscore.Hbond.Weighted>
-9.2949

> <Gold.Chemscore.Metal.Weighted>
-0.0000

> <Gold.Chemscore.Lipo.Weighted>
-13.6539

> <Gold.Chemscore.Internal_Hbond.Weighted>
0.0000

> <Gold.Chemscore.DEClash.Weighted>
0.1209

> <Gold.Chemscore.DEInternal.Weighted>
1.0259

> <Gold.Chemscore.Rot.Weighted>
5.4564

> <Gold.Chemscore.Internal.Correction.Weighted>
   9.000000E+99

> <Gold.Protein.RotatedTorsions>
[ 6907 6896 6895 6894 ] final  115.17 input  -60.11 | X-H torsion
[ 7974 7965 7964 7962 ] final  -29.81 input  175.53 | X-H torsion
[ 8008 7997 7996 7995 ] final  -79.66 input   59.86 | X-H torsion
[ 10167 10162 10161 10158 ] final    7.48 input  -65.29 | X-H torsion
[ 10718 10713 10712 10709 ] final  -33.04 input   66.30 | X-H torsion
[ 10763 10752 10751 10750 ] final  -46.08 input  -60.55 | X-H torsion
[ 11005 11000 10999 10996 ] final  142.04 input  -57.11 | X-H torsion

> <Gold.Protein.ActiveResidues>
 VAL166  LYS551  ARG553  GLY616  TRP617  ASP618  TYR619  PRO620  LYS621  CYS622 
 ASP623  PHE694  ASN695  SER759  ASP760  ASP761  ALA762  ILE779  LEU786  VAL792 
 PHE793  MET794  SER795  GLU796  ALA797  LYS798  CYS799  TRP800  GLU811  SER814 

> <Gold.Protein.RotatedAtoms>
  152.4758  133.8135  159.7015 H   0  0  0  0  0  0  0  0  0  0  0  0  # atno 6907 bound_to 6896
  150.8774  133.7410  159.2949 H   0  0  0  0  0  0  0  0  0  0  0  0  # atno 6908 bound_to 6896
  151.4926  135.1061  159.9859 H   0  0  0  0  0  0  0  0  0  0  0  0  # atno 6909 bound_to 6896
  146.1189  140.5460  142.8744 H   0  0  0  0  0  0  0  0  0  0  0  0  # atno 7974 bound_to 7965
  154.5806  140.0675  156.9099 H   0  0  0  0  0  0  0  0  0  0  0  0  # atno 8008 bound_to 7997
  155.2469  140.3349  155.4268 H   0  0  0  0  0  0  0  0  0  0  0  0  # atno 8009 bound_to 7997
  156.2187  140.1789  156.7514 H   0  0  0  0  0  0  0  0  0  0  0  0  # atno 8010 bound_to 7997
  140.6369  143.7864  150.7373 H   0  0  0  0  0  0  0  0  0  0  0  0  # atno 10167 bound_to 10162
  156.3675  130.4334  149.7572 H   0  0  0  0  0  0  0  0  0  0  0  0  # atno 10718 bound_to 10713
  154.0392  135.6646  153.4788 H   0  0  0  0  0  0  0  0  0  0  0  0  # atno 10763 bound_to 10752
  153.0509  135.5085  154.7859 H   0  0  0  0  0  0  0  0  0  0  0  0  # atno 10764 bound_to 10752
  154.6829  135.3048  154.9553 H   0  0  0  0  0  0  0  0  0  0  0  0  # atno 10765 bound_to 10752
  140.0447  134.9287  157.0908 H   0  0  0  0  0  0  0  0  0  0  0  0  # atno 11005 bound_to 11000
  144.7579  140.5351  143.6756 LP  0  0  0  0  0  0  0  0  0  0  0  0  # atno 17320 bound_to 7965
  145.5508  139.1476  143.3395 LP  0  0  0  0  0  0  0  0  0  0  0  0  # atno 17321 bound_to 7965
  140.1487  143.4376  152.2145 LP  0  0  0  0  0  0  0  0  0  0  0  0  # atno 17342 bound_to 10162
  139.5579  144.7386  151.4239 LP  0  0  0  0  0  0  0  0  0  0  0  0  # atno 17343 bound_to 10162
  156.4712  130.7997  151.3015 LP  0  0  0  0  0  0  0  0  0  0  0  0  # atno 17370 bound_to 10713
  157.7480  131.0035  150.3041 LP  0  0  0  0  0  0  0  0  0  0  0  0  # atno 17371 bound_to 10713
  140.4013  134.2080  155.7163 LP  0  0  0  0  0  0  0  0  0  0  0  0  # atno 17394 bound_to 11000
  141.1901  133.8225  157.0932 LP  0  0  0  0  0  0  0  0  0  0  0  0  # atno 17395 bound_to 11000

$$$$
