#       Name:                AV-unprocessed.smi:2293
#       Creating user name   scv26
#       Creation time:       Fri Mar 27 12:43:24 2020


#       File generated by GOLD software.
#

@<TRIPOS>MOLECULE
AV-unprocessed.smi:2293
    39    40     1
SMALL
NO_CHARGES


@<TRIPOS>ATOM
      1 ****        -5.1918   0.1700  -0.6944 C.3            1 S1                 0.0000
      2 ****        -3.6735   0.1929  -0.6753 C.2            1 S1                 0.0000
      3 ****        -3.0890   1.4622  -0.6386 N.2            1 S1                 0.0000
      4 ****        -1.8015   1.5791  -0.6169 C.2            1 S1                 0.0000
      5 ****        -0.9583   0.4559  -0.6319 N.am           1 S1                 0.0000
      6 ****         0.4890   0.7253  -0.5932 C.3            1 S1                 0.0000
      7 ****         1.0798   0.5441   0.8230 C.3            1 S1                 0.0000
      8 ****         0.7483   1.6777   1.6006 O.3            1 S1                 0.0000
      9 ****         2.5853   0.3345   0.7637 C.ar           1 S1                 0.0000
     10 ****         3.1237  -0.9551   0.9626 C.ar           1 S1                 0.0000
     11 ****         4.5160  -1.1606   0.9041 C.ar           1 S1                 0.0000
     12 ****         5.3780  -0.0783   0.6430 C.ar           1 S1                 0.0000
     13 ****         4.8468   1.2097   0.4379 C.ar           1 S1                 0.0000
     14 ****         5.6745   2.2507   0.1835 F              1 S1                 0.0000
     15 ****         3.4546   1.4155   0.4962 C.ar           1 S1                 0.0000
     16 ****        -1.4457  -0.8183  -0.6650 C.2            1 S1                 0.0000
     17 ****        -0.6964  -1.7973  -0.6689 O.2            1 S1                 0.0000
     18 ****        -2.9127  -0.9356  -0.6892 C.2            1 S1                 0.0000
     19 ****        -3.4930  -2.3439  -0.7268 C.3            1 S1                 0.0000
     20 ****        -5.5556  -0.3380  -1.5879 H              1 S1                 0.0000
     21 ****        -5.6044   1.1797  -0.6933 H              1 S1                 0.0000
     22 ****        -5.5764  -0.3491   0.1839 H              1 S1                 0.0000
     23 ****        -1.2962   2.5459  -0.5814 H              1 S1                 0.0000
     24 ****         0.9772   0.0279  -1.2770 H              1 S1                 0.0000
     25 ****         0.7415   1.7106  -0.9909 H              1 S1                 0.0000
     26 ****         0.6360  -0.3263   1.3080 H              1 S1                 0.0000
     27 ****         1.0445   1.5303   2.4859 H              1 S1                 0.0000
     28 ****         2.4705  -1.7928   1.1595 H              1 S1                 0.0000
     29 ****         4.9222  -2.1494   1.0585 H              1 S1                 0.0000
     30 ****         6.4455  -0.2364   0.5978 H              1 S1                 0.0000
     31 ****         3.0561   2.4063   0.3330 H              1 S1                 0.0000
     32 ****        -3.1612  -2.9102   0.1441 H              1 S1                 0.0000
     33 ****        -3.1527  -2.8670  -1.6212 H              1 S1                 0.0000
     34 ****        -4.5816  -2.3601  -0.7318 H              1 S1                 0.0000
     35 ****        -3.6659   2.2789  -0.6292 LP             1 S1                 0.0000
     36 ****        -0.2424   1.8133   1.5943 LP             1 S1                 0.0000
     37 ****         1.1980   2.4880   1.2247 LP             1 S1                 0.0000
     38 ****         0.2951  -1.6682  -0.6475 LP             1 S1                 0.0000
     39 ****        -1.0800  -2.7205  -0.6935 LP             1 S1                 0.0000
@<TRIPOS>BOND
    1    1    2 1     
    2    1   20 1     
    3    1   21 1     
    4    1   22 1     
    5    2   18 2     
    6    2    3 1     
    7    3    4 2     
    8    4    5 1     
    9    4   23 1     
   10    5    6 1     
   11    5   16 am    
   12    6    7 1     
   13    6   24 1     
   14    6   25 1     
   15    7    8 1     
   16    7    9 1     
   17    7   26 1     
   18    8   27 1     
   19    9   15 ar    
   20    9   10 ar    
   21   10   11 ar    
   22   10   28 1     
   23   11   12 ar    
   24   11   29 1     
   25   12   13 ar    
   26   12   30 1     
   27   13   14 1     
   28   13   15 ar    
   29   15   31 1     
   30   16   17 2     
   31   16   18 1     
   32   18   19 1     
   33   19   32 1     
   34   19   33 1     
   35   19   34 1     
   36    3   35 1     
   37    8   36 1     
   38    8   37 1     
   39   17   38 1     
   40   17   39 1     
@<TRIPOS>SUBSTRUCTURE
      1 S1             1
@<TRIPOS>SET
LONE_PAIRS      STATIC     ATOMS    <user>   **** ""
5 35 36 37 38 39
DONOR_HYDROGENS      STATIC     ATOMS    <user>   **** ""
1 27
ATOM$BLUE        STATIC     ATOMS    COLORGROUP SYSTEM
5 35 36 37 38 39
ATOM$RED        STATIC     ATOMS    COLORGROUP SYSTEM
1 27
