AV-unprocessed.smi:1047|AV-procd|sdf|4583|dock6
  -GOLD-   22720 3 53D 1   1.00000     0.00000
 Structure written by MMmdl.
 58 60  0  0  0  0  0  0  0  0  4 V2000
  146.0398  130.7977  151.5687 C   0  0  0  0  0  0  0  0  0  0  0  0
  146.4391  132.1991  152.0530 C   0  0  0  0  0  0  0  0  0  0  0  0
  147.7867  132.2271  152.6754 N   0  3  2  0  0  0  0  0  0  0  0  0
  148.1052  131.0044  153.4530 C   0  0  0  0  0  0  0  0  0  0  0  0
  149.5204  131.0978  154.0444 C   0  0  0  0  0  0  0  0  0  0  0  0
  149.6229  132.2670  154.8470 O   0  0  0  0  0  0  0  0  0  0  0  0
  149.4239  133.4604  154.0982 C   0  0  2  0  0  0  0  0  0  0  0  0
  149.6570  134.6422  155.0547 C   0  0  0  0  0  0  0  0  0  0  0  0
  150.0511  135.8712  154.3348 N   0  3  0  0  0  0  0  0  0  0  0  0
  149.6926  137.1166  155.0432 C   0  0  0  0  0  0  0  0  0  0  0  0
  150.6214  138.2817  154.6574 C   0  0  2  0  0  0  0  0  0  0  0  0
  151.5325  137.8012  153.6904 O   0  0  0  0  0  0  0  0  0  0  0  0
  151.3945  138.8577  155.8627 C   0  0  0  0  0  0  0  0  0  0  0  0
  151.0770  140.2691  156.1289 N   0  0  0  0  0  0  0  0  0  0  0  0
  150.2313  141.1096  155.4719 C   0  0  0  0  0  0  0  0  0  0  0  0
  150.2721  142.3137  156.1061 N   0  3  0  0  0  0  0  0  0  0  0  0
  151.1560  142.2431  157.1848 C   0  0  0  0  0  0  0  0  0  0  0  0
  151.5281  143.2018  158.1196 C   0  0  0  0  0  0  0  0  0  0  0  0
  152.4643  142.8134  159.1042 C   0  0  0  0  0  0  0  0  0  0  0  0
  152.8931  143.8372  160.1417 C   0  0  0  0  0  0  0  0  0  0  0  0
  152.9965  141.4983  159.1266 C   0  0  0  0  0  0  0  0  0  0  0  0
  154.0059  141.0923  160.1871 C   0  0  0  0  0  0  0  0  0  0  0  0
  152.6045  140.5376  158.1672 C   0  0  0  0  0  0  0  0  0  0  0  0
  151.6784  140.9352  157.2051 C   0  0  0  0  0  0  0  0  0  0  0  0
  147.9976  133.4383  153.5063 C   0  0  0  0  0  0  0  0  0  0  0  0
  145.0897  130.8341  151.0350 H   0  0  0  0  0  0  0  0  0  0  0  0
  145.9158  130.0985  152.3954 H   0  0  0  0  0  0  0  0  0  0  0  0
  146.7848  130.3870  150.8864 H   0  0  0  0  0  0  0  0  0  0  0  0
  146.4331  132.8647  151.1888 H   0  0  0  0  0  0  0  0  0  0  0  0
  145.6958  132.5900  152.7495 H   0  0  0  0  0  0  0  0  0  0  0  0
  147.3749  130.8775  154.2539 H   0  0  0  0  0  0  0  0  0  0  0  0
  148.0413  130.1203  152.8194 H   0  0  0  0  0  0  0  0  0  0  0  0
  149.7266  130.2250  154.6643 H   0  0  0  0  0  0  0  0  0  0  0  0
  150.2744  131.1132  153.2556 H   0  0  0  0  0  0  0  0  0  0  0  0
  150.1636  133.4996  153.2960 H   0  0  0  0  0  0  0  0  0  0  0  0
  148.7629  134.8310  155.6505 H   0  0  0  0  0  0  0  0  0  0  0  0
  150.4550  134.3879  155.7539 H   0  0  0  0  0  0  0  0  0  0  0  0
  151.0519  135.8600  154.1984 H   0  0  0  0  0  0  0  0  0  0  0  0
  148.6530  137.3741  154.8343 H   0  0  0  0  0  0  0  0  0  0  0  0
  149.7638  136.9292  156.1159 H   0  0  0  0  0  0  0  0  0  0  0  0
  150.0364  139.0726  154.1858 H   0  0  0  0  0  0  0  0  0  0  0  0
  151.1613  137.0350  153.2792 H   0  0  0  0  0  0  0  0  0  0  0  0
  151.1452  138.3011  156.7669 H   0  0  0  0  0  0  0  0  0  0  0  0
  152.4712  138.7504  155.7300 H   0  0  0  0  0  0  0  0  0  0  0  0
  149.6325  140.8672  154.6055 H   0  0  0  0  0  0  0  0  0  0  0  0
  151.1197  144.2018  158.0956 H   0  0  0  0  0  0  0  0  0  0  0  0
  152.6387  143.4954  161.1452 H   0  0  0  0  0  0  0  0  0  0  0  0
  152.4011  144.7973  159.9825 H   0  0  0  0  0  0  0  0  0  0  0  0
  153.9695  144.0035  160.0940 H   0  0  0  0  0  0  0  0  0  0  0  0
  154.3036  140.0491  160.0768 H   0  0  0  0  0  0  0  0  0  0  0  0
  153.5839  141.2135  161.1851 H   0  0  0  0  0  0  0  0  0  0  0  0
  154.9052  141.7045  160.1141 H   0  0  0  0  0  0  0  0  0  0  0  0
  153.0158  139.5393  158.1851 H   0  0  0  0  0  0  0  0  0  0  0  0
  147.8355  134.3289  152.8979 H   0  0  0  0  0  0  0  0  0  0  0  0
  147.2565  133.4590  154.3072 H   0  0  0  0  0  0  0  0  0  0  0  0
  149.5985  135.8774  153.4320 H   0  0  0  0  0  0  0  0  0  0  0  0
  148.4533  132.2772  151.9179 H   0  0  0  0  0  0  0  0  0  0  0  0
  149.7333  143.1226  155.8232 H   0  0  0  0  0  0  0  0  0  0  0  0
  1  2  1  0  0  0  0
  1 26  1  0  0  0  0
  1 27  1  0  0  0  0
  1 28  1  0  0  0  0
  2  3  1  0  0  0  0
  2 29  1  0  0  0  0
  2 30  1  0  0  0  0
  3 25  1  0  0  0  0
  3  4  1  0  0  0  0
  3 57  1  0  0  0  0
  4  5  1  0  0  0  0
  4 31  1  0  0  0  0
  4 32  1  0  0  0  0
  5  6  1  0  0  0  0
  5 33  1  0  0  0  0
  5 34  1  0  0  0  0
  6  7  1  0  0  0  0
  7  8  1  0  0  0  0
  7 25  1  0  0  0  0
  7 35  1  0  0  0  0
  8  9  1  0  0  0  0
  8 36  1  0  0  0  0
  8 37  1  0  0  0  0
  9 10  1  0  0  0  0
  9 38  1  0  0  0  0
  9 56  1  0  0  0  0
 10 11  1  0  0  0  0
 10 39  1  0  0  0  0
 10 40  1  0  0  0  0
 11 12  1  0  0  0  0
 11 13  1  0  0  0  0
 11 41  1  0  0  0  0
 12 42  1  0  0  0  0
 13 14  1  0  0  0  0
 13 43  1  0  0  0  0
 13 44  1  0  0  0  0
 14 24  1  0  0  0  0
 14 15  1  0  0  0  0
 15 16  2  0  0  0  0
 15 45  1  0  0  0  0
 16 17  1  0  0  0  0
 16 58  1  0  0  0  0
 17 24  2  0  0  0  0
 17 18  1  0  0  0  0
 18 19  2  0  0  0  0
 18 46  1  0  0  0  0
 19 20  1  0  0  0  0
 19 21  1  0  0  0  0
 20 47  1  0  0  0  0
 20 48  1  0  0  0  0
 20 49  1  0  0  0  0
 21 22  1  0  0  0  0
 21 23  2  0  0  0  0
 22 50  1  0  0  0  0
 22 51  1  0  0  0  0
 22 52  1  0  0  0  0
 23 24  1  0  0  0  0
 23 53  1  0  0  0  0
 25 54  1  0  0  0  0
 25 55  1  0  0  0  0
M  CHG  1   3   1
M  CHG  1   9   1
M  CHG  1  16   1
M  END
> <s_m_source_file>
AV-unprocessed.smi

> <i_m_source_file_index>
1047

> <i_lp_mmshare_version>
43012

> <i_f3d_flags>
0

> <s_epik_input>
W0NIM11bQ0gyXU4xW0NIMl1bQ0gyXU9bQ0BIXShbQ0gyXTEpW0NIMl1bTkhdW0NIMl1bQ0BIXShbT0hdKVtDSDJdbihbY0hdbjIpYyhjMjMpW2NIXWMoW0NIM10pYyhbY0hdMylbQ0gzXQ==

> <s_epik_cmdline>
J2VwaWtfcHl0aG9uJywgJy1waCcsICc3LjAnLCAnLXRuJywgJzgnLCAnLW1hJywgJzIwMCcsICctbWV0YWxfYmluZGluZycsICctaW1hZScsICc8aW5maWxlLm1hZT4nLCAnLW9tYWUnLCAnPG91dGZpbGUubWFlPic=

> <r_epik_Ionization_Penalty>
1.6114

> <r_epik_Ionization_Penalty_Charging>
1.61139

> <r_epik_Ionization_Penalty_Neutral>
5.04732e-06

> <r_epik_State_Penalty>
1.63724

> <r_epik_Charging_Adjusted_Penalty>
3.24864

> <i_epik_Tot_Q>
3

> <i_epik_Tot_abs_Q>
3

> <r_epik_Metal_State_Penalty>
5.64594

> <b_epik_Metal_Only>
0

> <s_lp_Force_Field>
OPLS_2005

> <r_lp_Energy>
40.251

> <b_lp_Chiralities_Consistent>
1

> <s_lp_Variant>
AV-unprocessed.smi:1047-24

> <Gold.Version>
5.8.1

> <Gold.Id.Protein>
6NUR|6NUR_protein|mol2

> <Gold.PLP.Fitness>
61.7740

> <Gold.PLP.PLP>
-51.2932

> <Gold.PLP.part.hbond>
-4.7808

> <Gold.PLP.part.metal>
0.0000

> <Gold.PLP.part.buried>
-3.2971

> <Gold.PLP.part.nonpolar>
-43.8006

> <Gold.PLP.part.repulsive>
0.1984

> <Gold.PLP.ligand.clash>
0.0000

> <Gold.PLP.ligand.torsion>
2.2818

> <Gold.PLP.Chemscore.Hbond>
4.9773

> <Gold.PLP.Chemscore.CHOScore>
0.0000

> <Gold.PLP.Chemscore.Metal>
0.0000

> <Gold.Chemscore.Hbonds>
donor molecule, donor type, donor heavy atom, donor atom, acceptor molecule, acceptor atom, score
      L1  H     3    57       P1 10747  0.35
      L1  H     9    56       P1  7948  1.80
      L1  H    12    42       P1  7949  0.74
      L1  H    16    58       P1  8028  2.00

> <Gold.PLP.Chemscore.Internal.Correction>
0.1123

> <Gold.Rescore>
     Score         DG    S(hbond)    S(metal)    S(lipo)     H(rot)  DE(clash)    DE(int)     intcor
     17.57     -20.22       1.87        0.00     133.58       2.78       0.36       2.29       ----

> <Gold.Chemscore.Fitness>
17.5697

> <Gold.Chemscore.DG>
-20.2195

> <Gold.Chemscore.ZeroCoef>
-5.4800

> <Gold.Chemscore.Hbond>
1.8681

> <Gold.Chemscore.Metal>
0.0000

> <Gold.Chemscore.Lipo>
133.5833

> <Gold.Chemscore.Internal_Hbond>
0.0000

> <Gold.Chemscore.DEClash>
0.3647

> <Gold.Chemscore.DEInternal>
2.2852

> <Gold.Chemscore.Rot>
2.7848

> <Gold.Chemscore.Internal.Correction>
   9.000000E+99

> <Gold.Chemscore.Hbonds>
donor molecule, donor type, donor heavy atom, donor atom, acceptor molecule, acceptor atom, score
      L1  H     3    57       P1 10747  0.34
      L1  H     9    56       P1  7948  0.18
      L1  H    12    42       P1  7949  0.36
      L1  H    16    58       P1  8028  1.00

> <Gold.Chemscore.Hbond.Weighted>
-6.2394

> <Gold.Chemscore.Metal.Weighted>
-0.0000

> <Gold.Chemscore.Lipo.Weighted>
-15.6292

> <Gold.Chemscore.Internal_Hbond.Weighted>
0.0000

> <Gold.Chemscore.DEClash.Weighted>
0.3647

> <Gold.Chemscore.DEInternal.Weighted>
2.2852

> <Gold.Chemscore.Rot.Weighted>
7.1291

> <Gold.Chemscore.Internal.Correction.Weighted>
   9.000000E+99

> <Gold.Protein.RotatedTorsions>
[ 6907 6896 6895 6894 ] final  -18.40 input  -60.11 | X-H torsion
[ 7974 7965 7964 7962 ] final  133.24 input  175.53 | X-H torsion
[ 8008 7997 7996 7995 ] final   13.71 input   59.86 | X-H torsion
[ 10167 10162 10161 10158 ] final   -9.07 input  -65.29 | X-H torsion
[ 10718 10713 10712 10709 ] final  112.38 input   66.30 | X-H torsion
[ 10763 10752 10751 10750 ] final  140.29 input  -60.55 | X-H torsion
[ 11005 11000 10999 10996 ] final  139.13 input  -57.11 | X-H torsion

> <Gold.Protein.ActiveResidues>
 VAL166  LYS551  ARG553  GLY616  TRP617  ASP618  TYR619  PRO620  LYS621  CYS622 
 ASP623  PHE694  ASN695  SER759  ASP760  ASP761  ALA762  ILE779  LEU786  VAL792 
 PHE793  MET794  SER795  GLU796  ALA797  LYS798  CYS799  TRP800  GLU811  SER814 

> <Gold.Protein.RotatedAtoms>
  151.2788  135.0707  159.9161 H   0  0  0  0  0  0  0  0  0  0  0  0  # atno 6907 bound_to 6896
  152.5338  134.0053  159.7924 H   0  0  0  0  0  0  0  0  0  0  0  0  # atno 6908 bound_to 6896
  151.0303  133.5746  159.2692 H   0  0  0  0  0  0  0  0  0  0  0  0  # atno 6909 bound_to 6896
  144.9885  139.4430  143.5351 H   0  0  0  0  0  0  0  0  0  0  0  0  # atno 7974 bound_to 7965
  154.8383  140.2910  155.5676 H   0  0  0  0  0  0  0  0  0  0  0  0  # atno 8008 bound_to 7997
  156.3010  140.2519  156.3253 H   0  0  0  0  0  0  0  0  0  0  0  0  # atno 8009 bound_to 7997
  154.9153  140.0387  157.1958 H   0  0  0  0  0  0  0  0  0  0  0  0  # atno 8010 bound_to 7997
  140.7077  143.5899  150.8905 H   0  0  0  0  0  0  0  0  0  0  0  0  # atno 10167 bound_to 10162
  157.6395  131.0966  150.6887 H   0  0  0  0  0  0  0  0  0  0  0  0  # atno 10718 bound_to 10713
  153.9203  135.3001  155.3448 H   0  0  0  0  0  0  0  0  0  0  0  0  # atno 10763 bound_to 10752
  154.7579  135.4948  153.9412 H   0  0  0  0  0  0  0  0  0  0  0  0  # atno 10764 bound_to 10752
  153.1145  135.6767  153.9544 H   0  0  0  0  0  0  0  0  0  0  0  0  # atno 10765 bound_to 10752
  140.0232  134.9387  157.0517 H   0  0  0  0  0  0  0  0  0  0  0  0  # atno 11005 bound_to 11000
  146.3426  139.9203  142.8767 LP  0  0  0  0  0  0  0  0  0  0  0  0  # atno 17320 bound_to 7965
  145.2319  140.9976  143.3986 LP  0  0  0  0  0  0  0  0  0  0  0  0  # atno 17321 bound_to 7965
  139.9624  143.6149  152.2998 LP  0  0  0  0  0  0  0  0  0  0  0  0  # atno 17342 bound_to 10162
  139.6706  144.7661  151.1790 LP  0  0  0  0  0  0  0  0  0  0  0  0  # atno 17343 bound_to 10162
  156.7212  130.4681  149.5522 LP  0  0  0  0  0  0  0  0  0  0  0  0  # atno 17370 bound_to 10713
  156.1664  130.6408  151.0783 LP  0  0  0  0  0  0  0  0  0  0  0  0  # atno 17371 bound_to 10713
  140.4351  134.1740  155.7170 LP  0  0  0  0  0  0  0  0  0  0  0  0  # atno 17394 bound_to 11000
  141.1787  133.8460  157.1334 LP  0  0  0  0  0  0  0  0  0  0  0  0  # atno 17395 bound_to 11000

$$$$
