#       Name:                AV-unprocessed.smi:2131
#       Creating user name   scv26
#       Creation time:       Fri Mar 27 11:44:24 2020


#       File generated by GOLD software.
#

@<TRIPOS>MOLECULE
AV-unprocessed.smi:2131
    46    48     1
SMALL
NO_CHARGES


@<TRIPOS>ATOM
      1 ****        -4.0225   6.8851   3.1187 N.1            1 S1                 0.0000
      2 ****        -3.8546   6.4803   2.0479 C.1            1 S1                 0.0000
      3 ****        -3.6416   5.9660   0.6864 C.3            1 S1                 0.0000
      4 ****        -2.9335   4.6269   0.6891 C.ar           1 S1                 0.0000
      5 ****        -3.6777   3.4314   0.7110 C.ar           1 S1                 0.0000
      6 ****        -3.0167   2.1880   0.7162 C.ar           1 S1                 0.0000
      7 ****        -1.6082   2.1181   0.6997 C.ar           1 S1                 0.0000
      8 ****        -1.0439   0.8603   0.7076 O.3            1 S1                 0.0000
      9 ****         0.3741   0.7589   0.6951 C.3            1 S1                 0.0000
     10 ****         0.7722  -0.7245   0.7170 C.3            1 S1                 0.0000
     11 ****         2.1702  -0.8068   0.9114 O.3            1 S1                 0.0000
     12 ****         0.3723  -1.4626  -0.5761 C.3            1 S1                 0.0000
     13 ****         0.7294  -2.8883  -0.5496 N.pl3          1 S1                 0.0000
     14 ****         0.0518  -3.9413  -0.0175 C.2            1 S1                 0.0000
     15 ****         0.7906  -5.0628  -0.2426 N.pl3          1 S1                 1.0000
     16 ****         1.9585  -4.7222  -0.9279 C.ar           1 S1                 0.0000
     17 ****         3.0141  -5.5109  -1.3747 C.ar           1 S1                 0.0000
     18 ****         4.0627  -4.8453  -2.0430 C.ar           1 S1                 0.0000
     19 ****         4.0364  -3.4499  -2.2441 C.ar           1 S1                 0.0000
     20 ****         2.9607  -2.6603  -1.7870 C.ar           1 S1                 0.0000
     21 ****         1.9268  -3.3257  -1.1286 C.ar           1 S1                 0.0000
     22 ****        -0.8655   3.3260   0.6776 C.ar           1 S1                 0.0000
     23 ****        -1.5262   4.5699   0.6725 C.ar           1 S1                 0.0000
     24 ****        -4.6108   5.8773   0.1949 H              1 S1                 0.0000
     25 ****        -3.0571   6.6977   0.1282 H              1 S1                 0.0000
     26 ****        -4.7572   3.4652   0.7257 H              1 S1                 0.0000
     27 ****        -3.5975   1.2774   0.7343 H              1 S1                 0.0000
     28 ****         0.7895   1.2456  -0.1892 H              1 S1                 0.0000
     29 ****         0.7788   1.2576   1.5777 H              1 S1                 0.0000
     30 ****         0.2958  -1.2075   1.5711 H              1 S1                 0.0000
     31 ****         2.3843  -0.3829   1.7287 H              1 S1                 0.0000
     32 ****        -0.7080  -1.4086  -0.7163 H              1 S1                 0.0000
     33 ****         0.8158  -0.9940  -1.4548 H              1 S1                 0.0000
     34 ****        -0.8996  -3.8950   0.4928 H              1 S1                 0.0000
     35 ****         3.0374  -6.5798  -1.2207 H              1 S1                 0.0000
     36 ****         4.9045  -5.4160  -2.4076 H              1 S1                 0.0000
     37 ****         4.8590  -2.9743  -2.7583 H              1 S1                 0.0000
     38 ****         2.9547  -1.5916  -1.9411 H              1 S1                 0.0000
     39 ****         0.2137   3.3263   0.6656 H              1 S1                 0.0000
     40 ****        -0.9483   5.4823   0.6577 H              1 S1                 0.0000
     41 ****         0.5165  -5.9911   0.0527 H              1 S1                 0.0000
     42 ****        -4.1676   7.2350   4.0442 LP             1 S1                 0.0000
     43 ****        -1.3826   0.3786  -0.1007 LP             1 S1                 0.0000
     44 ****        -1.3669   0.3958   1.5322 LP             1 S1                 0.0000
     45 ****         2.6431  -0.3479   0.1592 LP             1 S1                 0.0000
     46 ****         2.4503  -1.7661   0.9453 LP             1 S1                 0.0000
@<TRIPOS>BOND
    1    1    2 3     
    2    2    3 1     
    3    3    4 1     
    4    3   24 1     
    5    3   25 1     
    6    4   23 ar    
    7    4    5 ar    
    8    5    6 ar    
    9    5   26 1     
   10    6    7 ar    
   11    6   27 1     
   12    7    8 1     
   13    7   22 ar    
   14    8    9 1     
   15    9   10 1     
   16    9   28 1     
   17    9   29 1     
   18   10   11 1     
   19   10   12 1     
   20   10   30 1     
   21   11   31 1     
   22   12   13 1     
   23   12   32 1     
   24   12   33 1     
   25   13   21 1     
   26   13   14 1     
   27   14   15 2     
   28   14   34 1     
   29   15   16 1     
   30   15   41 1     
   31   16   21 ar    
   32   16   17 ar    
   33   17   18 ar    
   34   17   35 1     
   35   18   19 ar    
   36   18   36 1     
   37   19   20 ar    
   38   19   37 1     
   39   20   21 ar    
   40   20   38 1     
   41   22   23 ar    
   42   22   39 1     
   43   23   40 1     
   44    1   42 1     
   45    8   43 1     
   46    8   44 1     
   47   11   45 1     
   48   11   46 1     
@<TRIPOS>SUBSTRUCTURE
      1 S1             1
@<TRIPOS>SET
LONE_PAIRS      STATIC     ATOMS    <user>   **** ""
5 42 43 44 45 46
DONOR_HYDROGENS      STATIC     ATOMS    <user>   **** ""
2 31 41
ATOM$BLUE        STATIC     ATOMS    COLORGROUP SYSTEM
5 42 43 44 45 46
ATOM$RED        STATIC     ATOMS    COLORGROUP SYSTEM
2 31 41
