AV-unprocessed.smi:1490|AV-procd|sdf|6031|dock7
  -GOLD-   22720 6133D 1   1.00000     0.00000
 Structure written by MMmdl.
 37 38  0  0  0  0  0  0  0  0  3 V2000
  153.6545  138.9065  154.2309 C   0  0  0  0  0  0  0  0  0  0  0  0
  153.2736  139.5156  155.4512 O   0  0  0  0  0  0  0  0  0  0  0  0
  152.0365  139.0311  155.9467 C   0  0  0  0  0  0  0  0  0  0  0  0
  151.7560  139.6614  157.3184 C   0  0  0  0  0  0  0  0  0  0  0  0
  151.2625  141.0409  157.2026 N   0  0  0  0  0  0  0  0  0  0  0  0
  150.4701  141.6183  156.2564 C   0  0  0  0  0  0  0  0  0  0  0  0
  149.7808  140.8200  154.8445 S   0  0  0  0  0  0  0  0  0  0  0  0
  148.2269  141.6951  154.5053 C   0  0  0  0  0  0  0  0  0  0  0  0
  147.1550  141.4088  155.5561 C   0  0  0  0  0  0  0  0  0  0  0  0
  146.6595  140.2852  155.6281 O   0  0  0  0  0  0  0  0  0  0  0  0
  146.8866  142.4983  156.3090 N   0  5  0  0  0  0  0  0  0  0  0  0
  145.8979  142.3989  157.3642 C   0  0  0  0  0  0  0  0  0  0  0  0
  146.5443  142.4754  158.6833 C   0  0  0  0  0  0  0  0  0  0  0  0
  147.0526  142.5351  159.7216 N   0  0  0  0  0  0  0  0  0  0  0  0
  150.3180  142.9296  156.5896 N   0  3  0  0  0  0  0  0  0  0  0  0
  151.0284  143.1981  157.7607 C   0  0  0  0  0  0  0  0  0  0  0  0
  151.1811  144.3770  158.4834 C   0  0  0  0  0  0  0  0  0  0  0  0
  151.9860  144.3128  159.6401 C   0  0  0  0  0  0  0  0  0  0  0  0
  152.2205  145.7360  160.5861 Cl  0  0  0  0  0  0  0  0  0  0  0  0
  152.6036  143.1081  160.0363 C   0  0  0  0  0  0  0  0  0  0  0  0
  152.4421  141.9181  159.2963 C   0  0  0  0  0  0  0  0  0  0  0  0
  151.6416  141.9906  158.1571 C   0  0  0  0  0  0  0  0  0  0  0  0
  154.6088  139.3170  153.9006 H   0  0  0  0  0  0  0  0  0  0  0  0
  152.9178  139.0954  153.4493 H   0  0  0  0  0  0  0  0  0  0  0  0
  153.7733  137.8288  154.3486 H   0  0  0  0  0  0  0  0  0  0  0  0
  151.2312  139.2795  155.2542 H   0  0  0  0  0  0  0  0  0  0  0  0
  152.0706  137.9439  156.0329 H   0  0  0  0  0  0  0  0  0  0  0  0
  150.9995  139.0816  157.8479 H   0  0  0  0  0  0  0  0  0  0  0  0
  152.6468  139.6508  157.9468 H   0  0  0  0  0  0  0  0  0  0  0  0
  148.4269  142.7660  154.4602 H   0  0  0  0  0  0  0  0  0  0  0  0
  147.8558  141.4037  153.5214 H   0  0  0  0  0  0  0  0  0  0  0  0
  145.1585  143.1998  157.3253 H   0  0  0  0  0  0  0  0  0  0  0  0
  145.3455  141.4596  157.3298 H   0  0  0  0  0  0  0  0  0  0  0  0
  150.7111  145.3004  158.1783 H   0  0  0  0  0  0  0  0  0  0  0  0
  153.2153  143.0954  160.9268 H   0  0  0  0  0  0  0  0  0  0  0  0
  152.9227  141.0024  159.6074 H   0  0  0  0  0  0  0  0  0  0  0  0
  149.7749  143.5893  156.0476 H   0  0  0  0  0  0  0  0  0  0  0  0
  1  2  1  0  0  0  0
  1 23  1  0  0  0  0
  1 24  1  0  0  0  0
  1 25  1  0  0  0  0
  2  3  1  0  0  0  0
  3  4  1  0  0  0  0
  3 26  1  0  0  0  0
  3 27  1  0  0  0  0
  4  5  1  0  0  0  0
  4 28  1  0  0  0  0
  4 29  1  0  0  0  0
  5 22  1  0  0  0  0
  5  6  1  0  0  0  0
  6  7  1  0  0  0  0
  6 15  2  0  0  0  0
  7  8  1  0  0  0  0
  8  9  1  0  0  0  0
  8 30  1  0  0  0  0
  8 31  1  0  0  0  0
  9 10  2  0  0  0  0
  9 11  1  0  0  0  0
 11 12  1  0  0  0  0
 12 13  1  0  0  0  0
 12 32  1  0  0  0  0
 12 33  1  0  0  0  0
 13 14  3  0  0  0  0
 15 16  1  0  0  0  0
 15 37  1  0  0  0  0
 16 22  2  0  0  0  0
 16 17  1  0  0  0  0
 17 18  2  0  0  0  0
 17 34  1  0  0  0  0
 18 19  1  0  0  0  0
 18 20  1  0  0  0  0
 20 21  2  0  0  0  0
 20 35  1  0  0  0  0
 21 22  1  0  0  0  0
 21 36  1  0  0  0  0
M  CHG  1  11  -1
M  CHG  1  15   1
M  END
> <s_m_source_file>
AV-unprocessed.smi

> <i_m_source_file_index>
1490

> <i_lp_mmshare_version>
43012

> <i_f3d_flags>
0

> <s_epik_input>
W2NIXTFjKENsKVtjSF1bY0hdYyhjMTIpbihbQ0gyXVtDSDJdT1tDSDNdKWMobjIpU1tDSDJdQyg9TylbTkhdW0NIMl1DI04=

> <s_epik_cmdline>
J2VwaWtfcHl0aG9uJywgJy1waCcsICc3LjAnLCAnLXRuJywgJzgnLCAnLW1hJywgJzIwMCcsICctbWV0YWxfYmluZGluZycsICctaW1hZScsICc8aW5maWxlLm1hZT4nLCAnLW9tYWUnLCAnPG91dGZpbGUubWFlPic=

> <r_epik_Ionization_Penalty>
9.25224

> <r_epik_Ionization_Penalty_Charging>
9.25224

> <r_epik_Ionization_Penalty_Neutral>
2.90678e-12

> <r_epik_State_Penalty>
9.37242

> <r_epik_Charging_Adjusted_Penalty>
18.6247

> <i_epik_Tot_Q>
0

> <i_epik_Tot_abs_Q>
2

> <r_epik_Metal_State_Penalty>
5.29561

> <b_epik_Metal_Only>
1

> <s_lp_Force_Field>
OPLS_2005

> <r_lp_Energy>
5.70634

> <b_lp_Chiralities_Consistent>
1

> <s_lp_Variant>
AV-unprocessed.smi:1490-3

> <Gold.Version>
5.8.1

> <Gold.Id.Protein>
6NUR|6NUR_protein|mol2

> <Gold.PLP.Fitness>
53.7073

> <Gold.PLP.PLP>
-42.5514

> <Gold.PLP.part.hbond>
-3.9168

> <Gold.PLP.part.metal>
0.0000

> <Gold.PLP.part.buried>
-6.8000

> <Gold.PLP.part.nonpolar>
-33.7463

> <Gold.PLP.part.repulsive>
0.6911

> <Gold.PLP.ligand.clash>
0.0000

> <Gold.PLP.ligand.torsion>
0.9514

> <Gold.PLP.Chemscore.Hbond>
4.2890

> <Gold.PLP.Chemscore.CHOScore>
0.0000

> <Gold.PLP.Chemscore.Metal>
0.0000

> <Gold.Chemscore.Hbonds>
donor molecule, donor type, donor heavy atom, donor atom, acceptor molecule, acceptor atom, score
      L1  H    15    37       P1  8028  1.79
      P1  H  6933  6944       L1    14  0.30
      P1  H  6934  6946       L1    14  0.83
      P1  H  7997  8008       L1     2  0.71

> <Gold.PLP.Chemscore.Internal.Correction>
0.1916

> <Gold.Rescore>
     Score         DG    S(hbond)    S(metal)    S(lipo)     H(rot)  DE(clash)    DE(int)     intcor
     17.55     -20.43       2.87        0.00     105.83       2.74       0.83       2.05       ----

> <Gold.Chemscore.Fitness>
17.5516

> <Gold.Chemscore.DG>
-20.4341

> <Gold.Chemscore.ZeroCoef>
-5.4800

> <Gold.Chemscore.Hbond>
2.8717

> <Gold.Chemscore.Metal>
0.0000

> <Gold.Chemscore.Lipo>
105.8308

> <Gold.Chemscore.Internal_Hbond>
0.0000

> <Gold.Chemscore.DEClash>
0.8347

> <Gold.Chemscore.DEInternal>
2.0479

> <Gold.Chemscore.Rot>
2.7420

> <Gold.Chemscore.Internal.Correction>
   9.000000E+99

> <Gold.Chemscore.Hbonds>
donor molecule, donor type, donor heavy atom, donor atom, acceptor molecule, acceptor atom, score
      L1  H    15    37       P1  8028  0.85
      P1  H  6933  6944       L1    14  0.31
      P1  H  6934  6946       L1    14  0.70
      P1  H  7997  8008       L1     2  0.56

> <Gold.Chemscore.Hbond.Weighted>
-9.5914

> <Gold.Chemscore.Metal.Weighted>
-0.0000

> <Gold.Chemscore.Lipo.Weighted>
-12.3822

> <Gold.Chemscore.Internal_Hbond.Weighted>
0.0000

> <Gold.Chemscore.DEClash.Weighted>
0.8347

> <Gold.Chemscore.DEInternal.Weighted>
2.0479

> <Gold.Chemscore.Rot.Weighted>
7.0194

> <Gold.Chemscore.Internal.Correction.Weighted>
   9.000000E+99

> <Gold.Protein.RotatedTorsions>
[ 6907 6896 6895 6894 ] final  -15.71 input  -60.11 | X-H torsion
[ 7974 7965 7964 7962 ] final  148.36 input  175.53 | X-H torsion
[ 8008 7997 7996 7995 ] final  -27.02 input   59.86 | X-H torsion
[ 10167 10162 10161 10158 ] final -145.94 input  -65.29 | X-H torsion
[ 10718 10713 10712 10709 ] final  -37.74 input   66.30 | X-H torsion
[ 10763 10752 10751 10750 ] final   85.68 input  -60.55 | X-H torsion
[ 11005 11000 10999 10996 ] final -131.41 input  -57.11 | X-H torsion

> <Gold.Protein.ActiveResidues>
 VAL166  LYS551  ARG553  GLY616  TRP617  ASP618  TYR619  PRO620  LYS621  CYS622 
 ASP623  PHE694  ASN695  SER759  ASP760  ASP761  ALA762  ILE779  LEU786  VAL792 
 PHE793  MET794  SER795  GLU796  ALA797  LYS798  CYS799  TRP800  GLU811  SER814 

> <Gold.Protein.RotatedAtoms>
  151.3197  135.0815  159.9301 H   0  0  0  0  0  0  0  0  0  0  0  0  # atno 6907 bound_to 6896
  152.5259  133.9651  159.7746 H   0  0  0  0  0  0  0  0  0  0  0  0  # atno 6908 bound_to 6896
  150.9970  133.6041  159.2730 H   0  0  0  0  0  0  0  0  0  0  0  0  # atno 6909 bound_to 6896
  144.8520  139.6144  143.5969 H   0  0  0  0  0  0  0  0  0  0  0  0  # atno 7974 bound_to 7965
  154.4397  140.1884  156.0866 H   0  0  0  0  0  0  0  0  0  0  0  0  # atno 8008 bound_to 7997
  156.0398  140.3321  155.7205 H   0  0  0  0  0  0  0  0  0  0  0  0  # atno 8009 bound_to 7997
  155.5716  140.0613  157.2796 H   0  0  0  0  0  0  0  0  0  0  0  0  # atno 8010 bound_to 7997
  139.7759  143.8170  152.2632 H   0  0  0  0  0  0  0  0  0  0  0  0  # atno 10167 bound_to 10162
  156.3117  130.4253  149.8044 H   0  0  0  0  0  0  0  0  0  0  0  0  # atno 10718 bound_to 10713
  153.1498  135.4608  154.9620 H   0  0  0  0  0  0  0  0  0  0  0  0  # atno 10763 bound_to 10752
  154.7815  135.3190  154.7981 H   0  0  0  0  0  0  0  0  0  0  0  0  # atno 10764 bound_to 10752
  153.8488  135.6923  153.4849 H   0  0  0  0  0  0  0  0  0  0  0  0  # atno 10765 bound_to 10752
  140.9261  134.1381  157.4274 H   0  0  0  0  0  0  0  0  0  0  0  0  # atno 11005 bound_to 11000
  146.2792  139.6832  142.9241 LP  0  0  0  0  0  0  0  0  0  0  0  0  # atno 17320 bound_to 7965
  145.4482  141.0427  143.2819 LP  0  0  0  0  0  0  0  0  0  0  0  0  # atno 17321 bound_to 7965
  139.8218  144.7292  150.9562 LP  0  0  0  0  0  0  0  0  0  0  0  0  # atno 17342 bound_to 10162
  140.7816  143.4151  151.0930 LP  0  0  0  0  0  0  0  0  0  0  0  0  # atno 17343 bound_to 10162
  156.5384  130.8289  151.3261 LP  0  0  0  0  0  0  0  0  0  0  0  0  # atno 17370 bound_to 10713
  157.7392  130.9828  150.2302 LP  0  0  0  0  0  0  0  0  0  0  0  0  # atno 17371 bound_to 10713
  139.8786  134.9989  156.5923 LP  0  0  0  0  0  0  0  0  0  0  0  0  # atno 17394 bound_to 11000
  140.7924  133.8571  155.8657 LP  0  0  0  0  0  0  0  0  0  0  0  0  # atno 17395 bound_to 11000

$$$$
