#       Name:                AV-unprocessed.smi:2117
#       Creating user name   scv26
#       Creation time:       Fri Mar 27 11:37:12 2020


#       File generated by GOLD software.
#

@<TRIPOS>MOLECULE
AV-unprocessed.smi:2117
    30    31     1
SMALL
NO_CHARGES


@<TRIPOS>ATOM
      1 ****        -1.9278   1.8288   0.0041 N.pl3          1 S1                 0.0000
      2 ****        -0.5334   1.9056   0.0051 C.ar           1 S1                 0.0000
      3 ****         0.0937   3.1707   0.0040 C.ar           1 S1                 0.0000
      4 ****         1.5010   3.2494   0.0045 C.ar           1 S1                 0.0000
      5 ****         2.2527   2.0586   0.0063 C.ar           1 S1                 0.0000
      6 ****         1.6197   0.8658   0.0076 N.pl3          1 S1                 1.0000
      7 ****         0.2700   0.7377   0.0072 C.ar           1 S1                 0.0000
      8 ****        -0.2880  -0.5509   0.0063 N.3            1 S1                 0.0000
      9 ****        -0.0242  -1.2967  -1.2176 C.3            1 S1                 0.0000
     10 ****        -0.7763  -2.6383  -1.1876 C.3            1 S1                 0.0000
     11 ****        -0.4098  -3.3632  -0.0170 O.3            1 S1                 0.0000
     12 ****        -0.7435  -2.6591   1.1759 C.3            1 S1                 0.0000
     13 ****         0.0107  -1.3187   1.2086 C.3            1 S1                 0.0000
     14 ****        -2.4103   0.9413   0.0048 H              1 S1                 0.0000
     15 ****        -2.5025   2.6595  -0.0043 H              1 S1                 0.0000
     16 ****        -0.4960   4.0760   0.0025 H              1 S1                 0.0000
     17 ****         1.9959   4.2096   0.0033 H              1 S1                 0.0000
     18 ****         3.3325   2.0233   0.0065 H              1 S1                 0.0000
     19 ****        -0.3373  -0.7105  -2.0827 H              1 S1                 0.0000
     20 ****         1.0471  -1.4762  -1.3183 H              1 S1                 0.0000
     21 ****        -1.8560  -2.4807  -1.2078 H              1 S1                 0.0000
     22 ****        -0.5240  -3.2306  -2.0674 H              1 S1                 0.0000
     23 ****        -1.8220  -2.5012   1.2284 H              1 S1                 0.0000
     24 ****        -0.4679  -3.2670   2.0378 H              1 S1                 0.0000
     25 ****         1.0843  -1.5011   1.2755 H              1 S1                 0.0000
     26 ****        -0.2769  -0.7481   2.0925 H              1 S1                 0.0000
     27 ****         2.1874   0.0181   0.0085 H              1 S1                 0.0000
     28 ****        -1.2761  -0.3984   0.0243 LP             1 S1                 0.0000
     29 ****         0.5774  -3.5222  -0.0321 LP             1 S1                 0.0000
     30 ****        -0.8889  -4.2409  -0.0181 LP             1 S1                 0.0000
@<TRIPOS>BOND
    1    1    2 1     
    2    1   14 1     
    3    1   15 1     
    4    2    7 ar    
    5    2    3 ar    
    6    3    4 ar    
    7    3   16 1     
    8    4    5 ar    
    9    4   17 1     
   10    5    6 ar    
   11    5   18 1     
   12    6    7 ar    
   13    6   27 1     
   14    7    8 1     
   15    8   13 1     
   16    8    9 1     
   17    9   10 1     
   18    9   19 1     
   19    9   20 1     
   20   10   11 1     
   21   10   21 1     
   22   10   22 1     
   23   11   12 1     
   24   12   13 1     
   25   12   23 1     
   26   12   24 1     
   27   13   25 1     
   28   13   26 1     
   29    8   28 1     
   30   11   29 1     
   31   11   30 1     
@<TRIPOS>SUBSTRUCTURE
      1 S1             1
@<TRIPOS>SET
LONE_PAIRS      STATIC     ATOMS    <user>   **** ""
3 28 29 30
DONOR_HYDROGENS      STATIC     ATOMS    <user>   **** ""
3 14 15 27
ATOM$BLUE        STATIC     ATOMS    COLORGROUP SYSTEM
3 28 29 30
ATOM$RED        STATIC     ATOMS    COLORGROUP SYSTEM
3 14 15 27
