AV-unprocessed.smi:1202|AV-procd|sdf|5030|dock10
  -GOLD-   22720 4 53D 1   1.00000     0.00000
 Structure written by MMmdl.
 45 46  0  0  0  0  0  0  0  0  2 V2000
  148.1114  132.8652  153.1479 C   0  0  0  0  0  0  0  0  0  0  0  0
  147.8998  134.2524  153.5332 N   0  0  0  0  0  0  0  0  0  0  0  0
  147.5648  134.6488  154.7690 C   0  0  0  0  0  0  0  0  0  0  0  0
  147.3932  133.8676  155.7055 O   0  0  0  0  0  0  0  0  0  0  0  0
  147.3799  136.1567  154.9698 C   0  0  0  0  0  0  0  0  0  0  0  0
  148.5908  136.9443  154.6221 N   0  3  2  0  0  0  0  0  0  0  0  0
  149.7303  136.6600  155.5315 C   0  0  0  0  0  0  0  0  0  0  0  0
  151.0105  137.3781  155.0660 C   0  0  0  0  0  0  0  0  0  0  0  0
  150.8006  138.8941  154.9094 C   0  0  2  0  0  0  0  0  0  0  0  0
  150.6679  139.5301  156.2196 N   0  0  0  0  0  0  0  0  0  0  0  0
  151.6704  139.7348  157.0877 C   0  0  0  0  0  0  0  0  0  0  0  0
  152.8377  139.4190  156.8545 O   0  0  0  0  0  0  0  0  0  0  0  0
  151.2892  140.4228  158.4061 C   0  0  0  0  0  0  0  0  0  0  0  0
  151.8282  141.7879  158.5253 N   0  0  0  0  0  0  0  0  0  0  0  0
  151.4501  142.7167  157.5354 C   0  0  0  0  0  0  0  0  0  0  0  0
  151.8885  143.9853  157.5477 C   0  0  0  0  0  0  0  0  0  0  0  0
  152.7723  144.3920  158.6146 C   0  0  0  0  0  0  0  0  0  0  0  0
  153.1420  143.5108  159.5653 C   0  0  0  0  0  0  0  0  0  0  0  0
  152.6669  142.1223  159.5544 C   0  0  0  0  0  0  0  0  0  0  0  0
  153.0016  141.3089  160.4164 O   0  0  0  0  0  0  0  0  0  0  0  0
  149.5717  139.1580  154.0170 C   0  0  0  0  0  0  0  0  0  0  0  0
  148.3267  138.4043  154.5159 C   0  0  0  0  0  0  0  0  0  0  0  0
  148.3167  132.8037  152.0793 H   0  0  0  0  0  0  0  0  0  0  0  0
  147.2278  132.2615  153.3595 H   0  0  0  0  0  0  0  0  0  0  0  0
  148.9611  132.4395  153.6830 H   0  0  0  0  0  0  0  0  0  0  0  0
  148.0152  134.9522  152.8139 H   0  0  0  0  0  0  0  0  0  0  0  0
  146.5225  136.5177  154.3989 H   0  0  0  0  0  0  0  0  0  0  0  0
  147.1380  136.3013  156.0237 H   0  0  0  0  0  0  0  0  0  0  0  0
  149.4709  136.9624  156.5472 H   0  0  0  0  0  0  0  0  0  0  0  0
  149.9175  135.5859  155.5606 H   0  0  0  0  0  0  0  0  0  0  0  0
  151.8269  137.1786  155.7615 H   0  0  0  0  0  0  0  0  0  0  0  0
  151.3219  136.9608  154.1072 H   0  0  0  0  0  0  0  0  0  0  0  0
  151.6855  139.3088  154.4229 H   0  0  0  0  0  0  0  0  0  0  0  0
  149.7408  139.8189  156.4967 H   0  0  0  0  0  0  0  0  0  0  0  0
  150.2011  140.4327  158.4803 H   0  0  0  0  0  0  0  0  0  0  0  0
  151.6262  139.8128  159.2466 H   0  0  0  0  0  0  0  0  0  0  0  0
  150.7930  142.3320  156.7689 H   0  0  0  0  0  0  0  0  0  0  0  0
  151.5913  144.6821  156.7778 H   0  0  0  0  0  0  0  0  0  0  0  0
  153.1394  145.4073  158.6503 H   0  0  0  0  0  0  0  0  0  0  0  0
  153.8045  143.8329  160.3552 H   0  0  0  0  0  0  0  0  0  0  0  0
  149.3623  140.2265  153.9543 H   0  0  0  0  0  0  0  0  0  0  0  0
  149.7955  138.8373  152.9986 H   0  0  0  0  0  0  0  0  0  0  0  0
  147.5021  138.5882  153.8269 H   0  0  0  0  0  0  0  0  0  0  0  0
  148.0140  138.7917  155.4868 H   0  0  0  0  0  0  0  0  0  0  0  0
  148.8738  136.6291  153.7046 H   0  0  0  0  0  0  0  0  0  0  0  0
  1  2  1  0  0  0  0
  1 23  1  0  0  0  0
  1 24  1  0  0  0  0
  1 25  1  0  0  0  0
  2  3  1  0  0  0  0
  2 26  1  0  0  0  0
  3  4  2  0  0  0  0
  3  5  1  0  0  0  0
  5  6  1  0  0  0  0
  5 27  1  0  0  0  0
  5 28  1  0  0  0  0
  6 22  1  0  0  0  0
  6  7  1  0  0  0  0
  6 45  1  0  0  0  0
  7  8  1  0  0  0  0
  7 29  1  0  0  0  0
  7 30  1  0  0  0  0
  8  9  1  0  0  0  0
  8 31  1  0  0  0  0
  8 32  1  0  0  0  0
  9 10  1  0  0  0  0
  9 21  1  0  0  0  0
  9 33  1  0  0  0  0
 10 11  1  0  0  0  0
 10 34  1  0  0  0  0
 11 12  2  0  0  0  0
 11 13  1  0  0  0  0
 13 14  1  0  0  0  0
 13 35  1  0  0  0  0
 13 36  1  0  0  0  0
 14 19  1  0  0  0  0
 14 15  1  0  0  0  0
 15 16  2  0  0  0  0
 15 37  1  0  0  0  0
 16 17  1  0  0  0  0
 16 38  1  0  0  0  0
 17 18  2  0  0  0  0
 17 39  1  0  0  0  0
 18 19  1  0  0  0  0
 18 40  1  0  0  0  0
 19 20  2  0  0  0  0
 21 22  1  0  0  0  0
 21 41  1  0  0  0  0
 21 42  1  0  0  0  0
 22 43  1  0  0  0  0
 22 44  1  0  0  0  0
M  CHG  1   6   1
M  END
> <s_m_source_file>
AV-unprocessed.smi

> <i_m_source_file_index>
1202

> <i_lp_mmshare_version>
43012

> <i_f3d_flags>
0

> <s_epik_input>
W0NIM11bTkhdQyg9TylbQ0gyXU4xW0NIMl1bQ0gyXVtDSF0oW0NIMl1bQ0gyXTEpW05IXUMoPU8pW0NIMl1uMltjSF1bY0hdW2NIXVtjSF1jMj1P

> <s_epik_cmdline>
J2VwaWtfcHl0aG9uJywgJy1waCcsICc3LjAnLCAnLXRuJywgJzgnLCAnLW1hJywgJzIwMCcsICctbWV0YWxfYmluZGluZycsICctaW1hZScsICc8aW5maWxlLm1hZT4nLCAnLW9tYWUnLCAnPG91dGZpbGUubWFlPic=

> <r_lp_tautomer_probability>
1

> <r_epik_Ionization_Penalty>
0.983979

> <r_epik_Ionization_Penalty_Charging>
0.983957

> <r_epik_Ionization_Penalty_Neutral>
2.18432e-05

> <r_epik_State_Penalty>
1.03106

> <r_epik_Charging_Adjusted_Penalty>
2.01502

> <i_epik_Tot_Q>
1

> <i_epik_Tot_abs_Q>
1

> <r_epik_Metal_State_Penalty>
1.03477

> <b_epik_Metal_Only>
0

> <s_lp_Force_Field>
OPLS_2005

> <r_lp_Energy>
22.4374

> <b_lp_Chiralities_Consistent>
1

> <s_lp_Variant>
AV-unprocessed.smi:1202-3

> <Gold.Version>
5.8.1

> <Gold.Id.Protein>
6NUR|6NUR_protein|mol2

> <Gold.PLP.Fitness>
53.0613

> <Gold.PLP.PLP>
-41.6475

> <Gold.PLP.part.hbond>
-2.8520

> <Gold.PLP.part.metal>
0.0000

> <Gold.PLP.part.buried>
-3.9563

> <Gold.PLP.part.nonpolar>
-35.5356

> <Gold.PLP.part.repulsive>
0.0727

> <Gold.PLP.ligand.clash>
0.0000

> <Gold.PLP.ligand.torsion>
0.3028

> <Gold.PLP.Chemscore.Hbond>
3.9913

> <Gold.PLP.Chemscore.CHOScore>
0.0000

> <Gold.PLP.Chemscore.Metal>
0.0000

> <Gold.Chemscore.Hbonds>
donor molecule, donor type, donor heavy atom, donor atom, acceptor molecule, acceptor atom, score
      L1  H     2    26       P1  7948  1.00
      L1  H     6    45       P1  7948  2.00
      P1  H  7997  8008       L1    12  1.00

> <Gold.PLP.Chemscore.Internal.Correction>
0.0456

> <Gold.Rescore>
     Score         DG    S(hbond)    S(metal)    S(lipo)     H(rot)  DE(clash)    DE(int)     intcor
     19.61     -19.98       2.89        0.00      90.28       2.23       0.08       0.29       ----

> <Gold.Chemscore.Fitness>
19.6114

> <Gold.Chemscore.DG>
-19.9797

> <Gold.Chemscore.ZeroCoef>
-5.4800

> <Gold.Chemscore.Hbond>
2.8915

> <Gold.Chemscore.Metal>
0.0000

> <Gold.Chemscore.Lipo>
90.2787

> <Gold.Chemscore.Internal_Hbond>
0.0000

> <Gold.Chemscore.DEClash>
0.0826

> <Gold.Chemscore.DEInternal>
0.2857

> <Gold.Chemscore.Rot>
2.2346

> <Gold.Chemscore.Internal.Correction>
   9.000000E+99

> <Gold.Chemscore.Hbonds>
donor molecule, donor type, donor heavy atom, donor atom, acceptor molecule, acceptor atom, score
      L1  H     2    26       P1  7948  0.90
      L1  H     6    45       P1  7948  1.00
      P1  H  7997  8008       L1    12  1.00

> <Gold.Chemscore.Hbond.Weighted>
-9.6576

> <Gold.Chemscore.Metal.Weighted>
-0.0000

> <Gold.Chemscore.Lipo.Weighted>
-10.5626

> <Gold.Chemscore.Internal_Hbond.Weighted>
0.0000

> <Gold.Chemscore.DEClash.Weighted>
0.0826

> <Gold.Chemscore.DEInternal.Weighted>
0.2857

> <Gold.Chemscore.Rot.Weighted>
5.7205

> <Gold.Chemscore.Internal.Correction.Weighted>
   9.000000E+99

> <Gold.Protein.RotatedTorsions>
[ 6907 6896 6895 6894 ] final  -96.65 input  -60.11 | X-H torsion
[ 7974 7965 7964 7962 ] final  -82.80 input  175.53 | X-H torsion
[ 8008 7997 7996 7995 ] final  -65.81 input   59.86 | X-H torsion
[ 10167 10162 10161 10158 ] final   39.07 input  -65.29 | X-H torsion
[ 10718 10713 10712 10709 ] final  -55.17 input   66.30 | X-H torsion
[ 10763 10752 10751 10750 ] final  179.30 input  -60.55 | X-H torsion
[ 11005 11000 10999 10996 ] final   58.72 input  -57.11 | X-H torsion

> <Gold.Protein.ActiveResidues>
 VAL166  LYS551  ARG553  GLY616  TRP617  ASP618  TYR619  PRO620  LYS621  CYS622 
 ASP623  PHE694  ASN695  SER759  ASP760  ASP761  ALA762  ILE779  LEU786  VAL792 
 PHE793  MET794  SER795  GLU796  ALA797  LYS798  CYS799  TRP800  GLU811  SER814 

> <Gold.Protein.RotatedAtoms>
  150.6994  134.1471  159.4126 H   0  0  0  0  0  0  0  0  0  0  0  0  # atno 6907 bound_to 6896
  151.9454  135.0191  160.0548 H   0  0  0  0  0  0  0  0  0  0  0  0  # atno 6908 bound_to 6896
  152.2057  133.4839  159.5119 H   0  0  0  0  0  0  0  0  0  0  0  0  # atno 6909 bound_to 6896
  145.5284  140.9524  143.1616 H   0  0  0  0  0  0  0  0  0  0  0  0  # atno 7974 bound_to 7965
  154.4695  140.0925  156.7107 H   0  0  0  0  0  0  0  0  0  0  0  0  # atno 8008 bound_to 7997
  155.4764  140.3466  155.4315 H   0  0  0  0  0  0  0  0  0  0  0  0  # atno 8009 bound_to 7997
  156.1014  140.1423  156.9451 H   0  0  0  0  0  0  0  0  0  0  0  0  # atno 8010 bound_to 7997
  140.3875  144.1897  150.6130 H   0  0  0  0  0  0  0  0  0  0  0  0  # atno 10167 bound_to 10162
  156.1390  130.4155  150.0136 H   0  0  0  0  0  0  0  0  0  0  0  0  # atno 10718 bound_to 10713
  154.5189  135.2793  155.1280 H   0  0  0  0  0  0  0  0  0  0  0  0  # atno 10763 bound_to 10752
  154.2845  135.6279  153.5364 H   0  0  0  0  0  0  0  0  0  0  0  0  # atno 10764 bound_to 10752
  152.9933  135.5659  154.5673 H   0  0  0  0  0  0  0  0  0  0  0  0  # atno 10765 bound_to 10752
  140.0357  134.5947  155.9448 H   0  0  0  0  0  0  0  0  0  0  0  0  # atno 11005 bound_to 11000
  144.7639  139.6892  143.7223 LP  0  0  0  0  0  0  0  0  0  0  0  0  # atno 17320 bound_to 7965
  146.2060  139.5385  142.9712 LP  0  0  0  0  0  0  0  0  0  0  0  0  # atno 17321 bound_to 7965
  140.4874  143.2358  151.8868 LP  0  0  0  0  0  0  0  0  0  0  0  0  # atno 17342 bound_to 10162
  139.4791  144.5203  151.8810 LP  0  0  0  0  0  0  0  0  0  0  0  0  # atno 17343 bound_to 10162
  156.8026  130.9296  151.3645 LP  0  0  0  0  0  0  0  0  0  0  0  0  # atno 17370 bound_to 10713
  157.6558  130.8923  149.9727 LP  0  0  0  0  0  0  0  0  0  0  0  0  # atno 17371 bound_to 10713
  141.1856  133.6555  156.5203 LP  0  0  0  0  0  0  0  0  0  0  0  0  # atno 17394 bound_to 11000
  140.4152  134.7237  157.4859 LP  0  0  0  0  0  0  0  0  0  0  0  0  # atno 17395 bound_to 11000

$$$$
