AV-unprocessed.smi:2492|AV-procd|sdf|9812|dock5
  -GOLD-   2272013443D 1   1.00000     0.00000
 Structure written by MMmdl.
 33 34  0  0  0  0  0  0  0  0  1 V2000
  154.4823  141.1860  160.1954 C   0  0  0  0  0  0  0  0  0  0  0  0
  153.4710  142.5307  160.8694 S   0  0  0  0  0  0  0  0  0  0  0  0
  152.9401  143.3339  159.3299 C   0  0  1  0  0  0  0  0  0  0  0  0
  152.0660  142.4270  158.4678 C   0  0  0  0  0  0  0  0  0  0  0  0
  151.3438  143.3904  157.5258 C   0  0  0  0  0  0  0  0  0  0  0  0
  151.1869  144.7106  158.3072 C   0  0  1  0  0  0  0  0  0  0  0  0
  149.7937  144.9566  158.6714 N   0  0  0  0  0  0  0  0  0  0  0  0
  149.0837  144.2174  159.5359 C   0  0  0  0  0  0  0  0  0  0  0  0
  149.5401  143.2372  160.1253 O   0  0  0  0  0  0  0  0  0  0  0  0
  147.8325  144.6888  159.6693 N   0  0  0  0  0  0  0  0  0  0  0  0
  146.7956  144.1717  160.4866 C   0  0  0  0  0  0  0  0  0  0  0  0
  145.5949  144.7160  160.6847 N   0  0  0  0  0  0  0  0  0  0  0  0
  145.0403  143.8108  161.5364 C   0  0  0  0  0  0  0  0  0  0  0  0
  143.6595  143.9597  162.0784 C   0  0  0  0  0  0  0  0  0  0  0  0
  145.8048  142.7745  161.8624 N   0  0  0  0  0  0  0  0  0  0  0  0
  146.9937  143.0126  161.1571 O   0  0  0  0  0  0  0  0  0  0  0  0
  152.0669  144.5708  159.5636 C   0  0  0  0  0  0  0  0  0  0  0  0
  154.8632  140.5622  161.0042 H   0  0  0  0  0  0  0  0  0  0  0  0
  155.3314  141.5848  159.6403 H   0  0  0  0  0  0  0  0  0  0  0  0
  153.8899  140.5614  159.5267 H   0  0  0  0  0  0  0  0  0  0  0  0
  153.8236  143.6172  158.7559 H   0  0  0  0  0  0  0  0  0  0  0  0
  152.6419  141.6715  157.9323 H   0  0  0  0  0  0  0  0  0  0  0  0
  151.3340  141.9099  159.0901 H   0  0  0  0  0  0  0  0  0  0  0  0
  151.9642  143.5668  156.6461 H   0  0  0  0  0  0  0  0  0  0  0  0
  150.3982  142.9779  157.1714 H   0  0  0  0  0  0  0  0  0  0  0  0
  151.5578  145.5378  157.6988 H   0  0  0  0  0  0  0  0  0  0  0  0
  149.3412  145.7453  158.2328 H   0  0  0  0  0  0  0  0  0  0  0  0
  147.5940  145.5071  159.1288 H   0  0  0  0  0  0  0  0  0  0  0  0
  143.4194  143.1480  162.7661 H   0  0  0  0  0  0  0  0  0  0  0  0
  142.9335  143.9491  161.2651 H   0  0  0  0  0  0  0  0  0  0  0  0
  143.5658  144.9044  162.6145 H   0  0  0  0  0  0  0  0  0  0  0  0
  151.4461  144.4152  160.4479 H   0  0  0  0  0  0  0  0  0  0  0  0
  152.6649  145.4646  159.7441 H   0  0  0  0  0  0  0  0  0  0  0  0
  1  2  1  0  0  0  0
  1 18  1  0  0  0  0
  1 19  1  0  0  0  0
  1 20  1  0  0  0  0
  2  3  1  0  0  0  0
  3 17  1  0  0  0  0
  3  4  1  0  0  0  0
  3 21  1  0  0  0  0
  4  5  1  0  0  0  0
  4 22  1  0  0  0  0
  4 23  1  0  0  0  0
  5  6  1  0  0  0  0
  5 24  1  0  0  0  0
  5 25  1  0  0  0  0
  6  7  1  0  0  0  0
  6 17  1  0  0  0  0
  6 26  1  0  0  0  0
  7  8  1  0  0  0  0
  7 27  1  0  0  0  0
  8  9  2  0  0  0  0
  8 10  1  0  0  0  0
 10 11  1  0  0  0  0
 10 28  1  0  0  0  0
 11 16  1  0  0  0  0
 11 12  2  0  0  0  0
 12 13  1  0  0  0  0
 13 14  1  0  0  0  0
 13 15  2  0  0  0  0
 14 29  1  0  0  0  0
 14 30  1  0  0  0  0
 14 31  1  0  0  0  0
 15 16  1  0  0  0  0
 17 32  1  0  0  0  0
 17 33  1  0  0  0  0
M  END
> <s_m_source_file>
AV-unprocessed.smi

> <i_m_source_file_index>
2492

> <i_lp_mmshare_version>
43012

> <i_f3d_flags>
0

> <s_epik_input>
W0NIM11TW0NAQEhdMVtDSDJdW0NIMl1bQ0BIXShbQ0gyXTEpW05IXUMoPU8pW05IXWMybmMoW0NIM10pbm8y

> <s_epik_cmdline>
J2VwaWtfcHl0aG9uJywgJy1waCcsICc3LjAnLCAnLXRuJywgJzgnLCAnLW1hJywgJzIwMCcsICctbWV0YWxfYmluZGluZycsICctaW1hZScsICc8aW5maWxlLm1hZT4nLCAnLW9tYWUnLCAnPG91dGZpbGUubWFlPic=

> <r_lp_tautomer_probability>
1

> <r_epik_Ionization_Penalty>
3.56659e-05

> <r_epik_Ionization_Penalty_Charging>
0

> <r_epik_Ionization_Penalty_Neutral>
3.56659e-05

> <r_epik_State_Penalty>
-0

> <r_epik_Charging_Adjusted_Penalty>
0

> <i_epik_Tot_Q>
0

> <i_epik_Tot_abs_Q>
0

> <r_epik_Metal_State_Penalty>
0.0146047

> <b_epik_Metal_Only>
0

> <s_lp_Force_Field>
OPLS_2005

> <r_lp_Energy>
14.0642

> <b_lp_Chiralities_Consistent>
1

> <s_lp_Variant>
AV-unprocessed.smi:2492-2

> <Gold.Version>
5.8.1

> <Gold.Id.Protein>
6NUR|6NUR_protein|mol2

> <Gold.PLP.Fitness>
43.3028

> <Gold.PLP.PLP>
-35.9722

> <Gold.PLP.part.hbond>
-5.4478

> <Gold.PLP.part.metal>
0.0000

> <Gold.PLP.part.buried>
-2.8277

> <Gold.PLP.part.nonpolar>
-29.9209

> <Gold.PLP.part.repulsive>
0.5922

> <Gold.PLP.ligand.clash>
0.0000

> <Gold.PLP.ligand.torsion>
0.0700

> <Gold.PLP.Chemscore.Hbond>
2.4879

> <Gold.PLP.Chemscore.CHOScore>
0.0000

> <Gold.PLP.Chemscore.Metal>
0.0000

> <Gold.Chemscore.Hbonds>
donor molecule, donor type, donor heavy atom, donor atom, acceptor molecule, acceptor atom, score
      L1  H     7    27       P1  8029  0.72
      L1  H    10    28       P1  8029  0.66
      P1  H  6933  6944       L1    16  1.00
      P1  H  6934  6946       L1    16  0.10

> <Gold.PLP.Chemscore.Internal.Correction>
0.0067

> <Gold.Rescore>
     Score         DG    S(hbond)    S(metal)    S(lipo)     H(rot)  DE(clash)    DE(int)     intcor
     14.71     -17.61       1.85        0.00      78.86       1.28       0.22       2.68       ----

> <Gold.Chemscore.Fitness>
14.7105

> <Gold.Chemscore.DG>
-17.6099

> <Gold.Chemscore.ZeroCoef>
-5.4800

> <Gold.Chemscore.Hbond>
1.8514

> <Gold.Chemscore.Metal>
0.0000

> <Gold.Chemscore.Lipo>
78.8626

> <Gold.Chemscore.Internal_Hbond>
0.0000

> <Gold.Chemscore.DEClash>
0.2242

> <Gold.Chemscore.DEInternal>
2.6751

> <Gold.Chemscore.Rot>
1.2815

> <Gold.Chemscore.Internal.Correction>
   9.000000E+99

> <Gold.Chemscore.Hbonds>
donor molecule, donor type, donor heavy atom, donor atom, acceptor molecule, acceptor atom, score
      L1  H     7    27       P1  8029  0.59
      L1  H    10    28       P1  8029  0.66
      P1  H  6933  6944       L1    16  0.95

> <Gold.Chemscore.Hbond.Weighted>
-6.1837

> <Gold.Chemscore.Metal.Weighted>
-0.0000

> <Gold.Chemscore.Lipo.Weighted>
-9.2269

> <Gold.Chemscore.Internal_Hbond.Weighted>
0.0000

> <Gold.Chemscore.DEClash.Weighted>
0.2242

> <Gold.Chemscore.DEInternal.Weighted>
2.6751

> <Gold.Chemscore.Rot.Weighted>
3.2808

> <Gold.Chemscore.Internal.Correction.Weighted>
   9.000000E+99

> <Gold.Protein.RotatedTorsions>
[ 6907 6896 6895 6894 ] final   36.13 input  -60.11 | X-H torsion
[ 7974 7965 7964 7962 ] final  175.32 input  175.53 | X-H torsion
[ 8008 7997 7996 7995 ] final -143.15 input   59.86 | X-H torsion
[ 10167 10162 10161 10158 ] final  111.31 input  -65.29 | X-H torsion
[ 10718 10713 10712 10709 ] final  -65.47 input   66.30 | X-H torsion
[ 10763 10752 10751 10750 ] final -152.65 input  -60.55 | X-H torsion
[ 11005 11000 10999 10996 ] final   98.51 input  -57.11 | X-H torsion

> <Gold.Protein.ActiveResidues>
 VAL166  LYS551  ARG553  GLY616  TRP617  ASP618  TYR619  PRO620  LYS621  CYS622 
 ASP623  PHE694  ASN695  SER759  ASP760  ASP761  ALA762  ILE779  LEU786  VAL792 
 PHE793  MET794  SER795  GLU796  ALA797  LYS798  CYS799  TRP800  GLU811  SER814 

> <Gold.Protein.RotatedAtoms>
  152.1255  134.9174  160.0560 H   0  0  0  0  0  0  0  0  0  0  0  0  # atno 6907 bound_to 6896
  152.0298  133.3928  159.4300 H   0  0  0  0  0  0  0  0  0  0  0  0  # atno 6908 bound_to 6896
  150.6852  134.3455  159.4930 H   0  0  0  0  0  0  0  0  0  0  0  0  # atno 6909 bound_to 6896
  144.7204  139.9929  143.6440 H   0  0  0  0  0  0  0  0  0  0  0  0  # atno 7974 bound_to 7965
  155.5059  140.0579  157.2931 H   0  0  0  0  0  0  0  0  0  0  0  0  # atno 8008 bound_to 7997
  154.4569  140.1977  156.0302 H   0  0  0  0  0  0  0  0  0  0  0  0  # atno 8009 bound_to 7997
  156.0817  140.3246  155.7706 H   0  0  0  0  0  0  0  0  0  0  0  0  # atno 8010 bound_to 7997
  139.6621  144.7128  151.1845 H   0  0  0  0  0  0  0  0  0  0  0  0  # atno 10167 bound_to 10162
  156.0668  130.4248  150.1569 H   0  0  0  0  0  0  0  0  0  0  0  0  # atno 10718 bound_to 10713
  154.7980  135.3231  154.7620 H   0  0  0  0  0  0  0  0  0  0  0  0  # atno 10763 bound_to 10752
  153.8294  135.6880  153.4821 H   0  0  0  0  0  0  0  0  0  0  0  0  # atno 10764 bound_to 10752
  153.1681  135.4634  154.9807 H   0  0  0  0  0  0  0  0  0  0  0  0  # atno 10765 bound_to 10752
  139.8772  134.9052  156.4467 H   0  0  0  0  0  0  0  0  0  0  0  0  # atno 11005 bound_to 11000
  146.0397  139.3410  143.0705 LP  0  0  0  0  0  0  0  0  0  0  0  0  # atno 17320 bound_to 7965
  145.8350  140.9611  143.0829 LP  0  0  0  0  0  0  0  0  0  0  0  0  # atno 17321 bound_to 7965
  140.7584  143.5977  150.8731 LP  0  0  0  0  0  0  0  0  0  0  0  0  # atno 17342 bound_to 10162
  139.9636  143.6136  152.2995 LP  0  0  0  0  0  0  0  0  0  0  0  0  # atno 17343 bound_to 10162
  156.9627  130.9810  151.3475 LP  0  0  0  0  0  0  0  0  0  0  0  0  # atno 17370 bound_to 10713
  157.5714  130.8313  149.8396 LP  0  0  0  0  0  0  0  0  0  0  0  0  # atno 17371 bound_to 10713
  140.8961  133.7813  155.9626 LP  0  0  0  0  0  0  0  0  0  0  0  0  # atno 17394 bound_to 11000
  140.8701  134.2736  157.5194 LP  0  0  0  0  0  0  0  0  0  0  0  0  # atno 17395 bound_to 11000

$$$$
