AV-unprocessed.smi:2226|AV-procd|sdf|9020|dock3
  -GOLD-   2272012223D 1   1.00000     0.00000
 Structure written by MMmdl.
 39 41  0  0  0  0  0  0  0  0  3 V2000
  143.6106  140.8277  155.9214 C   0  0  0  0  0  0  0  0  0  0  0  0
  144.8049  141.1795  155.1169 N   0  3  2  0  0  0  0  0  0  0  0  0
  145.9557  140.2593  155.2758 C   0  0  1  0  0  0  0  0  0  0  0  0
  146.9366  140.4698  154.0994 C   0  0  0  0  0  0  0  0  0  0  0  0
  147.3658  141.9356  153.8960 C   0  0  0  0  0  0  0  0  0  0  0  0
  146.1996  142.9273  154.0753 C   0  0  0  0  0  0  0  0  0  0  0  0
  145.2556  142.5851  155.2516 C   0  0  2  0  0  0  0  0  0  0  0  0
  145.8290  142.8640  156.6641 C   0  0  0  0  0  0  0  0  0  0  0  0
  146.8328  141.8160  157.2041 C   0  0  2  0  0  0  0  0  0  0  0  0
  148.2130  142.2587  157.0211 N   0  0  0  0  0  0  0  0  0  0  0  0
  149.3126  141.6962  157.5435 C   0  0  0  0  0  0  0  0  0  0  0  0
  149.2116  140.7091  158.2755 O   0  0  0  0  0  0  0  0  0  0  0  0
  150.4590  142.3097  157.1752 N   0  5  0  0  0  0  0  0  0  0  0  0
  151.2168  142.9192  158.1009 C   0  0  0  0  0  0  0  0  0  0  0  0
  151.9458  144.0225  157.9250 N   0  0  0  0  0  0  0  0  0  0  0  0
  152.5548  144.2722  159.1453 C   0  0  0  0  0  0  0  0  0  0  0  0
  152.1680  143.2907  160.0164 C   0  0  0  0  0  0  0  0  0  0  0  0
  151.3265  142.4294  159.3684 O   0  0  0  0  0  0  0  0  0  0  0  0
  146.5835  140.3735  156.6872 C   0  0  0  0  0  0  0  0  0  0  0  0
  143.7996  140.8937  156.9927 H   0  0  0  0  0  0  0  0  0  0  0  0
  143.2883  139.8104  155.6977 H   0  0  0  0  0  0  0  0  0  0  0  0
  142.7821  141.4951  155.6832 H   0  0  0  0  0  0  0  0  0  0  0  0
  145.5796  139.2401  155.1759 H   0  0  0  0  0  0  0  0  0  0  0  0
  147.8164  139.8363  154.2185 H   0  0  0  0  0  0  0  0  0  0  0  0
  146.4476  140.1305  153.1852 H   0  0  0  0  0  0  0  0  0  0  0  0
  148.1823  142.1852  154.5648 H   0  0  0  0  0  0  0  0  0  0  0  0
  147.7913  142.0534  152.8990 H   0  0  0  0  0  0  0  0  0  0  0  0
  146.5845  143.9425  154.1776 H   0  0  0  0  0  0  0  0  0  0  0  0
  145.6107  142.9244  153.1571 H   0  0  0  0  0  0  0  0  0  0  0  0
  144.3802  143.2250  155.1314 H   0  0  0  0  0  0  0  0  0  0  0  0
  146.2575  143.8664  156.7064 H   0  0  0  0  0  0  0  0  0  0  0  0
  144.9885  142.8971  157.3579 H   0  0  0  0  0  0  0  0  0  0  0  0
  146.6910  141.7951  158.2866 H   0  0  0  0  0  0  0  0  0  0  0  0
  148.3534  143.0683  156.4346 H   0  0  0  0  0  0  0  0  0  0  0  0
  153.2084  145.1188  159.2949 H   0  0  0  0  0  0  0  0  0  0  0  0
  152.3827  143.0754  161.0522 H   0  0  0  0  0  0  0  0  0  0  0  0
  145.9008  139.8928  157.3888 H   0  0  0  0  0  0  0  0  0  0  0  0
  147.4918  139.7725  156.7391 H   0  0  0  0  0  0  0  0  0  0  0  0
  144.5078  141.0794  154.1568 H   0  0  0  0  0  0  0  0  0  0  0  0
  1  2  1  0  0  0  0
  1 20  1  0  0  0  0
  1 21  1  0  0  0  0
  1 22  1  0  0  0  0
  2  7  1  0  0  0  0
  2  3  1  0  0  0  0
  2 39  1  0  0  0  0
  3 19  1  0  0  0  0
  3  4  1  0  0  0  0
  3 23  1  0  0  0  0
  4  5  1  0  0  0  0
  4 24  1  0  0  0  0
  4 25  1  0  0  0  0
  5  6  1  0  0  0  0
  5 26  1  0  0  0  0
  5 27  1  0  0  0  0
  6  7  1  0  0  0  0
  6 28  1  0  0  0  0
  6 29  1  0  0  0  0
  7  8  1  0  0  0  0
  7 30  1  0  0  0  0
  8  9  1  0  0  0  0
  8 31  1  0  0  0  0
  8 32  1  0  0  0  0
  9 10  1  0  0  0  0
  9 19  1  0  0  0  0
  9 33  1  0  0  0  0
 10 34  1  0  0  0  0
 10 11  1  0  0  0  0
 11 13  1  0  0  0  0
 11 12  2  0  0  0  0
 13 14  1  0  0  0  0
 14 18  1  0  0  0  0
 14 15  2  0  0  0  0
 15 16  1  0  0  0  0
 16 35  1  0  0  0  0
 16 17  2  0  0  0  0
 17 36  1  0  0  0  0
 17 18  1  0  0  0  0
 19 37  1  0  0  0  0
 19 38  1  0  0  0  0
M  CHG  1   2   1
M  CHG  1  13  -1
M  END
> <s_m_source_file>
AV-unprocessed.smi

> <i_m_source_file_index>
2226

> <i_lp_mmshare_version>
43012

> <i_f3d_flags>
0

> <s_epik_input>
W0NIMl0xW0NIMl1bQ0gyXVtDQEhdKE4oW0NIM10pW0NIXTEyKVtDSDJdW0NASF0oW0NIMl0yKVtOSF1DKD1PKVtOSF1jM25bY0hdW2NIXW8z

> <s_epik_cmdline>
J2VwaWtfcHl0aG9uJywgJy1waCcsICc3LjAnLCAnLXRuJywgJzgnLCAnLW1hJywgJzIwMCcsICctbWV0YWxfYmluZGluZycsICctaW1hZScsICc8aW5maWxlLm1hZT4nLCAnLW9tYWUnLCAnPG91dGZpbGUubWFlPic=

> <r_lp_tautomer_probability>
0.107061

> <r_epik_Ionization_Penalty>
10.5612

> <r_epik_Ionization_Penalty_Charging>
7.48913

> <r_epik_Ionization_Penalty_Neutral>
3.07202

> <r_epik_State_Penalty>
5.6431

> <r_epik_Charging_Adjusted_Penalty>
13.1322

> <i_epik_Tot_Q>
0

> <i_epik_Tot_abs_Q>
2

> <r_epik_Metal_State_Penalty>
1.58163

> <b_epik_Metal_Only>
1

> <s_lp_Force_Field>
OPLS_2005

> <r_lp_Energy>
26.6809

> <b_lp_Chiralities_Consistent>
1

> <s_lp_Variant>
AV-unprocessed.smi:2226-20

> <Gold.Version>
5.8.1

> <Gold.Id.Protein>
6NUR|6NUR_protein|mol2

> <Gold.PLP.Fitness>
37.2250

> <Gold.PLP.PLP>
-29.9767

> <Gold.PLP.part.hbond>
-2.3067

> <Gold.PLP.part.metal>
0.0000

> <Gold.PLP.part.buried>
-6.8576

> <Gold.PLP.part.nonpolar>
-21.8148

> <Gold.PLP.part.repulsive>
0.2520

> <Gold.PLP.ligand.clash>
0.0000

> <Gold.PLP.ligand.torsion>
0.9021

> <Gold.PLP.Chemscore.Hbond>
3.0000

> <Gold.PLP.Chemscore.CHOScore>
0.0000

> <Gold.PLP.Chemscore.Metal>
0.0000

> <Gold.Chemscore.Hbonds>
donor molecule, donor type, donor heavy atom, donor atom, acceptor molecule, acceptor atom, score
      L1  H     2    39       P1 10175  2.00
      L1  H    10    34       P1  8028  1.00

> <Gold.PLP.Chemscore.Internal.Correction>
0.0524

> <Gold.Rescore>
     Score         DG    S(hbond)    S(metal)    S(lipo)     H(rot)  DE(clash)    DE(int)     intcor
     13.68     -15.81       1.85        0.00      57.26       1.00       0.03       2.11       ----

> <Gold.Chemscore.Fitness>
13.6821

> <Gold.Chemscore.DG>
-15.8150

> <Gold.Chemscore.ZeroCoef>
-5.4800

> <Gold.Chemscore.Hbond>
1.8549

> <Gold.Chemscore.Metal>
0.0000

> <Gold.Chemscore.Lipo>
57.2613

> <Gold.Chemscore.Internal_Hbond>
0.0000

> <Gold.Chemscore.DEClash>
0.0265

> <Gold.Chemscore.DEInternal>
2.1064

> <Gold.Chemscore.Rot>
1.0000

> <Gold.Chemscore.Internal.Correction>
   9.000000E+99

> <Gold.Chemscore.Hbonds>
donor molecule, donor type, donor heavy atom, donor atom, acceptor molecule, acceptor atom, score
      L1  H     2    39       P1 10175  0.81
      L1  H    10    34       P1  8028  0.70

> <Gold.Chemscore.Hbond.Weighted>
-6.1954

> <Gold.Chemscore.Metal.Weighted>
-0.0000

> <Gold.Chemscore.Lipo.Weighted>
-6.6996

> <Gold.Chemscore.Internal_Hbond.Weighted>
0.0000

> <Gold.Chemscore.DEClash.Weighted>
0.0265

> <Gold.Chemscore.DEInternal.Weighted>
2.1064

> <Gold.Chemscore.Rot.Weighted>
2.5600

> <Gold.Chemscore.Internal.Correction.Weighted>
   9.000000E+99

> <Gold.Protein.RotatedTorsions>
[ 6907 6896 6895 6894 ] final  -22.62 input  -60.11 | X-H torsion
[ 7974 7965 7964 7962 ] final  167.01 input  175.53 | X-H torsion
[ 8008 7997 7996 7995 ] final  -64.69 input   59.86 | X-H torsion
[ 10167 10162 10161 10158 ] final  104.07 input  -65.29 | X-H torsion
[ 10718 10713 10712 10709 ] final -152.73 input   66.30 | X-H torsion
[ 10763 10752 10751 10750 ] final  138.75 input  -60.55 | X-H torsion
[ 11005 11000 10999 10996 ] final -119.39 input  -57.11 | X-H torsion

> <Gold.Protein.ActiveResidues>
 VAL166  LYS551  ARG553  GLY616  TRP617  ASP618  TYR619  PRO620  LYS621  CYS622 
 ASP623  PHE694  ASN695  SER759  ASP760  ASP761  ALA762  ILE779  LEU786  VAL792 
 PHE793  MET794  SER795  GLU796  ALA797  LYS798  CYS799  TRP800  GLU811  SER814 

> <Gold.Protein.RotatedAtoms>
  151.2160  135.0500  159.8930 H   0  0  0  0  0  0  0  0  0  0  0  0  # atno 6907 bound_to 6896
  152.5420  134.0692  159.8197 H   0  0  0  0  0  0  0  0  0  0  0  0  # atno 6908 bound_to 6896
  151.0852  133.5310  159.2650 H   0  0  0  0  0  0  0  0  0  0  0  0  # atno 6909 bound_to 6896
  144.7440  139.8698  143.6388 H   0  0  0  0  0  0  0  0  0  0  0  0  # atno 7974 bound_to 7965
  154.4627  140.0948  156.6936 H   0  0  0  0  0  0  0  0  0  0  0  0  # atno 8008 bound_to 7997
  155.4948  140.3472  155.4342 H   0  0  0  0  0  0  0  0  0  0  0  0  # atno 8009 bound_to 7997
  156.0899  140.1394  156.9594 H   0  0  0  0  0  0  0  0  0  0  0  0  # atno 8010 bound_to 7997
  139.7208  144.7058  151.0875 H   0  0  0  0  0  0  0  0  0  0  0  0  # atno 10167 bound_to 10162
  156.4764  130.8282  151.2510 H   0  0  0  0  0  0  0  0  0  0  0  0  # atno 10718 bound_to 10713
  153.8947  135.3029  155.3448 H   0  0  0  0  0  0  0  0  0  0  0  0  # atno 10763 bound_to 10752
  154.7699  135.4891  153.9631 H   0  0  0  0  0  0  0  0  0  0  0  0  # atno 10764 bound_to 10752
  153.1278  135.6797  153.9327 H   0  0  0  0  0  0  0  0  0  0  0  0  # atno 10765 bound_to 10752
  141.0219  134.0111  157.3270 H   0  0  0  0  0  0  0  0  0  0  0  0  # atno 11005 bound_to 11000
  146.1288  139.4319  143.0182 LP  0  0  0  0  0  0  0  0  0  0  0  0  # atno 17320 bound_to 7965
  145.7194  141.0080  143.1410 LP  0  0  0  0  0  0  0  0  0  0  0  0  # atno 17321 bound_to 7965
  140.7753  143.5168  150.9585 LP  0  0  0  0  0  0  0  0  0  0  0  0  # atno 17342 bound_to 10162
  139.8855  143.7018  152.3152 LP  0  0  0  0  0  0  0  0  0  0  0  0  # atno 17343 bound_to 10162
  157.7487  131.0059  150.3132 LP  0  0  0  0  0  0  0  0  0  0  0  0  # atno 17370 bound_to 10713
  156.3566  130.3840  149.7285 LP  0  0  0  0  0  0  0  0  0  0  0  0  # atno 17371 bound_to 10713
  139.9151  135.0196  156.7850 LP  0  0  0  0  0  0  0  0  0  0  0  0  # atno 17394 bound_to 11000
  140.6558  133.9690  155.7779 LP  0  0  0  0  0  0  0  0  0  0  0  0  # atno 17395 bound_to 11000

$$$$
