#       Name:                AV-unprocessed.smi:949
#       Creating user name   scv26
#       Creation time:       Fri Mar 27 02:15:30 2020


#       File generated by GOLD software.
#

@<TRIPOS>MOLECULE
AV-unprocessed.smi:949
    35    36     1
SMALL
NO_CHARGES


@<TRIPOS>ATOM
      1 ****        -1.3106  -0.9686  -1.6972 C.3            1 S1                 0.0000
      2 ****        -0.8076  -0.3173  -0.3961 C.3            1 S1                 0.0000
      3 ****         0.6496  -0.2430  -0.3923 N.pl3          1 S1                 0.0000
      4 ****         1.3699   0.7454  -1.0866 C.ar           1 S1                 0.0000
      5 ****         0.7414   1.7654  -1.8401 C.ar           1 S1                 0.0000
      6 ****         1.5428   2.7159  -2.5023 C.ar           1 S1                 0.0000
      7 ****         2.8906   2.7114  -2.4594 N.ar           1 S1                 0.0000
      8 ****         3.4911   1.7406  -1.7409 C.ar           1 S1                 0.0000
      9 ****         2.7860   0.7398  -1.0395 C.ar           1 S1                 0.0000
     10 ****         3.4961  -0.2254  -0.3210 N.pl3          1 S1                 0.0000
     11 ****        -1.3031  -1.0938   0.8398 C.3            1 S1                 0.0000
     12 ****        -0.8904  -0.4782   2.1797 C.3            1 S1                 0.0000
     13 ****        -1.9717  -0.9895   3.1026 C.3            1 S1                 0.0000
     14 ****        -3.2012  -0.9015   2.2062 C.3            1 S1                 0.0000
     15 ****        -2.7299  -1.1154   0.8785 O.3            1 S1                 0.0000
     16 ****        -2.3999  -0.9976  -1.7282 H              1 S1                 0.0000
     17 ****        -0.9501  -1.9935  -1.7917 H              1 S1                 0.0000
     18 ****        -0.9783  -0.4203  -2.5785 H              1 S1                 0.0000
     19 ****        -1.2116   0.6925  -0.3261 H              1 S1                 0.0000
     20 ****         1.1593  -0.9324   0.1406 H              1 S1                 0.0000
     21 ****        -0.3316   1.8376  -1.9263 H              1 S1                 0.0000
     22 ****         1.0862   3.5031  -3.0836 H              1 S1                 0.0000
     23 ****         4.5710   1.7648  -1.7256 H              1 S1                 0.0000
     24 ****         3.0146  -0.9521   0.1891 H              1 S1                 0.0000
     25 ****         4.4802  -0.1111  -0.1264 H              1 S1                 0.0000
     26 ****        -0.9589  -2.1286   0.8014 H              1 S1                 0.0000
     27 ****         0.1117  -0.7725   2.4929 H              1 S1                 0.0000
     28 ****        -0.9268   0.6113   2.1320 H              1 S1                 0.0000
     29 ****        -1.7745  -2.0276   3.3736 H              1 S1                 0.0000
     30 ****        -2.0683  -0.4067   4.0188 H              1 S1                 0.0000
     31 ****        -3.9698  -1.6250   2.4791 H              1 S1                 0.0000
     32 ****        -3.6395   0.0959   2.2596 H              1 S1                 0.0000
     33 ****         3.4261   3.4036  -2.9433 LP             1 S1                 0.0000
     34 ****        -3.0536  -2.0043   0.5545 LP             1 S1                 0.0000
     35 ****        -3.0853  -0.3942   0.2839 LP             1 S1                 0.0000
@<TRIPOS>BOND
    1    1    2 1     
    2    1   16 1     
    3    1   17 1     
    4    1   18 1     
    5    2    3 1     
    6    2   11 1     
    7    2   19 1     
    8    3    4 1     
    9    3   20 1     
   10    4    9 ar    
   11    4    5 ar    
   12    5    6 ar    
   13    5   21 1     
   14    6    7 ar    
   15    6   22 1     
   16    7    8 ar    
   17    8    9 ar    
   18    8   23 1     
   19    9   10 1     
   20   10   24 1     
   21   10   25 1     
   22   11   15 1     
   23   11   12 1     
   24   11   26 1     
   25   12   13 1     
   26   12   27 1     
   27   12   28 1     
   28   13   14 1     
   29   13   29 1     
   30   13   30 1     
   31   14   15 1     
   32   14   31 1     
   33   14   32 1     
   34    7   33 1     
   35   15   34 1     
   36   15   35 1     
@<TRIPOS>SUBSTRUCTURE
      1 S1             1
@<TRIPOS>SET
LONE_PAIRS      STATIC     ATOMS    <user>   **** ""
3 33 34 35
DONOR_HYDROGENS      STATIC     ATOMS    <user>   **** ""
3 20 24 25
ATOM$BLUE        STATIC     ATOMS    COLORGROUP SYSTEM
3 33 34 35
ATOM$RED        STATIC     ATOMS    COLORGROUP SYSTEM
3 20 24 25
