AV-unprocessed.smi:3101|AV-procd|sdf|11811|dock6
  -GOLD-   2272017183D 1   1.00000     0.00000
 Structure written by MMmdl.
 28 29  0  0  0  0  0  0  0  0  1 V2000
  153.7075  141.9756  160.4281 C   0  0  0  0  0  0  0  0  0  0  0  0
  152.3315  142.3617  159.8627 C   0  0  1  0  0  0  0  0  0  0  0  0
  151.9739  143.8181  160.0800 C   0  0  0  0  0  0  0  0  0  0  0  0
  150.8632  144.0297  159.0571 C   0  0  0  0  0  0  0  0  0  0  0  0
  151.1539  143.1477  157.9770 O   0  0  0  0  0  0  0  0  0  0  0  0
  152.2073  142.2517  158.3343 C   0  0  2  0  0  0  0  0  0  0  0  0
  151.9015  140.8453  157.7959 C   0  0  0  0  0  0  0  0  0  0  0  0
  151.7918  139.8966  158.5730 O   0  0  0  0  0  0  0  0  0  0  0  0
  151.7864  140.7455  156.4582 N   0  0  0  0  0  0  0  0  0  0  0  0
  151.5085  139.5891  155.6835 C   0  0  0  0  0  0  0  0  0  0  0  0
  152.1324  138.3952  156.1163 C   0  0  0  0  0  0  0  0  0  0  0  0
  151.9654  137.2134  155.4821 N   0  0  0  0  0  0  0  0  0  0  0  0
  151.1624  137.2188  154.3968 C   0  0  0  0  0  0  0  0  0  0  0  0
  150.5321  138.3978  153.9515 C   0  0  0  0  0  0  0  0  0  0  0  0
  150.7034  139.5757  154.5902 N   0  0  0  0  0  0  0  0  0  0  0  0
  154.5035  142.5688  159.9772 H   0  0  0  0  0  0  0  0  0  0  0  0
  153.9325  140.9249  160.2452 H   0  0  0  0  0  0  0  0  0  0  0  0
  153.7430  142.1362  161.5057 H   0  0  0  0  0  0  0  0  0  0  0  0
  151.5659  141.7453  160.3379 H   0  0  0  0  0  0  0  0  0  0  0  0
  151.6577  144.0350  161.1007 H   0  0  0  0  0  0  0  0  0  0  0  0
  152.8245  144.4590  159.8429 H   0  0  0  0  0  0  0  0  0  0  0  0
  149.8980  143.7494  159.4804 H   0  0  0  0  0  0  0  0  0  0  0  0
  150.7980  145.0648  158.7212 H   0  0  0  0  0  0  0  0  0  0  0  0
  153.1213  142.6161  157.8629 H   0  0  0  0  0  0  0  0  0  0  0  0
  151.9002  141.6036  155.9381 H   0  0  0  0  0  0  0  0  0  0  0  0
  152.7762  138.3859  156.9840 H   0  0  0  0  0  0  0  0  0  0  0  0
  151.0216  136.2800  153.8818 H   0  0  0  0  0  0  0  0  0  0  0  0
  149.8905  138.3962  153.0829 H   0  0  0  0  0  0  0  0  0  0  0  0
  1  2  1  0  0  0  0
  1 16  1  0  0  0  0
  1 17  1  0  0  0  0
  1 18  1  0  0  0  0
  2  6  1  0  0  0  0
  2  3  1  0  0  0  0
  2 19  1  0  0  0  0
  3  4  1  0  0  0  0
  3 20  1  0  0  0  0
  3 21  1  0  0  0  0
  4  5  1  0  0  0  0
  4 22  1  0  0  0  0
  4 23  1  0  0  0  0
  5  6  1  0  0  0  0
  6  7  1  0  0  0  0
  6 24  1  0  0  0  0
  7  8  2  0  0  0  0
  7  9  1  0  0  0  0
  9 10  1  0  0  0  0
  9 25  1  0  0  0  0
 10 15  1  0  0  0  0
 10 11  2  0  0  0  0
 11 12  1  0  0  0  0
 11 26  1  0  0  0  0
 12 13  2  0  0  0  0
 13 14  1  0  0  0  0
 13 27  1  0  0  0  0
 14 15  2  0  0  0  0
 14 28  1  0  0  0  0
M  END
> <s_m_source_file>
AV-unprocessed.smi

> <i_m_source_file_index>
3101

> <i_lp_mmshare_version>
43012

> <i_f3d_flags>
0

> <s_epik_input>
W0NIM11bQ0BASF0xW0NIMl1bQ0gyXU9bQ0BIXTFDKD1PKVtOSF1jMltjSF1uW2NIXVtjSF1uMg==

> <s_epik_cmdline>
J2VwaWtfcHl0aG9uJywgJy1waCcsICc3LjAnLCAnLXRuJywgJzgnLCAnLW1hJywgJzIwMCcsICctbWV0YWxfYmluZGluZycsICctaW1hZScsICc8aW5maWxlLm1hZT4nLCAnLW9tYWUnLCAnPG91dGZpbGUubWFlPic=

> <r_lp_tautomer_probability>
1

> <r_epik_Ionization_Penalty>
2.83174e-06

> <r_epik_Ionization_Penalty_Charging>
0

> <r_epik_Ionization_Penalty_Neutral>
2.83174e-06

> <r_epik_State_Penalty>
-0

> <r_epik_Charging_Adjusted_Penalty>
0

> <i_epik_Tot_Q>
0

> <i_epik_Tot_abs_Q>
0

> <r_epik_Metal_State_Penalty>
-0

> <b_epik_Metal_Only>
0

> <s_lp_Force_Field>
OPLS_2005

> <r_lp_Energy>
26.5221

> <b_lp_Chiralities_Consistent>
1

> <s_lp_Variant>
AV-unprocessed.smi:3101-4

> <Gold.Version>
5.8.1

> <Gold.Id.Protein>
6NUR|6NUR_protein|mol2

> <Gold.PLP.Fitness>
40.3033

> <Gold.PLP.PLP>
-28.1077

> <Gold.PLP.part.hbond>
-2.0000

> <Gold.PLP.part.metal>
0.0000

> <Gold.PLP.part.buried>
-3.2726

> <Gold.PLP.part.nonpolar>
-23.7848

> <Gold.PLP.part.repulsive>
0.4050

> <Gold.PLP.ligand.clash>
0.0000

> <Gold.PLP.ligand.torsion>
0.3011

> <Gold.PLP.Chemscore.Hbond>
1.6221

> <Gold.PLP.Chemscore.CHOScore>
2.6432

> <Gold.PLP.Chemscore.Metal>
0.0000

> <Gold.Chemscore.Hbonds>
donor molecule, donor type, donor heavy atom, donor atom, acceptor molecule, acceptor atom, score
      P1  H  7989  7998       L1    15  1.00
      P1  H 10752 10765       L1    12  0.62
      L1  C    13    27       P1  7948  0.01
      L1  C    13    27       P1  7949  0.91
      L1  C    14    28       P1  7948  0.73
      L1  C    14    28       P1  7957  1.00

> <Gold.PLP.Chemscore.Internal.Correction>
0.0020

> <Gold.Rescore>
     Score         DG    S(hbond)    S(metal)    S(lipo)     H(rot)  DE(clash)    DE(int)     intcor
     12.76     -14.38       0.82        0.00      74.47       1.00       0.06       1.56       ----

> <Gold.Chemscore.Fitness>
12.7560

> <Gold.Chemscore.DG>
-14.3764

> <Gold.Chemscore.ZeroCoef>
-5.4800

> <Gold.Chemscore.Hbond>
0.8214

> <Gold.Chemscore.Metal>
0.0000

> <Gold.Chemscore.Lipo>
74.4703

> <Gold.Chemscore.Internal_Hbond>
0.0000

> <Gold.Chemscore.DEClash>
0.0561

> <Gold.Chemscore.DEInternal>
1.5643

> <Gold.Chemscore.Rot>
1.0000

> <Gold.Chemscore.Internal.Correction>
   9.000000E+99

> <Gold.Chemscore.Hbonds>
donor molecule, donor type, donor heavy atom, donor atom, acceptor molecule, acceptor atom, score
      P1  H  7989  7998       L1    15  0.21
      P1  H 10752 10765       L1    12  0.07

> <Gold.Chemscore.Hbond.Weighted>
-2.7433

> <Gold.Chemscore.Metal.Weighted>
-0.0000

> <Gold.Chemscore.Lipo.Weighted>
-8.7130

> <Gold.Chemscore.Internal_Hbond.Weighted>
0.0000

> <Gold.Chemscore.DEClash.Weighted>
0.0561

> <Gold.Chemscore.DEInternal.Weighted>
1.5643

> <Gold.Chemscore.Rot.Weighted>
2.5600

> <Gold.Chemscore.Internal.Correction.Weighted>
   9.000000E+99

> <Gold.Protein.RotatedTorsions>
[ 6907 6896 6895 6894 ] final  -12.38 input  -60.11 | X-H torsion
[ 7974 7965 7964 7962 ] final  -96.44 input  175.53 | X-H torsion
[ 8008 7997 7996 7995 ] final -179.84 input   59.86 | X-H torsion
[ 10167 10162 10161 10158 ] final  129.63 input  -65.29 | X-H torsion
[ 10718 10713 10712 10709 ] final  -25.37 input   66.30 | X-H torsion
[ 10763 10752 10751 10750 ] final -161.95 input  -60.55 | X-H torsion
[ 11005 11000 10999 10996 ] final  -70.96 input  -57.11 | X-H torsion

> <Gold.Protein.ActiveResidues>
 VAL166  LYS551  ARG553  GLY616  TRP617  ASP618  TYR619  PRO620  LYS621  CYS622 
 ASP623  PHE694  ASN695  SER759  ASP760  ASP761  ALA762  ILE779  LEU786  VAL792 
 PHE793  MET794  SER795  GLU796  ALA797  LYS798  CYS799  TRP800  GLU811  SER814 

> <Gold.Protein.RotatedAtoms>
  151.3715  135.0923  159.9466 H   0  0  0  0  0  0  0  0  0  0  0  0  # atno 6907 bound_to 6896
  152.5134  133.9160  159.7521 H   0  0  0  0  0  0  0  0  0  0  0  0  # atno 6908 bound_to 6896
  150.9575  133.6427  159.2789 H   0  0  0  0  0  0  0  0  0  0  0  0  # atno 6909 bound_to 6896
  145.3469  140.9470  143.2576 H   0  0  0  0  0  0  0  0  0  0  0  0  # atno 7974 bound_to 7965
  156.0352  140.1291  157.0216 H   0  0  0  0  0  0  0  0  0  0  0  0  # atno 8008 bound_to 7997
  154.4367  140.1041  156.6227 H   0  0  0  0  0  0  0  0  0  0  0  0  # atno 8009 bound_to 7997
  155.5749  140.3467  155.4527 H   0  0  0  0  0  0  0  0  0  0  0  0  # atno 8010 bound_to 7997
  139.5468  144.6780  151.4447 H   0  0  0  0  0  0  0  0  0  0  0  0  # atno 10167 bound_to 10162
  156.4653  130.4512  149.6903 H   0  0  0  0  0  0  0  0  0  0  0  0  # atno 10718 bound_to 10713
  154.7258  135.3035  154.8973 H   0  0  0  0  0  0  0  0  0  0  0  0  # atno 10763 bound_to 10752
  153.9831  135.6728  153.4755 H   0  0  0  0  0  0  0  0  0  0  0  0  # atno 10764 bound_to 10752
  153.0873  135.4977  154.8542 H   0  0  0  0  0  0  0  0  0  0  0  0  # atno 10765 bound_to 10752
  141.1584  133.6804  156.6832 H   0  0  0  0  0  0  0  0  0  0  0  0  # atno 11005 bound_to 11000
  144.8747  139.4988  143.6751 LP  0  0  0  0  0  0  0  0  0  0  0  0  # atno 17320 bound_to 7965
  146.2984  139.7350  142.9109 LP  0  0  0  0  0  0  0  0  0  0  0  0  # atno 17321 bound_to 7965
  140.6719  143.8275  150.7010 LP  0  0  0  0  0  0  0  0  0  0  0  0  # atno 17342 bound_to 10162
  140.1701  143.4201  152.2006 LP  0  0  0  0  0  0  0  0  0  0  0  0  # atno 17343 bound_to 10162
  156.3674  130.7513  151.2492 LP  0  0  0  0  0  0  0  0  0  0  0  0  # atno 17370 bound_to 10713
  157.7495  131.0333  150.4264 LP  0  0  0  0  0  0  0  0  0  0  0  0  # atno 17371 bound_to 10713
  140.3086  134.8104  157.4158 LP  0  0  0  0  0  0  0  0  0  0  0  0  # atno 17394 bound_to 11000
  140.1198  134.5234  155.8193 LP  0  0  0  0  0  0  0  0  0  0  0  0  # atno 17395 bound_to 11000

$$$$
