AV-unprocessed.smi:3277|AV-procd|sdf|12538|dock7
  -GOLD-   2272018453D 1   1.00000     0.00000
 Structure written by MMmdl.
 35 37  0  0  0  0  0  0  0  0  1 V2000
  151.4062  138.1629  155.1084 C   0  0  0  0  0  0  0  0  0  0  0  0
  151.5794  138.0670  156.5493 N   0  0  0  0  0  0  0  0  0  0  0  0
  152.0934  139.0418  157.3136 C   0  0  0  0  0  0  0  0  0  0  0  0
  152.4636  140.1272  156.8665 O   0  0  0  0  0  0  0  0  0  0  0  0
  152.2065  138.7520  158.8113 C   0  0  0  0  0  0  0  0  0  0  0  0
  152.9047  139.9078  159.4522 C   0  0  0  0  0  0  0  0  0  0  0  0
  152.4527  141.1632  159.4011 N   0  0  0  0  0  0  0  0  0  0  0  0
  153.2843  142.0734  160.0644 C   0  0  0  0  0  0  0  0  0  0  0  0
  152.9690  143.5487  160.1022 C   0  0  2  0  0  0  0  0  0  0  0  0
  151.7247  143.9363  160.9315 C   0  0  0  0  0  0  0  0  0  0  0  0
  150.9611  144.8668  159.9685 C   0  0  2  0  0  0  0  0  0  0  0  0
  150.3242  144.0262  158.8442 C   0  0  0  0  0  0  0  0  0  0  0  0
  151.5347  143.6569  157.9661 C   0  0  0  0  0  0  0  0  0  0  0  0
  152.7188  144.2606  158.7489 C   0  0  1  0  0  0  0  0  0  0  0  0
  152.0957  145.5691  159.2291 C   0  0  0  0  0  0  0  0  0  0  0  0
  154.3790  141.4718  160.6349 C   0  0  0  0  0  0  0  0  0  0  0  0
  154.4055  139.7523  160.3565 S   0  0  0  0  0  0  0  0  0  0  0  0
  150.9970  137.2302  154.7202 H   0  0  0  0  0  0  0  0  0  0  0  0
  152.3606  138.3487  154.6137 H   0  0  0  0  0  0  0  0  0  0  0  0
  150.7183  138.9702  154.8533 H   0  0  0  0  0  0  0  0  0  0  0  0
  151.2988  137.2046  156.9928 H   0  0  0  0  0  0  0  0  0  0  0  0
  151.2162  138.6264  159.2509 H   0  0  0  0  0  0  0  0  0  0  0  0
  152.7685  137.8342  158.9883 H   0  0  0  0  0  0  0  0  0  0  0  0
  153.8214  144.0522  160.5622 H   0  0  0  0  0  0  0  0  0  0  0  0
  151.1136  143.0831  161.2276 H   0  0  0  0  0  0  0  0  0  0  0  0
  152.0179  144.4602  161.8420 H   0  0  0  0  0  0  0  0  0  0  0  0
  150.2557  145.5296  160.4704 H   0  0  0  0  0  0  0  0  0  0  0  0
  149.8076  143.1462  159.2294 H   0  0  0  0  0  0  0  0  0  0  0  0
  149.6035  144.6142  158.2746 H   0  0  0  0  0  0  0  0  0  0  0  0
  151.6233  142.5883  157.7799 H   0  0  0  0  0  0  0  0  0  0  0  0
  151.4480  144.1380  156.9909 H   0  0  0  0  0  0  0  0  0  0  0  0
  153.6199  144.3774  158.1463 H   0  0  0  0  0  0  0  0  0  0  0  0
  151.7506  146.2111  158.4165 H   0  0  0  0  0  0  0  0  0  0  0  0
  152.7474  146.1475  159.8864 H   0  0  0  0  0  0  0  0  0  0  0  0
  155.1736  141.9375  161.1990 H   0  0  0  0  0  0  0  0  0  0  0  0
  1  2  1  0  0  0  0
  1 18  1  0  0  0  0
  1 19  1  0  0  0  0
  1 20  1  0  0  0  0
  2  3  1  0  0  0  0
  2 21  1  0  0  0  0
  3  4  2  0  0  0  0
  3  5  1  0  0  0  0
  5  6  1  0  0  0  0
  5 22  1  0  0  0  0
  5 23  1  0  0  0  0
  6 17  1  0  0  0  0
  6  7  2  0  0  0  0
  7  8  1  0  0  0  0
  8  9  1  0  0  0  0
  8 16  2  0  0  0  0
  9 14  1  0  0  0  0
  9 10  1  0  0  0  0
  9 24  1  0  0  0  0
 10 11  1  0  0  0  0
 10 25  1  0  0  0  0
 10 26  1  0  0  0  0
 11 15  1  0  0  0  0
 11 12  1  0  0  0  0
 11 27  1  0  0  0  0
 12 13  1  0  0  0  0
 12 28  1  0  0  0  0
 12 29  1  0  0  0  0
 13 14  1  0  0  0  0
 13 30  1  0  0  0  0
 13 31  1  0  0  0  0
 14 15  1  0  0  0  0
 14 32  1  0  0  0  0
 15 33  1  0  0  0  0
 15 34  1  0  0  0  0
 16 17  1  0  0  0  0
 16 35  1  0  0  0  0
M  END
> <s_m_source_file>
AV-unprocessed.smi

> <i_m_source_file_index>
3277

> <i_lp_mmshare_version>
43012

> <i_f3d_flags>
0

> <s_epik_input>
W0NIM11bTkhdQyg9TylbQ0gyXWMxbmMoW2NIXXMxKVtDQEhdKFtDSDJdW0NAQEhdMjMpW0NAQEhdKFtDSDJdMylbQ0gyXVtDSDJdMg==

> <s_epik_cmdline>
J2VwaWtfcHl0aG9uJywgJy1waCcsICc3LjAnLCAnLXRuJywgJzgnLCAnLW1hJywgJzIwMCcsICctbWV0YWxfYmluZGluZycsICctaW1hZScsICc8aW5maWxlLm1hZT4nLCAnLW9tYWUnLCAnPG91dGZpbGUubWFlPic=

> <r_lp_tautomer_probability>
1

> <r_epik_Ionization_Penalty>
8.50008e-05

> <r_epik_Ionization_Penalty_Charging>
0

> <r_epik_Ionization_Penalty_Neutral>
8.50008e-05

> <r_epik_State_Penalty>
-0

> <r_epik_Charging_Adjusted_Penalty>
0

> <i_epik_Tot_Q>
0

> <i_epik_Tot_abs_Q>
0

> <r_epik_Metal_State_Penalty>
-0

> <b_epik_Metal_Only>
0

> <s_lp_Force_Field>
OPLS_2005

> <r_lp_Energy>
46.0194

> <b_lp_Chiralities_Consistent>
1

> <s_lp_Variant>
AV-unprocessed.smi:3277-3

> <Gold.Version>
5.8.1

> <Gold.Id.Protein>
6NUR|6NUR_protein|mol2

> <Gold.PLP.Fitness>
44.1996

> <Gold.PLP.PLP>
-41.4438

> <Gold.PLP.part.hbond>
-1.0000

> <Gold.PLP.part.metal>
0.0000

> <Gold.PLP.part.buried>
-4.1761

> <Gold.PLP.part.nonpolar>
-35.0662

> <Gold.PLP.part.repulsive>
0.0650

> <Gold.PLP.ligand.clash>
0.0000

> <Gold.PLP.ligand.torsion>
0.1244

> <Gold.PLP.Chemscore.Hbond>
1.0000

> <Gold.PLP.Chemscore.CHOScore>
0.0000

> <Gold.PLP.Chemscore.Metal>
0.0000

> <Gold.Chemscore.Hbonds>
donor molecule, donor type, donor heavy atom, donor atom, acceptor molecule, acceptor atom, score
      P1  H  7997  8008       L1     4  1.00

> <Gold.PLP.Chemscore.Internal.Correction>
0.0047

> <Gold.Rescore>
     Score         DG    S(hbond)    S(metal)    S(lipo)     H(rot)  DE(clash)    DE(int)     intcor
     18.93     -20.48       0.98        0.00     130.96       1.41       0.08       1.46       ----

> <Gold.Chemscore.Fitness>
18.9332

> <Gold.Chemscore.DG>
-20.4761

> <Gold.Chemscore.ZeroCoef>
-5.4800

> <Gold.Chemscore.Hbond>
0.9847

> <Gold.Chemscore.Metal>
0.0000

> <Gold.Chemscore.Lipo>
130.9604

> <Gold.Chemscore.Internal_Hbond>
0.0000

> <Gold.Chemscore.DEClash>
0.0835

> <Gold.Chemscore.DEInternal>
1.4594

> <Gold.Chemscore.Rot>
1.4122

> <Gold.Chemscore.Internal.Correction>
   9.000000E+99

> <Gold.Chemscore.Hbonds>
donor molecule, donor type, donor heavy atom, donor atom, acceptor molecule, acceptor atom, score
      P1  H  7997  8008       L1     4  0.73

> <Gold.Chemscore.Hbond.Weighted>
-3.2888

> <Gold.Chemscore.Metal.Weighted>
-0.0000

> <Gold.Chemscore.Lipo.Weighted>
-15.3224

> <Gold.Chemscore.Internal_Hbond.Weighted>
0.0000

> <Gold.Chemscore.DEClash.Weighted>
0.0835

> <Gold.Chemscore.DEInternal.Weighted>
1.4594

> <Gold.Chemscore.Rot.Weighted>
3.6151

> <Gold.Chemscore.Internal.Correction.Weighted>
   9.000000E+99

> <Gold.Protein.RotatedTorsions>
[ 6907 6896 6895 6894 ] final  -73.16 input  -60.11 | X-H torsion
[ 7974 7965 7964 7962 ] final -162.44 input  175.53 | X-H torsion
[ 8008 7997 7996 7995 ] final  -55.79 input   59.86 | X-H torsion
[ 10167 10162 10161 10158 ] final -147.02 input  -65.29 | X-H torsion
[ 10718 10713 10712 10709 ] final   98.81 input   66.30 | X-H torsion
[ 10763 10752 10751 10750 ] final  -29.75 input  -60.55 | X-H torsion
[ 11005 11000 10999 10996 ] final  -52.56 input  -57.11 | X-H torsion

> <Gold.Protein.ActiveResidues>
 VAL166  LYS551  ARG553  GLY616  TRP617  ASP618  TYR619  PRO620  LYS621  CYS622 
 ASP623  PHE694  ASN695  SER759  ASP760  ASP761  ALA762  ILE779  LEU786  VAL792 
 PHE793  MET794  SER795  GLU796  ALA797  LYS798  CYS799  TRP800  GLU811  SER814 

> <Gold.Protein.RotatedAtoms>
  150.7141  134.5058  159.5582 H   0  0  0  0  0  0  0  0  0  0  0  0  # atno 6907 bound_to 6896
  152.2645  134.7996  160.0434 H   0  0  0  0  0  0  0  0  0  0  0  0  # atno 6908 bound_to 6896
  151.8698  133.3438  159.3768 H   0  0  0  0  0  0  0  0  0  0  0  0  # atno 6909 bound_to 6896
  144.7357  140.3252  143.6163 H   0  0  0  0  0  0  0  0  0  0  0  0  # atno 7974 bound_to 7965
  154.4207  140.1145  156.5533 H   0  0  0  0  0  0  0  0  0  0  0  0  # atno 8008 bound_to 7997
  155.6387  140.3496  155.4688 H   0  0  0  0  0  0  0  0  0  0  0  0  # atno 8009 bound_to 7997
  155.9888  140.1175  157.0647 H   0  0  0  0  0  0  0  0  0  0  0  0  # atno 8010 bound_to 7997
  139.7660  143.8307  152.2616 H   0  0  0  0  0  0  0  0  0  0  0  0  # atno 10167 bound_to 10162
  157.6888  131.0651  150.4853 H   0  0  0  0  0  0  0  0  0  0  0  0  # atno 10718 bound_to 10713
  153.7698  135.6913  153.4909 H   0  0  0  0  0  0  0  0  0  0  0  0  # atno 10763 bound_to 10752
  153.1882  135.4481  155.0114 H   0  0  0  0  0  0  0  0  0  0  0  0  # atno 10764 bound_to 10752
  154.8122  135.3382  154.7208 H   0  0  0  0  0  0  0  0  0  0  0  0  # atno 10765 bound_to 10752
  141.0931  133.6629  156.4042 H   0  0  0  0  0  0  0  0  0  0  0  0  # atno 11005 bound_to 11000
  145.7528  139.1799  143.2312 LP  0  0  0  0  0  0  0  0  0  0  0  0  # atno 17320 bound_to 7965
  146.1048  140.7500  142.9532 LP  0  0  0  0  0  0  0  0  0  0  0  0  # atno 17321 bound_to 7965
  139.8328  144.7246  150.9429 LP  0  0  0  0  0  0  0  0  0  0  0  0  # atno 17342 bound_to 10162
  140.7811  143.4055  151.1079 LP  0  0  0  0  0  0  0  0  0  0  0  0  # atno 17343 bound_to 10162
  156.5183  130.4156  149.6264 LP  0  0  0  0  0  0  0  0  0  0  0  0  # atno 17370 bound_to 10713
  156.3178  130.7264  151.2169 LP  0  0  0  0  0  0  0  0  0  0  0  0  # atno 17371 bound_to 10713
  140.5206  134.6308  157.5316 LP  0  0  0  0  0  0  0  0  0  0  0  0  # atno 17394 bound_to 11000
  139.9761  134.7214  155.9948 LP  0  0  0  0  0  0  0  0  0  0  0  0  # atno 17395 bound_to 11000

$$$$
