AV-unprocessed.smi:1802|AV-procd|sdf|7272|dock9
  -GOLD-   22720 8533D 1   1.00000     0.00000
 Structure written by MMmdl.
 41 42  0  0  0  0  0  0  0  0  2 V2000
  144.0352  132.8368  148.3991 C   0  0  0  0  0  0  0  0  0  0  0  0
  143.9792  132.6697  149.9278 C   0  0  1  0  0  0  0  0  0  0  0  0
  145.1531  131.8414  150.4829 C   0  0  0  0  0  0  0  0  0  0  0  0
  146.4591  132.6491  150.4742 C   0  0  0  0  0  0  0  0  0  0  0  0
  146.2815  133.9957  151.1933 C   0  0  0  0  0  0  0  0  0  0  0  0
  145.1656  134.7756  150.5987 N   0  3  2  0  0  0  0  0  0  0  0  0
  145.0669  136.1454  151.1621 C   0  0  0  0  0  0  0  0  0  0  0  0
  146.4450  136.7196  151.5313 C   0  0  0  0  0  0  0  0  0  0  0  0
  146.3376  137.9843  152.3997 C   0  0  0  0  0  0  0  0  0  0  0  0
  147.6495  138.5528  152.6883 N   0  0  0  0  0  0  0  0  0  0  0  0
  148.4183  138.2104  153.7328 C   0  0  0  0  0  0  0  0  0  0  0  0
  148.0913  137.3607  154.5623 O   0  0  0  0  0  0  0  0  0  0  0  0
  149.5695  138.9054  153.7425 N   0  0  0  0  0  0  0  0  0  0  0  0
  150.6368  138.8249  154.6762 C   0  0  0  0  0  0  0  0  0  0  0  0
  151.5360  139.8037  154.8645 N   0  0  0  0  0  0  0  0  0  0  0  0
  152.4715  139.4703  155.8354 N   0  0  0  0  0  0  0  0  0  0  0  0
  152.2414  138.2551  156.3406 C   0  0  0  0  0  0  0  0  0  0  0  0
  150.8611  137.3975  155.6775 S   0  0  0  0  0  0  0  0  0  0  0  0
  143.8817  134.0255  150.6566 C   0  0  0  0  0  0  0  0  0  0  0  0
  144.9112  133.4025  148.0820 H   0  0  0  0  0  0  0  0  0  0  0  0
  143.1541  133.3639  148.0322 H   0  0  0  0  0  0  0  0  0  0  0  0
  144.0677  131.8682  147.8996 H   0  0  0  0  0  0  0  0  0  0  0  0
  143.0634  132.1169  150.1420 H   0  0  0  0  0  0  0  0  0  0  0  0
  144.9280  131.5422  151.5074 H   0  0  0  0  0  0  0  0  0  0  0  0
  145.2739  130.9180  149.9154 H   0  0  0  0  0  0  0  0  0  0  0  0
  147.2526  132.0744  150.9534 H   0  0  0  0  0  0  0  0  0  0  0  0
  146.7849  132.8200  149.4475 H   0  0  0  0  0  0  0  0  0  0  0  0
  146.0917  133.8364  152.2561 H   0  0  0  0  0  0  0  0  0  0  0  0
  147.2108  134.5619  151.1176 H   0  0  0  0  0  0  0  0  0  0  0  0
  144.5425  136.8014  150.4655 H   0  0  0  0  0  0  0  0  0  0  0  0
  144.4637  136.1172  152.0707 H   0  0  0  0  0  0  0  0  0  0  0  0
  147.0140  135.9568  152.0642 H   0  0  0  0  0  0  0  0  0  0  0  0
  147.0137  136.9558  150.6321 H   0  0  0  0  0  0  0  0  0  0  0  0
  145.7452  138.7404  151.8836 H   0  0  0  0  0  0  0  0  0  0  0  0
  145.8156  137.7659  153.3330 H   0  0  0  0  0  0  0  0  0  0  0  0
  147.9910  139.2609  152.0547 H   0  0  0  0  0  0  0  0  0  0  0  0
  149.7010  139.5676  152.9923 H   0  0  0  0  0  0  0  0  0  0  0  0
  152.8898  137.8607  157.1086 H   0  0  0  0  0  0  0  0  0  0  0  0
  143.0740  134.6123  150.2197 H   0  0  0  0  0  0  0  0  0  0  0  0
  143.6132  133.8629  151.7017 H   0  0  0  0  0  0  0  0  0  0  0  0
  145.3964  134.8884  149.6216 H   0  0  0  0  0  0  0  0  0  0  0  0
  1  2  1  0  0  0  0
  1 20  1  0  0  0  0
  1 21  1  0  0  0  0
  1 22  1  0  0  0  0
  2 19  1  0  0  0  0
  2  3  1  0  0  0  0
  2 23  1  0  0  0  0
  3  4  1  0  0  0  0
  3 24  1  0  0  0  0
  3 25  1  0  0  0  0
  4  5  1  0  0  0  0
  4 26  1  0  0  0  0
  4 27  1  0  0  0  0
  5  6  1  0  0  0  0
  5 28  1  0  0  0  0
  5 29  1  0  0  0  0
  6  7  1  0  0  0  0
  6 19  1  0  0  0  0
  6 41  1  0  0  0  0
  7  8  1  0  0  0  0
  7 30  1  0  0  0  0
  7 31  1  0  0  0  0
  8  9  1  0  0  0  0
  8 32  1  0  0  0  0
  8 33  1  0  0  0  0
  9 10  1  0  0  0  0
  9 34  1  0  0  0  0
  9 35  1  0  0  0  0
 10 11  1  0  0  0  0
 10 36  1  0  0  0  0
 11 12  2  0  0  0  0
 11 13  1  0  0  0  0
 13 14  1  0  0  0  0
 13 37  1  0  0  0  0
 14 18  1  0  0  0  0
 14 15  2  0  0  0  0
 15 16  1  0  0  0  0
 16 17  2  0  0  0  0
 17 18  1  0  0  0  0
 17 38  1  0  0  0  0
 19 39  1  0  0  0  0
 19 40  1  0  0  0  0
M  CHG  1   6   1
M  END
> <s_m_source_file>
AV-unprocessed.smi

> <i_m_source_file_index>
1802

> <i_lp_mmshare_version>
43012

> <i_f3d_flags>
0

> <s_epik_input>
W0NIM11bQ0BASF0xW0NIMl1bQ0gyXVtDSDJdTihbQ0gyXTEpW0NIMl1bQ0gyXVtDSDJdW05IXUMoPU8pW05IXWMybm5bY0hdczI=

> <s_epik_cmdline>
J2VwaWtfcHl0aG9uJywgJy1waCcsICc3LjAnLCAnLXRuJywgJzgnLCAnLW1hJywgJzIwMCcsICctbWV0YWxfYmluZGluZycsICctaW1hZScsICc8aW5maWxlLm1hZT4nLCAnLW9tYWUnLCAnPG91dGZpbGUubWFlPic=

> <r_lp_tautomer_probability>
1

> <r_epik_Ionization_Penalty>
0.00272894

> <r_epik_Ionization_Penalty_Charging>
0.000288442

> <r_epik_Ionization_Penalty_Neutral>
0.0024405

> <r_epik_State_Penalty>
-0

> <r_epik_Charging_Adjusted_Penalty>
0.000288442

> <i_epik_Tot_Q>
1

> <i_epik_Tot_abs_Q>
1

> <r_epik_Metal_State_Penalty>
0.350525

> <b_epik_Metal_Only>
0

> <s_lp_Force_Field>
OPLS_2005

> <r_lp_Energy>
17.5372

> <b_lp_Chiralities_Consistent>
1

> <s_lp_Variant>
AV-unprocessed.smi:1802-2

> <Gold.Version>
5.8.1

> <Gold.Id.Protein>
6NUR|6NUR_protein|mol2

> <Gold.PLP.Fitness>
43.4213

> <Gold.PLP.PLP>
-30.1746

> <Gold.PLP.part.hbond>
-5.9457

> <Gold.PLP.part.metal>
0.0000

> <Gold.PLP.part.buried>
6.8897

> <Gold.PLP.part.nonpolar>
-31.5386

> <Gold.PLP.part.repulsive>
1.2264

> <Gold.PLP.ligand.clash>
0.0123

> <Gold.PLP.ligand.torsion>
0.5738

> <Gold.PLP.Chemscore.Hbond>
4.7898

> <Gold.PLP.Chemscore.CHOScore>
0.0000

> <Gold.PLP.Chemscore.Metal>
0.0000

> <Gold.Chemscore.Hbonds>
donor molecule, donor type, donor heavy atom, donor atom, acceptor molecule, acceptor atom, score
      L1  H     6    41       P1  7921  0.78
      L1  H    10    36       P1  7957  0.93
      L1  H    13    37       P1  7957  1.00
      P1  H  7989  7998       L1    15  1.00
      P1  H  7997  8010       L1    16  1.00

> <Gold.PLP.Chemscore.Internal.Correction>
0.0375

> <Gold.Rescore>
     Score         DG    S(hbond)    S(metal)    S(lipo)     H(rot)  DE(clash)    DE(int)     intcor
     18.44     -22.09       3.70        0.00      79.69       1.98       1.94       1.71       ----

> <Gold.Chemscore.Fitness>
18.4352

> <Gold.Chemscore.DG>
-22.0854

> <Gold.Chemscore.ZeroCoef>
-5.4800

> <Gold.Chemscore.Hbond>
3.6972

> <Gold.Chemscore.Metal>
0.0000

> <Gold.Chemscore.Lipo>
79.6894

> <Gold.Chemscore.Internal_Hbond>
0.0000

> <Gold.Chemscore.DEClash>
1.9356

> <Gold.Chemscore.DEInternal>
1.7146

> <Gold.Chemscore.Rot>
1.9793

> <Gold.Chemscore.Internal.Correction>
   9.000000E+99

> <Gold.Chemscore.Hbonds>
donor molecule, donor type, donor heavy atom, donor atom, acceptor molecule, acceptor atom, score
      L1  H     6    41       P1  7921  0.76
      L1  H    10    36       P1  7957  0.88
      L1  H    13    37       P1  7957  0.95
      P1  H  7989  7998       L1    15  0.85
      P1  H  7997  8010       L1    16  0.77

> <Gold.Chemscore.Hbond.Weighted>
-12.3487

> <Gold.Chemscore.Metal.Weighted>
-0.0000

> <Gold.Chemscore.Lipo.Weighted>
-9.3237

> <Gold.Chemscore.Internal_Hbond.Weighted>
0.0000

> <Gold.Chemscore.DEClash.Weighted>
1.9356

> <Gold.Chemscore.DEInternal.Weighted>
1.7146

> <Gold.Chemscore.Rot.Weighted>
5.0670

> <Gold.Chemscore.Internal.Correction.Weighted>
   9.000000E+99

> <Gold.Protein.RotatedTorsions>
[ 6907 6896 6895 6894 ] final   14.33 input  -60.11 | X-H torsion
[ 7974 7965 7964 7962 ] final  134.26 input  175.53 | X-H torsion
[ 8008 7997 7996 7995 ] final   80.79 input   59.86 | X-H torsion
[ 10167 10162 10161 10158 ] final -151.35 input  -65.29 | X-H torsion
[ 10718 10713 10712 10709 ] final  153.40 input   66.30 | X-H torsion
[ 10763 10752 10751 10750 ] final -162.93 input  -60.55 | X-H torsion
[ 11005 11000 10999 10996 ] final   30.06 input  -57.11 | X-H torsion

> <Gold.Protein.ActiveResidues>
 VAL166  LYS551  ARG553  GLY616  TRP617  ASP618  TYR619  PRO620  LYS621  CYS622 
 ASP623  PHE694  ASN695  SER759  ASP760  ASP761  ALA762  ILE779  LEU786  VAL792 
 PHE793  MET794  SER795  GLU796  ALA797  LYS798  CYS799  TRP800  GLU811  SER814 

> <Gold.Protein.RotatedAtoms>
  151.8004  135.0710  160.0399 H   0  0  0  0  0  0  0  0  0  0  0  0  # atno 6907 bound_to 6896
  152.3093  133.5731  159.5678 H   0  0  0  0  0  0  0  0  0  0  0  0  # atno 6908 bound_to 6896
  150.7312  134.0093  159.3706 H   0  0  0  0  0  0  0  0  0  0  0  0  # atno 6909 bound_to 6896
  144.9782  139.4533  143.5399 H   0  0  0  0  0  0  0  0  0  0  0  0  # atno 7974 bound_to 7965
  155.8883  140.3440  155.5937 H   0  0  0  0  0  0  0  0  0  0  0  0  # atno 8008 bound_to 7997
  155.7640  140.0836  157.2160 H   0  0  0  0  0  0  0  0  0  0  0  0  # atno 8009 bound_to 7997
  154.4031  140.1530  156.2853 H   0  0  0  0  0  0  0  0  0  0  0  0  # atno 8010 bound_to 7997
  139.7275  143.8860  152.2524 H   0  0  0  0  0  0  0  0  0  0  0  0  # atno 10167 bound_to 10162
  157.2452  131.0767  151.1766 H   0  0  0  0  0  0  0  0  0  0  0  0  # atno 10718 bound_to 10713
  154.7169  135.3017  154.9110 H   0  0  0  0  0  0  0  0  0  0  0  0  # atno 10763 bound_to 10752
  153.9994  135.6709  153.4762 H   0  0  0  0  0  0  0  0  0  0  0  0  # atno 10764 bound_to 10752
  153.0801  135.5014  154.8400 H   0  0  0  0  0  0  0  0  0  0  0  0  # atno 10765 bound_to 10752
  140.2984  134.2784  155.7759 H   0  0  0  0  0  0  0  0  0  0  0  0  # atno 11005 bound_to 11000
  146.3401  139.9037  142.8790 LP  0  0  0  0  0  0  0  0  0  0  0  0  # atno 17320 bound_to 7965
  145.2460  141.0026  143.3908 LP  0  0  0  0  0  0  0  0  0  0  0  0  # atno 17321 bound_to 7965
  139.8774  144.7036  150.8917 LP  0  0  0  0  0  0  0  0  0  0  0  0  # atno 17342 bound_to 10162
  140.7765  143.3689  151.1687 LP  0  0  0  0  0  0  0  0  0  0  0  0  # atno 17343 bound_to 10162
  157.3336  130.6997  149.6339 LP  0  0  0  0  0  0  0  0  0  0  0  0  # atno 17370 bound_to 10713
  155.9668  130.4300  150.4858 LP  0  0  0  0  0  0  0  0  0  0  0  0  # atno 17371 bound_to 10713
  141.2133  133.7630  156.9730 LP  0  0  0  0  0  0  0  0  0  0  0  0  # atno 17394 bound_to 11000
  140.1131  134.9464  157.2095 LP  0  0  0  0  0  0  0  0  0  0  0  0  # atno 17395 bound_to 11000

$$$$
