AV-unprocessed.smi:578|AV-procd|sdf|2984|dock3
  -GOLD-   2262023493D 1   1.00000     0.00000
 Structure written by MMmdl.
 32 33  0  0  0  0  0  0  0  0  2 V2000
  153.4014  142.0034  161.1212 C   0  0  0  0  0  0  0  0  0  0  0  0
  152.3800  142.5524  160.1201 C   0  0  2  0  0  0  0  0  0  0  0  0
  152.2645  141.6625  158.8697 C   0  0  0  0  0  0  0  0  0  0  0  0
  151.3616  142.2747  157.9060 N   0  0  0  0  0  0  0  0  0  0  0  0
  151.0824  141.4536  156.8047 C   0  0  0  0  0  0  0  0  0  0  0  0
  149.9510  141.7227  156.0108 C   0  0  0  0  0  0  0  0  0  0  0  0
  149.6877  140.8838  154.9117 C   0  0  0  0  0  0  0  0  0  0  0  0
  150.4654  139.8335  154.5779 N   0  0  0  0  0  0  0  0  0  0  0  0
  151.5573  139.5669  155.3351 C   0  0  0  0  0  0  0  0  0  0  0  0
  152.4096  138.3897  154.9417 C   0  0  0  0  0  0  0  0  0  0  0  0
  151.8535  137.3742  154.4659 O   0  0  0  0  0  0  0  0  0  0  0  0
  153.6494  138.4583  155.1010 O   0  5  0  0  0  0  0  0  0  0  0  0
  151.9008  140.3555  156.4592 C   0  0  0  0  0  0  0  0  0  0  0  0
  151.7823  143.6180  157.5304 C   0  0  0  0  0  0  0  0  0  0  0  0
  151.9485  144.5070  158.7796 C   0  0  1  0  0  0  0  0  0  0  0  0
  150.6116  144.9503  159.3998 C   0  0  0  0  0  0  0  0  0  0  0  0
  152.7969  143.8629  159.7346 O   0  0  0  0  0  0  0  0  0  0  0  0
  153.1254  141.0022  161.4534 H   0  0  0  0  0  0  0  0  0  0  0  0
  153.4631  142.6409  162.0034 H   0  0  0  0  0  0  0  0  0  0  0  0
  154.3966  141.9479  160.6790 H   0  0  0  0  0  0  0  0  0  0  0  0
  151.4129  142.6076  160.6203 H   0  0  0  0  0  0  0  0  0  0  0  0
  153.2482  141.5248  158.4182 H   0  0  0  0  0  0  0  0  0  0  0  0
  151.8938  140.6740  159.1442 H   0  0  0  0  0  0  0  0  0  0  0  0
  149.2968  142.5517  156.2376 H   0  0  0  0  0  0  0  0  0  0  0  0
  148.8277  141.0613  154.2832 H   0  0  0  0  0  0  0  0  0  0  0  0
  152.7765  140.1241  157.0480 H   0  0  0  0  0  0  0  0  0  0  0  0
  152.7333  143.5607  156.9988 H   0  0  0  0  0  0  0  0  0  0  0  0
  151.0596  144.0595  156.8428 H   0  0  0  0  0  0  0  0  0  0  0  0
  152.4698  145.4143  158.4735 H   0  0  0  0  0  0  0  0  0  0  0  0
  150.0369  145.5455  158.6900 H   0  0  0  0  0  0  0  0  0  0  0  0
  150.7782  145.5643  160.2850 H   0  0  0  0  0  0  0  0  0  0  0  0
  149.9893  144.1043  159.6905 H   0  0  0  0  0  0  0  0  0  0  0  0
  1  2  1  0  0  0  0
  1 18  1  0  0  0  0
  1 19  1  0  0  0  0
  1 20  1  0  0  0  0
  2 17  1  0  0  0  0
  2  3  1  0  0  0  0
  2 21  1  0  0  0  0
  3  4  1  0  0  0  0
  3 22  1  0  0  0  0
  3 23  1  0  0  0  0
  4  5  1  0  0  0  0
  4 14  1  0  0  0  0
  5 13  1  0  0  0  0
  5  6  2  0  0  0  0
  6  7  1  0  0  0  0
  6 24  1  0  0  0  0
  7  8  2  0  0  0  0
  7 25  1  0  0  0  0
  8  9  1  0  0  0  0
  9 10  1  0  0  0  0
  9 13  2  0  0  0  0
 10 11  2  0  0  0  0
 10 12  1  0  0  0  0
 13 26  1  0  0  0  0
 14 15  1  0  0  0  0
 14 27  1  0  0  0  0
 14 28  1  0  0  0  0
 15 16  1  0  0  0  0
 15 17  1  0  0  0  0
 15 29  1  0  0  0  0
 16 30  1  0  0  0  0
 16 31  1  0  0  0  0
 16 32  1  0  0  0  0
M  CHG  1  12  -1
M  END
> <s_m_source_file>
AV-unprocessed.smi

> <i_m_source_file_index>
578

> <i_lp_mmshare_version>
43012

> <i_f3d_flags>
0

> <s_epik_input>
W0NIM11bQ0BASF0xW0NIMl1OKFtDSDJdW0NASF0oTzEpW0NIM10pYzJbY0hdW2NIXW5jKFtjSF0yKUMoPU8pW09IXQ==

> <s_epik_cmdline>
J2VwaWtfcHl0aG9uJywgJy1waCcsICc3LjAnLCAnLXRuJywgJzgnLCAnLW1hJywgJzIwMCcsICctbWV0YWxfYmluZGluZycsICctaW1hZScsICc8aW5maWxlLm1hZT4nLCAnLW9tYWUnLCAnPG91dGZpbGUubWFlPic=

> <r_epik_Ionization_Penalty>
2.00764

> <r_epik_Ionization_Penalty_Charging>
0.000210348

> <r_epik_Ionization_Penalty_Neutral>
2.00743

> <r_epik_State_Penalty>
2.13668

> <r_epik_Charging_Adjusted_Penalty>
2.13689

> <i_epik_Tot_Q>
-1

> <i_epik_Tot_abs_Q>
1

> <r_epik_Metal_State_Penalty>
0.0208571

> <b_epik_Metal_Only>
0

> <s_lp_Force_Field>
OPLS_2005

> <r_lp_Energy>
23.9914

> <b_lp_Chiralities_Consistent>
1

> <s_lp_Variant>
AV-unprocessed.smi:578-4

> <Gold.Version>
5.8.1

> <Gold.Id.Protein>
6NUR|6NUR_protein|mol2

> <Gold.PLP.Fitness>
51.6936

> <Gold.PLP.PLP>
-41.8531

> <Gold.PLP.part.hbond>
-3.0000

> <Gold.PLP.part.metal>
0.0000

> <Gold.PLP.part.buried>
-5.3550

> <Gold.PLP.part.nonpolar>
-33.4928

> <Gold.PLP.part.repulsive>
0.2902

> <Gold.PLP.ligand.clash>
0.0000

> <Gold.PLP.ligand.torsion>
0.8398

> <Gold.PLP.Chemscore.Hbond>
3.8090

> <Gold.PLP.Chemscore.CHOScore>
0.0000

> <Gold.PLP.Chemscore.Metal>
0.0000

> <Gold.Chemscore.Hbonds>
donor molecule, donor type, donor heavy atom, donor atom, acceptor molecule, acceptor atom, score
      P1  H  7989  7998       L1     8  0.21
      P1  H  7997  8010       L1    12  1.54
      P1  H 10752 10765       L1    11  1.95

> <Gold.PLP.Chemscore.Internal.Correction>
0.0932

> <Gold.Rescore>
     Score         DG    S(hbond)    S(metal)    S(lipo)     H(rot)  DE(clash)    DE(int)     intcor
     19.41     -20.33       1.72        0.00      99.76       1.00       0.01       0.92       ----

> <Gold.Chemscore.Fitness>
19.4075

> <Gold.Chemscore.DG>
-20.3326

> <Gold.Chemscore.ZeroCoef>
-5.4800

> <Gold.Chemscore.Hbond>
1.7188

> <Gold.Chemscore.Metal>
0.0000

> <Gold.Chemscore.Lipo>
99.7591

> <Gold.Chemscore.Internal_Hbond>
0.0000

> <Gold.Chemscore.DEClash>
0.0096

> <Gold.Chemscore.DEInternal>
0.9156

> <Gold.Chemscore.Rot>
1.0000

> <Gold.Chemscore.Internal.Correction>
   9.000000E+99

> <Gold.Chemscore.Hbonds>
donor molecule, donor type, donor heavy atom, donor atom, acceptor molecule, acceptor atom, score
      P1  H  7997  8010       L1    12  0.72
      P1  H 10752 10765       L1    11  0.84

> <Gold.Chemscore.Hbond.Weighted>
-5.7408

> <Gold.Chemscore.Metal.Weighted>
-0.0000

> <Gold.Chemscore.Lipo.Weighted>
-11.6718

> <Gold.Chemscore.Internal_Hbond.Weighted>
0.0000

> <Gold.Chemscore.DEClash.Weighted>
0.0096

> <Gold.Chemscore.DEInternal.Weighted>
0.9156

> <Gold.Chemscore.Rot.Weighted>
2.5600

> <Gold.Chemscore.Internal.Correction.Weighted>
   9.000000E+99

> <Gold.Protein.RotatedTorsions>
[ 6907 6896 6895 6894 ] final -134.49 input  -60.11 | X-H torsion
[ 7974 7965 7964 7962 ] final  -29.23 input  175.53 | X-H torsion
[ 8008 7997 7996 7995 ] final  104.10 input   59.86 | X-H torsion
[ 10167 10162 10161 10158 ] final   65.22 input  -65.29 | X-H torsion
[ 10718 10713 10712 10709 ] final   48.89 input   66.30 | X-H torsion
[ 10763 10752 10751 10750 ] final  160.45 input  -60.55 | X-H torsion
[ 11005 11000 10999 10996 ] final -123.22 input  -57.11 | X-H torsion

> <Gold.Protein.ActiveResidues>
 VAL166  LYS551  ARG553  GLY616  TRP617  ASP618  TYR619  PRO620  LYS621  CYS622 
 ASP623  PHE694  ASN695  SER759  ASP760  ASP761  ALA762  ILE779  LEU786  VAL792 
 PHE793  MET794  SER795  GLU796  ALA797  LYS798  CYS799  TRP800  GLU811  SER814 

> <Gold.Protein.RotatedAtoms>
  150.9865  133.6193  159.2714 H   0  0  0  0  0  0  0  0  0  0  0  0  # atno 6907 bound_to 6896
  151.3429  135.0866  159.9387 H   0  0  0  0  0  0  0  0  0  0  0  0  # atno 6908 bound_to 6896
  152.5232  133.9473  159.7709 H   0  0  0  0  0  0  0  0  0  0  0  0  # atno 6909 bound_to 6896
  146.1232  140.5385  142.8726 H   0  0  0  0  0  0  0  0  0  0  0  0  # atno 7974 bound_to 7965
  156.1543  140.3153  155.8699 H   0  0  0  0  0  0  0  0  0  0  0  0  # atno 8008 bound_to 7997
  155.3910  140.0493  157.3057 H   0  0  0  0  0  0  0  0  0  0  0  0  # atno 8009 bound_to 7997
  154.5086  140.2156  155.9212 H   0  0  0  0  0  0  0  0  0  0  0  0  # atno 8010 bound_to 7997
  140.1136  144.4795  150.6963 H   0  0  0  0  0  0  0  0  0  0  0  0  # atno 10167 bound_to 10162
  157.4732  130.8268  149.8011 H   0  0  0  0  0  0  0  0  0  0  0  0  # atno 10718 bound_to 10713
  154.2476  135.2772  155.2829 H   0  0  0  0  0  0  0  0  0  0  0  0  # atno 10763 bound_to 10752
  154.5492  135.5680  153.6910 H   0  0  0  0  0  0  0  0  0  0  0  0  # atno 10764 bound_to 10752
  152.9987  135.6270  154.2622 H   0  0  0  0  0  0  0  0  0  0  0  0  # atno 10765 bound_to 10752
  140.9935  134.0505  157.3625 H   0  0  0  0  0  0  0  0  0  0  0  0  # atno 11005 bound_to 11000
  144.7617  140.5436  143.6731 LP  0  0  0  0  0  0  0  0  0  0  0  0  # atno 17320 bound_to 7965
  145.5422  139.1475  143.3440 LP  0  0  0  0  0  0  0  0  0  0  0  0  # atno 17321 bound_to 7965
  140.6912  143.2377  151.5127 LP  0  0  0  0  0  0  0  0  0  0  0  0  # atno 17342 bound_to 10162
  139.5606  144.2166  152.1685 LP  0  0  0  0  0  0  0  0  0  0  0  0  # atno 17343 bound_to 10162
  156.0084  130.3845  150.2351 LP  0  0  0  0  0  0  0  0  0  0  0  0  # atno 17370 bound_to 10713
  157.0534  131.0069  151.3246 LP  0  0  0  0  0  0  0  0  0  0  0  0  # atno 17371 bound_to 10713
  139.9003  135.0162  156.7238 LP  0  0  0  0  0  0  0  0  0  0  0  0  # atno 17394 bound_to 11000
  140.7002  133.9313  155.8020 LP  0  0  0  0  0  0  0  0  0  0  0  0  # atno 17395 bound_to 11000

$$$$
