AV-unprocessed.smi:3018|AV-procd|sdf|11483|dock2
  -GOLD-   2272016423D 1   1.00000     0.00000
 Structure written by MMmdl.
 44 45  0  0  0  0  0  0  0  0  2 V2000
  150.2319  140.0243  154.7163 C   0  0  0  0  0  0  0  0  0  0  0  0
  151.2342  140.4604  155.7923 C   0  0  0  0  0  0  0  0  0  0  0  0
  150.5553  141.1238  157.0045 C   0  0  2  0  0  0  0  0  0  0  0  0
  151.5393  141.2753  158.0268 O   0  0  0  0  0  0  0  0  0  0  0  0
  151.2575  142.2222  159.0547 C   0  0  0  0  0  0  0  0  0  0  0  0
  150.9857  143.6143  158.4486 C   0  0  0  0  0  0  0  0  0  0  0  0
  150.8185  144.6778  159.5465 C   0  0  0  0  0  0  0  0  0  0  0  0
  152.0374  144.7124  160.4824 C   0  0  0  0  0  0  0  0  0  0  0  0
  152.3164  143.3259  161.0838 C   0  0  0  0  0  0  0  0  0  0  0  0
  152.4842  142.2675  159.9820 C   0  0  0  0  0  0  0  0  0  0  0  0
  149.3943  140.2607  157.5215 C   0  0  0  0  0  0  0  0  0  0  0  0
  148.3405  140.7902  157.8749 O   0  0  0  0  0  0  0  0  0  0  0  0
  149.6061  138.9354  157.5522 N   0  0  0  0  0  0  0  0  0  0  0  0
  148.6644  137.9349  158.0496 C   0  0  0  0  0  0  0  0  0  0  0  0
  149.3793  136.7403  158.7139 C   0  0  0  0  0  0  0  0  0  0  0  0
  148.5238  136.0480  159.7436 C   0  0  0  0  0  0  0  0  0  0  0  0
  148.3271  134.7857  159.8374 N   0  0  0  0  0  0  0  0  0  0  0  0
  147.5278  134.6843  160.9118 N   0  0  0  0  0  0  0  0  0  0  0  0
  147.2543  135.8788  161.4417 C   0  0  0  0  0  0  0  0  0  0  0  0
  146.5428  136.0362  162.4314 O   0  0  0  0  0  0  0  0  0  0  0  0
  147.8926  136.7929  160.6897 N   0  5  0  0  0  0  0  0  0  0  0  0
  147.2106  133.7794  161.2268 H   0  0  0  0  0  0  0  0  0  0  0  0
  150.7438  139.5452  153.8814 H   0  0  0  0  0  0  0  0  0  0  0  0
  149.6793  140.8774  154.3220 H   0  0  0  0  0  0  0  0  0  0  0  0
  149.5095  139.3126  155.1164 H   0  0  0  0  0  0  0  0  0  0  0  0
  151.7963  139.5842  156.1199 H   0  0  0  0  0  0  0  0  0  0  0  0
  151.9623  141.1429  155.3513 H   0  0  0  0  0  0  0  0  0  0  0  0
  150.1742  142.0983  156.6961 H   0  0  0  0  0  0  0  0  0  0  0  0
  150.3981  141.9122  159.6504 H   0  0  0  0  0  0  0  0  0  0  0  0
  151.8099  143.8951  157.7918 H   0  0  0  0  0  0  0  0  0  0  0  0
  150.0900  143.5956  157.8285 H   0  0  0  0  0  0  0  0  0  0  0  0
  150.6701  145.6590  159.0945 H   0  0  0  0  0  0  0  0  0  0  0  0
  149.9191  144.4653  160.1260 H   0  0  0  0  0  0  0  0  0  0  0  0
  152.9131  145.0527  159.9280 H   0  0  0  0  0  0  0  0  0  0  0  0
  151.8748  145.4382  161.2797 H   0  0  0  0  0  0  0  0  0  0  0  0
  153.2128  143.3629  161.7035 H   0  0  0  0  0  0  0  0  0  0  0  0
  151.4960  143.0402  161.7434 H   0  0  0  0  0  0  0  0  0  0  0  0
  152.6438  141.2870  160.4317 H   0  0  0  0  0  0  0  0  0  0  0  0
  153.3789  142.4888  159.3983 H   0  0  0  0  0  0  0  0  0  0  0  0
  150.5026  138.5954  157.2367 H   0  0  0  0  0  0  0  0  0  0  0  0
  147.9304  138.3740  158.7281 H   0  0  0  0  0  0  0  0  0  0  0  0
  148.0975  137.5746  157.1912 H   0  0  0  0  0  0  0  0  0  0  0  0
  149.6666  136.0237  157.9432 H   0  0  0  0  0  0  0  0  0  0  0  0
  150.3123  137.0731  159.1705 H   0  0  0  0  0  0  0  0  0  0  0  0
  1  2  1  0  0  0  0
  1 23  1  0  0  0  0
  1 24  1  0  0  0  0
  1 25  1  0  0  0  0
  2  3  1  0  0  0  0
  2 26  1  0  0  0  0
  2 27  1  0  0  0  0
  3  4  1  0  0  0  0
  3 11  1  0  0  0  0
  3 28  1  0  0  0  0
  4  5  1  0  0  0  0
  5 10  1  0  0  0  0
  5  6  1  0  0  0  0
  5 29  1  0  0  0  0
  6  7  1  0  0  0  0
  6 30  1  0  0  0  0
  6 31  1  0  0  0  0
  7  8  1  0  0  0  0
  7 32  1  0  0  0  0
  7 33  1  0  0  0  0
  8  9  1  0  0  0  0
  8 34  1  0  0  0  0
  8 35  1  0  0  0  0
  9 10  1  0  0  0  0
  9 36  1  0  0  0  0
  9 37  1  0  0  0  0
 10 38  1  0  0  0  0
 10 39  1  0  0  0  0
 11 12  2  0  0  0  0
 11 13  1  0  0  0  0
 13 14  1  0  0  0  0
 13 40  1  0  0  0  0
 14 15  1  0  0  0  0
 14 41  1  0  0  0  0
 14 42  1  0  0  0  0
 15 16  1  0  0  0  0
 15 43  1  0  0  0  0
 15 44  1  0  0  0  0
 16 21  1  0  0  0  0
 16 17  2  0  0  0  0
 17 18  1  0  0  0  0
 18 22  1  0  0  0  0
 18 19  1  0  0  0  0
 19 20  2  0  0  0  0
 19 21  1  0  0  0  0
M  CHG  1  21  -1
M  END
> <s_m_source_file>
AV-unprocessed.smi

> <i_m_source_file_index>
3018

> <i_lp_mmshare_version>
43012

> <i_f3d_flags>
0

> <s_epik_input>
W0NIMl0xW0NIMl1bQ0gyXVtDSDJdW0NIMl1bQ0hdMU9bQ0BASF0oW0NIMl1bQ0gzXSlDKD1PKVtOSF1bQ0gyXVtDSDJdYzJuW25IXWMoPU8pW25IXTI=

> <s_epik_cmdline>
J2VwaWtfcHl0aG9uJywgJy1waCcsICc3LjAnLCAnLXRuJywgJzgnLCAnLW1hJywgJzIwMCcsICctbWV0YWxfYmluZGluZycsICctaW1hZScsICc8aW5maWxlLm1hZT4nLCAnLW9tYWUnLCAnPG91dGZpbGUubWFlPic=

> <r_lp_tautomer_probability>
1

> <r_epik_Ionization_Penalty>
13.7173

> <r_epik_Ionization_Penalty_Charging>
13.7173

> <r_epik_Ionization_Penalty_Neutral>
5.37575e-06

> <r_epik_State_Penalty>
4.05785

> <r_epik_Charging_Adjusted_Penalty>
17.7751

> <i_epik_Tot_Q>
-1

> <i_epik_Tot_abs_Q>
1

> <r_epik_Metal_State_Penalty>
0.460256

> <b_epik_Metal_Only>
1

> <s_lp_Force_Field>
OPLS_2005

> <r_lp_Energy>
25.0633

> <b_lp_Chiralities_Consistent>
1

> <s_lp_Variant>
AV-unprocessed.smi:3018-5

> <Gold.Version>
5.8.1

> <Gold.Id.Protein>
6NUR|6NUR_protein|mol2

> <Gold.PLP.Fitness>
46.1411

> <Gold.PLP.PLP>
-37.3801

> <Gold.PLP.part.hbond>
-2.0000

> <Gold.PLP.part.metal>
0.0000

> <Gold.PLP.part.buried>
-5.7892

> <Gold.PLP.part.nonpolar>
-30.6063

> <Gold.PLP.part.repulsive>
0.1585

> <Gold.PLP.ligand.clash>
0.0000

> <Gold.PLP.ligand.torsion>
1.1839

> <Gold.PLP.Chemscore.Hbond>
3.6480

> <Gold.PLP.Chemscore.CHOScore>
0.0000

> <Gold.PLP.Chemscore.Metal>
0.0000

> <Gold.Chemscore.Hbonds>
donor molecule, donor type, donor heavy atom, donor atom, acceptor molecule, acceptor atom, score
      P1  H  6931  6943       L1    21  1.08
      P1  H  6934  6947       L1    21  0.37

> <Gold.PLP.Chemscore.Internal.Correction>
0.1848

> <Gold.Rescore>
     Score         DG    S(hbond)    S(metal)    S(lipo)     H(rot)  DE(clash)    DE(int)     intcor
     12.31     -13.40       1.59        0.00      87.56       2.98       0.06       1.03       ----

> <Gold.Chemscore.Fitness>
12.3147

> <Gold.Chemscore.DG>
-13.4048

> <Gold.Chemscore.ZeroCoef>
-5.4800

> <Gold.Chemscore.Hbond>
1.5874

> <Gold.Chemscore.Metal>
0.0000

> <Gold.Chemscore.Lipo>
87.5600

> <Gold.Chemscore.Internal_Hbond>
0.0000

> <Gold.Chemscore.DEClash>
0.0638

> <Gold.Chemscore.DEInternal>
1.0263

> <Gold.Chemscore.Rot>
2.9772

> <Gold.Chemscore.Internal.Correction>
   9.000000E+99

> <Gold.Chemscore.Hbonds>
donor molecule, donor type, donor heavy atom, donor atom, acceptor molecule, acceptor atom, score
      P1  H  6931  6943       L1    21  0.42
      P1  H  6934  6947       L1    21  0.17

> <Gold.Chemscore.Hbond.Weighted>
-5.3019

> <Gold.Chemscore.Metal.Weighted>
-0.0000

> <Gold.Chemscore.Lipo.Weighted>
-10.2445

> <Gold.Chemscore.Internal_Hbond.Weighted>
0.0000

> <Gold.Chemscore.DEClash.Weighted>
0.0638

> <Gold.Chemscore.DEInternal.Weighted>
1.0263

> <Gold.Chemscore.Rot.Weighted>
7.6216

> <Gold.Chemscore.Internal.Correction.Weighted>
   9.000000E+99

> <Gold.Protein.RotatedTorsions>
[ 6907 6896 6895 6894 ] final   12.21 input  -60.11 | X-H torsion
[ 7974 7965 7964 7962 ] final -159.06 input  175.53 | X-H torsion
[ 8008 7997 7996 7995 ] final  122.57 input   59.86 | X-H torsion
[ 10167 10162 10161 10158 ] final -148.17 input  -65.29 | X-H torsion
[ 10718 10713 10712 10709 ] final  126.50 input   66.30 | X-H torsion
[ 10763 10752 10751 10750 ] final -175.42 input  -60.55 | X-H torsion
[ 11005 11000 10999 10996 ] final -148.55 input  -57.11 | X-H torsion

> <Gold.Protein.ActiveResidues>
 VAL166  LYS551  ARG553  GLY616  TRP617  ASP618  TYR619  PRO620  LYS621  CYS622 
 ASP623  PHE694  ASN695  SER759  ASP760  ASP761  ALA762  ILE779  LEU786  VAL792 
 PHE793  MET794  SER795  GLU796  ALA797  LYS798  CYS799  TRP800  GLU811  SER814 

> <Gold.Protein.RotatedAtoms>
  151.7667  135.0796  160.0353 H   0  0  0  0  0  0  0  0  0  0  0  0  # atno 6907 bound_to 6896
  152.3316  133.5961  159.5822 H   0  0  0  0  0  0  0  0  0  0  0  0  # atno 6908 bound_to 6896
  150.7426  133.9775  159.3607 H   0  0  0  0  0  0  0  0  0  0  0  0  # atno 6909 bound_to 6896
  144.7480  140.3739  143.6070 H   0  0  0  0  0  0  0  0  0  0  0  0  # atno 7974 bound_to 7965
  156.2733  140.2783  156.1489 H   0  0  0  0  0  0  0  0  0  0  0  0  # atno 8008 bound_to 7997
  155.0875  140.0388  157.2676 H   0  0  0  0  0  0  0  0  0  0  0  0  # atno 8009 bound_to 7997
  154.6916  140.2630  155.6813 H   0  0  0  0  0  0  0  0  0  0  0  0  # atno 8010 bound_to 7997
  139.7556  143.8453  152.2596 H   0  0  0  0  0  0  0  0  0  0  0  0  # atno 10167 bound_to 10162
  157.5414  131.1097  150.8853 H   0  0  0  0  0  0  0  0  0  0  0  0  # atno 10718 bound_to 10713
  154.5846  135.2839  155.0697 H   0  0  0  0  0  0  0  0  0  0  0  0  # atno 10763 bound_to 10752
  154.2021  135.6422  153.5094 H   0  0  0  0  0  0  0  0  0  0  0  0  # atno 10764 bound_to 10752
  153.0100  135.5471  154.6512 H   0  0  0  0  0  0  0  0  0  0  0  0  # atno 10765 bound_to 10752
  140.7601  134.3308  157.5104 H   0  0  0  0  0  0  0  0  0  0  0  0  # atno 11005 bound_to 11000
  145.7048  139.1670  143.2572 LP  0  0  0  0  0  0  0  0  0  0  0  0  # atno 17320 bound_to 7965
  146.1389  140.7084  142.9376 LP  0  0  0  0  0  0  0  0  0  0  0  0  # atno 17321 bound_to 7965
  139.8444  144.7194  150.9291 LP  0  0  0  0  0  0  0  0  0  0  0  0  # atno 17342 bound_to 10162
  140.7802  143.3954  151.1238 LP  0  0  0  0  0  0  0  0  0  0  0  0  # atno 17343 bound_to 10162
  156.9404  130.5382  149.5280 LP  0  0  0  0  0  0  0  0  0  0  0  0  # atno 17370 bound_to 10713
  156.0500  130.5570  150.8967 LP  0  0  0  0  0  0  0  0  0  0  0  0  # atno 17371 bound_to 10713
  139.8772  134.9196  156.3232 LP  0  0  0  0  0  0  0  0  0  0  0  0  # atno 17394 bound_to 11000
  140.9671  133.7351  156.0482 LP  0  0  0  0  0  0  0  0  0  0  0  0  # atno 17395 bound_to 11000

$$$$
