AV-unprocessed.smi:985|AV-procd|sdf|4318|dock3
  -GOLD-   22720 2223D 1   1.00000     0.00000
 Structure written by MMmdl.
 26 27  0  0  0  0  0  0  0  0  2 V2000
  151.4902  141.1632  159.1872 C   0  0  0  0  0  0  0  0  0  0  0  0
  151.2330  140.7423  157.7810 C   0  0  0  0  0  0  0  0  0  0  0  0
  150.1322  140.9552  157.0642 N   0  0  0  0  0  0  0  0  0  0  0  0
  150.4684  140.3627  155.8840 C   0  0  0  0  0  0  0  0  0  0  0  0
  149.5486  140.3173  154.7023 C   0  0  2  0  0  0  0  0  0  0  0  0
  148.2295  141.0692  154.9628 C   0  0  0  0  0  0  0  0  0  0  0  0
  147.3133  140.9869  153.7320 C   0  0  0  0  0  0  0  0  0  0  0  0
  147.0979  139.5260  153.3017 C   0  0  0  0  0  0  0  0  0  0  0  0
  148.3934  138.8592  153.0464 N   0  3  0  0  0  0  0  0  0  0  0  0
  149.2946  138.8745  154.2204 C   0  0  0  0  0  0  0  0  0  0  0  0
  151.6744  139.8090  155.8391 N   0  0  0  0  0  0  0  0  0  0  0  0
  152.1968  140.0626  157.1156 O   0  0  0  0  0  0  0  0  0  0  0  0
  150.6250  141.6894  159.5916 H   0  0  0  0  0  0  0  0  0  0  0  0
  152.3538  141.8273  159.2264 H   0  0  0  0  0  0  0  0  0  0  0  0
  151.6906  140.2899  159.8080 H   0  0  0  0  0  0  0  0  0  0  0  0
  150.0507  140.8383  153.8845 H   0  0  0  0  0  0  0  0  0  0  0  0
  147.7174  140.6373  155.8239 H   0  0  0  0  0  0  0  0  0  0  0  0
  148.4298  142.1126  155.2096 H   0  0  0  0  0  0  0  0  0  0  0  0
  146.3542  141.4576  153.9494 H   0  0  0  0  0  0  0  0  0  0  0  0
  147.7542  141.5498  152.9082 H   0  0  0  0  0  0  0  0  0  0  0  0
  146.5555  138.9777  154.0733 H   0  0  0  0  0  0  0  0  0  0  0  0
  146.4926  139.4845  152.3960 H   0  0  0  0  0  0  0  0  0  0  0  0
  148.2217  137.9007  152.7778 H   0  0  0  0  0  0  0  0  0  0  0  0
  150.2344  138.3922  153.9488 H   0  0  0  0  0  0  0  0  0  0  0  0
  148.8477  138.2768  155.0163 H   0  0  0  0  0  0  0  0  0  0  0  0
  148.8526  139.3341  152.2823 H   0  0  0  0  0  0  0  0  0  0  0  0
  1  2  1  0  0  0  0
  1 13  1  0  0  0  0
  1 14  1  0  0  0  0
  1 15  1  0  0  0  0
  2 12  1  0  0  0  0
  2  3  2  0  0  0  0
  3  4  1  0  0  0  0
  4  5  1  0  0  0  0
  4 11  2  0  0  0  0
  5 10  1  0  0  0  0
  5  6  1  0  0  0  0
  5 16  1  0  0  0  0
  6  7  1  0  0  0  0
  6 17  1  0  0  0  0
  6 18  1  0  0  0  0
  7  8  1  0  0  0  0
  7 19  1  0  0  0  0
  7 20  1  0  0  0  0
  8  9  1  0  0  0  0
  8 21  1  0  0  0  0
  8 22  1  0  0  0  0
  9 10  1  0  0  0  0
  9 23  1  0  0  0  0
  9 26  1  0  0  0  0
 10 24  1  0  0  0  0
 10 25  1  0  0  0  0
 11 12  1  0  0  0  0
M  CHG  1   9   1
M  END
> <s_m_source_file>
AV-unprocessed.smi

> <i_m_source_file_index>
985

> <i_lp_mmshare_version>
43012

> <i_f3d_flags>
0

> <s_epik_input>
W0NIM11jMW5jKG5vMSlbQ0BASF0yW0NIMl1bQ0gyXVtDSDJdW05IXVtDSDJdMg==

> <s_epik_cmdline>
J2VwaWtfcHl0aG9uJywgJy1waCcsICc3LjAnLCAnLXRuJywgJzgnLCAnLW1hJywgJzIwMCcsICctbWV0YWxfYmluZGluZycsICctaW1hZScsICc8aW5maWxlLm1hZT4nLCAnLW9tYWUnLCAnPG91dGZpbGUubWFlPic=

> <r_lp_tautomer_probability>
1

> <r_epik_Ionization_Penalty>
0.000532935

> <r_epik_Ionization_Penalty_Charging>
0.000532935

> <r_epik_Ionization_Penalty_Neutral>
3.88228e-13

> <r_epik_State_Penalty>
0.000332992

> <r_epik_Charging_Adjusted_Penalty>
0.000865928

> <i_epik_Tot_Q>
1

> <i_epik_Tot_abs_Q>
1

> <r_epik_Metal_State_Penalty>
-0

> <b_epik_Metal_Only>
0

> <s_lp_Force_Field>
OPLS_2005

> <r_lp_Energy>
6.62541

> <b_lp_Chiralities_Consistent>
1

> <s_lp_Variant>
AV-unprocessed.smi:985-1

> <Gold.Version>
5.8.1

> <Gold.Id.Protein>
6NUR|6NUR_protein|mol2

> <Gold.PLP.Fitness>
33.6365

> <Gold.PLP.PLP>
-22.4581

> <Gold.PLP.part.hbond>
-3.6563

> <Gold.PLP.part.metal>
0.0000

> <Gold.PLP.part.buried>
-0.7740

> <Gold.PLP.part.nonpolar>
-17.6901

> <Gold.PLP.part.repulsive>
0.1247

> <Gold.PLP.ligand.clash>
0.0000

> <Gold.PLP.ligand.torsion>
0.0226

> <Gold.PLP.Chemscore.Hbond>
3.7268

> <Gold.PLP.Chemscore.CHOScore>
0.0000

> <Gold.PLP.Chemscore.Metal>
0.0000

> <Gold.Chemscore.Hbonds>
donor molecule, donor type, donor heavy atom, donor atom, acceptor molecule, acceptor atom, score
      L1  H     9    23       P1  7948  1.82
      L1  H     9    26       P1  7957  0.96
      P1  H  7997  8010       L1    12  0.24

> <Gold.PLP.Chemscore.Internal.Correction>
0.0432

> <Gold.Rescore>
     Score         DG    S(hbond)    S(metal)    S(lipo)     H(rot)  DE(clash)    DE(int)     intcor
     16.40     -16.57       2.59        0.00      42.82       1.00       0.13       0.04       ----

> <Gold.Chemscore.Fitness>
16.4031

> <Gold.Chemscore.DG>
-16.5684

> <Gold.Chemscore.ZeroCoef>
-5.4800

> <Gold.Chemscore.Hbond>
2.5863

> <Gold.Chemscore.Metal>
0.0000

> <Gold.Chemscore.Lipo>
42.8208

> <Gold.Chemscore.Internal_Hbond>
0.0000

> <Gold.Chemscore.DEClash>
0.1264

> <Gold.Chemscore.DEInternal>
0.0389

> <Gold.Chemscore.Rot>
1.0000

> <Gold.Chemscore.Internal.Correction>
   9.000000E+99

> <Gold.Chemscore.Hbonds>
donor molecule, donor type, donor heavy atom, donor atom, acceptor molecule, acceptor atom, score
      L1  H     9    23       P1  7948  0.85
      L1  H     9    26       P1  7957  0.91
      P1  H  7997  8010       L1    12  0.02

> <Gold.Chemscore.Hbond.Weighted>
-8.6383

> <Gold.Chemscore.Metal.Weighted>
-0.0000

> <Gold.Chemscore.Lipo.Weighted>
-5.0100

> <Gold.Chemscore.Internal_Hbond.Weighted>
0.0000

> <Gold.Chemscore.DEClash.Weighted>
0.1264

> <Gold.Chemscore.DEInternal.Weighted>
0.0389

> <Gold.Chemscore.Rot.Weighted>
2.5600

> <Gold.Chemscore.Internal.Correction.Weighted>
   9.000000E+99

> <Gold.Protein.RotatedTorsions>
[ 6907 6896 6895 6894 ] final -156.01 input  -60.11 | X-H torsion
[ 7974 7965 7964 7962 ] final   18.92 input  175.53 | X-H torsion
[ 8008 7997 7996 7995 ] final   78.91 input   59.86 | X-H torsion
[ 10167 10162 10161 10158 ] final  171.99 input  -65.29 | X-H torsion
[ 10718 10713 10712 10709 ] final  -93.21 input   66.30 | X-H torsion
[ 10763 10752 10751 10750 ] final  -33.97 input  -60.55 | X-H torsion
[ 11005 11000 10999 10996 ] final  -32.34 input  -57.11 | X-H torsion

> <Gold.Protein.ActiveResidues>
 VAL166  LYS551  ARG553  GLY616  TRP617  ASP618  TYR619  PRO620  LYS621  CYS622 
 ASP623  PHE694  ASN695  SER759  ASP760  ASP761  ALA762  ILE779  LEU786  VAL792 
 PHE793  MET794  SER795  GLU796  ALA797  LYS798  CYS799  TRP800  GLU811  SER814 

> <Gold.Protein.RotatedAtoms>
  151.2812  133.4209  159.2626 H   0  0  0  0  0  0  0  0  0  0  0  0  # atno 6907 bound_to 6896
  151.0359  134.9573  159.8146 H   0  0  0  0  0  0  0  0  0  0  0  0  # atno 6908 bound_to 6896
  152.5355  134.2771  159.9046 H   0  0  0  0  0  0  0  0  0  0  0  0  # atno 6909 bound_to 6896
  146.2168  139.8388  142.8645 H   0  0  0  0  0  0  0  0  0  0  0  0  # atno 7974 bound_to 7965
  155.8623  140.3453  155.5764 H   0  0  0  0  0  0  0  0  0  0  0  0  # atno 8008 bound_to 7997
  155.7920  140.0873  157.2023 H   0  0  0  0  0  0  0  0  0  0  0  0  # atno 8009 bound_to 7997
  154.4012  140.1481  156.3161 H   0  0  0  0  0  0  0  0  0  0  0  0  # atno 8010 bound_to 7997
  139.5063  144.3424  152.0005 H   0  0  0  0  0  0  0  0  0  0  0  0  # atno 10167 bound_to 10162
  156.0011  130.5018  150.5742 H   0  0  0  0  0  0  0  0  0  0  0  0  # atno 10718 bound_to 10713
  153.8391  135.6859  153.4805 H   0  0  0  0  0  0  0  0  0  0  0  0  # atno 10763 bound_to 10752
  153.1465  135.4636  154.9571 H   0  0  0  0  0  0  0  0  0  0  0  0  # atno 10764 bound_to 10752
  154.7853  135.3282  154.7846 H   0  0  0  0  0  0  0  0  0  0  0  0  # atno 10765 bound_to 10752
  140.9544  133.7201  156.1270 H   0  0  0  0  0  0  0  0  0  0  0  0  # atno 11005 bound_to 11000
  145.2920  141.0170  143.3657 LP  0  0  0  0  0  0  0  0  0  0  0  0  # atno 17320 bound_to 7965
  144.9070  139.4577  143.6605 LP  0  0  0  0  0  0  0  0  0  0  0  0  # atno 17321 bound_to 7965
  140.2862  144.3805  150.6103 LP  0  0  0  0  0  0  0  0  0  0  0  0  # atno 17342 bound_to 10162
  140.5981  143.2167  151.7125 LP  0  0  0  0  0  0  0  0  0  0  0  0  # atno 17343 bound_to 10162
  157.3632  131.0753  151.1619 LP  0  0  0  0  0  0  0  0  0  0  0  0  # atno 17370 bound_to 10713
  157.2396  130.6563  149.5884 LP  0  0  0  0  0  0  0  0  0  0  0  0  # atno 17371 bound_to 10713
  140.7557  134.3995  157.5534 LP  0  0  0  0  0  0  0  0  0  0  0  0  # atno 17394 bound_to 11000
  139.8857  134.8929  156.2625 LP  0  0  0  0  0  0  0  0  0  0  0  0  # atno 17395 bound_to 11000

$$$$
