#       Name:                AV-unprocessed.smi:2592
#       Creating user name   scv26
#       Creation time:       Fri Mar 27 14:17:36 2020


#       File generated by GOLD software.
#

@<TRIPOS>MOLECULE
AV-unprocessed.smi:2592
    48    49     1
SMALL
NO_CHARGES


@<TRIPOS>ATOM
      1 ****        -5.4101   3.5115  -3.2286 C.3            1 S1                 0.0000
      2 ****        -4.7728   2.6325  -2.1969 C.2            1 S1                 0.0000
      3 ****        -3.9417   1.5843  -2.6000 N.2            1 S1                 0.0000
      4 ****        -3.4312   0.8832  -1.5830 C.2            1 S1                 0.0000
      5 ****        -2.6142  -0.1689  -1.7556 N.pl3          1 S1                -1.0000
      6 ****        -1.2812  -0.0281  -1.5750 C.2            1 S1                 0.0000
      7 ****        -0.6919   1.0078  -1.2571 O.2            1 S1                 0.0000
      8 ****        -0.5883  -1.1593  -1.7705 N.am           1 S1                 0.0000
      9 ****         0.8560  -1.3124  -1.6324 C.3            1 S1                 0.0000
     10 ****         1.2689  -1.4756  -0.1608 C.3            1 S1                 0.0000
     11 ****         2.7866  -1.6670  -0.0017 C.3            1 S1                 0.0000
     12 ****         3.2366  -1.9459   1.3615 N.3            1 S1                 0.0000
     13 ****         4.6420  -2.3375   1.3763 C.3            1 S1                 0.0000
     14 ****         5.1427  -2.6343   2.8004 C.3            1 S1                 0.0000
     15 ****         4.9302  -1.4943   3.6262 O.3            1 S1                 0.0000
     16 ****         3.5623  -1.1026   3.6786 C.3            1 S1                 0.0000
     17 ****         3.0526  -0.8056   2.2575 C.3            1 S1                 0.0000
     18 ****        -3.9849   1.4909  -0.0223 S.3            1 S1                 0.0000
     19 ****        -4.9100   2.7255  -0.8340 C.2            1 S1                 0.0000
     20 ****        -5.7150   3.7145  -0.0589 C.3            1 S1                 0.0000
     21 ****        -6.4824   3.3260  -3.2916 H              1 S1                 0.0000
     22 ****        -4.9871   3.3428  -4.2195 H              1 S1                 0.0000
     23 ****        -5.2700   4.5655  -2.9878 H              1 S1                 0.0000
     24 ****        -1.1115  -1.9822  -2.0322 H              1 S1                 0.0000
     25 ****         1.1564  -2.1917  -2.2023 H              1 S1                 0.0000
     26 ****         1.3687  -0.4610  -2.0828 H              1 S1                 0.0000
     27 ****         0.9408  -0.5997   0.3984 H              1 S1                 0.0000
     28 ****         0.7479  -2.3321   0.2692 H              1 S1                 0.0000
     29 ****         3.0818  -2.4987  -0.6432 H              1 S1                 0.0000
     30 ****         3.3072  -0.7904  -0.3902 H              1 S1                 0.0000
     31 ****         4.7868  -3.2210   0.7534 H              1 S1                 0.0000
     32 ****         5.2514  -1.5450   0.9389 H              1 S1                 0.0000
     33 ****         4.6261  -3.4987   3.2204 H              1 S1                 0.0000
     34 ****         6.2064  -2.8715   2.7868 H              1 S1                 0.0000
     35 ****         2.9686  -1.8908   4.1443 H              1 S1                 0.0000
     36 ****         3.4689  -0.2174   4.3078 H              1 S1                 0.0000
     37 ****         3.5771   0.0652   1.8609 H              1 S1                 0.0000
     38 ****         1.9989  -0.5356   2.3179 H              1 S1                 0.0000
     39 ****        -5.2067   4.6780  -0.0197 H              1 S1                 0.0000
     40 ****        -5.8754   3.3755   0.9648 H              1 S1                 0.0000
     41 ****        -6.6923   3.8657  -0.5177 H              1 S1                 0.0000
     42 ****        -3.7471   1.3780  -3.5589 LP             1 S1                 0.0000
     43 ****        -2.9918  -1.0570  -2.0178 LP             1 S1                 0.0000
     44 ****        -1.2082   1.8510  -1.1075 LP             1 S1                 0.0000
     45 ****         0.3023   1.0044  -1.1489 LP             1 S1                 0.0000
     46 ****         2.6686  -2.6992   1.6930 LP             1 S1                 0.0000
     47 ****         5.4678  -0.7325   3.2648 LP             1 S1                 0.0000
     48 ****         5.2376  -1.7088   4.5533 LP             1 S1                 0.0000
@<TRIPOS>BOND
    1    1    2 1     
    2    1   21 1     
    3    1   22 1     
    4    1   23 1     
    5    2   19 2     
    6    2    3 1     
    7    3    4 2     
    8    4    5 1     
    9    4   18 1     
   10    5    6 1     
   11    6    7 2     
   12    6    8 am    
   13    8    9 1     
   14    8   24 1     
   15    9   10 1     
   16    9   25 1     
   17    9   26 1     
   18   10   11 1     
   19   10   27 1     
   20   10   28 1     
   21   11   12 1     
   22   11   29 1     
   23   11   30 1     
   24   12   17 1     
   25   12   13 1     
   26   13   14 1     
   27   13   31 1     
   28   13   32 1     
   29   14   15 1     
   30   14   33 1     
   31   14   34 1     
   32   15   16 1     
   33   16   17 1     
   34   16   35 1     
   35   16   36 1     
   36   17   37 1     
   37   17   38 1     
   38   18   19 1     
   39   19   20 1     
   40   20   39 1     
   41   20   40 1     
   42   20   41 1     
   43    3   42 1     
   44    5   43 1     
   45    7   44 1     
   46    7   45 1     
   47   12   46 1     
   48   15   47 1     
   49   15   48 1     
@<TRIPOS>SUBSTRUCTURE
      1 S1             1
@<TRIPOS>SET
LONE_PAIRS      STATIC     ATOMS    <user>   **** ""
7 42 43 44 45 46 47 48
DONOR_HYDROGENS      STATIC     ATOMS    <user>   **** ""
1 24
ATOM$BLUE        STATIC     ATOMS    COLORGROUP SYSTEM
7 42 43 44 45 46 47 48
ATOM$RED        STATIC     ATOMS    COLORGROUP SYSTEM
1 24
