AV-unprocessed.smi:1267|AV-procd|sdf|5322|dock6
  -GOLD-   22720 4443D 1   1.00000     0.00000
 Structure written by MMmdl.
 37 38  0  0  0  0  0  0  0  0  1 V2000
  152.7051  136.9586  157.3779 C   0  0  0  0  0  0  0  0  0  0  0  0
  151.0860  136.3145  156.7882 S   0  0  0  0  0  0  0  0  0  0  0  0
  151.3408  135.3714  155.6887 O   0  0  0  0  0  0  0  0  0  0  0  0
  150.3130  135.8756  157.9603 O   0  0  0  0  0  0  0  0  0  0  0  0
  150.2907  137.7105  156.1187 N   0  0  0  0  0  0  0  0  0  0  0  0
  149.3612  138.5001  156.9514 C   0  0  0  0  0  0  0  0  0  0  0  0
  150.0212  139.7874  157.4765 C   0  0  0  0  0  0  0  0  0  0  0  0
  150.6178  140.6206  156.3330 C   0  0  0  0  0  0  0  0  0  0  0  0
  151.2853  141.7981  156.8788 N   0  0  0  0  0  0  0  0  0  0  0  0
  150.7290  142.6895  157.7139 C   0  0  0  0  0  0  0  0  0  0  0  0
  149.5654  142.6182  158.1086 O   0  0  0  0  0  0  0  0  0  0  0  0
  151.6250  143.8388  158.1760 C   0  0  0  0  0  0  0  0  0  0  0  0
  152.0609  143.6406  159.5462 N   0  0  0  0  0  0  0  0  0  0  0  0
  152.8456  142.6276  160.0569 C   0  0  0  0  0  0  0  0  0  0  0  0
  152.9963  142.8645  161.3931 C   0  0  0  0  0  0  0  0  0  0  0  0
  152.2587  144.0620  161.6094 C   0  0  0  0  0  0  0  0  0  0  0  0
  151.6998  144.5245  160.5026 N   0  0  0  0  0  0  0  0  0  0  0  0
  151.6016  139.7512  155.5313 C   0  0  0  0  0  0  0  0  0  0  0  0
  150.9268  138.4661  155.0211 C   0  0  0  0  0  0  0  0  0  0  0  0
  153.2738  136.1397  157.8175 H   0  0  0  0  0  0  0  0  0  0  0  0
  152.5470  137.7244  158.1349 H   0  0  0  0  0  0  0  0  0  0  0  0
  153.2681  137.3697  156.5420 H   0  0  0  0  0  0  0  0  0  0  0  0
  148.4919  138.7581  156.3456 H   0  0  0  0  0  0  0  0  0  0  0  0
  148.9899  137.8988  157.7807 H   0  0  0  0  0  0  0  0  0  0  0  0
  149.2823  140.3775  158.0200 H   0  0  0  0  0  0  0  0  0  0  0  0
  150.7986  139.5374  158.1978 H   0  0  0  0  0  0  0  0  0  0  0  0
  149.8053  140.9426  155.6786 H   0  0  0  0  0  0  0  0  0  0  0  0
  152.2503  141.9378  156.6160 H   0  0  0  0  0  0  0  0  0  0  0  0
  152.4960  143.9268  157.5245 H   0  0  0  0  0  0  0  0  0  0  0  0
  151.0811  144.7824  158.1134 H   0  0  0  0  0  0  0  0  0  0  0  0
  153.2272  141.8328  159.4328 H   0  0  0  0  0  0  0  0  0  0  0  0
  153.5496  142.2730  162.1070 H   0  0  0  0  0  0  0  0  0  0  0  0
  152.1143  144.6049  162.5318 H   0  0  0  0  0  0  0  0  0  0  0  0
  151.9925  140.3117  154.6814 H   0  0  0  0  0  0  0  0  0  0  0  0
  152.4628  139.4995  156.1494 H   0  0  0  0  0  0  0  0  0  0  0  0
  151.6492  137.8411  154.4970 H   0  0  0  0  0  0  0  0  0  0  0  0
  150.1584  138.7245  154.2917 H   0  0  0  0  0  0  0  0  0  0  0  0
  1  2  1  0  0  0  0
  1 20  1  0  0  0  0
  1 21  1  0  0  0  0
  1 22  1  0  0  0  0
  2  3  2  0  0  0  0
  2  4  2  0  0  0  0
  2  5  1  0  0  0  0
  5 19  1  0  0  0  0
  5  6  1  0  0  0  0
  6  7  1  0  0  0  0
  6 23  1  0  0  0  0
  6 24  1  0  0  0  0
  7  8  1  0  0  0  0
  7 25  1  0  0  0  0
  7 26  1  0  0  0  0
  8  9  1  0  0  0  0
  8 18  1  0  0  0  0
  8 27  1  0  0  0  0
  9 10  1  0  0  0  0
  9 28  1  0  0  0  0
 10 11  2  0  0  0  0
 10 12  1  0  0  0  0
 12 13  1  0  0  0  0
 12 29  1  0  0  0  0
 12 30  1  0  0  0  0
 13 17  1  0  0  0  0
 13 14  1  0  0  0  0
 14 15  2  0  0  0  0
 14 31  1  0  0  0  0
 15 16  1  0  0  0  0
 15 32  1  0  0  0  0
 16 17  2  0  0  0  0
 16 33  1  0  0  0  0
 18 19  1  0  0  0  0
 18 34  1  0  0  0  0
 18 35  1  0  0  0  0
 19 36  1  0  0  0  0
 19 37  1  0  0  0  0
M  END
> <s_m_source_file>
AV-unprocessed.smi

> <i_m_source_file_index>
1267

> <i_lp_mmshare_version>
43012

> <i_f3d_flags>
0

> <s_epik_input>
W0NIM11TKD1PKSg9TylOMVtDSDJdW0NIMl1bQ0hdKFtDSDJdW0NIMl0xKVtOSF1DKD1PKVtDSDJdbjJbY0hdW2NIXVtjSF1uMg==

> <s_epik_cmdline>
J2VwaWtfcHl0aG9uJywgJy1waCcsICc3LjAnLCAnLXRuJywgJzgnLCAnLW1hJywgJzIwMCcsICctbWV0YWxfYmluZGluZycsICctaW1hZScsICc8aW5maWxlLm1hZT4nLCAnLW9tYWUnLCAnPG91dGZpbGUubWFlPic=

> <r_lp_tautomer_probability>
1

> <r_epik_Ionization_Penalty>
1.58465e-05

> <r_epik_Ionization_Penalty_Charging>
0

> <r_epik_Ionization_Penalty_Neutral>
1.58465e-05

> <r_epik_State_Penalty>
-0

> <r_epik_Charging_Adjusted_Penalty>
0

> <i_epik_Tot_Q>
0

> <i_epik_Tot_abs_Q>
0

> <r_epik_Metal_State_Penalty>
-0

> <b_epik_Metal_Only>
0

> <s_lp_Force_Field>
OPLS_2005

> <r_lp_Energy>
-1.31745

> <b_lp_Chiralities_Consistent>
1

> <s_lp_Variant>
AV-unprocessed.smi:1267-1

> <Gold.Version>
5.8.1

> <Gold.Id.Protein>
6NUR|6NUR_protein|mol2

> <Gold.PLP.Fitness>
39.9222

> <Gold.PLP.PLP>
-34.9388

> <Gold.PLP.part.hbond>
-2.0000

> <Gold.PLP.part.metal>
0.0000

> <Gold.PLP.part.buried>
-4.8740

> <Gold.PLP.part.nonpolar>
-28.6187

> <Gold.PLP.part.repulsive>
0.4153

> <Gold.PLP.ligand.clash>
0.0000

> <Gold.PLP.ligand.torsion>
1.2829

> <Gold.PLP.Chemscore.Hbond>
1.8320

> <Gold.PLP.Chemscore.CHOScore>
0.0000

> <Gold.PLP.Chemscore.Metal>
0.0000

> <Gold.Chemscore.Hbonds>
donor molecule, donor type, donor heavy atom, donor atom, acceptor molecule, acceptor atom, score
      P1  H  6896  6907       L1     4  0.74
      P1  H 10752 10763       L1     3  1.00

> <Gold.PLP.Chemscore.Internal.Correction>
2.0533

> <Gold.Rescore>
     Score         DG    S(hbond)    S(metal)    S(lipo)     H(rot)  DE(clash)    DE(int)     intcor
     13.92     -16.48       1.79        0.00      76.38       1.53       0.01       2.55       ----

> <Gold.Chemscore.Fitness>
13.9160

> <Gold.Chemscore.DG>
-16.4799

> <Gold.Chemscore.ZeroCoef>
-5.4800

> <Gold.Chemscore.Hbond>
1.7924

> <Gold.Chemscore.Metal>
0.0000

> <Gold.Chemscore.Lipo>
76.3764

> <Gold.Chemscore.Internal_Hbond>
0.0000

> <Gold.Chemscore.DEClash>
0.0149

> <Gold.Chemscore.DEInternal>
2.5490

> <Gold.Chemscore.Rot>
1.5324

> <Gold.Chemscore.Internal.Correction>
   9.000000E+99

> <Gold.Chemscore.Hbonds>
donor molecule, donor type, donor heavy atom, donor atom, acceptor molecule, acceptor atom, score
      P1  H  6896  6907       L1     4  0.68
      P1  H 10752 10763       L1     3  0.93

> <Gold.Chemscore.Hbond.Weighted>
-5.9867

> <Gold.Chemscore.Metal.Weighted>
-0.0000

> <Gold.Chemscore.Lipo.Weighted>
-8.9360

> <Gold.Chemscore.Internal_Hbond.Weighted>
0.0000

> <Gold.Chemscore.DEClash.Weighted>
0.0149

> <Gold.Chemscore.DEInternal.Weighted>
2.5490

> <Gold.Chemscore.Rot.Weighted>
3.9229

> <Gold.Chemscore.Internal.Correction.Weighted>
   9.000000E+99

> <Gold.Protein.RotatedTorsions>
[ 6907 6896 6895 6894 ] final  -60.50 input  -60.11 | X-H torsion
[ 7974 7965 7964 7962 ] final   11.75 input  175.53 | X-H torsion
[ 8008 7997 7996 7995 ] final  167.94 input   59.86 | X-H torsion
[ 10167 10162 10161 10158 ] final  -60.35 input  -65.29 | X-H torsion
[ 10718 10713 10712 10709 ] final -177.99 input   66.30 | X-H torsion
[ 10763 10752 10751 10750 ] final   72.89 input  -60.55 | X-H torsion
[ 11005 11000 10999 10996 ] final -130.01 input  -57.11 | X-H torsion

> <Gold.Protein.ActiveResidues>
 VAL166  LYS551  ARG553  GLY616  TRP617  ASP618  TYR619  PRO620  LYS621  CYS622 
 ASP623  PHE694  ASN695  SER759  ASP760  ASP761  ALA762  ILE779  LEU786  VAL792 
 PHE793  MET794  SER795  GLU796  ALA797  LYS798  CYS799  TRP800  GLU811  SER814 

> <Gold.Protein.RotatedAtoms>
  150.7851  134.6828  159.6453 H   0  0  0  0  0  0  0  0  0  0  0  0  # atno 6907 bound_to 6896
  152.3946  134.6384  160.0103 H   0  0  0  0  0  0  0  0  0  0  0  0  # atno 6908 bound_to 6896
  151.6673  133.3278  159.3224 H   0  0  0  0  0  0  0  0  0  0  0  0  # atno 6909 bound_to 6896
  146.2365  139.9439  142.8479 H   0  0  0  0  0  0  0  0  0  0  0  0  # atno 7974 bound_to 7965
  156.1590  140.1603  156.8644 H   0  0  0  0  0  0  0  0  0  0  0  0  # atno 8008 bound_to 7997
  154.5142  140.0793  156.8085 H   0  0  0  0  0  0  0  0  0  0  0  0  # atno 8009 bound_to 7997
  155.3745  140.3402  155.4246 H   0  0  0  0  0  0  0  0  0  0  0  0  # atno 8010 bound_to 7997
  140.6077  143.2378  151.5783 H   0  0  0  0  0  0  0  0  0  0  0  0  # atno 10167 bound_to 10162
  156.8377  130.9675  151.3102 H   0  0  0  0  0  0  0  0  0  0  0  0  # atno 10718 bound_to 10713
  153.0487  135.5083  154.7812 H   0  0  0  0  0  0  0  0  0  0  0  0  # atno 10763 bound_to 10752
  154.6692  135.2950  154.9767 H   0  0  0  0  0  0  0  0  0  0  0  0  # atno 10764 bound_to 10752
  154.0591  135.6693  153.4862 H   0  0  0  0  0  0  0  0  0  0  0  0  # atno 10765 bound_to 10752
  140.9383  134.1228  157.4174 H   0  0  0  0  0  0  0  0  0  0  0  0  # atno 11005 bound_to 11000
  145.1926  140.9818  143.4202 LP  0  0  0  0  0  0  0  0  0  0  0  0  # atno 17320 bound_to 7965
  144.9844  139.3751  143.6246 LP  0  0  0  0  0  0  0  0  0  0  0  0  # atno 17321 bound_to 7965
  139.5337  144.2842  152.1205 LP  0  0  0  0  0  0  0  0  0  0  0  0  # atno 17342 bound_to 10162
  140.2035  144.4634  150.6420 LP  0  0  0  0  0  0  0  0  0  0  0  0  # atno 17343 bound_to 10162
  157.6372  130.8776  149.9381 LP  0  0  0  0  0  0  0  0  0  0  0  0  # atno 17370 bound_to 10713
  156.0898  130.3664  150.0417 LP  0  0  0  0  0  0  0  0  0  0  0  0  # atno 17371 bound_to 10713
  139.8813  135.0028  156.6148 LP  0  0  0  0  0  0  0  0  0  0  0  0  # atno 17394 bound_to 11000
  140.7769  133.8692  155.8536 LP  0  0  0  0  0  0  0  0  0  0  0  0  # atno 17395 bound_to 11000

$$$$
