AV-unprocessed.smi:193|AV-procd|sdf|1503|dock10
  -GOLD-   2262019333D 1   1.00000     0.00000
 Structure written by MMmdl.
 62 66  0  0  0  0  0  0  0  0  2 V2000
  151.0029  142.3099  158.6393 C   0  0  0  0  0  0  0  0  0  0  0  0
  150.3277  141.3733  157.6275 C   0  0  1  0  0  0  0  0  0  0  0  0
  148.8552  141.7942  157.4229 C   0  0  0  0  0  0  0  0  0  0  0  0
  148.1415  140.9668  156.4498 N   0  0  0  0  0  0  0  0  0  0  0  0
  147.6492  139.7328  156.7789 C   0  0  0  0  0  0  0  0  0  0  0  0
  146.4731  139.3492  156.2112 N   0  0  0  0  0  0  0  0  0  0  0  0
  145.9375  138.1539  156.4656 C   0  0  0  0  0  0  0  0  0  0  0  0
  146.4037  137.1861  157.2517 N   0  0  0  0  0  0  0  0  0  0  0  0
  147.5779  137.5518  157.8375 C   0  0  0  0  0  0  0  0  0  0  0  0
  148.2656  138.7903  157.6634 C   0  0  0  0  0  0  0  0  0  0  0  0
  149.4290  138.7715  158.4277 N   0  0  0  0  0  0  0  0  0  0  0  0
  149.4266  137.6067  159.0130 C   0  0  0  0  0  0  0  0  0  0  0  0
  148.3460  136.8109  158.7182 N   0  0  0  0  0  0  0  0  0  0  0  0
  148.0846  135.4730  159.2277 C   0  0  0  0  0  0  0  0  0  0  0  0
  147.2767  135.4528  160.5492 C   0  0  0  0  0  0  0  0  0  0  0  0
  145.9801  135.9512  160.2666 O   0  0  0  0  0  0  0  0  0  0  0  0
  147.1361  134.0325  161.1402 C   0  0  0  0  0  0  0  0  0  0  0  0
  146.5151  134.0494  162.5483 C   0  0  0  0  0  0  0  0  0  0  0  0
  147.2667  134.9002  163.4054 O   0  0  0  0  0  0  0  0  0  0  0  0
  147.2629  136.2563  162.9763 C   0  0  0  0  0  0  0  0  0  0  0  0
  147.9340  136.3741  161.5964 C   0  0  0  0  0  0  0  0  0  0  0  0
  148.4148  141.2771  155.0420 C   0  0  0  0  0  0  0  0  0  0  0  0
  149.6477  140.5470  154.4624 C   0  0  0  0  0  0  0  0  0  0  0  0
  150.6735  140.1805  155.4728 N   0  3  1  0  0  0  0  0  0  0  0  0
  151.7860  139.4079  154.8752 C   0  0  1  0  0  0  0  0  0  0  0  0
  152.4501  138.4437  155.8332 C   0  0  0  0  0  0  0  0  0  0  0  0
  151.5277  137.9156  154.7569 C   0  0  1  0  0  0  0  0  0  0  0  0
  150.2145  137.2579  155.1432 C   0  0  0  0  0  0  0  0  0  0  0  0
  151.1272  141.3207  156.3087 C   0  0  0  0  0  0  0  0  0  0  0  0
  151.0401  143.3349  158.2684 H   0  0  0  0  0  0  0  0  0  0  0  0
  152.0252  141.9943  158.8489 H   0  0  0  0  0  0  0  0  0  0  0  0
  150.4628  142.3176  159.5867 H   0  0  0  0  0  0  0  0  0  0  0  0
  150.3477  140.3740  158.0636 H   0  0  0  0  0  0  0  0  0  0  0  0
  148.3157  141.8234  158.3679 H   0  0  0  0  0  0  0  0  0  0  0  0
  148.8318  142.8263  157.0713 H   0  0  0  0  0  0  0  0  0  0  0  0
  145.0044  137.9414  155.9648 H   0  0  0  0  0  0  0  0  0  0  0  0
  150.2145  137.2953  159.6839 H   0  0  0  0  0  0  0  0  0  0  0  0
  147.5517  134.9154  158.4562 H   0  0  0  0  0  0  0  0  0  0  0  0
  149.0414  134.9652  159.3593 H   0  0  0  0  0  0  0  0  0  0  0  0
  146.0611  136.6703  159.6586 H   0  0  0  0  0  0  0  0  0  0  0  0
  146.5400  133.3951  160.4860 H   0  0  0  0  0  0  0  0  0  0  0  0
  148.1218  133.5698  161.2031 H   0  0  0  0  0  0  0  0  0  0  0  0
  145.4745  134.3755  162.5155 H   0  0  0  0  0  0  0  0  0  0  0  0
  146.5157  133.0427  162.9666 H   0  0  0  0  0  0  0  0  0  0  0  0
  146.2420  136.6405  162.9527 H   0  0  0  0  0  0  0  0  0  0  0  0
  147.8071  136.8556  163.7066 H   0  0  0  0  0  0  0  0  0  0  0  0
  148.9862  136.1061  161.7022 H   0  0  0  0  0  0  0  0  0  0  0  0
  147.9167  137.4115  161.2595 H   0  0  0  0  0  0  0  0  0  0  0  0
  147.5356  141.0958  154.4227 H   0  0  0  0  0  0  0  0  0  0  0  0
  148.5876  142.3511  154.9648 H   0  0  0  0  0  0  0  0  0  0  0  0
  149.3106  139.6269  153.9845 H   0  0  0  0  0  0  0  0  0  0  0  0
  150.0966  141.1506  153.6724 H   0  0  0  0  0  0  0  0  0  0  0  0
  152.3875  139.9320  154.1346 H   0  0  0  0  0  0  0  0  0  0  0  0
  153.5153  138.2627  155.7062 H   0  0  0  0  0  0  0  0  0  0  0  0
  152.0961  138.4151  156.8624 H   0  0  0  0  0  0  0  0  0  0  0  0
  152.0133  137.4305  153.9124 H   0  0  0  0  0  0  0  0  0  0  0  0
  149.8088  137.6850  156.0606 H   0  0  0  0  0  0  0  0  0  0  0  0
  150.3682  136.1912  155.3064 H   0  0  0  0  0  0  0  0  0  0  0  0
  149.4817  137.3810  154.3457 H   0  0  0  0  0  0  0  0  0  0  0  0
  151.0630  142.2620  155.7607 H   0  0  0  0  0  0  0  0  0  0  0  0
  152.1827  141.1907  156.5522 H   0  0  0  0  0  0  0  0  0  0  0  0
  150.2225  139.5421  156.1124 H   0  0  0  0  0  0  0  0  0  0  0  0
  1  2  1  0  0  0  0
  1 30  1  0  0  0  0
  1 31  1  0  0  0  0
  1 32  1  0  0  0  0
  2 29  1  0  0  0  0
  2  3  1  0  0  0  0
  2 33  1  0  0  0  0
  3  4  1  0  0  0  0
  3 34  1  0  0  0  0
  3 35  1  0  0  0  0
  4  5  1  0  0  0  0
  4 22  1  0  0  0  0
  5 10  1  0  0  0  0
  5  6  2  0  0  0  0
  6  7  1  0  0  0  0
  7  8  2  0  0  0  0
  7 36  1  0  0  0  0
  8  9  1  0  0  0  0
  9 13  1  0  0  0  0
  9 10  2  0  0  0  0
 10 11  1  0  0  0  0
 11 12  2  0  0  0  0
 12 13  1  0  0  0  0
 12 37  1  0  0  0  0
 13 14  1  0  0  0  0
 14 15  1  0  0  0  0
 14 38  1  0  0  0  0
 14 39  1  0  0  0  0
 15 21  1  0  0  0  0
 15 16  1  0  0  0  0
 15 17  1  0  0  0  0
 16 40  1  0  0  0  0
 17 18  1  0  0  0  0
 17 41  1  0  0  0  0
 17 42  1  0  0  0  0
 18 19  1  0  0  0  0
 18 43  1  0  0  0  0
 18 44  1  0  0  0  0
 19 20  1  0  0  0  0
 20 21  1  0  0  0  0
 20 45  1  0  0  0  0
 20 46  1  0  0  0  0
 21 47  1  0  0  0  0
 21 48  1  0  0  0  0
 22 23  1  0  0  0  0
 22 49  1  0  0  0  0
 22 50  1  0  0  0  0
 23 24  1  0  0  0  0
 23 51  1  0  0  0  0
 23 52  1  0  0  0  0
 24 25  1  0  0  0  0
 24 29  1  0  0  0  0
 24 62  1  0  0  0  0
 25 27  1  0  0  0  0
 25 26  1  0  0  0  0
 25 53  1  0  0  0  0
 26 27  1  0  0  0  0
 26 54  1  0  0  0  0
 26 55  1  0  0  0  0
 27 28  1  0  0  0  0
 27 56  1  0  0  0  0
 28 57  1  0  0  0  0
 28 58  1  0  0  0  0
 28 59  1  0  0  0  0
 29 60  1  0  0  0  0
 29 61  1  0  0  0  0
M  CHG  1  24   1
M  END
> <s_m_source_file>
AV-unprocessed.smi

> <i_m_source_file_index>
193

> <i_lp_mmshare_version>
43012

> <i_f3d_flags>
0

> <s_epik_input>
W0NIM11bQ0BASF0xW0NIMl1bQ0BIXTFOKFtDSDJdMilbQ0gyXVtDSDJdTihbQ0gyXVtDQEhdMltDSDNdKWMobltjSF1uMyljKGMzNCluW2NIXW40W0NIMl1DNShbT0hdKVtDSDJdW0NIMl1PW0NIMl1bQ0gyXTU=

> <s_epik_cmdline>
J2VwaWtfcHl0aG9uJywgJy1waCcsICc3LjAnLCAnLXRuJywgJzgnLCAnLW1hJywgJzIwMCcsICctbWV0YWxfYmluZGluZycsICctaW1hZScsICc8aW5maWxlLm1hZT4nLCAnLW9tYWUnLCAnPG91dGZpbGUubWFlPic=

> <r_lp_tautomer_probability>
1

> <r_epik_Ionization_Penalty>
0.0540825

> <r_epik_Ionization_Penalty_Charging>
0.0538476

> <r_epik_Ionization_Penalty_Neutral>
0.000234891

> <r_epik_State_Penalty>
0.0200719

> <r_epik_Charging_Adjusted_Penalty>
0.0739194

> <i_epik_Tot_Q>
1

> <i_epik_Tot_abs_Q>
1

> <r_epik_Metal_State_Penalty>
0.0199414

> <b_epik_Metal_Only>
0

> <s_lp_Force_Field>
OPLS_2005

> <r_lp_Energy>
52.5482

> <b_lp_Chiralities_Consistent>
1

> <s_lp_Variant>
AV-unprocessed.smi:193-8

> <Gold.Version>
5.8.1

> <Gold.Id.Protein>
6NUR|6NUR_protein|mol2

> <Gold.PLP.Fitness>
42.6839

> <Gold.PLP.PLP>
-44.9695

> <Gold.PLP.part.hbond>
-1.0822

> <Gold.PLP.part.metal>
0.0000

> <Gold.PLP.part.buried>
-4.0611

> <Gold.PLP.part.nonpolar>
-38.7119

> <Gold.PLP.part.repulsive>
0.1480

> <Gold.PLP.ligand.clash>
0.0000

> <Gold.PLP.ligand.torsion>
1.8407

> <Gold.PLP.Chemscore.Hbond>
0.0000

> <Gold.PLP.Chemscore.CHOScore>
0.0000

> <Gold.PLP.Chemscore.Metal>
0.0000

> <Gold.PLP.Chemscore.Internal.Correction>
1.3958

> <Gold.Rescore>
     Score         DG    S(hbond)    S(metal)    S(lipo)     H(rot)  DE(clash)    DE(int)     intcor
      9.79     -13.84       0.01        0.00     113.52       1.93       0.98       3.07       ----

> <Gold.Chemscore.Fitness>
9.7943

> <Gold.Chemscore.DG>
-13.8434

> <Gold.Chemscore.ZeroCoef>
-5.4800

> <Gold.Chemscore.Hbond>
0.0061

> <Gold.Chemscore.Metal>
0.0000

> <Gold.Chemscore.Lipo>
113.5151

> <Gold.Chemscore.Internal_Hbond>
0.0000

> <Gold.Chemscore.DEClash>
0.9758

> <Gold.Chemscore.DEInternal>
3.0733

> <Gold.Chemscore.Rot>
1.9290

> <Gold.Chemscore.Internal.Correction>
   9.000000E+99

> <Gold.Chemscore.Hbond.Weighted>
-0.0205

> <Gold.Chemscore.Metal.Weighted>
-0.0000

> <Gold.Chemscore.Lipo.Weighted>
-13.2813

> <Gold.Chemscore.Internal_Hbond.Weighted>
0.0000

> <Gold.Chemscore.DEClash.Weighted>
0.9758

> <Gold.Chemscore.DEInternal.Weighted>
3.0733

> <Gold.Chemscore.Rot.Weighted>
4.9383

> <Gold.Chemscore.Internal.Correction.Weighted>
   9.000000E+99

> <Gold.Protein.RotatedTorsions>
[ 6907 6896 6895 6894 ] final  158.39 input  -60.11 | X-H torsion
[ 7974 7965 7964 7962 ] final   52.58 input  175.53 | X-H torsion
[ 8008 7997 7996 7995 ] final   76.37 input   59.86 | X-H torsion
[ 10167 10162 10161 10158 ] final   -7.96 input  -65.29 | X-H torsion
[ 10718 10713 10712 10709 ] final  148.55 input   66.30 | X-H torsion
[ 10763 10752 10751 10750 ] final   61.56 input  -60.55 | X-H torsion
[ 11005 11000 10999 10996 ] final   33.80 input  -57.11 | X-H torsion

> <Gold.Protein.ActiveResidues>
 VAL166  LYS551  ARG553  GLY616  TRP617  ASP618  TYR619  PRO620  LYS621  CYS622 
 ASP623  PHE694  ASN695  SER759  ASP760  ASP761  ALA762  ILE779  LEU786  VAL792 
 PHE793  MET794  SER795  GLU796  ALA797  LYS798  CYS799  TRP800  GLU811  SER814 

> <Gold.Protein.RotatedAtoms>
  152.0011  133.3825  159.4181 H   0  0  0  0  0  0  0  0  0  0  0  0  # atno 6907 bound_to 6896
  150.6910  134.3833  159.5053 H   0  0  0  0  0  0  0  0  0  0  0  0  # atno 6908 bound_to 6896
  152.1580  134.8934  160.0594 H   0  0  0  0  0  0  0  0  0  0  0  0  # atno 6909 bound_to 6896
  145.9799  139.4231  143.0138 H   0  0  0  0  0  0  0  0  0  0  0  0  # atno 7974 bound_to 7965
  155.8264  140.3468  155.5545 H   0  0  0  0  0  0  0  0  0  0  0  0  # atno 8008 bound_to 7997
  155.8288  140.0924  157.1825 H   0  0  0  0  0  0  0  0  0  0  0  0  # atno 8009 bound_to 7997
  154.4004  140.1416  156.3576 H   0  0  0  0  0  0  0  0  0  0  0  0  # atno 8010 bound_to 7997
  140.7044  143.6023  150.8786 H   0  0  0  0  0  0  0  0  0  0  0  0  # atno 10167 bound_to 10162
  157.3072  131.0881  151.1344 H   0  0  0  0  0  0  0  0  0  0  0  0  # atno 10718 bound_to 10713
  152.9954  135.5496  154.6053 H   0  0  0  0  0  0  0  0  0  0  0  0  # atno 10763 bound_to 10752
  154.5385  135.2818  155.1119 H   0  0  0  0  0  0  0  0  0  0  0  0  # atno 10764 bound_to 10752
  154.2405  135.6417  153.5258 H   0  0  0  0  0  0  0  0  0  0  0  0  # atno 10765 bound_to 10752
  140.2594  134.3210  155.7863 H   0  0  0  0  0  0  0  0  0  0  0  0  # atno 11005 bound_to 11000
  145.7785  140.9866  143.1112 LP  0  0  0  0  0  0  0  0  0  0  0  0  # atno 17320 bound_to 7965
  144.6858  139.9535  143.7478 LP  0  0  0  0  0  0  0  0  0  0  0  0  # atno 17321 bound_to 7965
  139.9747  143.6018  152.2962 LP  0  0  0  0  0  0  0  0  0  0  0  0  # atno 17342 bound_to 10162
  139.6617  144.7662  151.1950 LP  0  0  0  0  0  0  0  0  0  0  0  0  # atno 17343 bound_to 10162
  157.2681  130.6691  149.6006 LP  0  0  0  0  0  0  0  0  0  0  0  0  # atno 17370 bound_to 10713
  155.9675  130.4488  150.5632 LP  0  0  0  0  0  0  0  0  0  0  0  0  # atno 17371 bound_to 10713
  141.2192  133.7400  156.9162 LP  0  0  0  0  0  0  0  0  0  0  0  0  # atno 17394 bound_to 11000
  140.1480  134.9249  157.2554 LP  0  0  0  0  0  0  0  0  0  0  0  0  # atno 17395 bound_to 11000

$$$$
