#       Name:                AV-unprocessed.smi:2224
#       Creating user name   scv26
#       Creation time:       Fri Mar 27 12:20:30 2020


#       File generated by GOLD software.
#

@<TRIPOS>MOLECULE
AV-unprocessed.smi:2224
    49    51     1
SMALL
NO_CHARGES


@<TRIPOS>ATOM
      1 ****        -5.1396   3.3006   0.4470 C.3            1 S1                 0.0000
      2 ****        -4.4836   1.9824   0.0931 C.ar           1 S1                 0.0000
      3 ****        -5.2596   0.8430  -0.1929 C.ar           1 S1                 0.0000
      4 ****        -4.5898  -0.3534  -0.5156 C.ar           1 S1                 0.0000
      5 ****        -5.3622  -1.6171  -0.8313 C.3            1 S1                 0.0000
      6 ****        -3.2441  -0.4553  -0.5608 N.ar           1 S1                 0.0000
      7 ****        -2.4862   0.6357  -0.2878 C.ar           1 S1                 0.0000
      8 ****        -1.0660   0.6330  -0.3066 N.am           1 S1                 0.0000
      9 ****        -0.2409  -0.3945  -0.5746 C.2            1 S1                 0.0000
     10 ****        -0.5953  -1.5350  -0.8750 O.2            1 S1                 0.0000
     11 ****         1.0436  -0.0274  -0.4679 N.am           1 S1                 0.0000
     12 ****         2.1834  -0.9241  -0.6893 C.3            1 S1                 0.0000
     13 ****         3.5179  -0.1773  -0.7650 C.3            1 S1                 0.0000
     14 ****         3.9407   1.2296  -0.9885 C.3            1 S1                 0.0000
     15 ****         5.0589   1.2691   0.0887 C.3            1 S1                 0.0000
     16 ****         4.9125   0.0502   0.8620 O.3            1 S1                 0.0000
     17 ****         3.5385  -0.2624   0.7470 C.3            1 S1                 0.0000
     18 ****         2.7809  -1.6019   0.6079 C.3            1 S1                 0.0000
     19 ****         1.8052  -1.9240   1.7454 C.3            1 S1                 0.0000
     20 ****         3.6293  -2.8715   0.4124 C.3            1 S1                 0.0000
     21 ****        -3.0789   1.8750   0.0436 C.ar           1 S1                 0.0000
     22 ****        -6.2227   3.1976   0.5199 H              1 S1                 0.0000
     23 ****        -4.9183   4.0486  -0.3146 H              1 S1                 0.0000
     24 ****        -4.7670   3.6636   1.4051 H              1 S1                 0.0000
     25 ****        -6.3388   0.8846  -0.1656 H              1 S1                 0.0000
     26 ****        -6.4246  -1.4082  -0.9604 H              1 S1                 0.0000
     27 ****        -5.2516  -2.3385  -0.0214 H              1 S1                 0.0000
     28 ****        -4.9924  -2.0722  -1.7507 H              1 S1                 0.0000
     29 ****        -0.6279   1.5132  -0.0789 H              1 S1                 0.0000
     30 ****         1.2526   0.9280  -0.2185 H              1 S1                 0.0000
     31 ****         2.0429  -1.6220  -1.5166 H              1 S1                 0.0000
     32 ****         4.2516  -0.8369  -1.2348 H              1 S1                 0.0000
     33 ****         4.3203   1.4047  -1.9955 H              1 S1                 0.0000
     34 ****         3.1417   1.9410  -0.7760 H              1 S1                 0.0000
     35 ****         6.0536   1.3004  -0.3568 H              1 S1                 0.0000
     36 ****         4.9485   2.1434   0.7315 H              1 S1                 0.0000
     37 ****         2.9326   0.5013   1.2455 H              1 S1                 0.0000
     38 ****         2.3271  -2.2921   2.6291 H              1 S1                 0.0000
     39 ****         1.0837  -2.6853   1.4475 H              1 S1                 0.0000
     40 ****         1.2384  -1.0473   2.0592 H              1 S1                 0.0000
     41 ****         4.2577  -3.0628   1.2826 H              1 S1                 0.0000
     42 ****         4.2921  -2.8240  -0.4498 H              1 S1                 0.0000
     43 ****         2.9994  -3.7499   0.2676 H              1 S1                 0.0000
     44 ****        -2.4642   2.7371   0.2594 H              1 S1                 0.0000
     45 ****        -2.8109  -1.3261  -0.7931 LP             1 S1                 0.0000
     46 ****        -1.5686  -1.7565  -0.9354 LP             1 S1                 0.0000
     47 ****         0.0902  -2.2396  -1.0585 LP             1 S1                 0.0000
     48 ****         5.1639   0.2029   1.8178 LP             1 S1                 0.0000
     49 ****         5.4771  -0.6823   0.4818 LP             1 S1                 0.0000
@<TRIPOS>BOND
    1    1    2 1     
    2    1   22 1     
    3    1   23 1     
    4    1   24 1     
    5    2   21 ar    
    6    2    3 ar    
    7    3    4 ar    
    8    3   25 1     
    9    4    5 1     
   10    4    6 ar    
   11    5   26 1     
   12    5   27 1     
   13    5   28 1     
   14    6    7 ar    
   15    7    8 1     
   16    7   21 ar    
   17    8    9 am    
   18    8   29 1     
   19    9   10 2     
   20    9   11 am    
   21   11   12 1     
   22   11   30 1     
   23   12   18 1     
   24   12   13 1     
   25   12   31 1     
   26   13   17 1     
   27   13   14 1     
   28   13   32 1     
   29   14   15 1     
   30   14   33 1     
   31   14   34 1     
   32   15   16 1     
   33   15   35 1     
   34   15   36 1     
   35   16   17 1     
   36   17   18 1     
   37   17   37 1     
   38   18   19 1     
   39   18   20 1     
   40   19   38 1     
   41   19   39 1     
   42   19   40 1     
   43   20   41 1     
   44   20   42 1     
   45   20   43 1     
   46   21   44 1     
   47    6   45 1     
   48   10   46 1     
   49   10   47 1     
   50   16   48 1     
   51   16   49 1     
@<TRIPOS>SUBSTRUCTURE
      1 S1             1
@<TRIPOS>SET
LONE_PAIRS      STATIC     ATOMS    <user>   **** ""
5 45 46 47 48 49
DONOR_HYDROGENS      STATIC     ATOMS    <user>   **** ""
2 29 30
ATOM$BLUE        STATIC     ATOMS    COLORGROUP SYSTEM
5 45 46 47 48 49
ATOM$RED        STATIC     ATOMS    COLORGROUP SYSTEM
2 29 30
