AV-unprocessed.smi:1047|AV-procd|sdf|4581|dock4
  -GOLD-   22720 3 43D 1   1.00000     0.00000
 Structure written by MMmdl.
 58 60  0  0  0  0  0  0  0  0  4 V2000
  148.8039  131.1781  153.5833 C   0  0  0  0  0  0  0  0  0  0  0  0
  149.0651  132.6881  153.6734 C   0  0  0  0  0  0  0  0  0  0  0  0
  149.9092  133.0485  154.8437 N   0  3  2  0  0  0  0  0  0  0  0  0
  149.2722  132.7480  156.1488 C   0  0  0  0  0  0  0  0  0  0  0  0
  148.2249  133.8147  156.5146 C   0  0  0  0  0  0  0  0  0  0  0  0
  148.8399  135.0979  156.5223 O   0  0  0  0  0  0  0  0  0  0  0  0
  149.3558  135.4656  155.2465 C   0  0  1  0  0  0  0  0  0  0  0  0
  149.9362  136.8843  155.3588 C   0  0  0  0  0  0  0  0  0  0  0  0
  150.5281  137.3277  154.0802 N   0  3  0  0  0  0  0  0  0  0  0  0
  150.9975  138.7281  154.0869 C   0  0  0  0  0  0  0  0  0  0  0  0
  152.1939  138.9130  155.0395 C   0  0  2  0  0  0  0  0  0  0  0  0
  152.9203  137.7024  155.1001 O   0  0  0  0  0  0  0  0  0  0  0  0
  151.8009  139.2911  156.4820 C   0  0  0  0  0  0  0  0  0  0  0  0
  151.2631  140.6542  156.5972 N   0  0  0  0  0  0  0  0  0  0  0  0
  150.4482  141.3369  155.7470 C   0  0  0  0  0  0  0  0  0  0  0  0
  150.2352  142.5704  156.2825 N   0  3  0  0  0  0  0  0  0  0  0  0
  150.9280  142.6806  157.4896 C   0  0  0  0  0  0  0  0  0  0  0  0
  151.0200  143.7336  158.3917 C   0  0  0  0  0  0  0  0  0  0  0  0
  151.8146  143.5301  159.5421 C   0  0  0  0  0  0  0  0  0  0  0  0
  151.9375  144.6623  160.5481 C   0  0  0  0  0  0  0  0  0  0  0  0
  152.4867  142.2990  159.7565 C   0  0  0  0  0  0  0  0  0  0  0  0
  153.3383  142.0908  160.9974 C   0  0  0  0  0  0  0  0  0  0  0  0
  152.3818  141.2404  158.8259 C   0  0  0  0  0  0  0  0  0  0  0  0
  151.5935  141.4563  157.6972 C   0  0  0  0  0  0  0  0  0  0  0  0
  150.4342  134.4387  154.8317 C   0  0  0  0  0  0  0  0  0  0  0  0
  148.1110  130.9581  152.7709 H   0  0  0  0  0  0  0  0  0  0  0  0
  148.3609  130.7992  154.5049 H   0  0  0  0  0  0  0  0  0  0  0  0
  149.7153  130.6131  153.3904 H   0  0  0  0  0  0  0  0  0  0  0  0
  149.5041  133.0549  152.7458 H   0  0  0  0  0  0  0  0  0  0  0  0
  148.0975  133.1826  153.7680 H   0  0  0  0  0  0  0  0  0  0  0  0
  148.8275  131.7520  156.1428 H   0  0  0  0  0  0  0  0  0  0  0  0
  150.0494  132.7302  156.9139 H   0  0  0  0  0  0  0  0  0  0  0  0
  147.3838  133.8009  155.8198 H   0  0  0  0  0  0  0  0  0  0  0  0
  147.8190  133.6140  157.5061 H   0  0  0  0  0  0  0  0  0  0  0  0
  148.5473  135.4754  154.5139 H   0  0  0  0  0  0  0  0  0  0  0  0
  149.1621  137.5876  155.6691 H   0  0  0  0  0  0  0  0  0  0  0  0
  150.7131  136.9034  156.1244 H   0  0  0  0  0  0  0  0  0  0  0  0
  151.3153  136.7335  153.8607 H   0  0  0  0  0  0  0  0  0  0  0  0
  151.2842  138.9875  153.0675 H   0  0  0  0  0  0  0  0  0  0  0  0
  150.1790  139.3920  154.3694 H   0  0  0  0  0  0  0  0  0  0  0  0
  152.8562  139.6828  154.6405 H   0  0  0  0  0  0  0  0  0  0  0  0
  153.4156  137.6829  155.9052 H   0  0  0  0  0  0  0  0  0  0  0  0
  151.0842  138.5825  156.8971 H   0  0  0  0  0  0  0  0  0  0  0  0
  152.6790  139.2447  157.1281 H   0  0  0  0  0  0  0  0  0  0  0  0
  150.0453  140.9688  154.8141 H   0  0  0  0  0  0  0  0  0  0  0  0
  150.5069  144.6691  158.2212 H   0  0  0  0  0  0  0  0  0  0  0  0
  152.9743  144.9900  160.6287 H   0  0  0  0  0  0  0  0  0  0  0  0
  151.5976  144.3410  161.5332 H   0  0  0  0  0  0  0  0  0  0  0  0
  151.3374  145.5241  160.2541 H   0  0  0  0  0  0  0  0  0  0  0  0
  153.7983  141.1022  161.0057 H   0  0  0  0  0  0  0  0  0  0  0  0
  152.7310  142.1822  161.8983 H   0  0  0  0  0  0  0  0  0  0  0  0
  154.1382  142.8300  161.0420 H   0  0  0  0  0  0  0  0  0  0  0  0
  152.8958  140.3059  158.9936 H   0  0  0  0  0  0  0  0  0  0  0  0
  151.2660  134.4863  155.5362 H   0  0  0  0  0  0  0  0  0  0  0  0
  150.8520  134.6897  153.8576 H   0  0  0  0  0  0  0  0  0  0  0  0
  149.8363  137.2249  153.3512 H   0  0  0  0  0  0  0  0  0  0  0  0
  150.7112  132.4367  154.7835 H   0  0  0  0  0  0  0  0  0  0  0  0
  149.6628  143.2850  155.8507 H   0  0  0  0  0  0  0  0  0  0  0  0
  1  2  1  0  0  0  0
  1 26  1  0  0  0  0
  1 27  1  0  0  0  0
  1 28  1  0  0  0  0
  2  3  1  0  0  0  0
  2 29  1  0  0  0  0
  2 30  1  0  0  0  0
  3 25  1  0  0  0  0
  3  4  1  0  0  0  0
  3 57  1  0  0  0  0
  4  5  1  0  0  0  0
  4 31  1  0  0  0  0
  4 32  1  0  0  0  0
  5  6  1  0  0  0  0
  5 33  1  0  0  0  0
  5 34  1  0  0  0  0
  6  7  1  0  0  0  0
  7  8  1  0  0  0  0
  7 25  1  0  0  0  0
  7 35  1  0  0  0  0
  8  9  1  0  0  0  0
  8 36  1  0  0  0  0
  8 37  1  0  0  0  0
  9 10  1  0  0  0  0
  9 38  1  0  0  0  0
  9 56  1  0  0  0  0
 10 11  1  0  0  0  0
 10 39  1  0  0  0  0
 10 40  1  0  0  0  0
 11 12  1  0  0  0  0
 11 13  1  0  0  0  0
 11 41  1  0  0  0  0
 12 42  1  0  0  0  0
 13 14  1  0  0  0  0
 13 43  1  0  0  0  0
 13 44  1  0  0  0  0
 14 24  1  0  0  0  0
 14 15  1  0  0  0  0
 15 16  2  0  0  0  0
 15 45  1  0  0  0  0
 16 17  1  0  0  0  0
 16 58  1  0  0  0  0
 17 24  2  0  0  0  0
 17 18  1  0  0  0  0
 18 19  2  0  0  0  0
 18 46  1  0  0  0  0
 19 20  1  0  0  0  0
 19 21  1  0  0  0  0
 20 47  1  0  0  0  0
 20 48  1  0  0  0  0
 20 49  1  0  0  0  0
 21 22  1  0  0  0  0
 21 23  2  0  0  0  0
 22 50  1  0  0  0  0
 22 51  1  0  0  0  0
 22 52  1  0  0  0  0
 23 24  1  0  0  0  0
 23 53  1  0  0  0  0
 25 54  1  0  0  0  0
 25 55  1  0  0  0  0
M  CHG  1   3   1
M  CHG  1   9   1
M  CHG  1  16   1
M  END
> <s_m_source_file>
AV-unprocessed.smi

> <i_m_source_file_index>
1047

> <i_lp_mmshare_version>
43012

> <i_f3d_flags>
0

> <s_epik_input>
W0NIM11bQ0gyXU4xW0NIMl1bQ0gyXU9bQ0BIXShbQ0gyXTEpW0NIMl1bTkhdW0NIMl1bQ0BIXShbT0hdKVtDSDJdbihbY0hdbjIpYyhjMjMpW2NIXWMoW0NIM10pYyhbY0hdMylbQ0gzXQ==

> <s_epik_cmdline>
J2VwaWtfcHl0aG9uJywgJy1waCcsICc3LjAnLCAnLXRuJywgJzgnLCAnLW1hJywgJzIwMCcsICctbWV0YWxfYmluZGluZycsICctaW1hZScsICc8aW5maWxlLm1hZT4nLCAnLW9tYWUnLCAnPG91dGZpbGUubWFlPic=

> <r_epik_Ionization_Penalty>
1.6114

> <r_epik_Ionization_Penalty_Charging>
1.61139

> <r_epik_Ionization_Penalty_Neutral>
5.04732e-06

> <r_epik_State_Penalty>
1.63724

> <r_epik_Charging_Adjusted_Penalty>
3.24864

> <i_epik_Tot_Q>
3

> <i_epik_Tot_abs_Q>
3

> <r_epik_Metal_State_Penalty>
5.64594

> <b_epik_Metal_Only>
0

> <s_lp_Force_Field>
OPLS_2005

> <r_lp_Energy>
44.3097

> <b_lp_Chiralities_Consistent>
1

> <s_lp_Variant>
AV-unprocessed.smi:1047-22

> <Gold.Version>
5.8.1

> <Gold.Id.Protein>
6NUR|6NUR_protein|mol2

> <Gold.PLP.Fitness>
63.4172

> <Gold.PLP.PLP>
-51.9573

> <Gold.PLP.part.hbond>
-3.9620

> <Gold.PLP.part.metal>
0.0000

> <Gold.PLP.part.buried>
-7.8030

> <Gold.PLP.part.nonpolar>
-40.8169

> <Gold.PLP.part.repulsive>
0.2006

> <Gold.PLP.ligand.clash>
0.0000

> <Gold.PLP.ligand.torsion>
0.8043

> <Gold.PLP.Chemscore.Hbond>
4.2870

> <Gold.PLP.Chemscore.CHOScore>
0.0000

> <Gold.PLP.Chemscore.Metal>
0.0000

> <Gold.Chemscore.Hbonds>
donor molecule, donor type, donor heavy atom, donor atom, acceptor molecule, acceptor atom, score
      L1  H     9    56       P1  7948  2.00
      L1  H    16    58       P1  8028  2.00
      P1  H 10752 10765       L1    12  0.26

> <Gold.PLP.Chemscore.Internal.Correction>
0.2075

> <Gold.Rescore>
     Score         DG    S(hbond)    S(metal)    S(lipo)     H(rot)  DE(clash)    DE(int)     intcor
     19.05     -19.81       1.79        0.00     132.47       2.78       0.02       0.75       ----

> <Gold.Chemscore.Fitness>
19.0485

> <Gold.Chemscore.DG>
-19.8145

> <Gold.Chemscore.ZeroCoef>
-5.4800

> <Gold.Chemscore.Hbond>
1.7858

> <Gold.Chemscore.Metal>
0.0000

> <Gold.Chemscore.Lipo>
132.4716

> <Gold.Chemscore.Internal_Hbond>
0.0000

> <Gold.Chemscore.DEClash>
0.0152

> <Gold.Chemscore.DEInternal>
0.7508

> <Gold.Chemscore.Rot>
2.7848

> <Gold.Chemscore.Internal.Correction>
   9.000000E+99

> <Gold.Chemscore.Hbonds>
donor molecule, donor type, donor heavy atom, donor atom, acceptor molecule, acceptor atom, score
      L1  H     9    56       P1  7948  0.47
      L1  H    16    58       P1  8028  0.99
      P1  H 10752 10765       L1    12  0.06

> <Gold.Chemscore.Hbond.Weighted>
-5.9644

> <Gold.Chemscore.Metal.Weighted>
-0.0000

> <Gold.Chemscore.Lipo.Weighted>
-15.4992

> <Gold.Chemscore.Internal_Hbond.Weighted>
0.0000

> <Gold.Chemscore.DEClash.Weighted>
0.0152

> <Gold.Chemscore.DEInternal.Weighted>
0.7508

> <Gold.Chemscore.Rot.Weighted>
7.1291

> <Gold.Chemscore.Internal.Correction.Weighted>
   9.000000E+99

> <Gold.Protein.RotatedTorsions>
[ 6907 6896 6895 6894 ] final  156.36 input  -60.11 | X-H torsion
[ 7974 7965 7964 7962 ] final -111.37 input  175.53 | X-H torsion
[ 8008 7997 7996 7995 ] final  -29.38 input   59.86 | X-H torsion
[ 10167 10162 10161 10158 ] final   75.93 input  -65.29 | X-H torsion
[ 10718 10713 10712 10709 ] final  116.26 input   66.30 | X-H torsion
[ 10763 10752 10751 10750 ] final -178.93 input  -60.55 | X-H torsion
[ 11005 11000 10999 10996 ] final   48.54 input  -57.11 | X-H torsion

> <Gold.Protein.ActiveResidues>
 VAL166  LYS551  ARG553  GLY616  TRP617  ASP618  TYR619  PRO620  LYS621  CYS622 
 ASP623  PHE694  ASN695  SER759  ASP760  ASP761  ALA762  ILE779  LEU786  VAL792 
 PHE793  MET794  SER795  GLU796  ALA797  LYS798  CYS799  TRP800  GLU811  SER814 

> <Gold.Protein.RotatedAtoms>
  152.0308  133.3936  159.4296 H   0  0  0  0  0  0  0  0  0  0  0  0  # atno 6907 bound_to 6896
  150.6882  134.3523  159.4923 H   0  0  0  0  0  0  0  0  0  0  0  0  # atno 6908 bound_to 6896
  152.1309  134.9135  160.0609 H   0  0  0  0  0  0  0  0  0  0  0  0  # atno 6909 bound_to 6896
  145.1569  140.8858  143.3614 H   0  0  0  0  0  0  0  0  0  0  0  0  # atno 7974 bound_to 7965
  154.4292  140.1820  156.1239 H   0  0  0  0  0  0  0  0  0  0  0  0  # atno 8008 bound_to 7997
  156.0121  140.3349  155.6926 H   0  0  0  0  0  0  0  0  0  0  0  0  # atno 8009 bound_to 7997
  155.6096  140.0648  157.2700 H   0  0  0  0  0  0  0  0  0  0  0  0  # atno 8010 bound_to 7997
  139.9977  144.5710  150.7764 H   0  0  0  0  0  0  0  0  0  0  0  0  # atno 10167 bound_to 10162
  157.6171  131.1023  150.7448 H   0  0  0  0  0  0  0  0  0  0  0  0  # atno 10718 bound_to 10713
  154.5415  135.2806  155.1091 H   0  0  0  0  0  0  0  0  0  0  0  0  # atno 10763 bound_to 10752
  154.2572  135.6328  153.5265 H   0  0  0  0  0  0  0  0  0  0  0  0  # atno 10764 bound_to 10752
  152.9980  135.5597  154.5955 H   0  0  0  0  0  0  0  0  0  0  0  0  # atno 10765 bound_to 10752
  140.1181  134.4865  155.8620 H   0  0  0  0  0  0  0  0  0  0  0  0  # atno 11005 bound_to 11000
  145.0372  139.3290  143.5995 LP  0  0  0  0  0  0  0  0  0  0  0  0  # atno 17320 bound_to 7965
  146.3487  139.9732  142.8704 LP  0  0  0  0  0  0  0  0  0  0  0  0  # atno 17321 bound_to 7965
  140.7431  143.2841  151.3514 LP  0  0  0  0  0  0  0  0  0  0  0  0  # atno 17342 bound_to 10162
  139.6294  144.0750  152.2463 LP  0  0  0  0  0  0  0  0  0  0  0  0  # atno 17343 bound_to 10162
  156.7813  130.4860  149.5400 LP  0  0  0  0  0  0  0  0  0  0  0  0  # atno 17370 bound_to 10713
  156.1299  130.6170  151.0317 LP  0  0  0  0  0  0  0  0  0  0  0  0  # atno 17371 bound_to 10713
  141.2146  133.6751  156.6836 LP  0  0  0  0  0  0  0  0  0  0  0  0  # atno 17394 bound_to 11000
  140.3001  134.8170  157.4090 LP  0  0  0  0  0  0  0  0  0  0  0  0  # atno 17395 bound_to 11000

$$$$
