AV-unprocessed.smi:1352|AV-procd|sdf|5528|dock6
  -GOLD-   22720 5113D 1   1.00000     0.00000
 Structure written by MMmdl.
 47 48  0  0  0  0  0  0  0  0  2 V2000
  144.7543  132.2078  150.5136 C   0  0  0  0  0  0  0  0  0  0  0  0
  145.8628  131.3709  151.1679 C   0  0  2  0  0  0  0  0  0  0  0  0
  145.2978  130.0792  151.7860 C   0  0  0  0  0  0  0  0  0  0  0  0
  146.3916  129.2641  152.4998 C   0  0  1  0  0  0  0  0  0  0  0  0
  147.3393  128.5467  151.5222 C   0  0  0  0  0  0  0  0  0  0  0  0
  147.1529  130.1478  153.5080 C   0  0  0  0  0  0  0  0  0  0  0  0
  147.7003  131.3716  152.8658 N   0  3  2  0  0  0  0  0  0  0  0  0
  148.5572  132.1550  153.7914 C   0  0  0  0  0  0  0  0  0  0  0  0
  147.7391  132.8776  154.8791 C   0  0  0  0  0  0  0  0  0  0  0  0
  148.3355  132.7105  156.1990 N   0  0  0  0  0  0  0  0  0  0  0  0
  147.9038  133.3102  157.3189 C   0  0  0  0  0  0  0  0  0  0  0  0
  146.9559  134.0969  157.3366 O   0  0  0  0  0  0  0  0  0  0  0  0
  148.6802  132.9809  158.6020 C   0  0  0  0  0  0  0  0  0  0  0  0
  148.2204  133.7433  159.7749 N   0  0  0  0  0  0  0  0  0  0  0  0
  147.5224  133.0313  160.7707 C   0  0  0  0  0  0  0  0  0  0  0  0
  147.0609  133.6303  161.8800 C   0  0  0  0  0  0  0  0  0  0  0  0
  147.2954  135.0457  162.0392 C   0  0  0  0  0  0  0  0  0  0  0  0
  147.9649  135.7358  161.0944 C   0  0  0  0  0  0  0  0  0  0  0  0
  148.4742  135.0844  159.8822 C   0  0  0  0  0  0  0  0  0  0  0  0
  149.0918  135.7051  159.0162 O   0  0  0  0  0  0  0  0  0  0  0  0
  146.6269  132.1824  152.2317 C   0  0  0  0  0  0  0  0  0  0  0  0
  144.0092  132.5222  151.2452 H   0  0  0  0  0  0  0  0  0  0  0  0
  144.2394  131.6402  149.7381 H   0  0  0  0  0  0  0  0  0  0  0  0
  145.1621  133.1052  150.0474 H   0  0  0  0  0  0  0  0  0  0  0  0
  146.5663  131.0980  150.3807 H   0  0  0  0  0  0  0  0  0  0  0  0
  144.5200  130.3365  152.5068 H   0  0  0  0  0  0  0  0  0  0  0  0
  144.8131  129.4711  151.0210 H   0  0  0  0  0  0  0  0  0  0  0  0
  145.8900  128.4798  153.0682 H   0  0  0  0  0  0  0  0  0  0  0  0
  147.9218  129.2491  150.9265 H   0  0  0  0  0  0  0  0  0  0  0  0
  146.7832  127.9097  150.8338 H   0  0  0  0  0  0  0  0  0  0  0  0
  148.0432  127.9100  152.0586 H   0  0  0  0  0  0  0  0  0  0  0  0
  146.4874  130.4415  154.3215 H   0  0  0  0  0  0  0  0  0  0  0  0
  147.9596  129.5685  153.9597 H   0  0  0  0  0  0  0  0  0  0  0  0
  149.3113  131.5054  154.2384 H   0  0  0  0  0  0  0  0  0  0  0  0
  149.1014  132.9066  153.2180 H   0  0  0  0  0  0  0  0  0  0  0  0
  147.6455  133.9397  154.6450 H   0  0  0  0  0  0  0  0  0  0  0  0
  146.7256  132.4821  154.9324 H   0  0  0  0  0  0  0  0  0  0  0  0
  149.1221  132.0808  156.2708 H   0  0  0  0  0  0  0  0  0  0  0  0
  148.6107  131.9103  158.8038 H   0  0  0  0  0  0  0  0  0  0  0  0
  149.7385  133.1675  158.4148 H   0  0  0  0  0  0  0  0  0  0  0  0
  147.3942  131.9759  160.5792 H   0  0  0  0  0  0  0  0  0  0  0  0
  146.5312  133.0679  162.6346 H   0  0  0  0  0  0  0  0  0  0  0  0
  146.9331  135.5540  162.9207 H   0  0  0  0  0  0  0  0  0  0  0  0
  148.1317  136.7941  161.2315 H   0  0  0  0  0  0  0  0  0  0  0  0
  147.0544  133.0657  151.7589 H   0  0  0  0  0  0  0  0  0  0  0  0
  145.9397  132.5398  153.0008 H   0  0  0  0  0  0  0  0  0  0  0  0
  148.3050  131.0491  152.1237 H   0  0  0  0  0  0  0  0  0  0  0  0
  1  2  1  0  0  0  0
  1 22  1  0  0  0  0
  1 23  1  0  0  0  0
  1 24  1  0  0  0  0
  2 21  1  0  0  0  0
  2  3  1  0  0  0  0
  2 25  1  0  0  0  0
  3  4  1  0  0  0  0
  3 26  1  0  0  0  0
  3 27  1  0  0  0  0
  4  5  1  0  0  0  0
  4  6  1  0  0  0  0
  4 28  1  0  0  0  0
  5 29  1  0  0  0  0
  5 30  1  0  0  0  0
  5 31  1  0  0  0  0
  6  7  1  0  0  0  0
  6 32  1  0  0  0  0
  6 33  1  0  0  0  0
  7  8  1  0  0  0  0
  7 21  1  0  0  0  0
  7 47  1  0  0  0  0
  8  9  1  0  0  0  0
  8 34  1  0  0  0  0
  8 35  1  0  0  0  0
  9 10  1  0  0  0  0
  9 36  1  0  0  0  0
  9 37  1  0  0  0  0
 10 11  1  0  0  0  0
 10 38  1  0  0  0  0
 11 12  2  0  0  0  0
 11 13  1  0  0  0  0
 13 14  1  0  0  0  0
 13 39  1  0  0  0  0
 13 40  1  0  0  0  0
 14 19  1  0  0  0  0
 14 15  1  0  0  0  0
 15 16  2  0  0  0  0
 15 41  1  0  0  0  0
 16 17  1  0  0  0  0
 16 42  1  0  0  0  0
 17 18  2  0  0  0  0
 17 43  1  0  0  0  0
 18 19  1  0  0  0  0
 18 44  1  0  0  0  0
 19 20  2  0  0  0  0
 21 45  1  0  0  0  0
 21 46  1  0  0  0  0
M  CHG  1   7   1
M  END
> <s_m_source_file>
AV-unprocessed.smi

> <i_m_source_file_index>
1352

> <i_lp_mmshare_version>
43012

> <i_f3d_flags>
0

> <s_epik_input>
W0NIM11bQ0BASF0xW0NIMl1bQ0BASF0oW0NIM10pW0NIMl1OKFtDSDJdMSlbQ0gyXVtDSDJdW05IXUMoPU8pW0NIMl1uMltjSF1bY0hdW2NIXVtjSF1jMj1P

> <s_epik_cmdline>
J2VwaWtfcHl0aG9uJywgJy1waCcsICc3LjAnLCAnLXRuJywgJzgnLCAnLW1hJywgJzIwMCcsICctbWV0YWxfYmluZGluZycsICctaW1hZScsICc8aW5maWxlLm1hZT4nLCAnLW9tYWUnLCAnPG91dGZpbGUubWFlPic=

> <r_lp_tautomer_probability>
1

> <r_epik_Ionization_Penalty>
0.00156146

> <r_epik_Ionization_Penalty_Charging>
0.00156138

> <r_epik_Ionization_Penalty_Neutral>
8.12891e-08

> <r_epik_State_Penalty>
0.00104868

> <r_epik_Charging_Adjusted_Penalty>
0.00261006

> <i_epik_Tot_Q>
1

> <i_epik_Tot_abs_Q>
1

> <r_epik_Metal_State_Penalty>
-0

> <b_epik_Metal_Only>
0

> <s_lp_Force_Field>
OPLS_2005

> <r_lp_Energy>
27.9536

> <b_lp_Chiralities_Consistent>
1

> <s_lp_Variant>
AV-unprocessed.smi:1352-1

> <Gold.Version>
5.8.1

> <Gold.Id.Protein>
6NUR|6NUR_protein|mol2

> <Gold.PLP.Fitness>
41.3172

> <Gold.PLP.PLP>
-36.3143

> <Gold.PLP.part.hbond>
-2.0000

> <Gold.PLP.part.metal>
0.0000

> <Gold.PLP.part.buried>
-3.0443

> <Gold.PLP.part.nonpolar>
-30.9961

> <Gold.PLP.part.repulsive>
0.0000

> <Gold.PLP.ligand.clash>
0.0000

> <Gold.PLP.ligand.torsion>
0.5116

> <Gold.PLP.Chemscore.Hbond>
2.0000

> <Gold.PLP.Chemscore.CHOScore>
0.0000

> <Gold.PLP.Chemscore.Metal>
0.0000

> <Gold.Chemscore.Hbonds>
donor molecule, donor type, donor heavy atom, donor atom, acceptor molecule, acceptor atom, score
      L1  H     7    47       P1 10747  1.00
      P1  H  6896  6907       L1    20  0.35

> <Gold.PLP.Chemscore.Internal.Correction>
0.0260

> <Gold.Rescore>
     Score         DG    S(hbond)    S(metal)    S(lipo)     H(rot)  DE(clash)    DE(int)     intcor
     18.00     -18.59       1.91        0.00      97.79       1.83       0.04       0.55       ----

> <Gold.Chemscore.Fitness>
18.0048

> <Gold.Chemscore.DG>
-18.5948

> <Gold.Chemscore.ZeroCoef>
-5.4800

> <Gold.Chemscore.Hbond>
1.9057

> <Gold.Chemscore.Metal>
0.0000

> <Gold.Chemscore.Lipo>
97.7944

> <Gold.Chemscore.Internal_Hbond>
0.0000

> <Gold.Chemscore.DEClash>
0.0359

> <Gold.Chemscore.DEInternal>
0.5541

> <Gold.Chemscore.Rot>
1.8329

> <Gold.Chemscore.Internal.Correction>
   9.000000E+99

> <Gold.Chemscore.Hbonds>
donor molecule, donor type, donor heavy atom, donor atom, acceptor molecule, acceptor atom, score
      L1  H     7    47       P1 10747  0.97
      P1  H  6896  6907       L1    20  0.01

> <Gold.Chemscore.Hbond.Weighted>
-6.3651

> <Gold.Chemscore.Metal.Weighted>
-0.0000

> <Gold.Chemscore.Lipo.Weighted>
-11.4419

> <Gold.Chemscore.Internal_Hbond.Weighted>
0.0000

> <Gold.Chemscore.DEClash.Weighted>
0.0359

> <Gold.Chemscore.DEInternal.Weighted>
0.5541

> <Gold.Chemscore.Rot.Weighted>
4.6922

> <Gold.Chemscore.Internal.Correction.Weighted>
   9.000000E+99

> <Gold.Protein.RotatedTorsions>
[ 6907 6896 6895 6894 ] final  -63.07 input  -60.11 | X-H torsion
[ 7974 7965 7964 7962 ] final  -56.87 input  175.53 | X-H torsion
[ 8008 7997 7996 7995 ] final   56.56 input   59.86 | X-H torsion
[ 10167 10162 10161 10158 ] final -178.87 input  -65.29 | X-H torsion
[ 10718 10713 10712 10709 ] final  116.97 input   66.30 | X-H torsion
[ 10763 10752 10751 10750 ] final  -93.07 input  -60.55 | X-H torsion
[ 11005 11000 10999 10996 ] final  137.17 input  -57.11 | X-H torsion

> <Gold.Protein.ActiveResidues>
 VAL166  LYS551  ARG553  GLY616  TRP617  ASP618  TYR619  PRO620  LYS621  CYS622 
 ASP623  PHE694  ASN695  SER759  ASP760  ASP761  ALA762  ILE779  LEU786  VAL792 
 PHE793  MET794  SER795  GLU796  ALA797  LYS798  CYS799  TRP800  GLU811  SER814 

> <Gold.Protein.RotatedAtoms>
  150.7673  134.6484  159.6274 H   0  0  0  0  0  0  0  0  0  0  0  0  # atno 6907 bound_to 6896
  152.3710  134.6730  160.0185 H   0  0  0  0  0  0  0  0  0  0  0  0  # atno 6908 bound_to 6896
  151.7090  133.3275  159.3322 H   0  0  0  0  0  0  0  0  0  0  0  0  # atno 6909 bound_to 6896
  145.8577  140.8307  142.9953 H   0  0  0  0  0  0  0  0  0  0  0  0  # atno 7974 bound_to 7965
  155.5195  140.3479  155.4404 H   0  0  0  0  0  0  0  0  0  0  0  0  # atno 8008 bound_to 7997
  156.0794  140.1383  156.9758 H   0  0  0  0  0  0  0  0  0  0  0  0  # atno 8009 bound_to 7997
  154.4571  140.0949  156.6765 H   0  0  0  0  0  0  0  0  0  0  0  0  # atno 8010 bound_to 7997
  139.5412  144.2357  152.0899 H   0  0  0  0  0  0  0  0  0  0  0  0  # atno 10167 bound_to 10162
  157.6126  131.1032  150.7549 H   0  0  0  0  0  0  0  0  0  0  0  0  # atno 10718 bound_to 10713
  154.6923  135.5208  153.8409 H   0  0  0  0  0  0  0  0  0  0  0  0  # atno 10763 bound_to 10752
  153.0641  135.6579  154.0404 H   0  0  0  0  0  0  0  0  0  0  0  0  # atno 10764 bound_to 10752
  154.0276  135.2988  155.3352 H   0  0  0  0  0  0  0  0  0  0  0  0  # atno 10765 bound_to 10752
  140.0096  134.9445  157.0248 H   0  0  0  0  0  0  0  0  0  0  0  0  # atno 11005 bound_to 11000
  144.6727  140.1048  143.7458 LP  0  0  0  0  0  0  0  0  0  0  0  0  # atno 17320 bound_to 7965
  145.9284  139.2590  143.1339 LP  0  0  0  0  0  0  0  0  0  0  0  0  # atno 17321 bound_to 7965
  140.1836  144.4820  150.6515 LP  0  0  0  0  0  0  0  0  0  0  0  0  # atno 17342 bound_to 10162
  140.6643  143.2262  151.5781 LP  0  0  0  0  0  0  0  0  0  0  0  0  # atno 17343 bound_to 10162
  156.7923  130.4894  149.5383 LP  0  0  0  0  0  0  0  0  0  0  0  0  # atno 17370 bound_to 10713
  156.1235  130.6127  151.0229 LP  0  0  0  0  0  0  0  0  0  0  0  0  # atno 17371 bound_to 10713
  140.4579  134.1514  155.7188 LP  0  0  0  0  0  0  0  0  0  0  0  0  # atno 17394 bound_to 11000
  141.1701  133.8625  157.1596 LP  0  0  0  0  0  0  0  0  0  0  0  0  # atno 17395 bound_to 11000

$$$$
