AV-unprocessed.smi:2247|AV-procd|sdf|9089|dock1
  -GOLD-   2272012293D 1   1.00000     0.00000
 Structure written by MMmdl.
 34 35  0  0  0  0  0  0  0  0  1 V2000
  152.3917  142.9187  160.7948 C   0  0  0  0  0  0  0  0  0  0  0  0
  152.6780  141.6422  159.9869 C   0  0  0  0  0  0  0  0  0  0  0  0
  154.1767  141.3269  159.8695 C   0  0  0  0  0  0  0  0  0  0  0  0
  152.0451  141.6727  158.6615 N   0  0  0  0  0  0  0  0  0  0  0  0
  151.2053  142.7812  158.2347 C   0  0  0  0  0  0  0  0  0  0  0  0
  150.5464  142.2918  156.9414 C   0  0  0  0  0  0  0  0  0  0  0  0
  151.4151  141.1306  156.4325 C   0  0  2  0  0  0  0  0  0  0  0  0
  150.5657  140.0352  155.9668 N   0  0  0  0  0  0  0  0  0  0  0  0
  149.8290  140.0396  154.8455 C   0  0  0  0  0  0  0  0  0  0  0  0
  149.7814  141.0250  154.1024 O   0  0  0  0  0  0  0  0  0  0  0  0
  149.1585  138.8349  154.7063 N   0  0  0  0  0  0  0  0  0  0  0  0
  148.1419  138.7760  153.9035 C   0  0  0  0  0  0  0  0  0  0  0  0
  147.3626  137.6709  153.6014 N   0  0  0  0  0  0  0  0  0  0  0  0
  146.3950  138.0619  152.7177 C   0  0  0  0  0  0  0  0  0  0  0  0
  146.5554  139.3597  152.4753 C   0  0  0  0  0  0  0  0  0  0  0  0
  147.6174  139.8283  153.1883 O   0  0  0  0  0  0  0  0  0  0  0  0
  152.1717  140.7429  157.7039 C   0  0  0  0  0  0  0  0  0  0  0  0
  152.8322  139.7076  157.7915 O   0  0  0  0  0  0  0  0  0  0  0  0
  152.7393  142.8111  161.8226 H   0  0  0  0  0  0  0  0  0  0  0  0
  151.3228  143.1315  160.8303 H   0  0  0  0  0  0  0  0  0  0  0  0
  152.8956  143.7880  160.3719 H   0  0  0  0  0  0  0  0  0  0  0  0
  152.2332  140.8248  160.5570 H   0  0  0  0  0  0  0  0  0  0  0  0
  154.6325  141.2281  160.8549 H   0  0  0  0  0  0  0  0  0  0  0  0
  154.7100  142.1142  159.3358 H   0  0  0  0  0  0  0  0  0  0  0  0
  154.3410  140.3906  159.3352 H   0  0  0  0  0  0  0  0  0  0  0  0
  150.4552  143.0536  158.9768 H   0  0  0  0  0  0  0  0  0  0  0  0
  151.8316  143.6537  158.0441 H   0  0  0  0  0  0  0  0  0  0  0  0
  149.5344  141.9499  157.1670 H   0  0  0  0  0  0  0  0  0  0  0  0
  150.4585  143.0891  156.2028 H   0  0  0  0  0  0  0  0  0  0  0  0
  152.1201  141.4708  155.6721 H   0  0  0  0  0  0  0  0  0  0  0  0
  150.5527  139.1993  156.5331 H   0  0  0  0  0  0  0  0  0  0  0  0
  147.4597  136.7252  153.9420 H   0  0  0  0  0  0  0  0  0  0  0  0
  145.6749  137.3485  152.3449 H   0  0  0  0  0  0  0  0  0  0  0  0
  146.0234  140.0610  151.8498 H   0  0  0  0  0  0  0  0  0  0  0  0
  1  2  1  0  0  0  0
  1 19  1  0  0  0  0
  1 20  1  0  0  0  0
  1 21  1  0  0  0  0
  2  3  1  0  0  0  0
  2  4  1  0  0  0  0
  2 22  1  0  0  0  0
  3 23  1  0  0  0  0
  3 24  1  0  0  0  0
  3 25  1  0  0  0  0
  4 17  1  0  0  0  0
  4  5  1  0  0  0  0
  5  6  1  0  0  0  0
  5 26  1  0  0  0  0
  5 27  1  0  0  0  0
  6  7  1  0  0  0  0
  6 28  1  0  0  0  0
  6 29  1  0  0  0  0
  7  8  1  0  0  0  0
  7 17  1  0  0  0  0
  7 30  1  0  0  0  0
  8 31  1  0  0  0  0
  8  9  1  0  0  0  0
  9 11  1  0  0  0  0
  9 10  2  0  0  0  0
 11 12  2  0  0  0  0
 12 16  1  0  0  0  0
 12 13  1  0  0  0  0
 13 32  1  0  0  0  0
 13 14  1  0  0  0  0
 14 33  1  0  0  0  0
 14 15  2  0  0  0  0
 15 34  1  0  0  0  0
 15 16  1  0  0  0  0
 17 18  2  0  0  0  0
M  END
> <s_m_source_file>
AV-unprocessed.smi

> <i_m_source_file_index>
2247

> <i_lp_mmshare_version>
43012

> <i_f3d_flags>
0

> <s_epik_input>
W0NIM11bQ0hdKFtDSDNdKU4xW0NIMl1bQ0gyXVtDQEhdKEMxPU8pW05IXUMoPU8pW05IXWMybltjSF1bY0hdbzI=

> <s_epik_cmdline>
J2VwaWtfcHl0aG9uJywgJy1waCcsICc3LjAnLCAnLXRuJywgJzgnLCAnLW1hJywgJzIwMCcsICctbWV0YWxfYmluZGluZycsICctaW1hZScsICc8aW5maWxlLm1hZT4nLCAnLW9tYWUnLCAnPG91dGZpbGUubWFlPic=

> <r_lp_tautomer_probability>
0.107061

> <r_epik_Ionization_Penalty>
0.180736

> <r_epik_Ionization_Penalty_Charging>
0.180388

> <r_epik_Ionization_Penalty_Neutral>
0.000348501

> <r_epik_State_Penalty>
2.44396

> <r_epik_Charging_Adjusted_Penalty>
2.62435

> <i_epik_Tot_Q>
0

> <i_epik_Tot_abs_Q>
0

> <r_epik_Metal_State_Penalty>
4.38331

> <b_epik_Metal_Only>
0

> <s_lp_Force_Field>
OPLS_2005

> <r_lp_Energy>
45.2886

> <b_lp_Chiralities_Consistent>
1

> <s_lp_Variant>
AV-unprocessed.smi:2247-4

> <Gold.Version>
5.8.1

> <Gold.Id.Protein>
6NUR|6NUR_protein|mol2

> <Gold.PLP.Fitness>
37.2949

> <Gold.PLP.PLP>
-30.1465

> <Gold.PLP.part.hbond>
-3.8152

> <Gold.PLP.part.metal>
0.0000

> <Gold.PLP.part.buried>
-2.4945

> <Gold.PLP.part.nonpolar>
-25.9268

> <Gold.PLP.part.repulsive>
2.3675

> <Gold.PLP.ligand.clash>
0.0000

> <Gold.PLP.ligand.torsion>
0.2529

> <Gold.PLP.Chemscore.Hbond>
1.7690

> <Gold.PLP.Chemscore.CHOScore>
0.7494

> <Gold.PLP.Chemscore.Metal>
0.0000

> <Gold.Chemscore.Hbonds>
donor molecule, donor type, donor heavy atom, donor atom, acceptor molecule, acceptor atom, score
      P1  H  7989  7998       L1    10  0.37
      P1  H  7997  8010       L1    18  1.00
      P1  H  8011  8017       L1    10  0.37
      L1  C    15    34       P1 10175  0.73

> <Gold.PLP.Chemscore.Internal.Correction>
0.0991

> <Gold.Rescore>
     Score         DG    S(hbond)    S(metal)    S(lipo)     H(rot)  DE(clash)    DE(int)     intcor
     10.48     -14.25       1.28        0.00      67.45       1.33       0.74       3.03       ----

> <Gold.Chemscore.Fitness>
10.4831

> <Gold.Chemscore.DG>
-14.2461

> <Gold.Chemscore.ZeroCoef>
-5.4800

> <Gold.Chemscore.Hbond>
1.2842

> <Gold.Chemscore.Metal>
0.0000

> <Gold.Chemscore.Lipo>
67.4468

> <Gold.Chemscore.Internal_Hbond>
0.0000

> <Gold.Chemscore.DEClash>
0.7361

> <Gold.Chemscore.DEInternal>
3.0269

> <Gold.Chemscore.Rot>
1.3338

> <Gold.Chemscore.Internal.Correction>
   9.000000E+99

> <Gold.Chemscore.Hbonds>
donor molecule, donor type, donor heavy atom, donor atom, acceptor molecule, acceptor atom, score
      P1  H  7989  7998       L1    10  0.06
      P1  H  7997  8010       L1    18  0.44
      P1  H  8011  8017       L1    10  0.37

> <Gold.Chemscore.Hbond.Weighted>
-4.2893

> <Gold.Chemscore.Metal.Weighted>
-0.0000

> <Gold.Chemscore.Lipo.Weighted>
-7.8913

> <Gold.Chemscore.Internal_Hbond.Weighted>
0.0000

> <Gold.Chemscore.DEClash.Weighted>
0.7361

> <Gold.Chemscore.DEInternal.Weighted>
3.0269

> <Gold.Chemscore.Rot.Weighted>
3.4145

> <Gold.Chemscore.Internal.Correction.Weighted>
   9.000000E+99

> <Gold.Protein.RotatedTorsions>
[ 6907 6896 6895 6894 ] final   72.24 input  -60.11 | X-H torsion
[ 7974 7965 7964 7962 ] final   80.30 input  175.53 | X-H torsion
[ 8008 7997 7996 7995 ] final   55.89 input   59.86 | X-H torsion
[ 10167 10162 10161 10158 ] final  120.43 input  -65.29 | X-H torsion
[ 10718 10713 10712 10709 ] final  -43.50 input   66.30 | X-H torsion
[ 10763 10752 10751 10750 ] final -147.41 input  -60.55 | X-H torsion
[ 11005 11000 10999 10996 ] final   26.41 input  -57.11 | X-H torsion

> <Gold.Protein.ActiveResidues>
 VAL166  LYS551  ARG553  GLY616  TRP617  ASP618  TYR619  PRO620  LYS621  CYS622 
 ASP623  PHE694  ASN695  SER759  ASP760  ASP761  ALA762  ILE779  LEU786  VAL792 
 PHE793  MET794  SER795  GLU796  ALA797  LYS798  CYS799  TRP800  GLU811  SER814 

> <Gold.Protein.RotatedAtoms>
  152.4856  134.4601  159.9602 H   0  0  0  0  0  0  0  0  0  0  0  0  # atno 6907 bound_to 6896
  151.4598  133.3590  159.2815 H   0  0  0  0  0  0  0  0  0  0  0  0  # atno 6908 bound_to 6896
  150.8964  134.8398  159.7390 H   0  0  0  0  0  0  0  0  0  0  0  0  # atno 6909 bound_to 6896
  145.6529  139.2452  143.1966 H   0  0  0  0  0  0  0  0  0  0  0  0  # atno 7974 bound_to 7965
  155.5085  140.3476  155.4384 H   0  0  0  0  0  0  0  0  0  0  0  0  # atno 8008 bound_to 7997
  156.0865  140.1400  156.9673 H   0  0  0  0  0  0  0  0  0  0  0  0  # atno 8009 bound_to 7997
  154.4610  140.0935  156.6869 H   0  0  0  0  0  0  0  0  0  0  0  0  # atno 8010 bound_to 7997
  139.5982  144.7048  151.3125 H   0  0  0  0  0  0  0  0  0  0  0  0  # atno 10167 bound_to 10162
  156.2484  130.4186  149.8679 H   0  0  0  0  0  0  0  0  0  0  0  0  # atno 10718 bound_to 10713
  154.8287  135.3361  154.6813 H   0  0  0  0  0  0  0  0  0  0  0  0  # atno 10763 bound_to 10752
  153.7435  135.6944  153.4966 H   0  0  0  0  0  0  0  0  0  0  0  0  # atno 10764 bound_to 10752
  153.2227  135.4443  155.0458 H   0  0  0  0  0  0  0  0  0  0  0  0  # atno 10765 bound_to 10752
  140.3374  134.2371  155.7694 H   0  0  0  0  0  0  0  0  0  0  0  0  # atno 11005 bound_to 11000
  146.1188  140.7335  142.9467 LP  0  0  0  0  0  0  0  0  0  0  0  0  # atno 17320 bound_to 7965
  144.7116  140.4059  143.7076 LP  0  0  0  0  0  0  0  0  0  0  0  0  # atno 17321 bound_to 7965
  140.7229  143.7086  150.7788 LP  0  0  0  0  0  0  0  0  0  0  0  0  # atno 17342 bound_to 10162
  140.0657  143.5111  152.2605 LP  0  0  0  0  0  0  0  0  0  0  0  0  # atno 17343 bound_to 10162
  156.6236  130.8636  151.3480 LP  0  0  0  0  0  0  0  0  0  0  0  0  # atno 17370 bound_to 10713
  157.7204  130.9551  150.1417 LP  0  0  0  0  0  0  0  0  0  0  0  0  # atno 17371 bound_to 10713
  141.2048  133.7878  157.0269 LP  0  0  0  0  0  0  0  0  0  0  0  0  # atno 17394 bound_to 11000
  140.0810  134.9648  157.1624 LP  0  0  0  0  0  0  0  0  0  0  0  0  # atno 17395 bound_to 11000

$$$$
