AV-unprocessed.smi:1205|AV-procd|sdf|5046|dock10
  -GOLD-   22720 4 73D 1   1.00000     0.00000
 Structure written by MMmdl.
 49 50  0  0  0  0  0  0  0  0  2 V2000
  150.8143  142.0669  156.3777 C   0  0  0  0  0  0  0  0  0  0  0  0
  150.5043  140.8216  155.6006 C   0  0  0  0  0  0  0  0  0  0  0  0
  149.2378  140.3803  155.1173 C   0  0  0  0  0  0  0  0  0  0  0  0
  149.5481  139.2035  154.4924 C   0  0  0  0  0  0  0  0  0  0  0  0
  148.7243  138.3330  153.8505 N   0  0  0  0  0  0  0  0  0  0  0  0
  147.4037  138.1471  154.0187 C   0  0  0  0  0  0  0  0  0  0  0  0
  146.6886  138.7608  154.8110 O   0  0  0  0  0  0  0  0  0  0  0  0
  146.9399  137.1972  153.1942 N   0  0  0  0  0  0  0  0  0  0  0  0
  145.5489  136.7620  153.1206 C   0  0  0  0  0  0  0  0  0  0  0  0
  145.1180  136.3897  151.6785 C   0  0  1  0  0  0  0  0  0  0  0  0
  145.9543  137.1094  150.6031 C   0  0  0  0  0  0  0  0  0  0  0  0
  145.0986  134.9179  151.4330 N   0  3  2  0  0  0  0  0  0  0  0  0
  146.3870  134.2473  151.7510 C   0  0  0  0  0  0  0  0  0  0  0  0
  146.2239  132.7189  151.7317 C   0  0  0  0  0  0  0  0  0  0  0  0
  145.6682  132.2404  150.3836 C   0  0  0  0  0  0  0  0  0  0  0  0
  144.3562  132.9728  150.0521 C   0  0  2  0  0  0  0  0  0  0  0  0
  143.7959  132.5318  148.6926 C   0  0  0  0  0  0  0  0  0  0  0  0
  144.5717  134.4983  150.1051 C   0  0  0  0  0  0  0  0  0  0  0  0
  150.9019  138.9797  154.6109 N   0  0  0  0  0  0  0  0  0  0  0  0
  151.6995  137.8717  154.1224 C   0  0  0  0  0  0  0  0  0  0  0  0
  151.4893  139.9841  155.2960 N   0  0  0  0  0  0  0  0  0  0  0  0
  149.9180  142.6669  156.5352 H   0  0  0  0  0  0  0  0  0  0  0  0
  151.5404  142.6876  155.8521 H   0  0  0  0  0  0  0  0  0  0  0  0
  151.2280  141.8253  157.3571 H   0  0  0  0  0  0  0  0  0  0  0  0
  148.2770  140.8603  155.2259 H   0  0  0  0  0  0  0  0  0  0  0  0
  149.1685  137.7645  153.1448 H   0  0  0  0  0  0  0  0  0  0  0  0
  147.5950  136.7406  152.5762 H   0  0  0  0  0  0  0  0  0  0  0  0
  145.4515  135.9021  153.7833 H   0  0  0  0  0  0  0  0  0  0  0  0
  144.9079  137.5430  153.5319 H   0  0  0  0  0  0  0  0  0  0  0  0
  144.0947  136.7385  151.5334 H   0  0  0  0  0  0  0  0  0  0  0  0
  145.8263  138.1908  150.6610 H   0  0  0  0  0  0  0  0  0  0  0  0
  145.6503  136.8052  149.6011 H   0  0  0  0  0  0  0  0  0  0  0  0
  147.0194  136.9034  150.7067 H   0  0  0  0  0  0  0  0  0  0  0  0
  147.1520  134.5491  151.0347 H   0  0  0  0  0  0  0  0  0  0  0  0
  146.7365  134.5548  152.7374 H   0  0  0  0  0  0  0  0  0  0  0  0
  147.1826  132.2389  151.9307 H   0  0  0  0  0  0  0  0  0  0  0  0
  145.5521  132.4121  152.5347 H   0  0  0  0  0  0  0  0  0  0  0  0
  146.4044  132.4225  149.5993 H   0  0  0  0  0  0  0  0  0  0  0  0
  145.5038  131.1627  150.4124 H   0  0  0  0  0  0  0  0  0  0  0  0
  143.6190  132.7092  150.8123 H   0  0  0  0  0  0  0  0  0  0  0  0
  144.4859  132.7701  147.8824 H   0  0  0  0  0  0  0  0  0  0  0  0
  142.8481  133.0263  148.4780 H   0  0  0  0  0  0  0  0  0  0  0  0
  143.6174  131.4563  148.6720 H   0  0  0  0  0  0  0  0  0  0  0  0
  143.6258  134.9994  149.9017 H   0  0  0  0  0  0  0  0  0  0  0  0
  145.2654  134.7966  149.3179 H   0  0  0  0  0  0  0  0  0  0  0  0
  151.4617  137.6796  153.0758 H   0  0  0  0  0  0  0  0  0  0  0  0
  151.4812  136.9786  154.7082 H   0  0  0  0  0  0  0  0  0  0  0  0
  152.7632  138.0994  154.2043 H   0  0  0  0  0  0  0  0  0  0  0  0
  144.4448  134.5542  152.1115 H   0  0  0  0  0  0  0  0  0  0  0  0
  1  2  1  0  0  0  0
  1 22  1  0  0  0  0
  1 23  1  0  0  0  0
  1 24  1  0  0  0  0
  2 21  2  0  0  0  0
  2  3  1  0  0  0  0
  3  4  2  0  0  0  0
  3 25  1  0  0  0  0
  4  5  1  0  0  0  0
  4 19  1  0  0  0  0
  5  6  1  0  0  0  0
  5 26  1  0  0  0  0
  6  7  2  0  0  0  0
  6  8  1  0  0  0  0
  8  9  1  0  0  0  0
  8 27  1  0  0  0  0
  9 10  1  0  0  0  0
  9 28  1  0  0  0  0
  9 29  1  0  0  0  0
 10 11  1  0  0  0  0
 10 12  1  0  0  0  0
 10 30  1  0  0  0  0
 11 31  1  0  0  0  0
 11 32  1  0  0  0  0
 11 33  1  0  0  0  0
 12 18  1  0  0  0  0
 12 13  1  0  0  0  0
 12 49  1  0  0  0  0
 13 14  1  0  0  0  0
 13 34  1  0  0  0  0
 13 35  1  0  0  0  0
 14 15  1  0  0  0  0
 14 36  1  0  0  0  0
 14 37  1  0  0  0  0
 15 16  1  0  0  0  0
 15 38  1  0  0  0  0
 15 39  1  0  0  0  0
 16 17  1  0  0  0  0
 16 18  1  0  0  0  0
 16 40  1  0  0  0  0
 17 41  1  0  0  0  0
 17 42  1  0  0  0  0
 17 43  1  0  0  0  0
 18 44  1  0  0  0  0
 18 45  1  0  0  0  0
 19 20  1  0  0  0  0
 19 21  1  0  0  0  0
 20 46  1  0  0  0  0
 20 47  1  0  0  0  0
 20 48  1  0  0  0  0
M  CHG  1  12   1
M  END
> <s_m_source_file>
AV-unprocessed.smi

> <i_m_source_file_index>
1205

> <i_lp_mmshare_version>
43012

> <i_f3d_flags>
0

> <s_epik_input>
W0NIM11jMVtjSF1jKG4objEpW0NIM10pW05IXUMoPU8pW05IXVtDSDJdW0NASF0oW0NIM10pTjJbQ0gyXVtDSDJdW0NIMl1bQ0BASF0oW0NIM10pW0NIMl0y

> <s_epik_cmdline>
J2VwaWtfcHl0aG9uJywgJy1waCcsICc3LjAnLCAnLXRuJywgJzgnLCAnLW1hJywgJzIwMCcsICctbWV0YWxfYmluZGluZycsICctaW1hZScsICc8aW5maWxlLm1hZT4nLCAnLW9tYWUnLCAnPG91dGZpbGUubWFlPic=

> <r_lp_tautomer_probability>
1

> <r_epik_Ionization_Penalty>
0.0020309

> <r_epik_Ionization_Penalty_Charging>
0.00195276

> <r_epik_Ionization_Penalty_Neutral>
7.81448e-05

> <r_epik_State_Penalty>
0.00133177

> <r_epik_Charging_Adjusted_Penalty>
0.00328452

> <i_epik_Tot_Q>
1

> <i_epik_Tot_abs_Q>
1

> <r_epik_Metal_State_Penalty>
-0

> <b_epik_Metal_Only>
0

> <s_lp_Force_Field>
OPLS_2005

> <r_lp_Energy>
21.2667

> <b_lp_Chiralities_Consistent>
1

> <s_lp_Variant>
AV-unprocessed.smi:1205-8

> <Gold.Version>
5.8.1

> <Gold.Id.Protein>
6NUR|6NUR_protein|mol2

> <Gold.PLP.Fitness>
43.8797

> <Gold.PLP.PLP>
-39.1374

> <Gold.PLP.part.hbond>
-3.0329

> <Gold.PLP.part.metal>
0.0000

> <Gold.PLP.part.buried>
0.1096

> <Gold.PLP.part.nonpolar>
-37.4549

> <Gold.PLP.part.repulsive>
0.1337

> <Gold.PLP.ligand.clash>
0.0000

> <Gold.PLP.ligand.torsion>
0.8810

> <Gold.PLP.Chemscore.Hbond>
2.1320

> <Gold.PLP.Chemscore.CHOScore>
0.0000

> <Gold.PLP.Chemscore.Metal>
0.0000

> <Gold.Chemscore.Hbonds>
donor molecule, donor type, donor heavy atom, donor atom, acceptor molecule, acceptor atom, score
      L1  H     5    26       P1  7948  0.94
      L1  H     8    27       P1  7948  1.00
      P1  H  7989  7998       L1    21  0.11

> <Gold.PLP.Chemscore.Internal.Correction>
0.1082

> <Gold.Rescore>
     Score         DG    S(hbond)    S(metal)    S(lipo)     H(rot)  DE(clash)    DE(int)     intcor
     17.24     -19.76       1.92        0.00      99.23       1.47       1.52       1.00       ----

> <Gold.Chemscore.Fitness>
17.2357

> <Gold.Chemscore.DG>
-19.7609

> <Gold.Chemscore.ZeroCoef>
-5.4800

> <Gold.Chemscore.Hbond>
1.9233

> <Gold.Chemscore.Metal>
0.0000

> <Gold.Chemscore.Lipo>
99.2287

> <Gold.Chemscore.Internal_Hbond>
0.0000

> <Gold.Chemscore.DEClash>
1.5204

> <Gold.Chemscore.DEInternal>
1.0048

> <Gold.Chemscore.Rot>
1.4658

> <Gold.Chemscore.Internal.Correction>
   9.000000E+99

> <Gold.Chemscore.Hbonds>
donor molecule, donor type, donor heavy atom, donor atom, acceptor molecule, acceptor atom, score
      L1  H     5    26       P1  7948  0.88
      L1  H     8    27       P1  7948  0.99

> <Gold.Chemscore.Hbond.Weighted>
-6.4237

> <Gold.Chemscore.Metal.Weighted>
-0.0000

> <Gold.Chemscore.Lipo.Weighted>
-11.6098

> <Gold.Chemscore.Internal_Hbond.Weighted>
0.0000

> <Gold.Chemscore.DEClash.Weighted>
1.5204

> <Gold.Chemscore.DEInternal.Weighted>
1.0048

> <Gold.Chemscore.Rot.Weighted>
3.7526

> <Gold.Chemscore.Internal.Correction.Weighted>
   9.000000E+99

> <Gold.Protein.RotatedTorsions>
[ 6907 6896 6895 6894 ] final  -13.11 input  -60.11 | X-H torsion
[ 7974 7965 7964 7962 ] final   45.98 input  175.53 | X-H torsion
[ 8008 7997 7996 7995 ] final -131.69 input   59.86 | X-H torsion
[ 10167 10162 10161 10158 ] final -150.93 input  -65.29 | X-H torsion
[ 10718 10713 10712 10709 ] final   77.20 input   66.30 | X-H torsion
[ 10763 10752 10751 10750 ] final -160.66 input  -60.55 | X-H torsion
[ 11005 11000 10999 10996 ] final  -84.15 input  -57.11 | X-H torsion

> <Gold.Protein.ActiveResidues>
 VAL166  LYS551  ARG553  GLY616  TRP617  ASP618  TYR619  PRO620  LYS621  CYS622 
 ASP623  PHE694  ASN695  SER759  ASP760  ASP761  ALA762  ILE779  LEU786  VAL792 
 PHE793  MET794  SER795  GLU796  ALA797  LYS798  CYS799  TRP800  GLU811  SER814 

> <Gold.Protein.RotatedAtoms>
  151.3600  135.0902  159.9430 H   0  0  0  0  0  0  0  0  0  0  0  0  # atno 6907 bound_to 6896
  152.5164  133.9268  159.7571 H   0  0  0  0  0  0  0  0  0  0  0  0  # atno 6908 bound_to 6896
  150.9660  133.6340  159.2775 H   0  0  0  0  0  0  0  0  0  0  0  0  # atno 6909 bound_to 6896
  146.0431  139.4905  142.9766 H   0  0  0  0  0  0  0  0  0  0  0  0  # atno 7974 bound_to 7965
  155.3164  140.0460  157.3037 H   0  0  0  0  0  0  0  0  0  0  0  0  # atno 8008 bound_to 7997
  154.5404  140.2286  155.8617 H   0  0  0  0  0  0  0  0  0  0  0  0  # atno 8009 bound_to 7997
  156.1875  140.3059  155.9274 H   0  0  0  0  0  0  0  0  0  0  0  0  # atno 8010 bound_to 7997
  139.7311  143.8807  152.2535 H   0  0  0  0  0  0  0  0  0  0  0  0  # atno 10167 bound_to 10162
  157.6702  130.9810  150.1607 H   0  0  0  0  0  0  0  0  0  0  0  0  # atno 10718 bound_to 10713
  154.7371  135.3060  154.8792 H   0  0  0  0  0  0  0  0  0  0  0  0  # atno 10763 bound_to 10752
  153.9617  135.6752  153.4749 H   0  0  0  0  0  0  0  0  0  0  0  0  # atno 10764 bound_to 10752
  153.0973  135.4929  154.8725 H   0  0  0  0  0  0  0  0  0  0  0  0  # atno 10765 bound_to 10752
  141.1652  133.7331  156.8826 H   0  0  0  0  0  0  0  0  0  0  0  0  # atno 11005 bound_to 11000
  145.6852  141.0180  143.1585 LP  0  0  0  0  0  0  0  0  0  0  0  0  # atno 17320 bound_to 7965
  144.7084  139.8467  143.7422 LP  0  0  0  0  0  0  0  0  0  0  0  0  # atno 17321 bound_to 7965
  139.8730  144.7058  150.8965 LP  0  0  0  0  0  0  0  0  0  0  0  0  # atno 17342 bound_to 10162
  140.7771  143.3723  151.1627 LP  0  0  0  0  0  0  0  0  0  0  0  0  # atno 17343 bound_to 10162
  156.2384  130.3688  149.8365 LP  0  0  0  0  0  0  0  0  0  0  0  0  # atno 17370 bound_to 10713
  156.6172  130.8611  151.3467 LP  0  0  0  0  0  0  0  0  0  0  0  0  # atno 17371 bound_to 10713
  140.1704  134.9104  157.2826 LP  0  0  0  0  0  0  0  0  0  0  0  0  # atno 17394 bound_to 11000
  140.2508  134.3685  155.7443 LP  0  0  0  0  0  0  0  0  0  0  0  0  # atno 17395 bound_to 11000

$$$$
