AV-unprocessed.smi:55|AV-procd|sdf|573|dock3
  -GOLD-   2262016473D 1   1.00000     0.00000
 Structure written by MMmdl.
 30 31  0  0  0  0  0  0  0  0  2 V2000
  150.8086  143.0229  158.6223 C   0  0  0  0  0  0  0  0  0  0  0  0
  151.0852  141.8802  157.6607 C   0  0  0  0  0  0  0  0  0  0  0  0
  150.3592  141.6924  156.5360 C   0  0  0  0  0  0  0  0  0  0  0  0
  150.6161  140.6501  155.6598 N   0  0  0  0  0  0  0  0  0  0  0  0
  149.7938  140.4388  154.4016 C   0  0  2  0  0  0  0  0  0  0  0  0
  148.9230  141.6736  154.1014 C   0  0  0  0  0  0  0  0  0  0  0  0
  147.5205  141.0983  154.0006 C   0  0  1  0  0  0  0  0  0  0  0  0
  147.1961  140.8012  152.6544 O   0  0  0  0  0  0  0  0  0  0  0  0
  147.6113  139.8340  154.8617 C   0  0  1  0  0  0  0  0  0  0  0  0
  146.5517  138.7561  154.5748 C   0  0  0  0  0  0  0  0  0  0  0  0
  145.2601  139.3251  154.6058 O   0  0  0  0  0  0  0  0  0  0  0  0
  148.9221  139.3588  154.5745 O   0  0  0  0  0  0  0  0  0  0  0  0
  151.6572  139.7307  155.9555 C   0  0  0  0  0  0  0  0  0  0  0  0
  151.8484  138.8021  155.1696 O   0  0  0  0  0  0  0  0  0  0  0  0
  152.3964  139.9140  157.0864 N   0  5  0  0  0  0  0  0  0  0  0  0
  152.1746  140.9418  157.9548 C   0  0  0  0  0  0  0  0  0  0  0  0
  152.8555  141.1005  158.9678 O   0  0  0  0  0  0  0  0  0  0  0  0
  150.5154  140.2002  153.6185 H   0  0  0  0  0  0  0  0  0  0  0  0
  146.7725  141.7921  154.3858 H   0  0  0  0  0  0  0  0  0  0  0  0
  147.5617  140.1374  155.9091 H   0  0  0  0  0  0  0  0  0  0  0  0
  149.9573  143.6204  158.2948 H   0  0  0  0  0  0  0  0  0  0  0  0
  151.6760  143.6798  158.6915 H   0  0  0  0  0  0  0  0  0  0  0  0
  150.5873  142.6381  159.6183 H   0  0  0  0  0  0  0  0  0  0  0  0
  149.5569  142.3838  156.3305 H   0  0  0  0  0  0  0  0  0  0  0  0
  148.9798  142.3791  154.9320 H   0  0  0  0  0  0  0  0  0  0  0  0
  149.2590  142.1789  153.1949 H   0  0  0  0  0  0  0  0  0  0  0  0
  147.9952  140.7726  152.1511 H   0  0  0  0  0  0  0  0  0  0  0  0
  146.6997  138.3400  153.5780 H   0  0  0  0  0  0  0  0  0  0  0  0
  146.6190  137.9323  155.2862 H   0  0  0  0  0  0  0  0  0  0  0  0
  145.0284  139.5926  153.7297 H   0  0  0  0  0  0  0  0  0  0  0  0
  1  2  1  0  0  0  0
  1 21  1  0  0  0  0
  1 22  1  0  0  0  0
  1 23  1  0  0  0  0
  2 16  1  0  0  0  0
  2  3  2  0  0  0  0
  3  4  1  0  0  0  0
  3 24  1  0  0  0  0
  4  5  1  0  0  0  0
  4 13  1  0  0  0  0
  5 18  1  0  0  0  0
  5 12  1  0  0  0  0
  5  6  1  0  0  0  0
  6  7  1  0  0  0  0
  6 25  1  0  0  0  0
  6 26  1  0  0  0  0
  7 19  1  0  0  0  0
  7  8  1  0  0  0  0
  7  9  1  0  0  0  0
  8 27  1  0  0  0  0
  9 20  1  0  0  0  0
  9 10  1  0  0  0  0
  9 12  1  0  0  0  0
 10 11  1  0  0  0  0
 10 28  1  0  0  0  0
 10 29  1  0  0  0  0
 11 30  1  0  0  0  0
 13 14  2  0  0  0  0
 13 15  1  0  0  0  0
 15 16  1  0  0  0  0
 16 17  2  0  0  0  0
M  CHG  1  15  -1
M  END
> <s_m_source_file>
AV-unprocessed.smi

> <i_m_source_file_index>
55

> <i_lp_mmshare_version>
43012

> <i_f3d_flags>
0

> <s_epik_input>
Tz1jMVtuSF1jKD1PKW4oW2NIXWMxW0NIM10pW0NAQEhdMltDSDJdW0NAQEhdKFtPSF0pW0NAQEhdKE8yKVtDSDJdW09IXQ==

> <s_epik_cmdline>
J2VwaWtfcHl0aG9uJywgJy1waCcsICc3LjAnLCAnLXRuJywgJzgnLCAnLW1hJywgJzIwMCcsICctbWV0YWxfYmluZGluZycsICctaW1hZScsICc8aW5maWxlLm1hZT4nLCAnLW9tYWUnLCAnPG91dGZpbGUubWFlPic=

> <r_lp_tautomer_probability>
0.999537

> <r_epik_Ionization_Penalty>
3.66603

> <r_epik_Ionization_Penalty_Charging>
1.09773e-07

> <r_epik_Ionization_Penalty_Neutral>
3.66603

> <r_epik_State_Penalty>
3.66562

> <r_epik_Charging_Adjusted_Penalty>
3.66562

> <i_epik_Tot_Q>
-1

> <i_epik_Tot_abs_Q>
1

> <r_epik_Metal_State_Penalty>
0.234536

> <b_epik_Metal_Only>
1

> <s_epik_Chemistry_Notes>
This compound contains an acetal/aminal-like group ( X-CH(R)-Y where X, Y are N, S, or O) that may be acid/base labile, releasing an aldehyde.

> <s_lp_Force_Field>
OPLS_2005

> <r_lp_Energy>
39.3758

> <b_lp_Chiralities_Consistent>
1

> <s_lp_Variant>
AV-unprocessed.smi:55-13

> <Gold.Version>
5.8.1

> <Gold.Id.Protein>
6NUR|6NUR_protein|mol2

> <Gold.PLP.Fitness>
38.3634

> <Gold.PLP.PLP>
-24.2747

> <Gold.PLP.part.hbond>
-3.0000

> <Gold.PLP.part.metal>
0.0000

> <Gold.PLP.part.buried>
2.1493

> <Gold.PLP.part.nonpolar>
-22.0717

> <Gold.PLP.part.repulsive>
0.1514

> <Gold.PLP.ligand.clash>
0.0000

> <Gold.PLP.ligand.torsion>
0.3628

> <Gold.PLP.Chemscore.Hbond>
3.9350

> <Gold.PLP.Chemscore.CHOScore>
1.0000

> <Gold.PLP.Chemscore.Metal>
0.0000

> <Gold.Chemscore.Hbonds>
donor molecule, donor type, donor heavy atom, donor atom, acceptor molecule, acceptor atom, score
      L1  H     8    27       P1  7957  1.00
      L1  H    11    30       P1 10175  0.94
      P1  H  7997  8009       L1    15  1.82
      L1  C     3    24       P1  8028  1.00

> <Gold.PLP.Chemscore.Internal.Correction>
0.0095

> <Gold.Rescore>
     Score         DG    S(hbond)    S(metal)    S(lipo)     H(rot)  DE(clash)    DE(int)     intcor
      8.95     -11.42       2.34        0.00      42.85       2.69       1.84       0.64       ----

> <Gold.Chemscore.Fitness>
8.9489

> <Gold.Chemscore.DG>
-11.4206

> <Gold.Chemscore.ZeroCoef>
-5.4800

> <Gold.Chemscore.Hbond>
2.3372

> <Gold.Chemscore.Metal>
0.0000

> <Gold.Chemscore.Lipo>
42.8485

> <Gold.Chemscore.Internal_Hbond>
0.0000

> <Gold.Chemscore.DEClash>
1.8363

> <Gold.Chemscore.DEInternal>
0.6354

> <Gold.Chemscore.Rot>
2.6871

> <Gold.Chemscore.Internal.Correction>
   9.000000E+99

> <Gold.Chemscore.Hbonds>
donor molecule, donor type, donor heavy atom, donor atom, acceptor molecule, acceptor atom, score
      L1  H     8    27       P1  7957  0.96
      L1  H    11    30       P1 10175  0.84
      P1  H  7997  8009       L1    15  0.23

> <Gold.Chemscore.Hbond.Weighted>
-7.8064

> <Gold.Chemscore.Metal.Weighted>
-0.0000

> <Gold.Chemscore.Lipo.Weighted>
-5.0133

> <Gold.Chemscore.Internal_Hbond.Weighted>
0.0000

> <Gold.Chemscore.DEClash.Weighted>
1.8363

> <Gold.Chemscore.DEInternal.Weighted>
0.6354

> <Gold.Chemscore.Rot.Weighted>
6.8791

> <Gold.Chemscore.Internal.Correction.Weighted>
   9.000000E+99

> <Gold.Protein.RotatedTorsions>
[ 6907 6896 6895 6894 ] final  -36.42 input  -60.11 | X-H torsion
[ 7974 7965 7964 7962 ] final  -15.05 input  175.53 | X-H torsion
[ 8008 7997 7996 7995 ] final -164.31 input   59.86 | X-H torsion
[ 10167 10162 10161 10158 ] final  106.96 input  -65.29 | X-H torsion
[ 10718 10713 10712 10709 ] final  143.51 input   66.30 | X-H torsion
[ 10763 10752 10751 10750 ] final  -79.09 input  -60.55 | X-H torsion
[ 11005 11000 10999 10996 ] final   56.74 input  -57.11 | X-H torsion

> <Gold.Protein.ActiveResidues>
 VAL166  LYS551  ARG553  GLY616  TRP617  ASP618  TYR619  PRO620  LYS621  CYS622 
 ASP623  PHE694  ASN695  SER759  ASP760  ASP761  ALA762  ILE779  LEU786  VAL792 
 PHE793  MET794  SER795  GLU796  ALA797  LYS798  CYS799  TRP800  GLU811  SER814 

> <Gold.Protein.RotatedAtoms>
  151.0274  134.9514  159.8092 H   0  0  0  0  0  0  0  0  0  0  0  0  # atno 6907 bound_to 6896
  152.5338  134.2825  159.9022 H   0  0  0  0  0  0  0  0  0  0  0  0  # atno 6908 bound_to 6896
  151.2833  133.4157  159.2662 H   0  0  0  0  0  0  0  0  0  0  0  0  # atno 6909 bound_to 6896
  146.2048  140.3437  142.8410 H   0  0  0  0  0  0  0  0  0  0  0  0  # atno 7974 bound_to 7965
  155.8337  140.0938  157.1777 H   0  0  0  0  0  0  0  0  0  0  0  0  # atno 8008 bound_to 7997
  154.3980  140.1414  156.3706 H   0  0  0  0  0  0  0  0  0  0  0  0  # atno 8009 bound_to 7997
  155.8138  140.3449  155.5476 H   0  0  0  0  0  0  0  0  0  0  0  0  # atno 8010 bound_to 7997
  139.6966  144.7100  151.1256 H   0  0  0  0  0  0  0  0  0  0  0  0  # atno 10167 bound_to 10162
  157.3681  131.0975  151.0854 H   0  0  0  0  0  0  0  0  0  0  0  0  # atno 10718 bound_to 10713
  154.5342  135.5707  153.6785 H   0  0  0  0  0  0  0  0  0  0  0  0  # atno 10763 bound_to 10752
  152.9947  135.6212  154.2588 H   0  0  0  0  0  0  0  0  0  0  0  0  # atno 10764 bound_to 10752
  154.2516  135.2859  155.2794 H   0  0  0  0  0  0  0  0  0  0  0  0  # atno 10765 bound_to 10752
  140.0506  134.5743  155.9269 H   0  0  0  0  0  0  0  0  0  0  0  0  # atno 11005 bound_to 11000
  144.8767  140.7346  143.6012 LP  0  0  0  0  0  0  0  0  0  0  0  0  # atno 17320 bound_to 7965
  145.3357  139.1746  143.4513 LP  0  0  0  0  0  0  0  0  0  0  0  0  # atno 17321 bound_to 7965
  140.7698  143.5482  150.9234 LP  0  0  0  0  0  0  0  0  0  0  0  0  # atno 17342 bound_to 10162
  139.9162  143.6660  152.3106 LP  0  0  0  0  0  0  0  0  0  0  0  0  # atno 17343 bound_to 10162
  157.1969  130.6377  149.5724 LP  0  0  0  0  0  0  0  0  0  0  0  0  # atno 17370 bound_to 10713
  155.9750  130.4704  150.6428 LP  0  0  0  0  0  0  0  0  0  0  0  0  # atno 17371 bound_to 10713
  141.1928  133.6576  156.5519 LP  0  0  0  0  0  0  0  0  0  0  0  0  # atno 17394 bound_to 11000
  140.3924  134.7428  157.4730 LP  0  0  0  0  0  0  0  0  0  0  0  0  # atno 17395 bound_to 11000

$$$$
