AV-unprocessed.smi:1893|AV-procd|sdf|7673|dock5
  -GOLD-   22720 9413D 1   1.00000     0.00000
 Structure written by MMmdl.
 43 44  0  0  0  0  0  0  0  0  2 V2000
  144.8044  134.7295  154.0482 C   0  0  0  0  0  0  0  0  0  0  0  0
  145.8983  135.2840  153.1097 C   0  0  2  0  0  0  0  0  0  0  0  0
  145.5514  135.0810  151.6198 C   0  0  0  0  0  0  0  0  0  0  0  0
  145.6964  133.6143  151.1878 C   0  0  0  0  0  0  0  0  0  0  0  0
  147.0981  133.0995  151.5372 C   0  0  0  0  0  0  0  0  0  0  0  0
  147.4162  133.3159  153.0258 C   0  0  0  0  0  0  0  0  0  0  0  0
  147.2614  134.7477  153.4038 N   0  3  2  0  0  0  0  0  0  0  0  0
  147.7383  135.0539  154.7765 C   0  0  0  0  0  0  0  0  0  0  0  0
  149.2700  134.9460  154.9026 C   0  0  0  0  0  0  0  0  0  0  0  0
  149.9250  136.1487  154.4038 N   0  0  0  0  0  0  0  0  0  0  0  0
  150.7344  136.9378  155.1280 C   0  0  0  0  0  0  0  0  0  0  0  0
  151.0350  136.6954  156.2976 O   0  0  0  0  0  0  0  0  0  0  0  0
  151.2641  138.1972  154.4258 C   0  0  2  0  0  0  0  0  0  0  0  0
  152.8051  138.2608  154.4061 C   0  0  0  0  0  0  0  0  0  0  0  0
  150.6649  139.3850  155.0223 N   0  0  0  0  0  0  0  0  0  0  0  0
  150.5981  139.7598  156.3019 C   0  0  0  0  0  0  0  0  0  0  0  0
  150.0276  140.9417  156.4888 N   0  0  0  0  0  0  0  0  0  0  0  0
  149.7533  141.2700  155.1915 C   0  0  0  0  0  0  0  0  0  0  0  0
  150.1286  140.3805  154.2726 N   0  0  0  0  0  0  0  0  0  0  0  0
  143.8350  135.1668  153.8074 H   0  0  0  0  0  0  0  0  0  0  0  0
  145.0073  134.9676  155.0923 H   0  0  0  0  0  0  0  0  0  0  0  0
  144.6982  133.6481  153.9707 H   0  0  0  0  0  0  0  0  0  0  0  0
  145.9391  136.3616  153.2748 H   0  0  0  0  0  0  0  0  0  0  0  0
  144.5402  135.4342  151.4138 H   0  0  0  0  0  0  0  0  0  0  0  0
  146.2151  135.6965  151.0107 H   0  0  0  0  0  0  0  0  0  0  0  0
  144.9416  133.0001  151.6796 H   0  0  0  0  0  0  0  0  0  0  0  0
  145.5194  133.5206  150.1159 H   0  0  0  0  0  0  0  0  0  0  0  0
  147.1787  132.0407  151.2888 H   0  0  0  0  0  0  0  0  0  0  0  0
  147.8394  133.6174  150.9269 H   0  0  0  0  0  0  0  0  0  0  0  0
  146.7735  132.6910  153.6466 H   0  0  0  0  0  0  0  0  0  0  0  0
  148.4368  132.9851  153.2140 H   0  0  0  0  0  0  0  0  0  0  0  0
  147.4517  136.0734  155.0399 H   0  0  0  0  0  0  0  0  0  0  0  0
  147.2392  134.3986  155.4921 H   0  0  0  0  0  0  0  0  0  0  0  0
  149.5780  134.7701  155.9335 H   0  0  0  0  0  0  0  0  0  0  0  0
  149.6319  134.0973  154.3216 H   0  0  0  0  0  0  0  0  0  0  0  0
  149.7339  136.4130  153.4479 H   0  0  0  0  0  0  0  0  0  0  0  0
  150.9313  138.1601  153.3869 H   0  0  0  0  0  0  0  0  0  0  0  0
  153.2273  137.3881  153.9068 H   0  0  0  0  0  0  0  0  0  0  0  0
  153.2293  138.3027  155.4103 H   0  0  0  0  0  0  0  0  0  0  0  0
  153.1497  139.1431  153.8660 H   0  0  0  0  0  0  0  0  0  0  0  0
  150.9822  139.1587  157.1132 H   0  0  0  0  0  0  0  0  0  0  0  0
  149.2717  142.1965  154.9150 H   0  0  0  0  0  0  0  0  0  0  0  0
  147.8767  135.2601  152.7883 H   0  0  0  0  0  0  0  0  0  0  0  0
  1  2  1  0  0  0  0
  1 20  1  0  0  0  0
  1 21  1  0  0  0  0
  1 22  1  0  0  0  0
  2  7  1  0  0  0  0
  2  3  1  0  0  0  0
  2 23  1  0  0  0  0
  3  4  1  0  0  0  0
  3 24  1  0  0  0  0
  3 25  1  0  0  0  0
  4  5  1  0  0  0  0
  4 26  1  0  0  0  0
  4 27  1  0  0  0  0
  5  6  1  0  0  0  0
  5 28  1  0  0  0  0
  5 29  1  0  0  0  0
  6  7  1  0  0  0  0
  6 30  1  0  0  0  0
  6 31  1  0  0  0  0
  7  8  1  0  0  0  0
  7 43  1  0  0  0  0
  8  9  1  0  0  0  0
  8 32  1  0  0  0  0
  8 33  1  0  0  0  0
  9 10  1  0  0  0  0
  9 34  1  0  0  0  0
  9 35  1  0  0  0  0
 10 11  1  0  0  0  0
 10 36  1  0  0  0  0
 11 12  2  0  0  0  0
 11 13  1  0  0  0  0
 13 14  1  0  0  0  0
 13 15  1  0  0  0  0
 13 37  1  0  0  0  0
 14 38  1  0  0  0  0
 14 39  1  0  0  0  0
 14 40  1  0  0  0  0
 15 19  1  0  0  0  0
 15 16  1  0  0  0  0
 16 17  2  0  0  0  0
 16 41  1  0  0  0  0
 17 18  1  0  0  0  0
 18 19  2  0  0  0  0
 18 42  1  0  0  0  0
M  CHG  1   7   1
M  END
> <s_m_source_file>
AV-unprocessed.smi

> <i_m_source_file_index>
1893

> <i_lp_mmshare_version>
43012

> <i_f3d_flags>
0

> <s_epik_input>
W0NIM11bQ0BASF0xW0NIMl1bQ0gyXVtDSDJdW0NIMl1OMVtDSDJdW0NIMl1bTkhdQyg9TylbQ0BIXShbQ0gzXSluMltjSF1uW2NIXW4y

> <s_epik_cmdline>
J2VwaWtfcHl0aG9uJywgJy1waCcsICc3LjAnLCAnLXRuJywgJzgnLCAnLW1hJywgJzIwMCcsICctbWV0YWxfYmluZGluZycsICctaW1hZScsICc8aW5maWxlLm1hZT4nLCAnLW9tYWUnLCAnPG91dGZpbGUubWFlPic=

> <r_lp_tautomer_probability>
1

> <r_epik_Ionization_Penalty>
0.00266409

> <r_epik_Ionization_Penalty_Charging>
0.00265606

> <r_epik_Ionization_Penalty_Neutral>
8.02794e-06

> <r_epik_State_Penalty>
0.00184955

> <r_epik_Charging_Adjusted_Penalty>
0.00450561

> <i_epik_Tot_Q>
1

> <i_epik_Tot_abs_Q>
1

> <r_epik_Metal_State_Penalty>
-0

> <b_epik_Metal_Only>
0

> <s_lp_Force_Field>
OPLS_2005

> <r_lp_Energy>
25.3191

> <b_lp_Chiralities_Consistent>
1

> <s_lp_Variant>
AV-unprocessed.smi:1893-3

> <Gold.Version>
5.8.1

> <Gold.Id.Protein>
6NUR|6NUR_protein|mol2

> <Gold.PLP.Fitness>
44.0914

> <Gold.PLP.PLP>
-30.6083

> <Gold.PLP.part.hbond>
-3.3948

> <Gold.PLP.part.metal>
0.0000

> <Gold.PLP.part.buried>
-3.8804

> <Gold.PLP.part.nonpolar>
-24.3462

> <Gold.PLP.part.repulsive>
0.2234

> <Gold.PLP.ligand.clash>
0.0000

> <Gold.PLP.ligand.torsion>
0.6098

> <Gold.PLP.Chemscore.Hbond>
3.8512

> <Gold.PLP.Chemscore.CHOScore>
1.0000

> <Gold.PLP.Chemscore.Metal>
0.0000

> <Gold.Chemscore.Hbonds>
donor molecule, donor type, donor heavy atom, donor atom, acceptor molecule, acceptor atom, score
      L1  H     7    43       P1  7948  2.00
      L1  H    10    36       P1  7948  1.00
      P1  H  7989  7998       L1    19  0.76
      L1  C    18    42       P1  8028  0.70

> <Gold.PLP.Chemscore.Internal.Correction>
0.1491

> <Gold.Rescore>
     Score         DG    S(hbond)    S(metal)    S(lipo)     H(rot)  DE(clash)    DE(int)     intcor
     12.32     -13.34       2.56        0.00      49.65       2.54       0.26       0.76       ----

> <Gold.Chemscore.Fitness>
12.3164

> <Gold.Chemscore.DG>
-13.3416

> <Gold.Chemscore.ZeroCoef>
-5.4800

> <Gold.Chemscore.Hbond>
2.5596

> <Gold.Chemscore.Metal>
0.0000

> <Gold.Chemscore.Lipo>
49.6512

> <Gold.Chemscore.Internal_Hbond>
0.0000

> <Gold.Chemscore.DEClash>
0.2635

> <Gold.Chemscore.DEInternal>
0.7617

> <Gold.Chemscore.Rot>
2.5377

> <Gold.Chemscore.Internal.Correction>
   9.000000E+99

> <Gold.Chemscore.Hbonds>
donor molecule, donor type, donor heavy atom, donor atom, acceptor molecule, acceptor atom, score
      L1  H     7    43       P1  7948  1.00
      L1  H    10    36       P1  7948  0.29
      P1  H  7989  7998       L1    19  0.10

> <Gold.Chemscore.Hbond.Weighted>
-8.5490

> <Gold.Chemscore.Metal.Weighted>
-0.0000

> <Gold.Chemscore.Lipo.Weighted>
-5.8092

> <Gold.Chemscore.Internal_Hbond.Weighted>
0.0000

> <Gold.Chemscore.DEClash.Weighted>
0.2635

> <Gold.Chemscore.DEInternal.Weighted>
0.7617

> <Gold.Chemscore.Rot.Weighted>
6.4966

> <Gold.Chemscore.Internal.Correction.Weighted>
   9.000000E+99

> <Gold.Protein.RotatedTorsions>
[ 6907 6896 6895 6894 ] final   18.35 input  -60.11 | X-H torsion
[ 7974 7965 7964 7962 ] final  127.31 input  175.53 | X-H torsion
[ 8008 7997 7996 7995 ] final -164.23 input   59.86 | X-H torsion
[ 10167 10162 10161 10158 ] final  -18.22 input  -65.29 | X-H torsion
[ 10718 10713 10712 10709 ] final   43.64 input   66.30 | X-H torsion
[ 10763 10752 10751 10750 ] final   75.14 input  -60.55 | X-H torsion
[ 11005 11000 10999 10996 ] final -171.86 input  -57.11 | X-H torsion

> <Gold.Protein.ActiveResidues>
 VAL166  LYS551  ARG553  GLY616  TRP617  ASP618  TYR619  PRO620  LYS621  CYS622 
 ASP623  PHE694  ASN695  SER759  ASP760  ASP761  ALA762  ILE779  LEU786  VAL792 
 PHE793  MET794  SER795  GLU796  ALA797  LYS798  CYS799  TRP800  GLU811  SER814 

> <Gold.Protein.RotatedAtoms>
  151.8639  135.0514  160.0471 H   0  0  0  0  0  0  0  0  0  0  0  0  # atno 6907 bound_to 6896
  152.2641  133.5319  159.5408 H   0  0  0  0  0  0  0  0  0  0  0  0  # atno 6908 bound_to 6896
  150.7127  134.0705  159.3905 H   0  0  0  0  0  0  0  0  0  0  0  0  # atno 6909 bound_to 6896
  145.0520  139.3875  143.5049 H   0  0  0  0  0  0  0  0  0  0  0  0  # atno 7974 bound_to 7965
  155.8326  140.0936  157.1783 H   0  0  0  0  0  0  0  0  0  0  0  0  # atno 8008 bound_to 7997
  154.3980  140.1416  156.3693 H   0  0  0  0  0  0  0  0  0  0  0  0  # atno 8009 bound_to 7997
  155.8150  140.3448  155.5482 H   0  0  0  0  0  0  0  0  0  0  0  0  # atno 8010 bound_to 7997
  140.7256  143.4937  150.9958 H   0  0  0  0  0  0  0  0  0  0  0  0  # atno 10167 bound_to 10162
  157.4181  130.7953  149.7490 H   0  0  0  0  0  0  0  0  0  0  0  0  # atno 10718 bound_to 10713
  153.0635  135.4999  154.8146 H   0  0  0  0  0  0  0  0  0  0  0  0  # atno 10763 bound_to 10752
  154.6918  135.2986  154.9471 H   0  0  0  0  0  0  0  0  0  0  0  0  # atno 10764 bound_to 10752
  154.0223  135.6740  153.4826 H   0  0  0  0  0  0  0  0  0  0  0  0  # atno 10765 bound_to 10752
  140.5034  134.5871  157.4995 H   0  0  0  0  0  0  0  0  0  0  0  0  # atno 11005 bound_to 11000
  146.3518  140.0174  142.8661 LP  0  0  0  0  0  0  0  0  0  0  0  0  # atno 17320 bound_to 7965
  145.1516  140.9626  143.4429 LP  0  0  0  0  0  0  0  0  0  0  0  0  # atno 17321 bound_to 7965
  139.8643  143.7274  152.3171 LP  0  0  0  0  0  0  0  0  0  0  0  0  # atno 17342 bound_to 10162
  139.7500  144.7536  151.0520 LP  0  0  0  0  0  0  0  0  0  0  0  0  # atno 17343 bound_to 10162
  155.9872  130.3969  150.3178 LP  0  0  0  0  0  0  0  0  0  0  0  0  # atno 17370 bound_to 10713
  157.1323  131.0275  151.2964 LP  0  0  0  0  0  0  0  0  0  0  0  0  # atno 17371 bound_to 10713
  139.9700  134.7309  156.0061 LP  0  0  0  0  0  0  0  0  0  0  0  0  # atno 17394 bound_to 11000
  141.1423  133.6562  156.3766 LP  0  0  0  0  0  0  0  0  0  0  0  0  # atno 17395 bound_to 11000

$$$$
