AV-unprocessed.smi:1715|AV-procd|sdf|6915|dock10
  -GOLD-   22720 8123D 1   1.00000     0.00000
 Structure written by MMmdl.
 41 42  0  0  0  0  0  0  0  0  2 V2000
  146.0132  132.4199  149.2180 C   0  0  0  0  0  0  0  0  0  0  0  0
  146.4722  133.2379  150.4297 C   0  0  1  0  0  0  0  0  0  0  0  0
  145.6321  134.5140  150.6154 C   0  0  0  0  0  0  0  0  0  0  0  0
  146.0430  135.2323  151.8438 N   0  3  1  0  0  0  0  0  0  0  0  0
  145.3294  136.5231  152.0069 C   0  0  0  0  0  0  0  0  0  0  0  0
  143.8354  136.3346  152.3360 C   0  0  0  0  0  0  0  0  0  0  0  0
  143.1643  137.6137  152.5355 N   0  0  0  0  0  0  0  0  0  0  0  0
  141.9193  137.7622  153.0100 C   0  0  0  0  0  0  0  0  0  0  0  0
  141.1970  136.8170  153.3276 O   0  0  0  0  0  0  0  0  0  0  0  0
  141.5769  139.0585  153.0867 N   0  0  0  0  0  0  0  0  0  0  0  0
  140.3410  139.5979  153.5246 C   0  0  0  0  0  0  0  0  0  0  0  0
  139.9629  140.9621  153.3967 C   0  0  0  0  0  0  0  0  0  0  0  0
  138.7526  141.1770  153.8921 N   0  0  0  0  0  0  0  0  0  0  0  0
  138.3543  139.9626  154.3342 N   0  0  0  0  0  0  0  0  0  0  0  0
  139.2888  138.9712  154.1313 C   0  0  0  0  0  0  0  0  0  0  0  0
  145.9303  134.3375  153.0224 C   0  0  0  0  0  0  0  0  0  0  0  0
  146.7303  133.0370  152.8113 C   0  0  2  0  0  0  0  0  0  0  0  0
  148.2538  133.2293  152.9157 C   0  0  0  0  0  0  0  0  0  0  0  0
  146.3459  132.4143  151.5857 O   0  0  0  0  0  0  0  0  0  0  0  0
  137.4519  139.8275  154.7677 H   0  0  0  0  0  0  0  0  0  0  0  0
  146.1005  132.9973  148.2974 H   0  0  0  0  0  0  0  0  0  0  0  0
  144.9728  132.1099  149.3217 H   0  0  0  0  0  0  0  0  0  0  0  0
  146.6182  131.5201  149.1042 H   0  0  0  0  0  0  0  0  0  0  0  0
  147.5184  133.5056  150.2798 H   0  0  0  0  0  0  0  0  0  0  0  0
  145.7592  135.1625  149.7475 H   0  0  0  0  0  0  0  0  0  0  0  0
  144.5709  134.2660  150.6771 H   0  0  0  0  0  0  0  0  0  0  0  0
  145.7872  137.0822  152.8244 H   0  0  0  0  0  0  0  0  0  0  0  0
  145.4623  137.1276  151.1085 H   0  0  0  0  0  0  0  0  0  0  0  0
  143.3180  135.7836  151.5504 H   0  0  0  0  0  0  0  0  0  0  0  0
  143.7269  135.7497  153.2496 H   0  0  0  0  0  0  0  0  0  0  0  0
  143.6868  138.4457  152.3021 H   0  0  0  0  0  0  0  0  0  0  0  0
  142.2718  139.7320  152.7994 H   0  0  0  0  0  0  0  0  0  0  0  0
  140.5148  141.7864  152.9694 H   0  0  0  0  0  0  0  0  0  0  0  0
  139.1193  137.9472  154.4291 H   0  0  0  0  0  0  0  0  0  0  0  0
  146.2807  134.8352  153.9258 H   0  0  0  0  0  0  0  0  0  0  0  0
  144.8787  134.0963  153.1859 H   0  0  0  0  0  0  0  0  0  0  0  0
  146.4471  132.3422  153.6026 H   0  0  0  0  0  0  0  0  0  0  0  0
  148.5311  133.5775  153.9108 H   0  0  0  0  0  0  0  0  0  0  0  0
  148.6302  133.9612  152.2015 H   0  0  0  0  0  0  0  0  0  0  0  0
  148.7772  132.2895  152.7393 H   0  0  0  0  0  0  0  0  0  0  0  0
  147.0219  135.4540  151.7295 H   0  0  0  0  0  0  0  0  0  0  0  0
  1  2  1  0  0  0  0
  1 21  1  0  0  0  0
  1 22  1  0  0  0  0
  1 23  1  0  0  0  0
  2 19  1  0  0  0  0
  2  3  1  0  0  0  0
  2 24  1  0  0  0  0
  3  4  1  0  0  0  0
  3 25  1  0  0  0  0
  3 26  1  0  0  0  0
  4  5  1  0  0  0  0
  4 16  1  0  0  0  0
  4 41  1  0  0  0  0
  5  6  1  0  0  0  0
  5 27  1  0  0  0  0
  5 28  1  0  0  0  0
  6  7  1  0  0  0  0
  6 29  1  0  0  0  0
  6 30  1  0  0  0  0
  7  8  1  0  0  0  0
  7 31  1  0  0  0  0
  8  9  2  0  0  0  0
  8 10  1  0  0  0  0
 10 11  1  0  0  0  0
 10 32  1  0  0  0  0
 11 15  2  0  0  0  0
 11 12  1  0  0  0  0
 12 13  2  0  0  0  0
 12 33  1  0  0  0  0
 13 14  1  0  0  0  0
 14 20  1  0  0  0  0
 14 15  1  0  0  0  0
 15 34  1  0  0  0  0
 16 17  1  0  0  0  0
 16 35  1  0  0  0  0
 16 36  1  0  0  0  0
 17 18  1  0  0  0  0
 17 19  1  0  0  0  0
 17 37  1  0  0  0  0
 18 38  1  0  0  0  0
 18 39  1  0  0  0  0
 18 40  1  0  0  0  0
M  CHG  1   4   1
M  END
> <s_m_source_file>
AV-unprocessed.smi

> <i_m_source_file_index>
1715

> <i_lp_mmshare_version>
43012

> <i_f3d_flags>
0

> <s_epik_input>
W0NIM11bQ0BASF0xW0NIMl1OKFtDSDJdW0NASF0oTzEpW0NIM10pW0NIMl1bQ0gyXVtOSF1DKD1PKVtOSF1jMltjSF1uW25IXVtjSF0y

> <s_epik_cmdline>
J2VwaWtfcHl0aG9uJywgJy1waCcsICc3LjAnLCAnLXRuJywgJzgnLCAnLW1hJywgJzIwMCcsICctbWV0YWxfYmluZGluZycsICctaW1hZScsICc8aW5maWxlLm1hZT4nLCAnLW9tYWUnLCAnPG91dGZpbGUubWFlPic=

> <r_lp_tautomer_probability>
0.5

> <r_epik_Ionization_Penalty>
0.646007

> <r_epik_Ionization_Penalty_Charging>
0.645968

> <r_epik_Ionization_Penalty_Neutral>
3.91671e-05

> <r_epik_State_Penalty>
0.664063

> <r_epik_Charging_Adjusted_Penalty>
1.31003

> <i_epik_Tot_Q>
1

> <i_epik_Tot_abs_Q>
1

> <r_epik_Metal_State_Penalty>
0.664064

> <b_epik_Metal_Only>
0

> <s_lp_Force_Field>
OPLS_2005

> <r_lp_Energy>
20.0624

> <b_lp_Chiralities_Consistent>
1

> <s_lp_Variant>
AV-unprocessed.smi:1715-7

> <Gold.Version>
5.8.1

> <Gold.Id.Protein>
6NUR|6NUR_protein|mol2

> <Gold.PLP.Fitness>
42.8422

> <Gold.PLP.PLP>
-26.8057

> <Gold.PLP.part.hbond>
-4.6534

> <Gold.PLP.part.metal>
0.0000

> <Gold.PLP.part.buried>
1.2684

> <Gold.PLP.part.nonpolar>
-22.2493

> <Gold.PLP.part.repulsive>
0.4131

> <Gold.PLP.ligand.clash>
0.0000

> <Gold.PLP.ligand.torsion>
0.0932

> <Gold.PLP.Chemscore.Hbond>
3.8640

> <Gold.PLP.Chemscore.CHOScore>
1.5384

> <Gold.PLP.Chemscore.Metal>
0.0000

> <Gold.Chemscore.Hbonds>
donor molecule, donor type, donor heavy atom, donor atom, acceptor molecule, acceptor atom, score
      L1  H     4    41       P1  7948  1.92
      L1  H     7    31       P1 10175  0.85
      L1  H    10    32       P1 10175  0.99
      L1  C    12    33       P1 10160  0.15
      L1  C    12    33       P1 10162  0.37
      L1  C    12    33       P1 10174  1.00

> <Gold.PLP.Chemscore.Internal.Correction>
0.0157

> <Gold.Rescore>
     Score         DG    S(hbond)    S(metal)    S(lipo)     H(rot)  DE(clash)    DE(int)     intcor
     16.36     -17.56       2.78        0.00      60.24       1.67       0.03       1.17       ----

> <Gold.Chemscore.Fitness>
16.3588

> <Gold.Chemscore.DG>
-17.5581

> <Gold.Chemscore.ZeroCoef>
-5.4800

> <Gold.Chemscore.Hbond>
2.7839

> <Gold.Chemscore.Metal>
0.0000

> <Gold.Chemscore.Lipo>
60.2367

> <Gold.Chemscore.Internal_Hbond>
0.0000

> <Gold.Chemscore.DEClash>
0.0332

> <Gold.Chemscore.DEInternal>
1.1662

> <Gold.Chemscore.Rot>
1.6671

> <Gold.Chemscore.Internal.Correction>
   9.000000E+99

> <Gold.Chemscore.Hbonds>
donor molecule, donor type, donor heavy atom, donor atom, acceptor molecule, acceptor atom, score
      L1  H     4    41       P1  7948  0.91
      L1  H     7    31       P1 10175  0.80
      L1  H    10    32       P1 10175  0.60

> <Gold.Chemscore.Hbond.Weighted>
-9.2981

> <Gold.Chemscore.Metal.Weighted>
-0.0000

> <Gold.Chemscore.Lipo.Weighted>
-7.0477

> <Gold.Chemscore.Internal_Hbond.Weighted>
0.0000

> <Gold.Chemscore.DEClash.Weighted>
0.0332

> <Gold.Chemscore.DEInternal.Weighted>
1.1662

> <Gold.Chemscore.Rot.Weighted>
4.2677

> <Gold.Chemscore.Internal.Correction.Weighted>
   9.000000E+99

> <Gold.Protein.RotatedTorsions>
[ 6907 6896 6895 6894 ] final  104.57 input  -60.11 | X-H torsion
[ 7974 7965 7964 7962 ] final   36.89 input  175.53 | X-H torsion
[ 8008 7997 7996 7995 ] final    7.59 input   59.86 | X-H torsion
[ 10167 10162 10161 10158 ] final  147.58 input  -65.29 | X-H torsion
[ 10718 10713 10712 10709 ] final  160.99 input   66.30 | X-H torsion
[ 10763 10752 10751 10750 ] final  -54.48 input  -60.55 | X-H torsion
[ 11005 11000 10999 10996 ] final  173.35 input  -57.11 | X-H torsion

> <Gold.Protein.ActiveResidues>
 VAL166  LYS551  ARG553  GLY616  TRP617  ASP618  TYR619  PRO620  LYS621  CYS622 
 ASP623  PHE694  ASN695  SER759  ASP760  ASP761  ALA762  ILE779  LEU786  VAL792 
 PHE793  MET794  SER795  GLU796  ALA797  LYS798  CYS799  TRP800  GLU811  SER814 

> <Gold.Protein.RotatedAtoms>
  152.5260  133.9657  159.7737 H   0  0  0  0  0  0  0  0  0  0  0  0  # atno 6907 bound_to 6896
  150.9939  133.6114  159.2711 H   0  0  0  0  0  0  0  0  0  0  0  0  # atno 6908 bound_to 6896
  151.3248  135.0833  159.9371 H   0  0  0  0  0  0  0  0  0  0  0  0  # atno 6909 bound_to 6896
  146.1178  139.5961  142.9310 H   0  0  0  0  0  0  0  0  0  0  0  0  # atno 7974 bound_to 7965
  154.7559  140.2775  155.6254 H   0  0  0  0  0  0  0  0  0  0  0  0  # atno 8008 bound_to 7997
  156.2905  140.2669  156.2251 H   0  0  0  0  0  0  0  0  0  0  0  0  # atno 8009 bound_to 7997
  155.0079  140.0372  157.2377 H   0  0  0  0  0  0  0  0  0  0  0  0  # atno 8010 bound_to 7997
  139.4888  144.5744  151.6993 H   0  0  0  0  0  0  0  0  0  0  0  0  # atno 10167 bound_to 10162
  157.1428  131.0545  151.2318 H   0  0  0  0  0  0  0  0  0  0  0  0  # atno 10718 bound_to 10713
  154.1755  135.6452  153.5020 H   0  0  0  0  0  0  0  0  0  0  0  0  # atno 10763 bound_to 10752
  153.0073  135.5393  154.6568 H   0  0  0  0  0  0  0  0  0  0  0  0  # atno 10764 bound_to 10752
  154.5918  135.2935  155.0599 H   0  0  0  0  0  0  0  0  0  0  0  0  # atno 10765 bound_to 10752
  140.3396  134.7288  157.4193 H   0  0  0  0  0  0  0  0  0  0  0  0  # atno 11005 bound_to 11000
  145.5530  141.0411  143.2268 LP  0  0  0  0  0  0  0  0  0  0  0  0  # atno 17320 bound_to 7965
  144.7569  139.7053  143.7250 LP  0  0  0  0  0  0  0  0  0  0  0  0  # atno 17321 bound_to 7965
  140.5338  144.0689  150.6063 LP  0  0  0  0  0  0  0  0  0  0  0  0  # atno 17342 bound_to 10162
  140.3688  143.2866  152.0302 LP  0  0  0  0  0  0  0  0  0  0  0  0  # atno 17343 bound_to 10162
  157.4291  130.7480  149.6975 LP  0  0  0  0  0  0  0  0  0  0  0  0  # atno 17370 bound_to 10713
  155.9785  130.4050  150.3643 LP  0  0  0  0  0  0  0  0  0  0  0  0  # atno 17371 bound_to 10713
  140.0792  134.5754  155.8558 LP  0  0  0  0  0  0  0  0  0  0  0  0  # atno 17394 bound_to 11000
  141.2042  133.6637  156.6107 LP  0  0  0  0  0  0  0  0  0  0  0  0  # atno 17395 bound_to 11000

$$$$
