#       Name:                AV-unprocessed.smi:2648
#       Creating user name   scv26
#       Creation time:       Fri Mar 27 14:30:12 2020


#       File generated by GOLD software.
#

@<TRIPOS>MOLECULE
AV-unprocessed.smi:2648
    39    40     1
SMALL
NO_CHARGES


@<TRIPOS>ATOM
      1 ****        -0.1859   1.3057  -0.4530 O.2            1 S1                 0.0000
      2 ****        -0.6717   0.1795  -0.5544 C.2            1 S1                 0.0000
      3 ****         0.0623  -0.9403  -0.6211 N.am           1 S1                 0.0000
      4 ****         1.5187  -0.9856  -0.5812 C.3            1 S1                 0.0000
      5 ****         2.0443  -0.9065   0.8633 C.3            1 S1                 0.0000
      6 ****         3.5071  -0.9868   0.8992 N.am           1 S1                 0.0000
      7 ****         4.1957  -2.1265   1.0136 C.2            1 S1                 0.0000
      8 ****         3.7532  -3.2709   1.1158 O.2            1 S1                 0.0000
      9 ****         5.6648  -1.7749   0.9859 C.3            1 S1                 0.0000
     10 ****         5.6357  -0.3377   0.8334 N.pl3          1 S1                -1.0000
     11 ****         4.3434   0.0625   0.7843 C.2            1 S1                 0.0000
     12 ****         3.9353   1.2157   0.6491 O.2            1 S1                 0.0000
     13 ****        -1.9870  -0.0963  -0.5907 N.am           1 S1                 0.0000
     14 ****        -3.0805   0.8111  -0.5556 C.ar           1 S1                 0.0000
     15 ****        -4.3337   0.3107  -0.1372 C.ar           1 S1                 0.0000
     16 ****        -5.4500   1.1711  -0.1017 C.ar           1 S1                 0.0000
     17 ****        -5.3167   2.4614  -0.4769 N.pl3          1 S1                 1.0000
     18 ****        -4.1439   2.9815  -0.8983 C.ar           1 S1                 0.0000
     19 ****        -2.9927   2.1694  -0.9545 C.ar           1 S1                 0.0000
     20 ****        -0.4160  -1.8258  -0.6988 H              1 S1                 0.0000
     21 ****         1.8391  -1.9197  -1.0437 H              1 S1                 0.0000
     22 ****         1.9370  -0.1802  -1.1877 H              1 S1                 0.0000
     23 ****         1.7143   0.0196   1.3366 H              1 S1                 0.0000
     24 ****         1.6131  -1.7111   1.4614 H              1 S1                 0.0000
     25 ****         6.1416  -2.1005   1.9109 H              1 S1                 0.0000
     26 ****         6.1535  -2.2861   0.1556 H              1 S1                 0.0000
     27 ****        -2.2333  -1.0753  -0.5846 H              1 S1                 0.0000
     28 ****        -4.4414  -0.7222   0.1612 H              1 S1                 0.0000
     29 ****        -6.4383   0.8671   0.2114 H              1 S1                 0.0000
     30 ****        -4.1616   4.0238  -1.1823 H              1 S1                 0.0000
     31 ****        -2.0706   2.6008  -1.3134 H              1 S1                 0.0000
     32 ****        -6.1373   3.0673  -0.4457 H              1 S1                 0.0000
     33 ****         0.8068   1.4205  -0.4162 LP             1 S1                 0.0000
     34 ****        -0.7838   2.1059  -0.4074 LP             1 S1                 0.0000
     35 ****         2.7654  -3.4266   1.1193 LP             1 S1                 0.0000
     36 ****         4.3817  -4.0447   1.1952 LP             1 S1                 0.0000
     37 ****         6.4353   0.2600   0.7741 LP             1 S1                 0.0000
     38 ****         2.9525   1.3983   0.6215 LP             1 S1                 0.0000
     39 ****         4.5866   1.9701   0.5668 LP             1 S1                 0.0000
@<TRIPOS>BOND
    1    1    2 2     
    2    2    3 am    
    3    2   13 am    
    4    3    4 1     
    5    3   20 1     
    6    4    5 1     
    7    4   21 1     
    8    4   22 1     
    9    5    6 1     
   10    5   23 1     
   11    5   24 1     
   12    6   11 am    
   13    6    7 am    
   14    7    8 2     
   15    7    9 1     
   16    9   10 1     
   17    9   25 1     
   18    9   26 1     
   19   10   11 1     
   20   11   12 2     
   21   13   14 1     
   22   13   27 1     
   23   14   19 ar    
   24   14   15 ar    
   25   15   16 ar    
   26   15   28 1     
   27   16   17 ar    
   28   16   29 1     
   29   17   18 ar    
   30   17   32 1     
   31   18   19 ar    
   32   18   30 1     
   33   19   31 1     
   34    1   33 1     
   35    1   34 1     
   36    8   35 1     
   37    8   36 1     
   38   10   37 1     
   39   12   38 1     
   40   12   39 1     
@<TRIPOS>SUBSTRUCTURE
      1 S1             1
@<TRIPOS>SET
LONE_PAIRS      STATIC     ATOMS    <user>   **** ""
7 33 34 35 36 37 38 39
DONOR_HYDROGENS      STATIC     ATOMS    <user>   **** ""
3 20 27 32
ATOM$BLUE        STATIC     ATOMS    COLORGROUP SYSTEM
7 33 34 35 36 37 38 39
ATOM$RED        STATIC     ATOMS    COLORGROUP SYSTEM
3 20 27 32
