AV-unprocessed.smi:107|AV-procd|sdf|1015|dock4
  -GOLD-   2262018 13D 1   1.00000     0.00000
 Structure written by MMmdl.
 31 32  0  0  0  0  0  0  0  0  1 V2000
  151.8025  144.7608  158.5192 C   0  0  0  0  0  0  0  0  0  0  0  0
  151.6485  143.2515  158.6098 C   0  0  0  0  0  0  0  0  0  0  0  0
  150.7900  142.5587  157.8187 C   0  0  0  0  0  0  0  0  0  0  0  0
  150.6311  141.1810  157.8740 N   0  0  0  0  0  0  0  0  0  0  0  0
  149.6621  140.4687  156.9579 C   0  0  2  0  0  0  0  0  0  0  0  0
  150.4122  139.6252  155.9255 C   0  0  0  0  0  0  0  0  0  0  0  0
  149.5616  139.8305  154.6895 C   0  0  2  0  0  0  0  0  0  0  0  0
  150.3293  139.6396  153.5188 O   0  0  0  0  0  0  0  0  0  0  0  0
  149.0993  141.2809  154.8604 C   0  0  1  0  0  0  0  0  0  0  0  0
  147.7935  141.6310  154.1301 C   0  0  0  0  0  0  0  0  0  0  0  0
  147.5665  143.0240  154.1596 O   0  0  0  0  0  0  0  0  0  0  0  0
  148.9060  141.4204  156.2667 O   0  0  0  0  0  0  0  0  0  0  0  0
  151.4110  140.4316  158.7794 C   0  0  0  0  0  0  0  0  0  0  0  0
  151.3499  139.2058  158.8649 O   0  0  0  0  0  0  0  0  0  0  0  0
  152.2891  141.1425  159.5955 N   0  0  0  0  0  0  0  0  0  0  0  0
  152.4692  142.5279  159.5846 C   0  0  0  0  0  0  0  0  0  0  0  0
  153.2747  143.0415  160.3590 O   0  0  0  0  0  0  0  0  0  0  0  0
  152.8470  140.6103  160.2473 H   0  0  0  0  0  0  0  0  0  0  0  0
  151.1334  145.1916  157.7741 H   0  0  0  0  0  0  0  0  0  0  0  0
  152.8243  145.0227  158.2423 H   0  0  0  0  0  0  0  0  0  0  0  0
  151.5774  145.2263  159.4793 H   0  0  0  0  0  0  0  0  0  0  0  0
  150.2044  143.1140  157.1019 H   0  0  0  0  0  0  0  0  0  0  0  0
  148.9735  139.8889  157.5743 H   0  0  0  0  0  0  0  0  0  0  0  0
  151.4153  140.0298  155.7782 H   0  0  0  0  0  0  0  0  0  0  0  0
  150.4905  138.5851  156.2434 H   0  0  0  0  0  0  0  0  0  0  0  0
  148.7111  139.1475  154.7016 H   0  0  0  0  0  0  0  0  0  0  0  0
  149.7979  139.8713  152.7720 H   0  0  0  0  0  0  0  0  0  0  0  0
  149.8948  141.9680  154.5667 H   0  0  0  0  0  0  0  0  0  0  0  0
  147.8163  141.2842  153.0966 H   0  0  0  0  0  0  0  0  0  0  0  0
  146.9505  141.1392  154.6160 H   0  0  0  0  0  0  0  0  0  0  0  0
  148.0654  143.3946  154.8717 H   0  0  0  0  0  0  0  0  0  0  0  0
  1  2  1  0  0  0  0
  1 19  1  0  0  0  0
  1 20  1  0  0  0  0
  1 21  1  0  0  0  0
  2 16  1  0  0  0  0
  2  3  2  0  0  0  0
  3  4  1  0  0  0  0
  3 22  1  0  0  0  0
  4  5  1  0  0  0  0
  4 13  1  0  0  0  0
  5 12  1  0  0  0  0
  5  6  1  0  0  0  0
  5 23  1  0  0  0  0
  6  7  1  0  0  0  0
  6 24  1  0  0  0  0
  6 25  1  0  0  0  0
  7  8  1  0  0  0  0
  7  9  1  0  0  0  0
  7 26  1  0  0  0  0
  8 27  1  0  0  0  0
  9 10  1  0  0  0  0
  9 12  1  0  0  0  0
  9 28  1  0  0  0  0
 10 11  1  0  0  0  0
 10 29  1  0  0  0  0
 10 30  1  0  0  0  0
 11 31  1  0  0  0  0
 13 14  2  0  0  0  0
 13 15  1  0  0  0  0
 15 18  1  0  0  0  0
 15 16  1  0  0  0  0
 16 17  2  0  0  0  0
M  END
> <s_m_source_file>
AV-unprocessed.smi

> <i_m_source_file_index>
107

> <i_lp_mmshare_version>
43012

> <i_f3d_flags>
0

> <s_epik_input>
Tz1jMVtuSF1jKD1PKW4oW2NIXWMxW0NIM10pW0NAQEhdMltDSDJdW0NAQEhdKFtPSF0pW0NASF0oTzIpW0NIMl1bT0hd

> <s_epik_cmdline>
J2VwaWtfcHl0aG9uJywgJy1waCcsICc3LjAnLCAnLXRuJywgJzgnLCAnLW1hJywgJzIwMCcsICctbWV0YWxfYmluZGluZycsICctaW1hZScsICc8aW5maWxlLm1hZT4nLCAnLW9tYWUnLCAnPG91dGZpbGUubWFlPic=

> <r_lp_tautomer_probability>
0.999537

> <r_epik_Ionization_Penalty>
0.00121888

> <r_epik_Ionization_Penalty_Charging>
0.00121876

> <r_epik_Ionization_Penalty_Neutral>
1.19946e-07

> <r_epik_State_Penalty>
0.000805124

> <r_epik_Charging_Adjusted_Penalty>
0.00202389

> <i_epik_Tot_Q>
0

> <i_epik_Tot_abs_Q>
0

> <r_epik_Metal_State_Penalty>
0.662472

> <b_epik_Metal_Only>
0

> <s_epik_Chemistry_Notes>
This compound contains an acetal/aminal-like group ( X-CH(R)-Y where X, Y are N, S, or O) that may be acid/base labile, releasing an aldehyde.

> <s_lp_Force_Field>
OPLS_2005

> <r_lp_Energy>
24.0727

> <b_lp_Chiralities_Consistent>
1

> <s_lp_Variant>
AV-unprocessed.smi:107-3

> <Gold.Version>
5.8.1

> <Gold.Id.Protein>
6NUR|6NUR_protein|mol2

> <Gold.PLP.Fitness>
42.0979

> <Gold.PLP.PLP>
-30.9940

> <Gold.PLP.part.hbond>
-4.7661

> <Gold.PLP.part.metal>
0.0000

> <Gold.PLP.part.buried>
-1.5783

> <Gold.PLP.part.nonpolar>
-25.3617

> <Gold.PLP.part.repulsive>
0.2389

> <Gold.PLP.ligand.clash>
0.0000

> <Gold.PLP.ligand.torsion>
0.1879

> <Gold.PLP.Chemscore.Hbond>
2.8240

> <Gold.PLP.Chemscore.CHOScore>
1.0000

> <Gold.PLP.Chemscore.Metal>
0.0000

> <Gold.Chemscore.Hbonds>
donor molecule, donor type, donor heavy atom, donor atom, acceptor molecule, acceptor atom, score
      L1  H     8    27       P1  7957  0.99
      L1  H    11    31       P1  8028  1.00
      P1  H  7989  7998       L1     8  0.82
      L1  C     3    22       P1  8028  1.00

> <Gold.PLP.Chemscore.Internal.Correction>
0.0077

> <Gold.Rescore>
     Score         DG    S(hbond)    S(metal)    S(lipo)     H(rot)  DE(clash)    DE(int)     intcor
     11.37     -11.61       1.88        0.00      58.21       2.73       0.06       0.17       ----

> <Gold.Chemscore.Fitness>
11.3722

> <Gold.Chemscore.DG>
-11.6061

> <Gold.Chemscore.ZeroCoef>
-5.4800

> <Gold.Chemscore.Hbond>
1.8841

> <Gold.Chemscore.Metal>
0.0000

> <Gold.Chemscore.Lipo>
58.2057

> <Gold.Chemscore.Internal_Hbond>
0.0000

> <Gold.Chemscore.DEClash>
0.0610

> <Gold.Chemscore.DEInternal>
0.1728

> <Gold.Chemscore.Rot>
2.7253

> <Gold.Chemscore.Internal.Correction>
   9.000000E+99

> <Gold.Chemscore.Hbonds>
donor molecule, donor type, donor heavy atom, donor atom, acceptor molecule, acceptor atom, score
      L1  H     8    27       P1  7957  0.94
      L1  H    11    31       P1  8028  0.81
      P1  H  7989  7998       L1     8  0.20

> <Gold.Chemscore.Hbond.Weighted>
-6.2929

> <Gold.Chemscore.Metal.Weighted>
-0.0000

> <Gold.Chemscore.Lipo.Weighted>
-6.8101

> <Gold.Chemscore.Internal_Hbond.Weighted>
0.0000

> <Gold.Chemscore.DEClash.Weighted>
0.0610

> <Gold.Chemscore.DEInternal.Weighted>
0.1728

> <Gold.Chemscore.Rot.Weighted>
6.9769

> <Gold.Chemscore.Internal.Correction.Weighted>
   9.000000E+99

> <Gold.Protein.RotatedTorsions>
[ 6907 6896 6895 6894 ] final  156.65 input  -60.11 | X-H torsion
[ 7974 7965 7964 7962 ] final -173.99 input  175.53 | X-H torsion
[ 8008 7997 7996 7995 ] final   30.27 input   59.86 | X-H torsion
[ 10167 10162 10161 10158 ] final  -53.14 input  -65.29 | X-H torsion
[ 10718 10713 10712 10709 ] final  102.47 input   66.30 | X-H torsion
[ 10763 10752 10751 10750 ] final   75.05 input  -60.55 | X-H torsion
[ 11005 11000 10999 10996 ] final  123.41 input  -57.11 | X-H torsion

> <Gold.Protein.ActiveResidues>
 VAL166  LYS551  ARG553  GLY616  TRP617  ASP618  TYR619  PRO620  LYS621  CYS622 
 ASP623  PHE694  ASN695  SER759  ASP760  ASP761  ALA762  ILE779  LEU786  VAL792 
 PHE793  MET794  SER795  GLU796  ALA797  LYS798  CYS799  TRP800  GLU811  SER814 

> <Gold.Protein.RotatedAtoms>
  152.0267  133.3920  159.4279 H   0  0  0  0  0  0  0  0  0  0  0  0  # atno 6907 bound_to 6896
  150.6885  134.3566  159.4941 H   0  0  0  0  0  0  0  0  0  0  0  0  # atno 6908 bound_to 6896
  152.1347  134.9107  160.0607 H   0  0  0  0  0  0  0  0  0  0  0  0  # atno 6909 bound_to 6896
  144.7134  140.1539  143.6382 H   0  0  0  0  0  0  0  0  0  0  0  0  # atno 7974 bound_to 7965
  155.0878  140.3217  155.4582 H   0  0  0  0  0  0  0  0  0  0  0  0  # atno 8008 bound_to 7997
  156.2750  140.2083  156.5951 H   0  0  0  0  0  0  0  0  0  0  0  0  # atno 8009 bound_to 7997
  154.6927  140.0515  157.0367 H   0  0  0  0  0  0  0  0  0  0  0  0  # atno 8010 bound_to 7997
  140.6500  143.2560  151.4750 H   0  0  0  0  0  0  0  0  0  0  0  0  # atno 10167 bound_to 10162
  157.6801  131.0753  150.5408 H   0  0  0  0  0  0  0  0  0  0  0  0  # atno 10718 bound_to 10713
  153.0628  135.5003  154.8133 H   0  0  0  0  0  0  0  0  0  0  0  0  # atno 10763 bound_to 10752
  154.6909  135.2984  154.9483 H   0  0  0  0  0  0  0  0  0  0  0  0  # atno 10764 bound_to 10752
  154.0238  135.6738  153.4827 H   0  0  0  0  0  0  0  0  0  0  0  0  # atno 10765 bound_to 10752
  139.9311  134.9641  156.8255 H   0  0  0  0  0  0  0  0  0  0  0  0  # atno 11005 bound_to 11000
  145.9092  139.2476  143.1448 LP  0  0  0  0  0  0  0  0  0  0  0  0  # atno 17320 bound_to 7965
  145.9733  140.8742  143.0151 LP  0  0  0  0  0  0  0  0  0  0  0  0  # atno 17321 bound_to 7965
  139.5714  144.1919  152.1842 LP  0  0  0  0  0  0  0  0  0  0  0  0  # atno 17342 bound_to 10162
  140.1216  144.5368  150.6859 LP  0  0  0  0  0  0  0  0  0  0  0  0  # atno 17343 bound_to 10162
  156.5715  130.4281  149.6017 LP  0  0  0  0  0  0  0  0  0  0  0  0  # atno 17370 bound_to 10713
  156.2736  130.7031  151.1836 LP  0  0  0  0  0  0  0  0  0  0  0  0  # atno 17371 bound_to 10713
  140.6199  134.0003  155.7614 LP  0  0  0  0  0  0  0  0  0  0  0  0  # atno 17394 bound_to 11000
  141.0900  133.9931  157.3252 LP  0  0  0  0  0  0  0  0  0  0  0  0  # atno 17395 bound_to 11000

$$$$
