#       Name:                AV-unprocessed.smi:47
#       Creating user name   scv26
#       Creation time:       Thu Mar 26 16:30:40 2020


#       File generated by GOLD software.
#

@<TRIPOS>MOLECULE
AV-unprocessed.smi:47
    36    38     1
SMALL
NO_CHARGES


@<TRIPOS>ATOM
      1 ****        -4.5210  -0.9058   1.5778 O.3            1 S1                 0.0000
      2 ****        -3.9948  -0.5200   0.3260 C.3            1 S1                 0.0000
      3 ****        -3.5264   0.9396   0.3194 C.3            1 S1                 0.0000
      4 ****        -2.4130   1.0094  -0.6486 N.4            1 S1                 1.0000
      5 ****        -2.0600  -0.3692  -1.0489 C.3            1 S1                 0.0000
      6 ****        -0.5607  -0.4120  -1.0534 C.2            1 S1                 0.0000
      7 ****         0.1215  -1.0386  -2.0178 N.pl3          1 S1                 0.0000
      8 ****         1.4456  -0.9362  -1.7741 N.2            1 S1                 0.0000
      9 ****         1.4567  -0.2367  -0.6408 C.2            1 S1                 0.0000
     10 ****         2.7219   0.1331   0.0361 C.ar           1 S1                 0.0000
     11 ****         2.7135   0.8164   1.2768 C.ar           1 S1                 0.0000
     12 ****         3.9138   1.1701   1.9232 C.ar           1 S1                 0.0000
     13 ****         5.1507   0.8460   1.3385 C.ar           1 S1                 0.0000
     14 ****         5.1816   0.1674   0.1075 C.ar           1 S1                 0.0000
     15 ****         3.9787  -0.1842  -0.5351 C.ar           1 S1                 0.0000
     16 ****         0.2393   0.1241  -0.1328 N.2            1 S1                 0.0000
     17 ****        -2.7297  -1.2945  -0.0303 C.3            1 S1                 0.0000
     18 ****        -4.7487  -0.6701  -0.4483 H              1 S1                 0.0000
     19 ****        -2.4520  -0.5533  -2.0504 H              1 S1                 0.0000
     20 ****        -4.7858  -1.8121   1.5304 H              1 S1                 0.0000
     21 ****        -4.3272   1.6336   0.0633 H              1 S1                 0.0000
     22 ****        -3.1342   1.2243   1.2970 H              1 S1                 0.0000
     23 ****        -2.6778   1.5467  -1.4615 H              1 S1                 0.0000
     24 ****         1.7793   1.0781   1.7514 H              1 S1                 0.0000
     25 ****         3.8844   1.6906   2.8691 H              1 S1                 0.0000
     26 ****         6.0724   1.1163   1.8327 H              1 S1                 0.0000
     27 ****         6.1288  -0.0846  -0.3459 H              1 S1                 0.0000
     28 ****         4.0347  -0.7045  -1.4800 H              1 S1                 0.0000
     29 ****        -2.1011  -1.3923   0.8572 H              1 S1                 0.0000
     30 ****        -2.9209  -2.2952  -0.4188 H              1 S1                 0.0000
     31 ****        -1.6159   1.4389  -0.2001 H              1 S1                 0.0000
     32 ****        -0.2529  -1.5267  -2.8194 H              1 S1                 0.0000
     33 ****        -5.3119  -0.3356   1.8001 LP             1 S1                 0.0000
     34 ****        -3.8220  -0.7963   2.2845 LP             1 S1                 0.0000
     35 ****         2.2150  -1.2918  -2.3047 LP             1 S1                 0.0000
     36 ****         0.0142   0.6418   0.6927 LP             1 S1                 0.0000
@<TRIPOS>BOND
    1    1    2 1     
    2    1   20 1     
    3    2   18 1     
    4    2   17 1     
    5    2    3 1     
    6    3    4 1     
    7    3   21 1     
    8    3   22 1     
    9    4    5 1     
   10    4   23 1     
   11    4   31 1     
   12    5   19 1     
   13    5    6 1     
   14    5   17 1     
   15    6   16 2     
   16    6    7 1     
   17    7    8 1     
   18    7   32 1     
   19    8    9 2     
   20    9   10 1     
   21    9   16 1     
   22   10   15 ar    
   23   10   11 ar    
   24   11   12 ar    
   25   11   24 1     
   26   12   13 ar    
   27   12   25 1     
   28   13   14 ar    
   29   13   26 1     
   30   14   15 ar    
   31   14   27 1     
   32   15   28 1     
   33   17   29 1     
   34   17   30 1     
   35    1   33 1     
   36    1   34 1     
   37    8   35 1     
   38   16   36 1     
@<TRIPOS>SUBSTRUCTURE
      1 S1             1
@<TRIPOS>SET
LONE_PAIRS      STATIC     ATOMS    <user>   **** ""
4 33 34 35 36
DONOR_HYDROGENS      STATIC     ATOMS    <user>   **** ""
4 20 23 31 32
ATOM$BLUE        STATIC     ATOMS    COLORGROUP SYSTEM
4 33 34 35 36
ATOM$RED        STATIC     ATOMS    COLORGROUP SYSTEM
4 20 23 31 32
