#       Name:                AV-unprocessed.smi:2023
#       Creating user name   scv26
#       Creation time:       Fri Mar 27 10:44:24 2020


#       File generated by GOLD software.
#

@<TRIPOS>MOLECULE
AV-unprocessed.smi:2023
    40    41     1
SMALL
NO_CHARGES


@<TRIPOS>ATOM
      1 ****         0.8775   1.5781  -0.0654 O.2            1 S1                 0.0000
      2 ****         0.3859   1.0192  -1.3339 S.o2           1 S1                 0.0000
      3 ****         0.6567   1.6931  -2.6129 O.2            1 S1                 0.0000
      4 ****         0.9205  -0.6156  -1.4730 N.3            1 S1                 0.0000
      5 ****         2.3537  -0.9069  -1.4018 C.3            1 S1                 0.0000
      6 ****         2.6838  -1.7516  -0.1596 C.3            1 S1                 0.0000
      7 ****         2.3439  -1.0548   1.1455 C.ar           1 S1                 0.0000
      8 ****         1.1642  -1.3712   1.8504 C.ar           1 S1                 0.0000
      9 ****         0.8794  -0.6793   3.0429 C.ar           1 S1                 0.0000
     10 ****         1.7923   0.2995   3.4835 C.ar           1 S1                 0.0000
     11 ****         2.9283   0.6065   2.8210 N.ar           1 S1                 0.0000
     12 ****         3.1917  -0.0596   1.6762 C.ar           1 S1                 0.0000
     13 ****        -1.3181   0.7523  -1.1893 N.3            1 S1                 0.0000
     14 ****        -2.1912   1.8918  -1.5169 C.3            1 S1                 0.0000
     15 ****        -3.6691   1.4701  -1.5550 C.3            1 S1                 0.0000
     16 ****        -4.0279   0.8366  -0.3371 O.3            1 S1                 0.0000
     17 ****        -3.2804  -0.3520  -0.1336 C.3            1 S1                 0.0000
     18 ****        -1.7825  -0.0245  -0.0252 C.3            1 S1                 0.0000
     19 ****         0.4523  -1.1130  -2.2301 H              1 S1                 0.0000
     20 ****         2.6445  -1.4427  -2.3054 H              1 S1                 0.0000
     21 ****         2.9204   0.0251  -1.3921 H              1 S1                 0.0000
     22 ****         2.1567  -2.7054  -0.2081 H              1 S1                 0.0000
     23 ****         3.7472  -1.9934  -0.1559 H              1 S1                 0.0000
     24 ****         0.4838  -2.1238   1.4802 H              1 S1                 0.0000
     25 ****        -0.0177  -0.8915   3.6053 H              1 S1                 0.0000
     26 ****         1.6055   0.8499   4.3937 H              1 S1                 0.0000
     27 ****         4.1021   0.2156   1.1643 H              1 S1                 0.0000
     28 ****        -2.0437   2.6737  -0.7711 H              1 S1                 0.0000
     29 ****        -1.9031   2.3110  -2.4811 H              1 S1                 0.0000
     30 ****        -4.3034   2.3453  -1.6967 H              1 S1                 0.0000
     31 ****        -3.8599   0.8024  -2.3968 H              1 S1                 0.0000
     32 ****        -3.6240  -0.8315   0.7830 H              1 S1                 0.0000
     33 ****        -3.4647  -1.0561  -0.9466 H              1 S1                 0.0000
     34 ****        -1.2135  -0.9495   0.0588 H              1 S1                 0.0000
     35 ****        -1.5908   0.5505   0.8817 H              1 S1                 0.0000
     36 ****         0.6201  -0.9887  -0.5952 LP             1 S1                 0.0000
     37 ****         3.5546   1.3050   3.1672 LP             1 S1                 0.0000
     38 ****        -1.4391   0.1184  -1.9531 LP             1 S1                 0.0000
     39 ****        -5.0012   0.6087  -0.3630 LP             1 S1                 0.0000
     40 ****        -3.8528   1.4652   0.4208 LP             1 S1                 0.0000
@<TRIPOS>BOND
    1    1    2 2     
    2    2    3 2     
    3    2    4 1     
    4    2   13 1     
    5    4    5 1     
    6    4   19 1     
    7    5    6 1     
    8    5   20 1     
    9    5   21 1     
   10    6    7 1     
   11    6   22 1     
   12    6   23 1     
   13    7   12 ar    
   14    7    8 ar    
   15    8    9 ar    
   16    8   24 1     
   17    9   10 ar    
   18    9   25 1     
   19   10   11 ar    
   20   10   26 1     
   21   11   12 ar    
   22   12   27 1     
   23   13   18 1     
   24   13   14 1     
   25   14   15 1     
   26   14   28 1     
   27   14   29 1     
   28   15   16 1     
   29   15   30 1     
   30   15   31 1     
   31   16   17 1     
   32   17   18 1     
   33   17   32 1     
   34   17   33 1     
   35   18   34 1     
   36   18   35 1     
   37    4   36 1     
   38   11   37 1     
   39   13   38 1     
   40   16   39 1     
   41   16   40 1     
@<TRIPOS>SUBSTRUCTURE
      1 S1             1
@<TRIPOS>SET
LONE_PAIRS      STATIC     ATOMS    <user>   **** ""
7 1 3 36 37 38 39 40
DONOR_HYDROGENS      STATIC     ATOMS    <user>   **** ""
1 19
ATOM$BLUE        STATIC     ATOMS    COLORGROUP SYSTEM
7 1 3 36 37 38 39 40
ATOM$RED        STATIC     ATOMS    COLORGROUP SYSTEM
1 19
