#       Name:                AV-unprocessed.smi:1985
#       Creating user name   scv26
#       Creation time:       Fri Mar 27 10:24:01 2020


#       File generated by GOLD software.
#

@<TRIPOS>MOLECULE
AV-unprocessed.smi:1985
    59    60     1
SMALL
NO_CHARGES


@<TRIPOS>ATOM
      1 ****        -2.4552  -1.4404  -0.1637 C.3            1 S1                 0.0000
      2 ****        -0.9264  -1.2735  -0.2277 C.3            1 S1                 0.0000
      3 ****        -0.2659  -0.6113   1.0242 C.3            1 S1                 0.0000
      4 ****        -0.7599   0.8615   1.0501 C.3            1 S1                 0.0000
      5 ****         1.2810  -0.6058   0.8128 C.3            1 S1                 0.0000
      6 ****         1.6739   0.1394  -0.3776 N.am           1 S1                 0.0000
      7 ****         2.7753  -0.0651  -1.1166 C.2            1 S1                 0.0000
      8 ****         3.6282  -0.9034  -0.8289 O.2            1 S1                 0.0000
      9 ****         2.9579   0.7931  -2.3814 C.3            1 S1                 0.0000
     10 ****         1.8420   1.7111  -2.6632 N.am           1 S1                 0.0000
     11 ****         1.9298   3.0325  -2.2641 C.2            1 S1                 0.0000
     12 ****         0.9378   3.9320  -2.4409 C.2            1 S1                 0.0000
     13 ****        -0.3141   3.5466  -3.0797 C.2            1 S1                 0.0000
     14 ****        -1.2574   4.3218  -3.2430 O.2            1 S1                 0.0000
     15 ****        -0.3732   2.1959  -3.4932 N.am           1 S1                 0.0000
     16 ****        -1.6081   1.7579  -4.1100 C.3            1 S1                 0.0000
     17 ****         0.6659   1.2566  -3.3006 C.2            1 S1                 0.0000
     18 ****         0.5633   0.0781  -3.6483 O.2            1 S1                 0.0000
     19 ****        -0.6593  -1.3176   2.2761 N.3            1 S1                 0.0000
     20 ****        -0.2038  -0.6855   3.5200 C.3            1 S1                 0.0000
     21 ****        -0.7701  -1.3898   4.7650 C.3            1 S1                 0.0000
     22 ****        -0.4114  -2.7662   4.7432 O.3            1 S1                 0.0000
     23 ****        -0.8822  -3.4316   3.5773 C.3            1 S1                 0.0000
     24 ****        -0.3148  -2.7439   2.3239 C.3            1 S1                 0.0000
     25 ****        -2.8222  -1.9272  -1.0672 H              1 S1                 0.0000
     26 ****        -2.9637  -0.4799  -0.0851 H              1 S1                 0.0000
     27 ****        -2.7624  -2.0539   0.6831 H              1 S1                 0.0000
     28 ****        -0.4743  -2.2457  -0.4240 H              1 S1                 0.0000
     29 ****        -0.7050  -0.6890  -1.1214 H              1 S1                 0.0000
     30 ****        -0.7063   1.3321   0.0673 H              1 S1                 0.0000
     31 ****        -0.1623   1.4802   1.7198 H              1 S1                 0.0000
     32 ****        -1.7965   0.9320   1.3806 H              1 S1                 0.0000
     33 ****         1.7936  -0.1489   1.6589 H              1 S1                 0.0000
     34 ****         1.6565  -1.6264   0.7337 H              1 S1                 0.0000
     35 ****         1.0310   0.8521  -0.6907 H              1 S1                 0.0000
     36 ****         3.8827   1.3615  -2.2732 H              1 S1                 0.0000
     37 ****         3.1227   0.1312  -3.2331 H              1 S1                 0.0000
     38 ****         2.8356   3.3639  -1.7771 H              1 S1                 0.0000
     39 ****         1.0698   4.9481  -2.0991 H              1 S1                 0.0000
     40 ****        -1.4777   0.7967  -4.6065 H              1 S1                 0.0000
     41 ****        -1.8933   2.4988  -4.8592 H              1 S1                 0.0000
     42 ****        -2.3517   1.6865  -3.3148 H              1 S1                 0.0000
     43 ****         0.8846  -0.6998   3.5758 H              1 S1                 0.0000
     44 ****        -0.5100   0.3583   3.5620 H              1 S1                 0.0000
     45 ****        -0.3737  -0.9330   5.6718 H              1 S1                 0.0000
     46 ****        -1.8559  -1.2895   4.8044 H              1 S1                 0.0000
     47 ****        -0.5689  -4.4751   3.6122 H              1 S1                 0.0000
     48 ****        -1.9731  -3.4249   3.5606 H              1 S1                 0.0000
     49 ****        -0.7010  -3.2696   1.4527 H              1 S1                 0.0000
     50 ****         0.7675  -2.8719   2.3169 H              1 S1                 0.0000
     51 ****         3.5172  -1.4696  -0.0122 LP             1 S1                 0.0000
     52 ****         4.4326  -1.0186  -1.4118 LP             1 S1                 0.0000
     53 ****        -1.1860   5.2690  -2.9305 LP             1 S1                 0.0000
     54 ****        -2.0945   4.0039  -3.6882 LP             1 S1                 0.0000
     55 ****         1.3143  -0.5602  -3.4795 LP             1 S1                 0.0000
     56 ****        -0.2709  -0.2394  -4.0992 LP             1 S1                 0.0000
     57 ****        -1.6547  -1.2352   2.2269 LP             1 S1                 0.0000
     58 ****        -0.8028  -3.2127   5.5478 LP             1 S1                 0.0000
     59 ****         0.5855  -2.8386   4.7737 LP             1 S1                 0.0000
@<TRIPOS>BOND
    1    1    2 1     
    2    1   25 1     
    3    1   26 1     
    4    1   27 1     
    5    2    3 1     
    6    2   28 1     
    7    2   29 1     
    8    3    4 1     
    9    3    5 1     
   10    3   19 1     
   11    4   30 1     
   12    4   31 1     
   13    4   32 1     
   14    5    6 1     
   15    5   33 1     
   16    5   34 1     
   17    6    7 am    
   18    6   35 1     
   19    7    8 2     
   20    7    9 1     
   21    9   10 1     
   22    9   36 1     
   23    9   37 1     
   24   10   17 am    
   25   10   11 1     
   26   11   12 2     
   27   11   38 1     
   28   12   13 1     
   29   12   39 1     
   30   13   14 2     
   31   13   15 am    
   32   15   16 1     
   33   15   17 am    
   34   16   40 1     
   35   16   41 1     
   36   16   42 1     
   37   17   18 2     
   38   19   24 1     
   39   19   20 1     
   40   20   21 1     
   41   20   43 1     
   42   20   44 1     
   43   21   22 1     
   44   21   45 1     
   45   21   46 1     
   46   22   23 1     
   47   23   24 1     
   48   23   47 1     
   49   23   48 1     
   50   24   49 1     
   51   24   50 1     
   52    8   51 1     
   53    8   52 1     
   54   14   53 1     
   55   14   54 1     
   56   18   55 1     
   57   18   56 1     
   58   19   57 1     
   59   22   58 1     
   60   22   59 1     
@<TRIPOS>SUBSTRUCTURE
      1 S1             1
@<TRIPOS>SET
LONE_PAIRS      STATIC     ATOMS    <user>   **** ""
9 51 52 53 54 55 56 57 58 59
DONOR_HYDROGENS      STATIC     ATOMS    <user>   **** ""
1 35
ATOM$BLUE        STATIC     ATOMS    COLORGROUP SYSTEM
9 51 52 53 54 55 56 57 58 59
ATOM$RED        STATIC     ATOMS    COLORGROUP SYSTEM
1 35
