AV-unprocessed.smi:3234|AV-procd|sdf|12359|dock1
  -GOLD-   2272018223D 1   1.00000     0.00000
 Structure written by MMmdl.
 37 39  0  0  0  0  0  0  0  0  4 V2000
  151.5922  137.5474  156.1801 O   0  0  0  0  0  0  0  0  0  0  0  0
  150.9881  137.1281  155.1862 C   0  0  0  0  0  0  0  0  0  0  0  0
  150.2265  137.9611  154.4547 N   0  0  0  0  0  0  0  0  0  0  0  0
  149.9580  139.3387  154.6723 C   0  0  0  0  0  0  0  0  0  0  0  0
  148.8089  139.8917  154.0653 C   0  0  0  0  0  0  0  0  0  0  0  0
  148.4987  141.2505  154.2762 C   0  0  0  0  0  0  0  0  0  0  0  0
  149.2915  142.0070  155.0655 N   0  3  0  0  0  0  0  0  0  0  0  0
  150.3888  141.5175  155.6821 C   0  0  0  0  0  0  0  0  0  0  0  0
  150.7497  140.1660  155.5081 C   0  0  0  0  0  0  0  0  0  0  0  0
  150.9974  135.8638  154.6832 N   0  5  0  0  0  0  0  0  0  0  0  0
  150.1911  134.7526  155.1994 C   0  0  1  0  0  0  0  0  0  0  0  0
  148.8592  135.2655  155.7875 C   0  0  0  0  0  0  0  0  0  0  0  0
  147.7610  134.5058  155.0400 C   0  0  0  0  0  0  0  0  0  0  0  0
  148.3712  134.1313  153.7533 N   0  3  2  0  0  0  0  0  0  0  0  0
  147.6486  133.0690  153.0223 C   0  0  0  0  0  0  0  0  0  0  0  0
  146.8551  132.1518  153.9215 C   0  0  0  0  0  0  0  0  0  0  0  0
  148.1601  131.6795  153.3177 C   0  0  0  0  0  0  0  0  0  0  0  0
  149.7808  133.8169  154.0496 C   0  0  0  0  0  0  0  0  0  0  0  0
  149.8578  137.5725  153.5991 H   0  0  0  0  0  0  0  0  0  0  0  0
  148.1749  139.2837  153.4363 H   0  0  0  0  0  0  0  0  0  0  0  0
  147.6449  141.7501  153.8425 H   0  0  0  0  0  0  0  0  0  0  0  0
  150.9382  142.2141  156.2981 H   0  0  0  0  0  0  0  0  0  0  0  0
  151.6170  139.7821  156.0245 H   0  0  0  0  0  0  0  0  0  0  0  0
  150.7293  134.1688  155.9475 H   0  0  0  0  0  0  0  0  0  0  0  0
  148.7986  135.1015  156.8639 H   0  0  0  0  0  0  0  0  0  0  0  0
  148.7329  136.3369  155.6206 H   0  0  0  0  0  0  0  0  0  0  0  0
  147.4794  133.6060  155.5920 H   0  0  0  0  0  0  0  0  0  0  0  0
  146.8615  135.1059  154.8984 H   0  0  0  0  0  0  0  0  0  0  0  0
  147.2782  133.3252  152.0313 H   0  0  0  0  0  0  0  0  0  0  0  0
  146.8414  132.3638  154.9893 H   0  0  0  0  0  0  0  0  0  0  0  0
  145.9374  131.7270  153.5203 H   0  0  0  0  0  0  0  0  0  0  0  0
  148.1021  130.9429  152.5192 H   0  0  0  0  0  0  0  0  0  0  0  0
  149.0139  131.5762  153.9850 H   0  0  0  0  0  0  0  0  0  0  0  0
  150.4052  133.9119  153.1595 H   0  0  0  0  0  0  0  0  0  0  0  0
  149.8512  132.7813  154.3867 H   0  0  0  0  0  0  0  0  0  0  0  0
  148.3794  134.9637  153.1812 H   0  0  0  0  0  0  0  0  0  0  0  0
  149.0488  142.9878  155.2065 H   0  0  0  0  0  0  0  0  0  0  0  0
  1  2  2  0  0  0  0
  2  3  1  0  0  0  0
  2 10  1  0  0  0  0
  3  4  1  0  0  0  0
  3 19  1  0  0  0  0
  4  9  1  0  0  0  0
  4  5  2  0  0  0  0
  5  6  1  0  0  0  0
  5 20  1  0  0  0  0
  6  7  2  0  0  0  0
  6 21  1  0  0  0  0
  7  8  1  0  0  0  0
  7 37  1  0  0  0  0
  8  9  2  0  0  0  0
  8 22  1  0  0  0  0
  9 23  1  0  0  0  0
 10 11  1  0  0  0  0
 11 18  1  0  0  0  0
 11 12  1  0  0  0  0
 11 24  1  0  0  0  0
 12 13  1  0  0  0  0
 12 25  1  0  0  0  0
 12 26  1  0  0  0  0
 13 14  1  0  0  0  0
 13 27  1  0  0  0  0
 13 28  1  0  0  0  0
 14 15  1  0  0  0  0
 14 18  1  0  0  0  0
 14 36  1  0  0  0  0
 15 17  1  0  0  0  0
 15 16  1  0  0  0  0
 15 29  1  0  0  0  0
 16 17  1  0  0  0  0
 16 30  1  0  0  0  0
 16 31  1  0  0  0  0
 17 32  1  0  0  0  0
 17 33  1  0  0  0  0
 18 34  1  0  0  0  0
 18 35  1  0  0  0  0
M  CHG  1   7   1
M  CHG  1  10  -1
M  CHG  1  14   1
M  END
> <s_m_source_file>
AV-unprocessed.smi

> <i_m_source_file_index>
3234

> <i_lp_mmshare_version>
43012

> <i_f3d_flags>
0

> <s_epik_input>
W2NIXTFbY0hdbltjSF1bY0hdYzFbTkhdQyg9TylbTkhdW0NAQEhdMltDSDJdW0NIMl1OKFtDSDJdMilbQ0hdM1tDSDJdW0NIMl0z

> <s_epik_cmdline>
J2VwaWtfcHl0aG9uJywgJy1waCcsICc3LjAnLCAnLXRuJywgJzgnLCAnLW1hJywgJzIwMCcsICctbWV0YWxfYmluZGluZycsICctaW1hZScsICc8aW5maWxlLm1hZT4nLCAnLW9tYWUnLCAnPG91dGZpbGUubWFlPic=

> <r_epik_Ionization_Penalty>
8.3234

> <r_epik_Ionization_Penalty_Charging>
8.3234

> <r_epik_Ionization_Penalty_Neutral>
3.58513e-06

> <r_epik_State_Penalty>
7.99376

> <r_epik_Charging_Adjusted_Penalty>
16.3172

> <i_epik_Tot_Q>
1

> <i_epik_Tot_abs_Q>
3

> <r_epik_Metal_State_Penalty>
3.98956

> <b_epik_Metal_Only>
1

> <s_lp_Force_Field>
OPLS_2005

> <r_lp_Energy>
40.8025

> <b_lp_Chiralities_Consistent>
1

> <s_lp_Variant>
AV-unprocessed.smi:3234-12

> <Gold.Version>
5.8.1

> <Gold.Id.Protein>
6NUR|6NUR_protein|mol2

> <Gold.PLP.Fitness>
45.1873

> <Gold.PLP.PLP>
-28.9747

> <Gold.PLP.part.hbond>
-3.1279

> <Gold.PLP.part.metal>
0.0000

> <Gold.PLP.part.buried>
-2.1945

> <Gold.PLP.part.nonpolar>
-23.5614

> <Gold.PLP.part.repulsive>
0.4484

> <Gold.PLP.ligand.clash>
0.0000

> <Gold.PLP.ligand.torsion>
2.0530

> <Gold.PLP.Chemscore.Hbond>
6.3413

> <Gold.PLP.Chemscore.CHOScore>
0.0000

> <Gold.PLP.Chemscore.Metal>
0.0000

> <Gold.Chemscore.Hbonds>
donor molecule, donor type, donor heavy atom, donor atom, acceptor molecule, acceptor atom, score
      L1  H     3    19       P1  7948  0.24
      L1  H     7    37       P1  8028  2.00
      L1  H    14    36       P1  7948  2.00
      P1  H 10752 10764       L1    10  1.90

> <Gold.PLP.Chemscore.Internal.Correction>
1.2948

> <Gold.Rescore>
     Score         DG    S(hbond)    S(metal)    S(lipo)     H(rot)  DE(clash)    DE(int)     intcor
     15.18     -18.62       2.51        0.00      67.12       1.21       0.07       3.38       ----

> <Gold.Chemscore.Fitness>
15.1775

> <Gold.Chemscore.DG>
-18.6212

> <Gold.Chemscore.ZeroCoef>
-5.4800

> <Gold.Chemscore.Hbond>
2.5115

> <Gold.Chemscore.Metal>
0.0000

> <Gold.Chemscore.Lipo>
67.1151

> <Gold.Chemscore.Internal_Hbond>
0.0000

> <Gold.Chemscore.DEClash>
0.0650

> <Gold.Chemscore.DEInternal>
3.3787

> <Gold.Chemscore.Rot>
1.2108

> <Gold.Chemscore.Internal.Correction>
   9.000000E+99

> <Gold.Chemscore.Hbonds>
donor molecule, donor type, donor heavy atom, donor atom, acceptor molecule, acceptor atom, score
      L1  H     3    19       P1  7948  0.16
      L1  H     7    37       P1  8028  1.00
      L1  H    14    36       P1  7948  0.81
      P1  H 10752 10764       L1    10  0.19

> <Gold.Chemscore.Hbond.Weighted>
-8.3883

> <Gold.Chemscore.Metal.Weighted>
-0.0000

> <Gold.Chemscore.Lipo.Weighted>
-7.8525

> <Gold.Chemscore.Internal_Hbond.Weighted>
0.0000

> <Gold.Chemscore.DEClash.Weighted>
0.0650

> <Gold.Chemscore.DEInternal.Weighted>
3.3787

> <Gold.Chemscore.Rot.Weighted>
3.0996

> <Gold.Chemscore.Internal.Correction.Weighted>
   9.000000E+99

> <Gold.Protein.RotatedTorsions>
[ 6907 6896 6895 6894 ] final  -27.87 input  -60.11 | X-H torsion
[ 7974 7965 7964 7962 ] final  -51.20 input  175.53 | X-H torsion
[ 8008 7997 7996 7995 ] final    0.46 input   59.86 | X-H torsion
[ 10167 10162 10161 10158 ] final   66.49 input  -65.29 | X-H torsion
[ 10718 10713 10712 10709 ] final -119.79 input   66.30 | X-H torsion
[ 10763 10752 10751 10750 ] final  -52.50 input  -60.55 | X-H torsion
[ 11005 11000 10999 10996 ] final   23.83 input  -57.11 | X-H torsion

> <Gold.Protein.ActiveResidues>
 VAL166  LYS551  ARG553  GLY616  TRP617  ASP618  TYR619  PRO620  LYS621  CYS622 
 ASP623  PHE694  ASN695  SER759  ASP760  ASP761  ALA762  ILE779  LEU786  VAL792 
 PHE793  MET794  SER795  GLU796  ALA797  LYS798  CYS799  TRP800  GLU811  SER814 

> <Gold.Protein.RotatedAtoms>
  151.1408  135.0178  159.8624 H   0  0  0  0  0  0  0  0  0  0  0  0  # atno 6907 bound_to 6896
  152.5452  134.1501  159.8525 H   0  0  0  0  0  0  0  0  0  0  0  0  # atno 6908 bound_to 6896
  151.1577  133.4820  159.2627 H   0  0  0  0  0  0  0  0  0  0  0  0  # atno 6909 bound_to 6896
  145.9216  140.7828  142.9644 H   0  0  0  0  0  0  0  0  0  0  0  0  # atno 7974 bound_to 7965
  154.6684  140.2606  155.7034 H   0  0  0  0  0  0  0  0  0  0  0  0  # atno 8008 bound_to 7997
  156.2648  140.2834  156.1105 H   0  0  0  0  0  0  0  0  0  0  0  0  # atno 8009 bound_to 7997
  155.1205  140.0377  157.2739 H   0  0  0  0  0  0  0  0  0  0  0  0  # atno 8010 bound_to 7997
  140.0998  144.4914  150.7044 H   0  0  0  0  0  0  0  0  0  0  0  0  # atno 10167 bound_to 10162
  156.1208  130.6322  150.9460 H   0  0  0  0  0  0  0  0  0  0  0  0  # atno 10718 bound_to 10713
  154.1437  135.6501  153.4948 H   0  0  0  0  0  0  0  0  0  0  0  0  # atno 10763 bound_to 10752
  153.0158  135.5321  154.6879 H   0  0  0  0  0  0  0  0  0  0  0  0  # atno 10764 bound_to 10752
  154.6147  135.2958  155.0364 H   0  0  0  0  0  0  0  0  0  0  0  0  # atno 10765 bound_to 10752
  140.3653  134.2081  155.7669 H   0  0  0  0  0  0  0  0  0  0  0  0  # atno 11005 bound_to 11000
  144.6753  140.1985  143.7389 LP  0  0  0  0  0  0  0  0  0  0  0  0  # atno 17320 bound_to 7965
  145.8542  139.2190  143.1754 LP  0  0  0  0  0  0  0  0  0  0  0  0  # atno 17321 bound_to 7965
  140.6984  143.2418  151.4936 LP  0  0  0  0  0  0  0  0  0  0  0  0  # atno 17342 bound_to 10162
  139.5677  144.2002  152.1790 LP  0  0  0  0  0  0  0  0  0  0  0  0  # atno 17343 bound_to 10162
  157.6391  131.0912  150.8287 LP  0  0  0  0  0  0  0  0  0  0  0  0  # atno 17370 bound_to 10713
  156.8384  130.5039  149.5324 LP  0  0  0  0  0  0  0  0  0  0  0  0  # atno 17371 bound_to 10713
  141.1971  133.8066  157.0640 LP  0  0  0  0  0  0  0  0  0  0  0  0  # atno 17394 bound_to 11000
  140.0594  134.9763  157.1279 LP  0  0  0  0  0  0  0  0  0  0  0  0  # atno 17395 bound_to 11000

$$$$
