AV-unprocessed.smi:1308|AV-procd|sdf|5440|dock5
  -GOLD-   22720 5 03D 1   1.00000     0.00000
 Structure written by MMmdl.
 45 45  0  0  0  0  0  0  0  0  1 V2000
  151.4335  143.5886  157.5949 C   0  0  0  0  0  0  0  0  0  0  0  0
  151.2583  142.2967  156.8270 C   0  0  0  0  0  0  0  0  0  0  0  0
  150.1262  142.2733  156.0291 N   0  0  0  0  0  0  0  0  0  0  0  0
  149.8766  141.1283  155.2933 C   0  0  0  0  0  0  0  0  0  0  0  0
  148.6174  141.1844  154.4463 C   0  0  0  0  0  0  0  0  0  0  0  0
  150.7148  140.0624  155.3471 C   0  0  0  0  0  0  0  0  0  0  0  0
  150.4814  138.7811  154.5472 C   0  0  0  0  0  0  0  0  0  0  0  0
  150.4316  137.4791  155.3510 C   0  0  0  0  0  0  0  0  0  0  0  0
  150.6498  137.4807  156.5628 O   0  0  0  0  0  0  0  0  0  0  0  0
  150.1295  136.3736  154.6527 N   0  0  0  0  0  0  0  0  0  0  0  0
  149.9751  135.0265  155.2002 C   0  0  2  0  0  0  0  0  0  0  0  0
  151.2567  134.6330  155.9476 C   0  0  0  0  0  0  0  0  0  0  0  0
  149.6400  134.0258  154.0771 C   0  0  0  0  0  0  0  0  0  0  0  0
  149.4804  132.5736  154.5689 C   0  0  0  0  0  0  0  0  0  0  0  0
  148.9883  131.5911  153.4867 C   0  0  0  0  0  0  0  0  0  0  0  0
  147.7238  132.0924  152.7688 C   0  0  0  0  0  0  0  0  0  0  0  0
  148.7449  130.1995  154.0902 C   0  0  0  0  0  0  0  0  0  0  0  0
  151.9170  140.1515  156.2090 C   0  0  0  0  0  0  0  0  0  0  0  0
  152.7249  139.2267  156.2834 O   0  0  0  0  0  0  0  0  0  0  0  0
  152.1191  141.3316  156.9433 N   0  0  0  0  0  0  0  0  0  0  0  0
  149.4778  143.0441  155.9587 H   0  0  0  0  0  0  0  0  0  0  0  0
  152.3735  143.5887  158.1479 H   0  0  0  0  0  0  0  0  0  0  0  0
  150.6185  143.7199  158.3074 H   0  0  0  0  0  0  0  0  0  0  0  0
  151.4398  144.4394  156.9129 H   0  0  0  0  0  0  0  0  0  0  0  0
  148.8578  141.0176  153.3961 H   0  0  0  0  0  0  0  0  0  0  0  0
  148.1213  142.1524  154.5264 H   0  0  0  0  0  0  0  0  0  0  0  0
  147.9096  140.4189  154.7648 H   0  0  0  0  0  0  0  0  0  0  0  0
  151.2732  138.6824  153.8046 H   0  0  0  0  0  0  0  0  0  0  0  0
  149.5635  138.8659  153.9641 H   0  0  0  0  0  0  0  0  0  0  0  0
  149.9707  136.4770  153.6608 H   0  0  0  0  0  0  0  0  0  0  0  0
  149.1571  135.0034  155.9226 H   0  0  0  0  0  0  0  0  0  0  0  0
  151.1639  133.6403  156.3888 H   0  0  0  0  0  0  0  0  0  0  0  0
  151.4706  135.3326  156.7563 H   0  0  0  0  0  0  0  0  0  0  0  0
  152.1189  134.6210  155.2799 H   0  0  0  0  0  0  0  0  0  0  0  0
  148.7294  134.3486  153.5718 H   0  0  0  0  0  0  0  0  0  0  0  0
  150.4318  134.0594  153.3277 H   0  0  0  0  0  0  0  0  0  0  0  0
  150.4469  132.2313  154.9414 H   0  0  0  0  0  0  0  0  0  0  0  0
  148.8015  132.5396  155.4218 H   0  0  0  0  0  0  0  0  0  0  0  0
  149.7770  131.4853  152.7408 H   0  0  0  0  0  0  0  0  0  0  0  0
  146.9130  132.2740  153.4748 H   0  0  0  0  0  0  0  0  0  0  0  0
  147.3717  131.3617  152.0401 H   0  0  0  0  0  0  0  0  0  0  0  0
  147.9094  133.0191  152.2265 H   0  0  0  0  0  0  0  0  0  0  0  0
  147.9675  130.2299  154.8545 H   0  0  0  0  0  0  0  0  0  0  0  0
  149.6506  129.8062  154.5529 H   0  0  0  0  0  0  0  0  0  0  0  0
  148.4331  129.4869  153.3261 H   0  0  0  0  0  0  0  0  0  0  0  0
  1 22  1  0  0  0  0
  1 23  1  0  0  0  0
  1 24  1  0  0  0  0
  1  2  1  0  0  0  0
  2  3  1  0  0  0  0
  2 20  2  0  0  0  0
  3  4  1  0  0  0  0
  3 21  1  0  0  0  0
  4  6  2  0  0  0  0
  4  5  1  0  0  0  0
  5 25  1  0  0  0  0
  5 26  1  0  0  0  0
  5 27  1  0  0  0  0
  6 18  1  0  0  0  0
  6  7  1  0  0  0  0
  7  8  1  0  0  0  0
  7 28  1  0  0  0  0
  7 29  1  0  0  0  0
  8  9  2  0  0  0  0
  8 10  1  0  0  0  0
 10 11  1  0  0  0  0
 10 30  1  0  0  0  0
 11 12  1  0  0  0  0
 11 13  1  0  0  0  0
 11 31  1  0  0  0  0
 12 32  1  0  0  0  0
 12 33  1  0  0  0  0
 12 34  1  0  0  0  0
 13 14  1  0  0  0  0
 13 35  1  0  0  0  0
 13 36  1  0  0  0  0
 14 15  1  0  0  0  0
 14 37  1  0  0  0  0
 14 38  1  0  0  0  0
 15 16  1  0  0  0  0
 15 17  1  0  0  0  0
 15 39  1  0  0  0  0
 16 40  1  0  0  0  0
 16 41  1  0  0  0  0
 16 42  1  0  0  0  0
 17 43  1  0  0  0  0
 17 44  1  0  0  0  0
 17 45  1  0  0  0  0
 18 19  2  0  0  0  0
 18 20  1  0  0  0  0
M  END
> <s_m_source_file>
AV-unprocessed.smi

> <i_m_source_file_index>
1308

> <i_lp_mmshare_version>
43012

> <i_f3d_flags>
0

> <s_epik_input>
W0NIM11jMW5jKFtDSDNdKWMoYyg9TylbbkhdMSlbQ0gyXUMoPU8pW05IXVtDQEhdKFtDSDNdKVtDSDJdW0NIMl1bQ0hdKFtDSDNdKVtDSDNd

> <s_epik_cmdline>
J2VwaWtfcHl0aG9uJywgJy1waCcsICc3LjAnLCAnLXRuJywgJzgnLCAnLW1hJywgJzIwMCcsICctbWV0YWxfYmluZGluZycsICctaW1hZScsICc8aW5maWxlLm1hZT4nLCAnLW9tYWUnLCAnPG91dGZpbGUubWFlPic=

> <r_lp_tautomer_probability>
0.156392

> <r_epik_Ionization_Penalty>
0.0141156

> <r_epik_Ionization_Penalty_Charging>
0.0139937

> <r_epik_Ionization_Penalty_Neutral>
0.00012188

> <r_epik_State_Penalty>
1.52994

> <r_epik_Charging_Adjusted_Penalty>
1.54393

> <i_epik_Tot_Q>
0

> <i_epik_Tot_abs_Q>
0

> <r_epik_Metal_State_Penalty>
1.70663

> <b_epik_Metal_Only>
0

> <s_lp_Force_Field>
OPLS_2005

> <r_lp_Energy>
10.8122

> <b_lp_Chiralities_Consistent>
1

> <s_lp_Variant>
AV-unprocessed.smi:1308-3

> <Gold.Version>
5.8.1

> <Gold.Id.Protein>
6NUR|6NUR_protein|mol2

> <Gold.PLP.Fitness>
43.4000

> <Gold.PLP.PLP>
-34.5393

> <Gold.PLP.part.hbond>
-3.0000

> <Gold.PLP.part.metal>
0.0000

> <Gold.PLP.part.buried>
0.6485

> <Gold.PLP.part.nonpolar>
-32.2924

> <Gold.PLP.part.repulsive>
0.1825

> <Gold.PLP.ligand.clash>
0.0000

> <Gold.PLP.ligand.torsion>
0.0830

> <Gold.PLP.Chemscore.Hbond>
3.0000

> <Gold.PLP.Chemscore.CHOScore>
0.0000

> <Gold.PLP.Chemscore.Metal>
0.0000

> <Gold.Chemscore.Hbonds>
donor molecule, donor type, donor heavy atom, donor atom, acceptor molecule, acceptor atom, score
      L1  H     3    21       P1  8028  1.00
      L1  H    10    30       P1  7948  0.88
      P1  H  7997  8009       L1    19  1.00

> <Gold.PLP.Chemscore.Internal.Correction>
0.0268

> <Gold.Rescore>
     Score         DG    S(hbond)    S(metal)    S(lipo)     H(rot)  DE(clash)    DE(int)     intcor
     11.32     -16.29       2.18        0.00      73.65       1.98       0.32       4.65       ----

> <Gold.Chemscore.Fitness>
11.3218

> <Gold.Chemscore.DG>
-16.2897

> <Gold.Chemscore.ZeroCoef>
-5.4800

> <Gold.Chemscore.Hbond>
2.1769

> <Gold.Chemscore.Metal>
0.0000

> <Gold.Chemscore.Lipo>
73.6459

> <Gold.Chemscore.Internal_Hbond>
0.0000

> <Gold.Chemscore.DEClash>
0.3182

> <Gold.Chemscore.DEInternal>
4.6497

> <Gold.Chemscore.Rot>
1.9835

> <Gold.Chemscore.Internal.Correction>
   9.000000E+99

> <Gold.Chemscore.Hbonds>
donor molecule, donor type, donor heavy atom, donor atom, acceptor molecule, acceptor atom, score
      L1  H     3    21       P1  8028  0.99
      L1  H    10    30       P1  7948  0.16
      P1  H  7997  8009       L1    19  0.40

> <Gold.Chemscore.Hbond.Weighted>
-7.2709

> <Gold.Chemscore.Metal.Weighted>
-0.0000

> <Gold.Chemscore.Lipo.Weighted>
-8.6166

> <Gold.Chemscore.Internal_Hbond.Weighted>
0.0000

> <Gold.Chemscore.DEClash.Weighted>
0.3182

> <Gold.Chemscore.DEInternal.Weighted>
4.6497

> <Gold.Chemscore.Rot.Weighted>
5.0778

> <Gold.Chemscore.Internal.Correction.Weighted>
   9.000000E+99

> <Gold.Protein.RotatedTorsions>
[ 6907 6896 6895 6894 ] final  -13.38 input  -60.11 | X-H torsion
[ 7974 7965 7964 7962 ] final  -60.90 input  175.53 | X-H torsion
[ 8008 7997 7996 7995 ] final -164.93 input   59.86 | X-H torsion
[ 10167 10162 10161 10158 ] final  134.96 input  -65.29 | X-H torsion
[ 10718 10713 10712 10709 ] final  -41.49 input   66.30 | X-H torsion
[ 10763 10752 10751 10750 ] final   56.21 input  -60.55 | X-H torsion
[ 11005 11000 10999 10996 ] final  -67.87 input  -57.11 | X-H torsion

> <Gold.Protein.ActiveResidues>
 VAL166  LYS551  ARG553  GLY616  TRP617  ASP618  TYR619  PRO620  LYS621  CYS622 
 ASP623  PHE694  ASN695  SER759  ASP760  ASP761  ALA762  ILE779  LEU786  VAL792 
 PHE793  MET794  SER795  GLU796  ALA797  LYS798  CYS799  TRP800  GLU811  SER814 

> <Gold.Protein.RotatedAtoms>
  151.3558  135.0894  159.9417 H   0  0  0  0  0  0  0  0  0  0  0  0  # atno 6907 bound_to 6896
  152.5175  133.9307  159.7589 H   0  0  0  0  0  0  0  0  0  0  0  0  # atno 6908 bound_to 6896
  150.9692  133.6308  159.2770 H   0  0  0  0  0  0  0  0  0  0  0  0  # atno 6909 bound_to 6896
  145.8099  140.8605  143.0187 H   0  0  0  0  0  0  0  0  0  0  0  0  # atno 7974 bound_to 7965
  155.8426  140.0951  157.1725 H   0  0  0  0  0  0  0  0  0  0  0  0  # atno 8008 bound_to 7997
  154.3982  140.1398  156.3809 H   0  0  0  0  0  0  0  0  0  0  0  0  # atno 8009 bound_to 7997
  155.8047  140.3451  155.5425 H   0  0  0  0  0  0  0  0  0  0  0  0  # atno 8010 bound_to 7997
  139.5236  144.6541  151.5214 H   0  0  0  0  0  0  0  0  0  0  0  0  # atno 10167 bound_to 10162
  156.2698  130.4205  149.8450 H   0  0  0  0  0  0  0  0  0  0  0  0  # atno 10718 bound_to 10713
  152.9828  135.5684  154.5192 H   0  0  0  0  0  0  0  0  0  0  0  0  # atno 10763 bound_to 10752
  154.4683  135.2784  155.1664 H   0  0  0  0  0  0  0  0  0  0  0  0  # atno 10764 bound_to 10752
  154.3222  135.6266  153.5566 H   0  0  0  0  0  0  0  0  0  0  0  0  # atno 10765 bound_to 10752
  141.1518  133.6728  156.6359 H   0  0  0  0  0  0  0  0  0  0  0  0  # atno 11005 bound_to 11000
  144.6758  140.0381  143.7481 LP  0  0  0  0  0  0  0  0  0  0  0  0  # atno 17320 bound_to 7965
  145.9788  139.2925  143.1054 LP  0  0  0  0  0  0  0  0  0  0  0  0  # atno 17321 bound_to 7965
  140.6359  143.8985  150.6647 LP  0  0  0  0  0  0  0  0  0  0  0  0  # atno 17342 bound_to 10162
  140.2304  143.3740  152.1570 LP  0  0  0  0  0  0  0  0  0  0  0  0  # atno 17343 bound_to 10162
  156.5936  130.8516  151.3414 LP  0  0  0  0  0  0  0  0  0  0  0  0  # atno 17370 bound_to 10713
  157.7280  130.9650  150.1723 LP  0  0  0  0  0  0  0  0  0  0  0  0  # atno 17371 bound_to 10713
  140.3430  134.7833  157.4412 LP  0  0  0  0  0  0  0  0  0  0  0  0  # atno 17394 bound_to 11000
  140.0922  134.5585  155.8433 LP  0  0  0  0  0  0  0  0  0  0  0  0  # atno 17395 bound_to 11000

$$$$
