AV-unprocessed.smi:2932|AV-procd|sdf|11251|dock7
  -GOLD-   2272016143D 1   1.00000     0.00000
 Structure written by MMmdl.
 30 30  0  0  0  0  0  0  0  0  2 V2000
  144.8549  135.3925  150.7988 C   0  0  0  0  0  0  0  0  0  0  0  0
  145.5544  134.1821  151.3451 C   0  0  0  0  0  0  0  0  0  0  0  0
  146.7617  134.2989  151.8763 N   0  0  0  0  0  0  0  0  0  0  0  0
  147.1122  133.0439  152.2575 N   0  0  0  0  0  0  0  0  0  0  0  0
  148.4152  132.8328  152.8720 C   0  0  0  0  0  0  0  0  0  0  0  0
  148.5193  133.5305  154.2304 C   0  0  0  0  0  0  0  0  0  0  0  0
  148.3745  132.8800  155.2655 O   0  0  0  0  0  0  0  0  0  0  0  0
  148.7741  134.8483  154.2117 N   0  0  0  0  0  0  0  0  0  0  0  0
  148.9332  135.7071  155.3811 C   0  0  1  0  0  0  0  0  0  0  0  0
  147.6429  135.7344  156.2176 C   0  0  0  0  0  0  0  0  0  0  0  0
  150.1727  135.2893  156.1773 C   0  0  0  0  0  0  0  0  0  0  0  0
  149.9930  134.8674  157.3407 O   0  0  0  0  0  0  0  0  0  0  0  0
  151.2824  135.3988  155.6094 O   0  5  0  0  0  0  0  0  0  0  0  0
  146.1203  132.1164  151.9780 C   0  0  0  0  0  0  0  0  0  0  0  0
  146.2429  130.6605  152.2928 C   0  0  0  0  0  0  0  0  0  0  0  0
  145.1195  132.8322  151.3906 C   0  0  0  0  0  0  0  0  0  0  0  0
  143.6158  132.2155  150.8091 Cl  0  0  0  0  0  0  0  0  0  0  0  0
  149.1176  136.7242  155.0291 H   0  0  0  0  0  0  0  0  0  0  0  0
  143.7833  135.2192  150.6994 H   0  0  0  0  0  0  0  0  0  0  0  0
  145.2421  135.6546  149.8140 H   0  0  0  0  0  0  0  0  0  0  0  0
  144.9898  136.2558  151.4509 H   0  0  0  0  0  0  0  0  0  0  0  0
  148.5937  131.7639  152.9991 H   0  0  0  0  0  0  0  0  0  0  0  0
  149.1863  133.2061  152.1970 H   0  0  0  0  0  0  0  0  0  0  0  0
  148.8710  135.2999  153.3130 H   0  0  0  0  0  0  0  0  0  0  0  0
  147.7592  136.3688  157.0969 H   0  0  0  0  0  0  0  0  0  0  0  0
  147.3710  134.7356  156.5613 H   0  0  0  0  0  0  0  0  0  0  0  0
  146.8051  136.1259  155.6401 H   0  0  0  0  0  0  0  0  0  0  0  0
  145.3049  130.1376  152.1064 H   0  0  0  0  0  0  0  0  0  0  0  0
  146.5073  130.5083  153.3393 H   0  0  0  0  0  0  0  0  0  0  0  0
  147.0127  130.1953  151.6771 H   0  0  0  0  0  0  0  0  0  0  0  0
  1  2  1  0  0  0  0
  1 19  1  0  0  0  0
  1 20  1  0  0  0  0
  1 21  1  0  0  0  0
  2 16  1  0  0  0  0
  2  3  2  0  0  0  0
  3  4  1  0  0  0  0
  4  5  1  0  0  0  0
  4 14  1  0  0  0  0
  5  6  1  0  0  0  0
  5 22  1  0  0  0  0
  5 23  1  0  0  0  0
  6  7  2  0  0  0  0
  6  8  1  0  0  0  0
  8  9  1  0  0  0  0
  8 24  1  0  0  0  0
  9 18  1  0  0  0  0
  9 10  1  0  0  0  0
  9 11  1  0  0  0  0
 10 25  1  0  0  0  0
 10 26  1  0  0  0  0
 10 27  1  0  0  0  0
 11 12  2  0  0  0  0
 11 13  1  0  0  0  0
 14 15  1  0  0  0  0
 14 16  2  0  0  0  0
 15 28  1  0  0  0  0
 15 29  1  0  0  0  0
 15 30  1  0  0  0  0
 16 17  1  0  0  0  0
M  CHG  1  13  -1
M  END
> <s_m_source_file>
AV-unprocessed.smi

> <i_m_source_file_index>
2932

> <i_lp_mmshare_version>
43012

> <i_f3d_flags>
0

> <s_epik_input>
W0NIM11jMW5uKGMoW0NIM10pYzFDbClbQ0gyXUMoPU8pW05IXVtDQEhdKFtDSDNdKUMoPU8pW09IXQ==

> <s_epik_cmdline>
J2VwaWtfcHl0aG9uJywgJy1waCcsICc3LjAnLCAnLXRuJywgJzgnLCAnLW1hJywgJzIwMCcsICctbWV0YWxfYmluZGluZycsICctaW1hZScsICc8aW5maWxlLm1hZT4nLCAnLW9tYWUnLCAnPG91dGZpbGUubWFlPic=

> <r_lp_tautomer_probability>
1

> <r_epik_Ionization_Penalty>
0.000148999

> <r_epik_Ionization_Penalty_Charging>
0.000144005

> <r_epik_Ionization_Penalty_Neutral>
4.99331e-06

> <r_epik_State_Penalty>
-0

> <r_epik_Charging_Adjusted_Penalty>
0.000144005

> <i_epik_Tot_Q>
-1

> <i_epik_Tot_abs_Q>
1

> <r_epik_Metal_State_Penalty>
-0

> <b_epik_Metal_Only>
0

> <s_lp_Force_Field>
OPLS_2005

> <r_lp_Energy>
1.5608

> <b_lp_Chiralities_Consistent>
1

> <s_lp_Variant>
AV-unprocessed.smi:2932-2

> <Gold.Version>
5.8.1

> <Gold.Id.Protein>
6NUR|6NUR_protein|mol2

> <Gold.PLP.Fitness>
40.6879

> <Gold.PLP.PLP>
-27.1073

> <Gold.PLP.part.hbond>
-3.0000

> <Gold.PLP.part.metal>
0.0000

> <Gold.PLP.part.buried>
-4.7540

> <Gold.PLP.part.nonpolar>
-21.8516

> <Gold.PLP.part.repulsive>
2.1768

> <Gold.PLP.ligand.clash>
0.0000

> <Gold.PLP.ligand.torsion>
0.4028

> <Gold.PLP.Chemscore.Hbond>
4.7760

> <Gold.PLP.Chemscore.CHOScore>
0.0000

> <Gold.PLP.Chemscore.Metal>
0.0000

> <Gold.Chemscore.Hbonds>
donor molecule, donor type, donor heavy atom, donor atom, acceptor molecule, acceptor atom, score
      L1  H     8    24       P1  7948  1.00
      P1  H  6896  6908       L1    12  0.74
      P1  H 10752 10765       L1    13  2.00

> <Gold.PLP.Chemscore.Internal.Correction>
0.0581

> <Gold.Rescore>
     Score         DG    S(hbond)    S(metal)    S(lipo)     H(rot)  DE(clash)    DE(int)     intcor
     13.76     -14.31       2.65        0.00      46.99       2.15       0.01       0.54       ----

> <Gold.Chemscore.Fitness>
13.7563

> <Gold.Chemscore.DG>
-14.3119

> <Gold.Chemscore.ZeroCoef>
-5.4800

> <Gold.Chemscore.Hbond>
2.6495

> <Gold.Chemscore.Metal>
0.0000

> <Gold.Chemscore.Lipo>
46.9863

> <Gold.Chemscore.Internal_Hbond>
0.0000

> <Gold.Chemscore.DEClash>
0.0127

> <Gold.Chemscore.DEInternal>
0.5430

> <Gold.Chemscore.Rot>
2.1542

> <Gold.Chemscore.Internal.Correction>
   9.000000E+99

> <Gold.Chemscore.Hbonds>
donor molecule, donor type, donor heavy atom, donor atom, acceptor molecule, acceptor atom, score
      L1  H     8    24       P1  7948  0.65
      P1  H  6896  6908       L1    12  0.37
      P1  H 10752 10765       L1    13  0.97

> <Gold.Chemscore.Hbond.Weighted>
-8.8492

> <Gold.Chemscore.Metal.Weighted>
-0.0000

> <Gold.Chemscore.Lipo.Weighted>
-5.4974

> <Gold.Chemscore.Internal_Hbond.Weighted>
0.0000

> <Gold.Chemscore.DEClash.Weighted>
0.0127

> <Gold.Chemscore.DEInternal.Weighted>
0.5430

> <Gold.Chemscore.Rot.Weighted>
5.5146

> <Gold.Chemscore.Internal.Correction.Weighted>
   9.000000E+99

> <Gold.Protein.RotatedTorsions>
[ 6907 6896 6895 6894 ] final  139.73 input  -60.11 | X-H torsion
[ 7974 7965 7964 7962 ] final   36.74 input  175.53 | X-H torsion
[ 8008 7997 7996 7995 ] final  155.69 input   59.86 | X-H torsion
[ 10167 10162 10161 10158 ] final   49.49 input  -65.29 | X-H torsion
[ 10718 10713 10712 10709 ] final  -20.23 input   66.30 | X-H torsion
[ 10763 10752 10751 10750 ] final -156.22 input  -60.55 | X-H torsion
[ 11005 11000 10999 10996 ] final   62.47 input  -57.11 | X-H torsion

> <Gold.Protein.ActiveResidues>
 VAL166  LYS551  ARG553  GLY616  TRP617  ASP618  TYR619  PRO620  LYS621  CYS622 
 ASP623  PHE694  ASN695  SER759  ASP760  ASP761  ALA762  ILE779  LEU786  VAL792 
 PHE793  MET794  SER795  GLU796  ALA797  LYS798  CYS799  TRP800  GLU811  SER814 

> <Gold.Protein.RotatedAtoms>
  152.2514  133.5218  159.5327 H   0  0  0  0  0  0  0  0  0  0  0  0  # atno 6907 bound_to 6896
  150.7095  134.0955  159.3956 H   0  0  0  0  0  0  0  0  0  0  0  0  # atno 6908 bound_to 6896
  151.8874  135.0430  160.0545 H   0  0  0  0  0  0  0  0  0  0  0  0  # atno 6909 bound_to 6896
  146.1189  139.5980  142.9303 H   0  0  0  0  0  0  0  0  0  0  0  0  # atno 7974 bound_to 7965
  156.2464  140.1932  156.6840 H   0  0  0  0  0  0  0  0  0  0  0  0  # atno 8008 bound_to 7997
  154.6301  140.0597  156.9747 H   0  0  0  0  0  0  0  0  0  0  0  0  # atno 8009 bound_to 7997
  155.1725  140.3269  155.4393 H   0  0  0  0  0  0  0  0  0  0  0  0  # atno 8010 bound_to 7997
  140.2823  144.3142  150.6261 H   0  0  0  0  0  0  0  0  0  0  0  0  # atno 10167 bound_to 10162
  156.5348  130.4664  149.6529 H   0  0  0  0  0  0  0  0  0  0  0  0  # atno 10718 bound_to 10713
  154.7729  135.3151  154.8152 H   0  0  0  0  0  0  0  0  0  0  0  0  # atno 10763 bound_to 10752
  153.8882  135.6828  153.4766 H   0  0  0  0  0  0  0  0  0  0  0  0  # atno 10764 bound_to 10752
  153.1347  135.4765  154.9338 H   0  0  0  0  0  0  0  0  0  0  0  0  # atno 10765 bound_to 10752
  140.0090  134.6325  155.9810 H   0  0  0  0  0  0  0  0  0  0  0  0  # atno 11005 bound_to 11000
  145.5508  141.0413  143.2279 LP  0  0  0  0  0  0  0  0  0  0  0  0  # atno 17320 bound_to 7965
  144.7578  139.7030  143.7246 LP  0  0  0  0  0  0  0  0  0  0  0  0  # atno 17321 bound_to 7965
  140.5801  143.2173  151.7444 LP  0  0  0  0  0  0  0  0  0  0  0  0  # atno 17342 bound_to 10162
  139.4959  144.4092  152.0098 LP  0  0  0  0  0  0  0  0  0  0  0  0  # atno 17343 bound_to 10162
  156.3026  130.7185  151.2060 LP  0  0  0  0  0  0  0  0  0  0  0  0  # atno 17370 bound_to 10713
  157.7415  131.0502  150.5088 LP  0  0  0  0  0  0  0  0  0  0  0  0  # atno 17371 bound_to 10713
  141.1697  133.6537  156.4608 LP  0  0  0  0  0  0  0  0  0  0  0  0  # atno 17394 bound_to 11000
  140.4589  134.6860  157.5076 LP  0  0  0  0  0  0  0  0  0  0  0  0  # atno 17395 bound_to 11000

$$$$
