AV-unprocessed.smi:1967|AV-procd|sdf|7955|dock2
  -GOLD-   2272010123D 1   1.00000     0.00000
 Structure written by MMmdl.
 36 37  0  0  0  0  0  0  0  0  2 V2000
  152.4532  138.5954  159.4491 O   0  0  0  0  0  0  0  0  0  0  0  0
  153.3406  139.4256  158.6181 S   0  0  0  0  0  0  0  0  0  0  0  0
  154.7876  139.3574  158.8802 O   0  0  0  0  0  0  0  0  0  0  0  0
  152.9709  139.3777  157.0402 N   0  5  0  0  0  0  0  0  0  0  0  0
  152.0690  138.3446  156.5626 C   0  0  0  0  0  0  0  0  0  0  0  0
  151.7884  138.5469  155.0581 C   0  0  0  0  0  0  0  0  0  0  0  0
  150.4184  139.1448  154.7538 C   0  0  0  0  0  0  0  0  0  0  0  0
  149.3292  138.3099  154.4146 C   0  0  0  0  0  0  0  0  0  0  0  0
  148.0808  138.9036  154.1472 C   0  0  0  0  0  0  0  0  0  0  0  0
  147.9628  140.3039  154.2336 C   0  0  0  0  0  0  0  0  0  0  0  0
  149.1038  141.0513  154.5866 C   0  0  0  0  0  0  0  0  0  0  0  0
  150.3053  140.4926  154.8453 N   0  0  0  0  0  0  0  0  0  0  0  0
  152.8696  141.0755  158.8943 N   0  0  0  0  0  0  0  0  0  0  0  0
  151.7087  141.6065  158.1494 C   0  0  0  0  0  0  0  0  0  0  0  0
  151.7206  143.1435  158.1146 C   0  0  0  0  0  0  0  0  0  0  0  0
  151.8102  143.7303  159.5269 C   0  0  0  0  0  0  0  0  0  0  0  0
  153.0500  143.1700  160.2303 C   0  0  0  0  0  0  0  0  0  0  0  0
  153.0313  141.6326  160.2536 C   0  0  0  0  0  0  0  0  0  0  0  0
  152.4843  137.3485  156.7187 H   0  0  0  0  0  0  0  0  0  0  0  0
  151.1221  138.3623  157.1034 H   0  0  0  0  0  0  0  0  0  0  0  0
  152.5510  139.1958  154.6247 H   0  0  0  0  0  0  0  0  0  0  0  0
  151.8744  137.5925  154.5356 H   0  0  0  0  0  0  0  0  0  0  0  0
  149.4508  137.2381  154.3546 H   0  0  0  0  0  0  0  0  0  0  0  0
  147.2291  138.2955  153.8807 H   0  0  0  0  0  0  0  0  0  0  0  0
  147.0210  140.7937  154.0352 H   0  0  0  0  0  0  0  0  0  0  0  0
  149.0495  142.1270  154.6646 H   0  0  0  0  0  0  0  0  0  0  0  0
  151.7144  141.2217  157.1298 H   0  0  0  0  0  0  0  0  0  0  0  0
  150.7925  141.2448  158.6177 H   0  0  0  0  0  0  0  0  0  0  0  0
  152.5678  143.4876  157.5202 H   0  0  0  0  0  0  0  0  0  0  0  0
  150.8236  143.5095  157.6148 H   0  0  0  0  0  0  0  0  0  0  0  0
  151.8606  144.8186  159.4815 H   0  0  0  0  0  0  0  0  0  0  0  0
  150.9132  143.4768  160.0934 H   0  0  0  0  0  0  0  0  0  0  0  0
  153.9494  143.5152  159.7188 H   0  0  0  0  0  0  0  0  0  0  0  0
  153.1070  143.5549  161.2488 H   0  0  0  0  0  0  0  0  0  0  0  0
  152.2159  141.2730  160.8827 H   0  0  0  0  0  0  0  0  0  0  0  0
  153.9567  141.2665  160.6973 H   0  0  0  0  0  0  0  0  0  0  0  0
  1  2  2  0  0  0  0
  2  3  2  0  0  0  0
  2  4  1  0  0  0  0
  2 13  1  0  0  0  0
  4  5  1  0  0  0  0
  5  6  1  0  0  0  0
  5 19  1  0  0  0  0
  5 20  1  0  0  0  0
  6  7  1  0  0  0  0
  6 21  1  0  0  0  0
  6 22  1  0  0  0  0
  7 12  1  0  0  0  0
  7  8  2  0  0  0  0
  8  9  1  0  0  0  0
  8 23  1  0  0  0  0
  9 10  2  0  0  0  0
  9 24  1  0  0  0  0
 10 11  1  0  0  0  0
 10 25  1  0  0  0  0
 11 12  2  0  0  0  0
 11 26  1  0  0  0  0
 13 18  1  0  0  0  0
 13 14  1  0  0  0  0
 14 15  1  0  0  0  0
 14 27  1  0  0  0  0
 14 28  1  0  0  0  0
 15 16  1  0  0  0  0
 15 29  1  0  0  0  0
 15 30  1  0  0  0  0
 16 17  1  0  0  0  0
 16 31  1  0  0  0  0
 16 32  1  0  0  0  0
 17 18  1  0  0  0  0
 17 33  1  0  0  0  0
 17 34  1  0  0  0  0
 18 35  1  0  0  0  0
 18 36  1  0  0  0  0
M  CHG  1   4  -1
M  END
> <s_m_source_file>
AV-unprocessed.smi

> <i_m_source_file_index>
1967

> <i_lp_mmshare_version>
43012

> <i_f3d_flags>
0

> <s_epik_input>
W0NIMl0xW0NIMl1bQ0gyXVtDSDJdW0NIMl1OMVMoPU8pKD1PKVtOSF1bQ0gyXVtDSDJdYzJbY0hdW2NIXVtjSF1bY0hdbjI=

> <s_epik_cmdline>
J2VwaWtfcHl0aG9uJywgJy1waCcsICc3LjAnLCAnLXRuJywgJzgnLCAnLW1hJywgJzIwMCcsICctbWV0YWxfYmluZGluZycsICctaW1hZScsICc8aW5maWxlLm1hZT4nLCAnLW9tYWUnLCAnPG91dGZpbGUubWFlPic=

> <r_epik_Ionization_Penalty>
2.02944

> <r_epik_Ionization_Penalty_Charging>
1.95606

> <r_epik_Ionization_Penalty_Neutral>
0.0733798

> <r_epik_State_Penalty>
2.47711

> <r_epik_Charging_Adjusted_Penalty>
4.43317

> <i_epik_Tot_Q>
-1

> <i_epik_Tot_abs_Q>
1

> <r_epik_Metal_State_Penalty>
0.729901

> <b_epik_Metal_Only>
0

> <s_lp_Force_Field>
OPLS_2005

> <r_lp_Energy>
6.94762

> <b_lp_Chiralities_Consistent>
1

> <s_lp_Variant>
AV-unprocessed.smi:1967-2

> <Gold.Version>
5.8.1

> <Gold.Id.Protein>
6NUR|6NUR_protein|mol2

> <Gold.PLP.Fitness>
47.7665

> <Gold.PLP.PLP>
-37.8782

> <Gold.PLP.part.hbond>
-3.0000

> <Gold.PLP.part.metal>
0.0000

> <Gold.PLP.part.buried>
-1.5264

> <Gold.PLP.part.nonpolar>
-32.5331

> <Gold.PLP.part.repulsive>
0.1042

> <Gold.PLP.ligand.clash>
0.0000

> <Gold.PLP.ligand.torsion>
2.3503

> <Gold.PLP.Chemscore.Hbond>
2.8264

> <Gold.PLP.Chemscore.CHOScore>
1.0000

> <Gold.PLP.Chemscore.Metal>
0.0000

> <Gold.Chemscore.Hbonds>
donor molecule, donor type, donor heavy atom, donor atom, acceptor molecule, acceptor atom, score
      P1  H  7989  7998       L1    12  0.78
      P1  H  7997  8008       L1     4  1.89
      P1  H  7997  8010       L1     3  0.51
      L1  C    11    26       P1  8028  0.41

> <Gold.PLP.Chemscore.Internal.Correction>
3.1097

> <Gold.Rescore>
     Score         DG    S(hbond)    S(metal)    S(lipo)     H(rot)  DE(clash)    DE(int)     intcor
     15.91     -18.39       1.36        0.00     100.07       1.30       0.06       2.43       ----

> <Gold.Chemscore.Fitness>
15.9105

> <Gold.Chemscore.DG>
-18.3946

> <Gold.Chemscore.ZeroCoef>
-5.4800

> <Gold.Chemscore.Hbond>
1.3574

> <Gold.Chemscore.Metal>
0.0000

> <Gold.Chemscore.Lipo>
100.0706

> <Gold.Chemscore.Internal_Hbond>
0.0000

> <Gold.Chemscore.DEClash>
0.0556

> <Gold.Chemscore.DEInternal>
2.4285

> <Gold.Chemscore.Rot>
1.2997

> <Gold.Chemscore.Internal.Correction>
   9.000000E+99

> <Gold.Chemscore.Hbonds>
donor molecule, donor type, donor heavy atom, donor atom, acceptor molecule, acceptor atom, score
      P1  H  7989  7998       L1    12  0.09
      P1  H  7997  8008       L1     4  0.32
      P1  H  7997  8010       L1     3  0.33

> <Gold.Chemscore.Hbond.Weighted>
-4.5336

> <Gold.Chemscore.Metal.Weighted>
-0.0000

> <Gold.Chemscore.Lipo.Weighted>
-11.7083

> <Gold.Chemscore.Internal_Hbond.Weighted>
0.0000

> <Gold.Chemscore.DEClash.Weighted>
0.0556

> <Gold.Chemscore.DEInternal.Weighted>
2.4285

> <Gold.Chemscore.Rot.Weighted>
3.3273

> <Gold.Chemscore.Internal.Correction.Weighted>
   9.000000E+99

> <Gold.Protein.RotatedTorsions>
[ 6907 6896 6895 6894 ] final  169.92 input  -60.11 | X-H torsion
[ 7974 7965 7964 7962 ] final  -36.85 input  175.53 | X-H torsion
[ 8008 7997 7996 7995 ] final  -39.71 input   59.86 | X-H torsion
[ 10167 10162 10161 10158 ] final   41.67 input  -65.29 | X-H torsion
[ 10718 10713 10712 10709 ] final  140.83 input   66.30 | X-H torsion
[ 10763 10752 10751 10750 ] final  -70.47 input  -60.55 | X-H torsion
[ 11005 11000 10999 10996 ] final  164.26 input  -57.11 | X-H torsion

> <Gold.Protein.ActiveResidues>
 VAL166  LYS551  ARG553  GLY616  TRP617  ASP618  TYR619  PRO620  LYS621  CYS622 
 ASP623  PHE694  ASN695  SER759  ASP760  ASP761  ALA762  ILE779  LEU786  VAL792 
 PHE793  MET794  SER795  GLU796  ALA797  LYS798  CYS799  TRP800  GLU811  SER814 

> <Gold.Protein.RotatedAtoms>
  151.8243  133.3399  159.3593 H   0  0  0  0  0  0  0  0  0  0  0  0  # atno 6907 bound_to 6896
  150.7284  134.5544  159.5820 H   0  0  0  0  0  0  0  0  0  0  0  0  # atno 6908 bound_to 6896
  152.2983  134.7642  160.0414 H   0  0  0  0  0  0  0  0  0  0  0  0  # atno 6909 bound_to 6896
  146.0626  140.6327  142.8990 H   0  0  0  0  0  0  0  0  0  0  0  0  # atno 7974 bound_to 7965
  154.4020  140.1544  156.2908 H   0  0  0  0  0  0  0  0  0  0  0  0  # atno 8008 bound_to 7997
  155.8787  140.3445  155.5850 H   0  0  0  0  0  0  0  0  0  0  0  0  # atno 8009 bound_to 7997
  155.7692  140.0828  157.2107 H   0  0  0  0  0  0  0  0  0  0  0  0  # atno 8010 bound_to 7997
  140.3620  144.2216  150.6137 H   0  0  0  0  0  0  0  0  0  0  0  0  # atno 10167 bound_to 10162
  157.3989  131.1014  151.0572 H   0  0  0  0  0  0  0  0  0  0  0  0  # atno 10718 bound_to 10713
  154.4181  135.5993  153.5993 H   0  0  0  0  0  0  0  0  0  0  0  0  # atno 10763 bound_to 10752
  152.9793  135.5945  154.3988 H   0  0  0  0  0  0  0  0  0  0  0  0  # atno 10764 bound_to 10752
  154.3810  135.2841  155.2190 H   0  0  0  0  0  0  0  0  0  0  0  0  # atno 10765 bound_to 10752
  140.2441  134.8028  157.3439 H   0  0  0  0  0  0  0  0  0  0  0  0  # atno 11005 bound_to 11000
  144.7183  140.4288  143.7027 LP  0  0  0  0  0  0  0  0  0  0  0  0  # atno 17320 bound_to 7965
  145.6534  139.1569  143.2849 LP  0  0  0  0  0  0  0  0  0  0  0  0  # atno 17321 bound_to 7965
  140.5118  143.2288  151.8524 LP  0  0  0  0  0  0  0  0  0  0  0  0  # atno 17342 bound_to 10162
  139.4813  144.4941  151.9147 LP  0  0  0  0  0  0  0  0  0  0  0  0  # atno 17343 bound_to 10162
  157.1578  130.6212  149.5601 LP  0  0  0  0  0  0  0  0  0  0  0  0  # atno 17370 bound_to 10713
  155.9818  130.4827  150.6846 LP  0  0  0  0  0  0  0  0  0  0  0  0  # atno 17371 bound_to 10713
  140.1623  134.4712  155.7886 LP  0  0  0  0  0  0  0  0  0  0  0  0  # atno 17394 bound_to 11000
  141.2208  133.6906  156.7566 LP  0  0  0  0  0  0  0  0  0  0  0  0  # atno 17395 bound_to 11000

$$$$
