#       Name:                AV-unprocessed.smi:187
#       Creating user name   scv26
#       Creation time:       Thu Mar 26 19:28:44 2020


#       File generated by GOLD software.
#

@<TRIPOS>MOLECULE
AV-unprocessed.smi:187
    63    66     1
SMALL
NO_CHARGES


@<TRIPOS>ATOM
      1 ****        -2.6256   0.3035   2.6366 C.3            1 S1                 0.0000
      2 ****        -3.4485   0.6254   1.3713 C.3            1 S1                 0.0000
      3 ****        -4.8390  -0.0353   1.4753 C.3            1 S1                 0.0000
      4 ****        -5.6826   0.1999   0.2104 C.3            1 S1                 0.0000
      5 ****        -4.9347  -0.2099  -1.0760 C.3            1 S1                 0.0000
      6 ****        -4.8672  -1.7382  -1.2620 C.2            1 S1                 0.0000
      7 ****        -5.6300  -2.2633  -2.2246 N.am           1 S1                 0.0000
      8 ****        -4.1367  -2.4383  -0.5632 O.2            1 S1                 0.0000
      9 ****        -3.5402   0.4523  -1.0977 C.3            1 S1                 0.0000
     10 ****        -2.7818   0.2048   0.1305 N.3            1 S1                 0.0000
     11 ****        -1.4943   0.5973   0.0066 C.ar           1 S1                 0.0000
     12 ****        -1.1961   1.9149  -0.1421 N.ar           1 S1                 0.0000
     13 ****         0.0798   2.2979  -0.2481 C.ar           1 S1                 0.0000
     14 ****         1.1820   1.5452  -0.2261 N.ar           1 S1                 0.0000
     15 ****         0.8825   0.2221  -0.0747 C.ar           1 S1                 0.0000
     16 ****        -0.4224  -0.3312   0.0448 C.ar           1 S1                 0.0000
     17 ****        -0.3487  -1.7102   0.1855 N.2            1 S1                 0.0000
     18 ****         0.9318  -1.9606   0.1532 C.2            1 S1                 0.0000
     19 ****         1.7464  -0.8595   0.0014 N.pl3          1 S1                 0.0000
     20 ****         3.1815  -0.8618  -0.0581 C.3            1 S1                 0.0000
     21 ****         4.0175   0.0176   0.8756 C.3            1 S1                 0.0000
     22 ****         5.0674   0.1937  -0.2471 C.3            1 S1                 0.0000
     23 ****         5.6685   1.6008  -0.4345 C.3            1 S1                 0.0000
     24 ****         4.6778   2.6047  -0.5328 O.3            1 S1                 0.0000
     25 ****         6.2405  -0.8035  -0.2125 C.3            1 S1                 0.0000
     26 ****         7.0433  -0.6252   0.9371 O.3            1 S1                 0.0000
     27 ****         3.9321  -0.2049  -1.2197 C.3            1 S1                 0.0000
     28 ****        -3.1751   0.5736   3.5387 H              1 S1                 0.0000
     29 ****        -1.6841   0.8528   2.6633 H              1 S1                 0.0000
     30 ****        -2.3936  -0.7605   2.6964 H              1 S1                 0.0000
     31 ****        -3.5899   1.7062   1.3217 H              1 S1                 0.0000
     32 ****        -4.7269  -1.1057   1.6506 H              1 S1                 0.0000
     33 ****        -5.3717   0.3553   2.3430 H              1 S1                 0.0000
     34 ****        -6.6295  -0.3358   0.2901 H              1 S1                 0.0000
     35 ****        -5.9402   1.2579   0.1484 H              1 S1                 0.0000
     36 ****        -5.4937   0.1887  -1.9241 H              1 S1                 0.0000
     37 ****        -5.6222  -3.2596  -2.3882 H              1 S1                 0.0000
     38 ****        -6.2124  -1.6595  -2.7865 H              1 S1                 0.0000
     39 ****        -2.9736   0.0892  -1.9571 H              1 S1                 0.0000
     40 ****        -3.6564   1.5285  -1.2362 H              1 S1                 0.0000
     41 ****         0.2417   3.3593  -0.3646 H              1 S1                 0.0000
     42 ****         1.3181  -2.9656   0.2421 H              1 S1                 0.0000
     43 ****         3.4934  -1.9033   0.0407 H              1 S1                 0.0000
     44 ****         3.5131   0.9449   1.1492 H              1 S1                 0.0000
     45 ****         4.3787  -0.4972   1.7663 H              1 S1                 0.0000
     46 ****         6.3195   1.8643   0.3995 H              1 S1                 0.0000
     47 ****         6.2794   1.6448  -1.3366 H              1 S1                 0.0000
     48 ****         5.1056   3.4419  -0.6264 H              1 S1                 0.0000
     49 ****         5.8830  -1.8335  -0.2116 H              1 S1                 0.0000
     50 ****         6.8691  -0.7000  -1.0978 H              1 S1                 0.0000
     51 ****         7.7398  -1.2640   0.9196 H              1 S1                 0.0000
     52 ****         4.2289  -0.8979  -2.0074 H              1 S1                 0.0000
     53 ****         3.3939   0.6442  -1.6422 H              1 S1                 0.0000
     54 ****        -3.5692  -2.0178   0.1447 LP             1 S1                 0.0000
     55 ****        -4.1101  -3.4282  -0.7029 LP             1 S1                 0.0000
     56 ****        -2.7567  -0.7883   0.2453 LP             1 S1                 0.0000
     57 ****        -1.9285   2.5950  -0.1721 LP             1 S1                 0.0000
     58 ****         2.1110   1.9056  -0.3101 LP             1 S1                 0.0000
     59 ****        -1.1015  -2.3605   0.2878 LP             1 S1                 0.0000
     60 ****         4.1148   2.6045   0.2936 LP             1 S1                 0.0000
     61 ****         4.0997   2.4307  -1.3300 LP             1 S1                 0.0000
     62 ****         6.4884  -0.7539   1.7590 LP             1 S1                 0.0000
     63 ****         7.4312   0.2965   0.9377 LP             1 S1                 0.0000
@<TRIPOS>BOND
    1    1    2 1     
    2    1   28 1     
    3    1   29 1     
    4    1   30 1     
    5    2   10 1     
    6    2    3 1     
    7    2   31 1     
    8    3    4 1     
    9    3   32 1     
   10    3   33 1     
   11    4    5 1     
   12    4   34 1     
   13    4   35 1     
   14    5    6 1     
   15    5    9 1     
   16    5   36 1     
   17    6    7 am    
   18    6    8 2     
   19    7   37 1     
   20    7   38 1     
   21    9   10 1     
   22    9   39 1     
   23    9   40 1     
   24   10   11 1     
   25   11   16 ar    
   26   11   12 ar    
   27   12   13 ar    
   28   13   14 ar    
   29   13   41 1     
   30   14   15 ar    
   31   15   19 1     
   32   15   16 ar    
   33   16   17 1     
   34   17   18 2     
   35   18   19 1     
   36   18   42 1     
   37   19   20 1     
   38   20   27 1     
   39   20   21 1     
   40   20   43 1     
   41   21   22 1     
   42   21   44 1     
   43   21   45 1     
   44   22   23 1     
   45   22   25 1     
   46   22   27 1     
   47   23   24 1     
   48   23   46 1     
   49   23   47 1     
   50   24   48 1     
   51   25   26 1     
   52   25   49 1     
   53   25   50 1     
   54   26   51 1     
   55   27   52 1     
   56   27   53 1     
   57    8   54 1     
   58    8   55 1     
   59   10   56 1     
   60   12   57 1     
   61   14   58 1     
   62   17   59 1     
   63   24   60 1     
   64   24   61 1     
   65   26   62 1     
   66   26   63 1     
@<TRIPOS>SUBSTRUCTURE
      1 S1             1
@<TRIPOS>SET
LONE_PAIRS      STATIC     ATOMS    <user>   **** ""
10 54 55 56 57 58 59 60 61 62 63
DONOR_HYDROGENS      STATIC     ATOMS    <user>   **** ""
4 37 38 48 51
ATOM$BLUE        STATIC     ATOMS    COLORGROUP SYSTEM
10 54 55 56 57 58 59 60 61 62 63
ATOM$RED        STATIC     ATOMS    COLORGROUP SYSTEM
4 37 38 48 51
