AV-unprocessed.smi:1014|AV-procd|sdf|4431|dock4
  -GOLD-   22720 2383D 1   1.00000     0.00000
 Structure written by MMmdl.
 34 34  0  0  0  0  0  0  0  0  2 V2000
  147.2751  142.4029  154.0881 C   0  0  0  0  0  0  0  0  0  0  0  0
  147.9541  141.0637  154.4164 C   0  0  0  0  0  0  0  0  0  0  0  0
  149.4520  141.1696  154.7787 C   0  0  1  0  0  0  0  0  0  0  0  0
  149.5944  141.9416  156.0352 N   0  3  0  0  0  0  0  0  0  0  0  0
  150.9853  142.1901  156.4711 C   0  0  0  0  0  0  0  0  0  0  0  0
  151.3373  141.3288  157.6928 C   0  0  0  0  0  0  0  0  0  0  0  0
  151.7828  142.1333  158.8142 N   0  0  0  0  0  0  0  0  0  0  0  0
  152.1646  141.7178  160.0723 C   0  0  0  0  0  0  0  0  0  0  0  0
  152.5179  142.8300  160.7828 C   0  0  0  0  0  0  0  0  0  0  0  0
  153.0056  142.9214  162.2000 C   0  0  0  0  0  0  0  0  0  0  0  0
  152.3185  143.8923  159.8557 C   0  0  0  0  0  0  0  0  0  0  0  0
  151.8815  143.4727  158.6795 N   0  0  0  0  0  0  0  0  0  0  0  0
  150.0961  139.7794  154.9108 C   0  0  0  0  0  0  0  0  0  0  0  0
  150.2614  139.0719  153.7902 N   0  0  0  0  0  0  0  0  0  0  0  0
  150.4315  139.3474  156.0122 O   0  0  0  0  0  0  0  0  0  0  0  0
  146.2080  142.2602  153.9166 H   0  0  0  0  0  0  0  0  0  0  0  0
  147.6893  142.8576  153.1881 H   0  0  0  0  0  0  0  0  0  0  0  0
  147.3859  143.1137  154.9072 H   0  0  0  0  0  0  0  0  0  0  0  0
  147.4204  140.6149  155.2554 H   0  0  0  0  0  0  0  0  0  0  0  0
  147.8196  140.3782  153.5782 H   0  0  0  0  0  0  0  0  0  0  0  0
  149.9555  141.7256  153.9856 H   0  0  0  0  0  0  0  0  0  0  0  0
  149.1532  142.8396  155.8991 H   0  0  0  0  0  0  0  0  0  0  0  0
  151.6690  141.9692  155.6506 H   0  0  0  0  0  0  0  0  0  0  0  0
  151.1045  143.2466  156.7152 H   0  0  0  0  0  0  0  0  0  0  0  0
  150.4711  140.7450  158.0072 H   0  0  0  0  0  0  0  0  0  0  0  0
  152.1269  140.6177  157.4455 H   0  0  0  0  0  0  0  0  0  0  0  0
  152.1549  140.6757  160.3562 H   0  0  0  0  0  0  0  0  0  0  0  0
  153.0865  143.9556  162.5353 H   0  0  0  0  0  0  0  0  0  0  0  0
  153.9906  142.4688  162.3157 H   0  0  0  0  0  0  0  0  0  0  0  0
  152.3336  142.4120  162.8909 H   0  0  0  0  0  0  0  0  0  0  0  0
  152.4794  144.9503  160.0018 H   0  0  0  0  0  0  0  0  0  0  0  0
  150.6866  138.1566  153.8240 H   0  0  0  0  0  0  0  0  0  0  0  0
  149.9655  139.4602  152.9058 H   0  0  0  0  0  0  0  0  0  0  0  0
  149.1028  141.4485  156.7673 H   0  0  0  0  0  0  0  0  0  0  0  0
  1  2  1  0  0  0  0
  1 16  1  0  0  0  0
  1 17  1  0  0  0  0
  1 18  1  0  0  0  0
  2  3  1  0  0  0  0
  2 19  1  0  0  0  0
  2 20  1  0  0  0  0
  3  4  1  0  0  0  0
  3 13  1  0  0  0  0
  3 21  1  0  0  0  0
  4  5  1  0  0  0  0
  4 22  1  0  0  0  0
  4 34  1  0  0  0  0
  5  6  1  0  0  0  0
  5 23  1  0  0  0  0
  5 24  1  0  0  0  0
  6  7  1  0  0  0  0
  6 25  1  0  0  0  0
  6 26  1  0  0  0  0
  7 12  1  0  0  0  0
  7  8  1  0  0  0  0
  8  9  2  0  0  0  0
  8 27  1  0  0  0  0
  9 10  1  0  0  0  0
  9 11  1  0  0  0  0
 10 28  1  0  0  0  0
 10 29  1  0  0  0  0
 10 30  1  0  0  0  0
 11 12  2  0  0  0  0
 11 31  1  0  0  0  0
 13 14  1  0  0  0  0
 13 15  2  0  0  0  0
 14 32  1  0  0  0  0
 14 33  1  0  0  0  0
M  CHG  1   4   1
M  END
> <s_m_source_file>
AV-unprocessed.smi

> <i_m_source_file_index>
1014

> <i_lp_mmshare_version>
43012

> <i_f3d_flags>
0

> <s_epik_input>
W0NIM11bQ0gyXVtDQEBIXShDKD1PKVtOSDJdKVtOSF1bQ0gyXVtDSDJdbjFbY0hdYyhbQ0gzXSlbY0hdbjE=

> <s_epik_cmdline>
J2VwaWtfcHl0aG9uJywgJy1waCcsICc3LjAnLCAnLXRuJywgJzgnLCAnLW1hJywgJzIwMCcsICctbWV0YWxfYmluZGluZycsICctaW1hZScsICc8aW5maWxlLm1hZT4nLCAnLW9tYWUnLCAnPG91dGZpbGUubWFlPic=

> <r_lp_tautomer_probability>
1

> <r_epik_Ionization_Penalty>
0.19042

> <r_epik_Ionization_Penalty_Charging>
0.190412

> <r_epik_Ionization_Penalty_Neutral>
7.5834e-06

> <r_epik_State_Penalty>
0.180404

> <r_epik_Charging_Adjusted_Penalty>
0.370816

> <i_epik_Tot_Q>
1

> <i_epik_Tot_abs_Q>
1

> <r_epik_Metal_State_Penalty>
0.180563

> <b_epik_Metal_Only>
0

> <s_lp_Force_Field>
OPLS_2005

> <r_lp_Energy>
2.60817

> <b_lp_Chiralities_Consistent>
1

> <s_lp_Variant>
AV-unprocessed.smi:1014-2

> <Gold.Version>
5.8.1

> <Gold.Id.Protein>
6NUR|6NUR_protein|mol2

> <Gold.PLP.Fitness>
42.7979

> <Gold.PLP.PLP>
-35.6529

> <Gold.PLP.part.hbond>
-2.0000

> <Gold.PLP.part.metal>
0.0000

> <Gold.PLP.part.buried>
-4.1041

> <Gold.PLP.part.nonpolar>
-28.2601

> <Gold.PLP.part.repulsive>
0.2444

> <Gold.PLP.ligand.clash>
0.0000

> <Gold.PLP.ligand.torsion>
0.9648

> <Gold.PLP.Chemscore.Hbond>
3.0000

> <Gold.PLP.Chemscore.CHOScore>
0.0000

> <Gold.PLP.Chemscore.Metal>
0.0000

> <Gold.Chemscore.Hbonds>
donor molecule, donor type, donor heavy atom, donor atom, acceptor molecule, acceptor atom, score
      L1  H     4    22       P1  8028  2.00
      L1  H    14    33       P1  7957  1.00

> <Gold.PLP.Chemscore.Internal.Correction>
0.0746

> <Gold.Rescore>
     Score         DG    S(hbond)    S(metal)    S(lipo)     H(rot)  DE(clash)    DE(int)     intcor
     11.58     -15.07       1.97        0.00      82.25       2.59       0.09       3.40       ----

> <Gold.Chemscore.Fitness>
11.5821

> <Gold.Chemscore.DG>
-15.0734

> <Gold.Chemscore.ZeroCoef>
-5.4800

> <Gold.Chemscore.Hbond>
1.9746

> <Gold.Chemscore.Metal>
0.0000

> <Gold.Chemscore.Lipo>
82.2474

> <Gold.Chemscore.Internal_Hbond>
0.0000

> <Gold.Chemscore.DEClash>
0.0943

> <Gold.Chemscore.DEInternal>
3.3970

> <Gold.Chemscore.Rot>
2.5878

> <Gold.Chemscore.Internal.Correction>
   9.000000E+99

> <Gold.Chemscore.Hbonds>
donor molecule, donor type, donor heavy atom, donor atom, acceptor molecule, acceptor atom, score
      L1  H     4    22       P1  8028  0.99
      L1  H    14    33       P1  7957  0.98

> <Gold.Chemscore.Hbond.Weighted>
-6.5952

> <Gold.Chemscore.Metal.Weighted>
-0.0000

> <Gold.Chemscore.Lipo.Weighted>
-9.6229

> <Gold.Chemscore.Internal_Hbond.Weighted>
0.0000

> <Gold.Chemscore.DEClash.Weighted>
0.0943

> <Gold.Chemscore.DEInternal.Weighted>
3.3970

> <Gold.Chemscore.Rot.Weighted>
6.6247

> <Gold.Chemscore.Internal.Correction.Weighted>
   9.000000E+99

> <Gold.Protein.RotatedTorsions>
[ 6907 6896 6895 6894 ] final  108.35 input  -60.11 | X-H torsion
[ 7974 7965 7964 7962 ] final -107.69 input  175.53 | X-H torsion
[ 8008 7997 7996 7995 ] final  163.19 input   59.86 | X-H torsion
[ 10167 10162 10161 10158 ] final  120.45 input  -65.29 | X-H torsion
[ 10718 10713 10712 10709 ] final -101.09 input   66.30 | X-H torsion
[ 10763 10752 10751 10750 ] final   86.68 input  -60.55 | X-H torsion
[ 11005 11000 10999 10996 ] final   24.13 input  -57.11 | X-H torsion

> <Gold.Protein.ActiveResidues>
 VAL166  LYS551  ARG553  GLY616  TRP617  ASP618  TYR619  PRO620  LYS621  CYS622 
 ASP623  PHE694  ASN695  SER759  ASP760  ASP761  ALA762  ILE779  LEU786  VAL792 
 PHE793  MET794  SER795  GLU796  ALA797  LYS798  CYS799  TRP800  GLU811  SER814 

> <Gold.Protein.RotatedAtoms>
  152.5116  133.9101  159.7483 H   0  0  0  0  0  0  0  0  0  0  0  0  # atno 6907 bound_to 6896
  150.9497  133.6555  159.2781 H   0  0  0  0  0  0  0  0  0  0  0  0  # atno 6908 bound_to 6896
  151.3838  135.0949  159.9557 H   0  0  0  0  0  0  0  0  0  0  0  0  # atno 6909 bound_to 6896
  145.2021  140.9061  143.3363 H   0  0  0  0  0  0  0  0  0  0  0  0  # atno 7974 bound_to 7965
  156.1976  140.1730  156.7966 H   0  0  0  0  0  0  0  0  0  0  0  0  # atno 8008 bound_to 7997
  154.5549  140.0710  156.8759 H   0  0  0  0  0  0  0  0  0  0  0  0  # atno 8009 bound_to 7997
  155.2957  140.3358  155.4252 H   0  0  0  0  0  0  0  0  0  0  0  0  # atno 8010 bound_to 7997
  139.5981  144.7048  151.3127 H   0  0  0  0  0  0  0  0  0  0  0  0  # atno 10167 bound_to 10162
  156.0183  130.5358  150.6913 H   0  0  0  0  0  0  0  0  0  0  0  0  # atno 10718 bound_to 10713
  153.1594  135.4571  154.9751 H   0  0  0  0  0  0  0  0  0  0  0  0  # atno 10763 bound_to 10752
  154.7886  135.3212  154.7832 H   0  0  0  0  0  0  0  0  0  0  0  0  # atno 10764 bound_to 10752
  153.8324  135.6937  153.4867 H   0  0  0  0  0  0  0  0  0  0  0  0  # atno 10765 bound_to 10752
  140.3621  134.2114  155.7671 H   0  0  0  0  0  0  0  0  0  0  0  0  # atno 11005 bound_to 11000
  144.9937  139.3664  143.6202 LP  0  0  0  0  0  0  0  0  0  0  0  0  # atno 17320 bound_to 7965
  146.3415  139.9131  142.8777 LP  0  0  0  0  0  0  0  0  0  0  0  0  # atno 17321 bound_to 7965
  140.7228  143.7087  150.7786 LP  0  0  0  0  0  0  0  0  0  0  0  0  # atno 17342 bound_to 10162
  140.0658  143.5110  152.2605 LP  0  0  0  0  0  0  0  0  0  0  0  0  # atno 17343 bound_to 10162
  157.4594  131.0881  151.0762 LP  0  0  0  0  0  0  0  0  0  0  0  0  # atno 17370 bound_to 10713
  157.1254  130.6079  149.5516 LP  0  0  0  0  0  0  0  0  0  0  0  0  # atno 17371 bound_to 10713
  141.1981  133.8044  157.0598 LP  0  0  0  0  0  0  0  0  0  0  0  0  # atno 17394 bound_to 11000
  140.0619  134.9750  157.1319 LP  0  0  0  0  0  0  0  0  0  0  0  0  # atno 17395 bound_to 11000

$$$$
