AV-unprocessed.smi:1641|AV-procd|sdf|6557|dock1
  -GOLD-   22720 7243D 1   1.00000     0.00000
 Structure written by MMmdl.
 41 42  0  0  0  0  0  0  0  0  1 V2000
  148.8541  132.2393  154.7262 C   0  0  0  0  0  0  0  0  0  0  0  0
  149.5901  133.2903  155.4847 C   0  0  0  0  0  0  0  0  0  0  0  0
  149.7996  133.2167  156.8046 N   0  0  0  0  0  0  0  0  0  0  0  0
  150.5062  134.3096  157.2866 N   0  0  0  0  0  0  0  0  0  0  0  0
  150.8097  135.1780  156.3121 C   0  0  0  0  0  0  0  0  0  0  0  0
  151.5278  136.3843  156.5248 N   0  0  0  0  0  0  0  0  0  0  0  0
  151.7965  136.9982  157.6903 C   0  0  0  0  0  0  0  0  0  0  0  0
  151.4790  136.5785  158.8033 O   0  0  0  0  0  0  0  0  0  0  0  0
  152.4627  138.1452  157.4917 N   0  0  0  0  0  0  0  0  0  0  0  0
  152.8571  139.0844  158.5378 C   0  0  0  0  0  0  0  0  0  0  0  0
  151.6317  139.7794  159.1628 C   0  0  0  0  0  0  0  0  0  0  0  0
  151.8204  141.1846  159.5229 N   0  0  0  0  0  0  0  0  0  0  0  0
  153.0814  141.4240  160.2211 C   0  0  0  0  0  0  0  0  0  0  0  0
  153.2731  142.9058  160.6004 C   0  0  2  0  0  0  0  0  0  0  0  0
  152.3767  143.3553  161.7676 C   0  0  0  0  0  0  0  0  0  0  0  0
  153.1035  143.7355  159.4495 O   0  0  0  0  0  0  0  0  0  0  0  0
  151.8898  143.5335  158.7275 C   0  0  1  0  0  0  0  0  0  0  0  0
  151.9116  144.4413  157.4933 C   0  0  0  0  0  0  0  0  0  0  0  0
  151.7591  142.0464  158.3507 C   0  0  0  0  0  0  0  0  0  0  0  0
  150.2449  134.7289  154.7122 S   0  0  0  0  0  0  0  0  0  0  0  0
  148.9812  131.2666  155.2021 H   0  0  0  0  0  0  0  0  0  0  0  0
  149.2311  132.1787  153.7051 H   0  0  0  0  0  0  0  0  0  0  0  0
  147.7913  132.4792  154.6945 H   0  0  0  0  0  0  0  0  0  0  0  0
  151.8652  136.8401  155.6901 H   0  0  0  0  0  0  0  0  0  0  0  0
  152.6859  138.4062  156.5425 H   0  0  0  0  0  0  0  0  0  0  0  0
  153.4781  138.6045  159.2950 H   0  0  0  0  0  0  0  0  0  0  0  0
  153.4917  139.8394  158.0736 H   0  0  0  0  0  0  0  0  0  0  0  0
  150.7831  139.6889  158.4832 H   0  0  0  0  0  0  0  0  0  0  0  0
  151.3555  139.2179  160.0566 H   0  0  0  0  0  0  0  0  0  0  0  0
  153.1449  140.8176  161.1234 H   0  0  0  0  0  0  0  0  0  0  0  0
  153.9112  141.1123  159.5851 H   0  0  0  0  0  0  0  0  0  0  0  0
  154.3060  143.0375  160.9236 H   0  0  0  0  0  0  0  0  0  0  0  0
  152.6058  142.7895  162.6710 H   0  0  0  0  0  0  0  0  0  0  0  0
  151.3182  143.2071  161.5542 H   0  0  0  0  0  0  0  0  0  0  0  0
  152.5291  144.4111  161.9921 H   0  0  0  0  0  0  0  0  0  0  0  0
  151.0456  143.8260  159.3526 H   0  0  0  0  0  0  0  0  0  0  0  0
  150.9926  144.3398  156.9152 H   0  0  0  0  0  0  0  0  0  0  0  0
  152.7485  144.1975  156.8384 H   0  0  0  0  0  0  0  0  0  0  0  0
  152.0078  145.4881  157.7821 H   0  0  0  0  0  0  0  0  0  0  0  0
  152.5503  141.7736  157.6502 H   0  0  0  0  0  0  0  0  0  0  0  0
  150.8139  141.8922  157.8286 H   0  0  0  0  0  0  0  0  0  0  0  0
  1  2  1  0  0  0  0
  1 21  1  0  0  0  0
  1 22  1  0  0  0  0
  1 23  1  0  0  0  0
  2 20  1  0  0  0  0
  2  3  2  0  0  0  0
  3  4  1  0  0  0  0
  4  5  2  0  0  0  0
  5  6  1  0  0  0  0
  5 20  1  0  0  0  0
  6  7  1  0  0  0  0
  6 24  1  0  0  0  0
  7  8  2  0  0  0  0
  7  9  1  0  0  0  0
  9 10  1  0  0  0  0
  9 25  1  0  0  0  0
 10 11  1  0  0  0  0
 10 26  1  0  0  0  0
 10 27  1  0  0  0  0
 11 12  1  0  0  0  0
 11 28  1  0  0  0  0
 11 29  1  0  0  0  0
 12 19  1  0  0  0  0
 12 13  1  0  0  0  0
 13 14  1  0  0  0  0
 13 30  1  0  0  0  0
 13 31  1  0  0  0  0
 14 15  1  0  0  0  0
 14 16  1  0  0  0  0
 14 32  1  0  0  0  0
 15 33  1  0  0  0  0
 15 34  1  0  0  0  0
 15 35  1  0  0  0  0
 16 17  1  0  0  0  0
 17 18  1  0  0  0  0
 17 19  1  0  0  0  0
 17 36  1  0  0  0  0
 18 37  1  0  0  0  0
 18 38  1  0  0  0  0
 18 39  1  0  0  0  0
 19 40  1  0  0  0  0
 19 41  1  0  0  0  0
M  END
> <s_m_source_file>
AV-unprocessed.smi

> <i_m_source_file_index>
1641

> <i_lp_mmshare_version>
43012

> <i_f3d_flags>
0

> <s_epik_input>
W0NIM11jMW5uYyhzMSlbTkhdQyg9TylbTkhdW0NIMl1bQ0gyXU4yW0NIMl1bQ0BASF0oW0NIM10pT1tDQEBIXShbQ0gzXSlbQ0gyXTI=

> <s_epik_cmdline>
J2VwaWtfcHl0aG9uJywgJy1waCcsICc3LjAnLCAnLXRuJywgJzgnLCAnLW1hJywgJzIwMCcsICctbWV0YWxfYmluZGluZycsICctaW1hZScsICc8aW5maWxlLm1hZT4nLCAnLW9tYWUnLCAnPG91dGZpbGUubWFlPic=

> <r_lp_tautomer_probability>
1

> <r_epik_Ionization_Penalty>
0.221104

> <r_epik_Ionization_Penalty_Charging>
0

> <r_epik_Ionization_Penalty_Neutral>
0.221104

> <r_epik_State_Penalty>
0.209349

> <r_epik_Charging_Adjusted_Penalty>
0.209349

> <i_epik_Tot_Q>
0

> <i_epik_Tot_abs_Q>
0

> <r_epik_Metal_State_Penalty>
0.560954

> <b_epik_Metal_Only>
0

> <s_lp_Force_Field>
OPLS_2005

> <r_lp_Energy>
24.8312

> <b_lp_Chiralities_Consistent>
1

> <s_lp_Variant>
AV-unprocessed.smi:1641-2

> <Gold.Version>
5.8.1

> <Gold.Id.Protein>
6NUR|6NUR_protein|mol2

> <Gold.PLP.Fitness>
38.1805

> <Gold.PLP.PLP>
-34.8472

> <Gold.PLP.part.hbond>
-2.0000

> <Gold.PLP.part.metal>
0.0000

> <Gold.PLP.part.buried>
-6.0276

> <Gold.PLP.part.nonpolar>
-27.3016

> <Gold.PLP.part.repulsive>
0.2299

> <Gold.PLP.ligand.clash>
0.0000

> <Gold.PLP.ligand.torsion>
0.4554

> <Gold.PLP.Chemscore.Hbond>
1.4024

> <Gold.PLP.Chemscore.CHOScore>
0.0000

> <Gold.PLP.Chemscore.Metal>
0.0000

> <Gold.Chemscore.Hbonds>
donor molecule, donor type, donor heavy atom, donor atom, acceptor molecule, acceptor atom, score
      P1  H  6896  6907       L1     4  0.62
      P1  H  6896  6908       L1     8  0.77

> <Gold.PLP.Chemscore.Internal.Correction>
0.0368

> <Gold.Rescore>
     Score         DG    S(hbond)    S(metal)    S(lipo)     H(rot)  DE(clash)    DE(int)     intcor
     15.35     -17.09       1.55        0.00      89.81       1.60       0.01       1.72       ----

> <Gold.Chemscore.Fitness>
15.3528

> <Gold.Chemscore.DG>
-17.0861

> <Gold.Chemscore.ZeroCoef>
-5.4800

> <Gold.Chemscore.Hbond>
1.5533

> <Gold.Chemscore.Metal>
0.0000

> <Gold.Chemscore.Lipo>
89.8078

> <Gold.Chemscore.Internal_Hbond>
0.0000

> <Gold.Chemscore.DEClash>
0.0106

> <Gold.Chemscore.DEInternal>
1.7226

> <Gold.Chemscore.Rot>
1.5975

> <Gold.Chemscore.Internal.Correction>
   9.000000E+99

> <Gold.Chemscore.Hbonds>
donor molecule, donor type, donor heavy atom, donor atom, acceptor molecule, acceptor atom, score
      P1  H  6896  6907       L1     4  0.23
      P1  H  6896  6908       L1     8  0.76

> <Gold.Chemscore.Hbond.Weighted>
-5.1882

> <Gold.Chemscore.Metal.Weighted>
-0.0000

> <Gold.Chemscore.Lipo.Weighted>
-10.5075

> <Gold.Chemscore.Internal_Hbond.Weighted>
0.0000

> <Gold.Chemscore.DEClash.Weighted>
0.0106

> <Gold.Chemscore.DEInternal.Weighted>
1.7226

> <Gold.Chemscore.Rot.Weighted>
4.0896

> <Gold.Chemscore.Internal.Correction.Weighted>
   9.000000E+99

> <Gold.Protein.RotatedTorsions>
[ 6907 6896 6895 6894 ] final -118.65 input  -60.11 | X-H torsion
[ 7974 7965 7964 7962 ] final   77.93 input  175.53 | X-H torsion
[ 8008 7997 7996 7995 ] final  -76.34 input   59.86 | X-H torsion
[ 10167 10162 10161 10158 ] final -121.25 input  -65.29 | X-H torsion
[ 10718 10713 10712 10709 ] final  -31.23 input   66.30 | X-H torsion
[ 10763 10752 10751 10750 ] final   17.69 input  -60.55 | X-H torsion
[ 11005 11000 10999 10996 ] final -137.84 input  -57.11 | X-H torsion

> <Gold.Protein.ActiveResidues>
 VAL166  LYS551  ARG553  GLY616  TRP617  ASP618  TYR619  PRO620  LYS621  CYS622 
 ASP623  PHE694  ASN695  SER759  ASP760  ASP761  ALA762  ILE779  LEU786  VAL792 
 PHE793  MET794  SER795  GLU796  ALA797  LYS798  CYS799  TRP800  GLU811  SER814 

> <Gold.Protein.RotatedAtoms>
  150.8238  133.8208  159.3127 H   0  0  0  0  0  0  0  0  0  0  0  0  # atno 6907 bound_to 6896
  151.5958  135.1049  160.0059 H   0  0  0  0  0  0  0  0  0  0  0  0  # atno 6908 bound_to 6896
  152.4324  133.7260  159.6617 H   0  0  0  0  0  0  0  0  0  0  0  0  # atno 6909 bound_to 6896
  145.6836  139.2531  143.1800 H   0  0  0  0  0  0  0  0  0  0  0  0  # atno 7974 bound_to 7965
  154.5496  140.0729  156.8646 H   0  0  0  0  0  0  0  0  0  0  0  0  # atno 8008 bound_to 7997
  155.3018  140.3384  155.4229 H   0  0  0  0  0  0  0  0  0  0  0  0  # atno 8009 bound_to 7997
  156.1950  140.1700  156.8003 H   0  0  0  0  0  0  0  0  0  0  0  0  # atno 8010 bound_to 7997
  140.0271  143.5286  152.2194 H   0  0  0  0  0  0  0  0  0  0  0  0  # atno 10167 bound_to 10162
  156.3899  130.4371  149.7403 H   0  0  0  0  0  0  0  0  0  0  0  0  # atno 10718 bound_to 10713
  153.1316  135.6741  153.9169 H   0  0  0  0  0  0  0  0  0  0  0  0  # atno 10763 bound_to 10752
  153.8654  135.3076  155.3441 H   0  0  0  0  0  0  0  0  0  0  0  0  # atno 10764 bound_to 10752
  154.7712  135.4938  153.9734 H   0  0  0  0  0  0  0  0  0  0  0  0  # atno 10765 bound_to 10752
  140.8673  134.2094  157.4672 H   0  0  0  0  0  0  0  0  0  0  0  0  # atno 11005 bound_to 11000
  146.0943  140.7619  142.9580 LP  0  0  0  0  0  0  0  0  0  0  0  0  # atno 17320 bound_to 7965
  144.7018  140.3686  143.7150 LP  0  0  0  0  0  0  0  0  0  0  0  0  # atno 17321 bound_to 7965
  139.6101  144.7606  151.2972 LP  0  0  0  0  0  0  0  0  0  0  0  0  # atno 17342 bound_to 10162
  140.7318  143.6841  150.7976 LP  0  0  0  0  0  0  0  0  0  0  0  0  # atno 17343 bound_to 10162
  156.4461  130.7884  151.2905 LP  0  0  0  0  0  0  0  0  0  0  0  0  # atno 17370 bound_to 10713
  157.7498  131.0110  150.3328 LP  0  0  0  0  0  0  0  0  0  0  0  0  # atno 17371 bound_to 10713
  139.8710  134.9758  156.4896 LP  0  0  0  0  0  0  0  0  0  0  0  0  # atno 17394 bound_to 11000
  140.8614  133.8057  155.9269 LP  0  0  0  0  0  0  0  0  0  0  0  0  # atno 17395 bound_to 11000

$$$$
