AV-unprocessed.smi:3331|AV-procd|sdf|12822|dock1
  -GOLD-   2272019193D 1   1.00000     0.00000
 Structure written by MMmdl.
 47 48  0  0  0  0  0  0  0  0  2 V2000
  149.7323  136.8546  157.9480 C   0  0  0  0  0  0  0  0  0  0  0  0
  150.0377  138.0766  157.0707 C   0  0  1  0  0  0  0  0  0  0  0  0
  151.4089  138.6979  157.4235 C   0  0  0  0  0  0  0  0  0  0  0  0
  151.8154  139.8448  156.4701 C   0  0  2  0  0  0  0  0  0  0  0  0
  151.0674  141.1537  156.7824 C   0  0  0  0  0  0  0  0  0  0  0  0
  151.6451  139.3914  155.0034 C   0  0  0  0  0  0  0  0  0  0  0  0
  150.2648  138.9353  154.7848 N   0  0  0  0  0  0  0  0  0  0  0  0
  149.3142  139.5687  154.0520 C   0  0  0  0  0  0  0  0  0  0  0  0
  149.5386  140.6340  153.4737 O   0  0  0  0  0  0  0  0  0  0  0  0
  147.9009  138.9605  153.9211 C   0  0  1  0  0  0  0  0  0  0  0  0
  146.8370  140.0268  154.2275 C   0  0  0  0  0  0  0  0  0  0  0  0
  147.6671  138.4026  152.5683 N   0  3  0  0  0  0  0  0  0  0  0  0
  146.2478  138.1625  152.2286 C   0  0  0  0  0  0  0  0  0  0  0  0
  146.1218  137.3548  150.9297 C   0  0  0  0  0  0  0  0  0  0  0  0
  145.5480  136.0442  151.1659 N   0  0  0  0  0  0  0  0  0  0  0  0
  146.0634  135.0029  151.9090 C   0  0  0  0  0  0  0  0  0  0  0  0
  145.1706  133.9721  151.8367 C   0  0  0  0  0  0  0  0  0  0  0  0
  144.1291  134.4835  151.0130 C   0  0  0  0  0  0  0  0  0  0  0  0
  144.3587  135.7238  150.6117 N   0  0  0  0  0  0  0  0  0  0  0  0
  149.9783  137.7263  155.5687 C   0  0  0  0  0  0  0  0  0  0  0  0
  150.4629  136.0605  157.7915 H   0  0  0  0  0  0  0  0  0  0  0  0
  148.7455  136.4480  157.7245 H   0  0  0  0  0  0  0  0  0  0  0  0
  149.7473  137.1180  159.0059 H   0  0  0  0  0  0  0  0  0  0  0  0
  149.2657  138.8204  157.2725 H   0  0  0  0  0  0  0  0  0  0  0  0
  151.4147  139.0445  158.4577 H   0  0  0  0  0  0  0  0  0  0  0  0
  152.1699  137.9182  157.3663 H   0  0  0  0  0  0  0  0  0  0  0  0
  152.8751  140.0461  156.6326 H   0  0  0  0  0  0  0  0  0  0  0  0
  149.9895  141.0494  156.6591 H   0  0  0  0  0  0  0  0  0  0  0  0
  151.3992  141.9592  156.1271 H   0  0  0  0  0  0  0  0  0  0  0  0
  151.2508  141.4723  157.8088 H   0  0  0  0  0  0  0  0  0  0  0  0
  151.9720  140.1711  154.3188 H   0  0  0  0  0  0  0  0  0  0  0  0
  152.3194  138.5568  154.8042 H   0  0  0  0  0  0  0  0  0  0  0  0
  147.7728  138.1295  154.6127 H   0  0  0  0  0  0  0  0  0  0  0  0
  146.9602  140.4418  155.2283 H   0  0  0  0  0  0  0  0  0  0  0  0
  145.8332  139.6042  154.1731 H   0  0  0  0  0  0  0  0  0  0  0  0
  146.8855  140.8550  153.5191 H   0  0  0  0  0  0  0  0  0  0  0  0
  148.0360  139.0559  151.8924 H   0  0  0  0  0  0  0  0  0  0  0  0
  145.7584  137.6259  153.0424 H   0  0  0  0  0  0  0  0  0  0  0  0
  145.7380  139.1213  152.1248 H   0  0  0  0  0  0  0  0  0  0  0  0
  145.4971  137.8824  150.2073 H   0  0  0  0  0  0  0  0  0  0  0  0
  147.1017  137.2249  150.4682 H   0  0  0  0  0  0  0  0  0  0  0  0
  147.0107  135.0799  152.4223 H   0  0  0  0  0  0  0  0  0  0  0  0
  145.2502  132.9999  152.3000 H   0  0  0  0  0  0  0  0  0  0  0  0
  143.2201  133.9933  150.6970 H   0  0  0  0  0  0  0  0  0  0  0  0
  150.7139  136.9564  155.3298 H   0  0  0  0  0  0  0  0  0  0  0  0
  149.0089  137.2873  155.3286 H   0  0  0  0  0  0  0  0  0  0  0  0
  148.1771  137.5340  152.4898 H   0  0  0  0  0  0  0  0  0  0  0  0
  1  2  1  0  0  0  0
  1 21  1  0  0  0  0
  1 22  1  0  0  0  0
  1 23  1  0  0  0  0
  2 20  1  0  0  0  0
  2  3  1  0  0  0  0
  2 24  1  0  0  0  0
  3  4  1  0  0  0  0
  3 25  1  0  0  0  0
  3 26  1  0  0  0  0
  4  5  1  0  0  0  0
  4  6  1  0  0  0  0
  4 27  1  0  0  0  0
  5 28  1  0  0  0  0
  5 29  1  0  0  0  0
  5 30  1  0  0  0  0
  6  7  1  0  0  0  0
  6 31  1  0  0  0  0
  6 32  1  0  0  0  0
  7  8  1  0  0  0  0
  7 20  1  0  0  0  0
  8  9  2  0  0  0  0
  8 10  1  0  0  0  0
 10 11  1  0  0  0  0
 10 12  1  0  0  0  0
 10 33  1  0  0  0  0
 11 34  1  0  0  0  0
 11 35  1  0  0  0  0
 11 36  1  0  0  0  0
 12 13  1  0  0  0  0
 12 37  1  0  0  0  0
 12 47  1  0  0  0  0
 13 14  1  0  0  0  0
 13 38  1  0  0  0  0
 13 39  1  0  0  0  0
 14 15  1  0  0  0  0
 14 40  1  0  0  0  0
 14 41  1  0  0  0  0
 15 19  1  0  0  0  0
 15 16  1  0  0  0  0
 16 17  2  0  0  0  0
 16 42  1  0  0  0  0
 17 18  1  0  0  0  0
 17 43  1  0  0  0  0
 18 19  2  0  0  0  0
 18 44  1  0  0  0  0
 20 45  1  0  0  0  0
 20 46  1  0  0  0  0
M  CHG  1  12   1
M  END
> <s_m_source_file>
AV-unprocessed.smi

> <i_m_source_file_index>
3331

> <i_lp_mmshare_version>
43012

> <i_f3d_flags>
0

> <s_epik_input>
W0NIM11bQ0BASF0xW0NIMl1bQ0BASF0oW0NIM10pW0NIMl1OKFtDSDJdMSlDKD1PKVtDQEhdKFtDSDNdKVtOSF1bQ0gyXVtDSDJdbjJbY0hdW2NIXVtjSF1uMg==

> <s_epik_cmdline>
J2VwaWtfcHl0aG9uJywgJy1waCcsICc3LjAnLCAnLXRuJywgJzgnLCAnLW1hJywgJzIwMCcsICctbWV0YWxfYmluZGluZycsICctaW1hZScsICc8aW5maWxlLm1hZT4nLCAnLW9tYWUnLCAnPG91dGZpbGUubWFlPic=

> <r_lp_tautomer_probability>
1

> <r_epik_Ionization_Penalty>
0.189706

> <r_epik_Ionization_Penalty_Charging>
0.189703

> <r_epik_Ionization_Penalty_Neutral>
2.45875e-06

> <r_epik_State_Penalty>
0.179341

> <r_epik_Charging_Adjusted_Penalty>
0.369044

> <i_epik_Tot_Q>
1

> <i_epik_Tot_abs_Q>
1

> <r_epik_Metal_State_Penalty>
0.179578

> <b_epik_Metal_Only>
0

> <s_lp_Force_Field>
OPLS_2005

> <r_lp_Energy>
28.0969

> <b_lp_Chiralities_Consistent>
1

> <s_lp_Variant>
AV-unprocessed.smi:3331-6

> <Gold.Version>
5.8.1

> <Gold.Id.Protein>
6NUR|6NUR_protein|mol2

> <Gold.PLP.Fitness>
44.8597

> <Gold.PLP.PLP>
-28.0438

> <Gold.PLP.part.hbond>
-3.7761

> <Gold.PLP.part.metal>
0.0000

> <Gold.PLP.part.buried>
1.6351

> <Gold.PLP.part.nonpolar>
-32.0948

> <Gold.PLP.part.repulsive>
5.8992

> <Gold.PLP.ligand.clash>
0.0000

> <Gold.PLP.ligand.torsion>
0.8089

> <Gold.PLP.Chemscore.Hbond>
4.1133

> <Gold.PLP.Chemscore.CHOScore>
1.9988

> <Gold.PLP.Chemscore.Metal>
0.0000

> <Gold.Chemscore.Hbonds>
donor molecule, donor type, donor heavy atom, donor atom, acceptor molecule, acceptor atom, score
      L1  H    12    37       P1  7957  0.99
      L1  H    12    47       P1  7948  2.00
      P1  H  7989  7998       L1     9  0.36
      P1  H  8011  8017       L1     9  0.76
      L1  C    16    42       P1  7948  1.00
      L1  C    18    44       P1 10186  1.00

> <Gold.PLP.Chemscore.Internal.Correction>
0.0975

> <Gold.Rescore>
     Score         DG    S(hbond)    S(metal)    S(lipo)     H(rot)  DE(clash)    DE(int)     intcor
     14.81     -19.01       2.84        0.00      72.39       1.73       3.43       0.77       ----

> <Gold.Chemscore.Fitness>
14.8077

> <Gold.Chemscore.DG>
-19.0102

> <Gold.Chemscore.ZeroCoef>
-5.4800

> <Gold.Chemscore.Hbond>
2.8376

> <Gold.Chemscore.Metal>
0.0000

> <Gold.Chemscore.Lipo>
72.3897

> <Gold.Chemscore.Internal_Hbond>
0.0000

> <Gold.Chemscore.DEClash>
3.4329

> <Gold.Chemscore.DEInternal>
0.7697

> <Gold.Chemscore.Rot>
1.7254

> <Gold.Chemscore.Internal.Correction>
   9.000000E+99

> <Gold.Chemscore.Hbonds>
donor molecule, donor type, donor heavy atom, donor atom, acceptor molecule, acceptor atom, score
      L1  H    12    37       P1  7957  0.91
      L1  H    12    47       P1  7948  0.99
      P1  H  7989  7998       L1     9  0.21
      P1  H  8011  8017       L1     9  0.74

> <Gold.Chemscore.Hbond.Weighted>
-9.4777

> <Gold.Chemscore.Metal.Weighted>
-0.0000

> <Gold.Chemscore.Lipo.Weighted>
-8.4696

> <Gold.Chemscore.Internal_Hbond.Weighted>
0.0000

> <Gold.Chemscore.DEClash.Weighted>
3.4329

> <Gold.Chemscore.DEInternal.Weighted>
0.7697

> <Gold.Chemscore.Rot.Weighted>
4.4170

> <Gold.Chemscore.Internal.Correction.Weighted>
   9.000000E+99

> <Gold.Protein.RotatedTorsions>
[ 6907 6896 6895 6894 ] final  -20.25 input  -60.11 | X-H torsion
[ 7974 7965 7964 7962 ] final   -3.26 input  175.53 | X-H torsion
[ 8008 7997 7996 7995 ] final   50.32 input   59.86 | X-H torsion
[ 10167 10162 10161 10158 ] final -109.19 input  -65.29 | X-H torsion
[ 10718 10713 10712 10709 ] final  -53.20 input   66.30 | X-H torsion
[ 10763 10752 10751 10750 ] final  150.00 input  -60.55 | X-H torsion
[ 11005 11000 10999 10996 ] final  125.74 input  -57.11 | X-H torsion

> <Gold.Protein.ActiveResidues>
 VAL166  LYS551  ARG553  GLY616  TRP617  ASP618  TYR619  PRO620  LYS621  CYS622 
 ASP623  PHE694  ASN695  SER759  ASP760  ASP761  ALA762  ILE779  LEU786  VAL792 
 PHE793  MET794  SER795  GLU796  ALA797  LYS798  CYS799  TRP800  GLU811  SER814 

> <Gold.Protein.RotatedAtoms>
  151.2510  135.0622  159.9061 H   0  0  0  0  0  0  0  0  0  0  0  0  # atno 6907 bound_to 6896
  152.5380  134.0333  159.8044 H   0  0  0  0  0  0  0  0  0  0  0  0  # atno 6908 bound_to 6896
  151.0541  133.5550  159.2671 H   0  0  0  0  0  0  0  0  0  0  0  0  # atno 6909 bound_to 6896
  146.2392  140.1694  142.8332 H   0  0  0  0  0  0  0  0  0  0  0  0  # atno 7974 bound_to 7965
  155.4169  140.3445  155.4268 H   0  0  0  0  0  0  0  0  0  0  0  0  # atno 8008 bound_to 7997
  156.1416  140.1544  156.8943 H   0  0  0  0  0  0  0  0  0  0  0  0  # atno 8009 bound_to 7997
  154.4976  140.0823  156.7709 H   0  0  0  0  0  0  0  0  0  0  0  0  # atno 8010 bound_to 7997
  140.1580  143.4144  152.1447 H   0  0  0  0  0  0  0  0  0  0  0  0  # atno 10167 bound_to 10162
  156.1556  130.4150  149.9875 H   0  0  0  0  0  0  0  0  0  0  0  0  # atno 10718 bound_to 10713
  154.0803  135.2860  155.3291 H   0  0  0  0  0  0  0  0  0  0  0  0  # atno 10763 bound_to 10752
  154.6688  135.5307  153.8115 H   0  0  0  0  0  0  0  0  0  0  0  0  # atno 10764 bound_to 10752
  153.0451  135.6552  154.0978 H   0  0  0  0  0  0  0  0  0  0  0  0  # atno 10765 bound_to 10752
  139.9421  134.9634  156.8603 H   0  0  0  0  0  0  0  0  0  0  0  0  # atno 11005 bound_to 11000
  145.0024  140.8643  143.5273 LP  0  0  0  0  0  0  0  0  0  0  0  0  # atno 17320 bound_to 7965
  145.1715  139.2401  143.5339 LP  0  0  0  0  0  0  0  0  0  0  0  0  # atno 17321 bound_to 7965
  139.5394  144.7242  151.4783 LP  0  0  0  0  0  0  0  0  0  0  0  0  # atno 17342 bound_to 10162
  140.6661  143.8395  150.6943 LP  0  0  0  0  0  0  0  0  0  0  0  0  # atno 17343 bound_to 10162
  156.7719  130.9189  151.3644 LP  0  0  0  0  0  0  0  0  0  0  0  0  # atno 17370 bound_to 10713
  157.6692  130.9035  150.0001 LP  0  0  0  0  0  0  0  0  0  0  0  0  # atno 17371 bound_to 10713
  140.5925  134.0248  155.7505 LP  0  0  0  0  0  0  0  0  0  0  0  0  # atno 17394 bound_to 11000
  141.1059  133.9694  157.2997 LP  0  0  0  0  0  0  0  0  0  0  0  0  # atno 17395 bound_to 11000

$$$$
