AV-unprocessed.smi:2124|AV-procd|sdf|8656|dock1
  -GOLD-   2272011403D 1   1.00000     0.00000
 Structure written by MMmdl.
 47 49  0  0  0  0  0  0  0  0  1 V2000
  146.2018  138.6654  151.5802 C   0  0  0  0  0  0  0  0  0  0  0  0
  146.3447  139.3788  152.9078 C   0  0  0  0  0  0  0  0  0  0  0  0
  145.5736  139.1718  153.9238 N   0  0  0  0  0  0  0  0  0  0  0  0
  145.8094  139.8874  155.1057 C   0  0  0  0  0  0  0  0  0  0  0  0
  144.8759  139.5674  156.2605 C   0  0  0  0  0  0  0  0  0  0  0  0
  146.8243  140.7958  155.2028 C   0  0  0  0  0  0  0  0  0  0  0  0
  147.1342  141.5590  156.4916 C   0  0  0  0  0  0  0  0  0  0  0  0
  148.5030  141.2493  157.0981 C   0  0  0  0  0  0  0  0  0  0  0  0
  148.6941  140.1877  157.6902 O   0  0  0  0  0  0  0  0  0  0  0  0
  149.4544  142.1730  156.8971 N   0  0  0  0  0  0  0  0  0  0  0  0
  150.8833  141.9904  157.1255 C   0  0  2  0  0  0  0  0  0  0  0  0
  151.3033  140.5820  156.6776 C   0  0  0  0  0  0  0  0  0  0  0  0
  151.1937  142.2513  158.6187 C   0  0  1  0  0  0  0  0  0  0  0  0
  152.6963  142.2564  158.9771 C   0  0  0  0  0  0  0  0  0  0  0  0
  152.8584  143.5679  159.7691 C   0  0  1  0  0  0  0  0  0  0  0  0
  152.7875  144.7588  158.7951 C   0  0  0  0  0  0  0  0  0  0  0  0
  151.2948  144.8023  158.4215 C   0  0  0  0  0  0  0  0  0  0  0  0
  150.7139  143.6062  159.2030 C   0  0  2  0  0  0  0  0  0  0  0  0
  151.5217  143.6752  160.4941 C   0  0  0  0  0  0  0  0  0  0  0  0
  147.6943  141.0286  154.0334 C   0  0  0  0  0  0  0  0  0  0  0  0
  148.6413  141.8131  154.0143 O   0  0  0  0  0  0  0  0  0  0  0  0
  147.3972  140.2917  152.9400 N   0  0  0  0  0  0  0  0  0  0  0  0
  147.9669  140.4113  152.1150 H   0  0  0  0  0  0  0  0  0  0  0  0
  146.2957  137.5885  151.7217 H   0  0  0  0  0  0  0  0  0  0  0  0
  146.9636  138.9835  150.8671 H   0  0  0  0  0  0  0  0  0  0  0  0
  145.2223  138.8704  151.1477 H   0  0  0  0  0  0  0  0  0  0  0  0
  145.4338  139.1673  157.1070 H   0  0  0  0  0  0  0  0  0  0  0  0
  144.1314  138.8240  155.9733 H   0  0  0  0  0  0  0  0  0  0  0  0
  144.3445  140.4621  156.5848 H   0  0  0  0  0  0  0  0  0  0  0  0
  147.0599  142.6358  156.3357 H   0  0  0  0  0  0  0  0  0  0  0  0
  146.3652  141.3303  157.2301 H   0  0  0  0  0  0  0  0  0  0  0  0
  149.1824  143.0242  156.4267 H   0  0  0  0  0  0  0  0  0  0  0  0
  151.4412  142.7114  156.5257 H   0  0  0  0  0  0  0  0  0  0  0  0
  152.3724  140.4241  156.8205 H   0  0  0  0  0  0  0  0  0  0  0  0
  151.0889  140.4270  155.6197 H   0  0  0  0  0  0  0  0  0  0  0  0
  150.7751  139.8115  157.2403 H   0  0  0  0  0  0  0  0  0  0  0  0
  150.7090  141.4645  159.1999 H   0  0  0  0  0  0  0  0  0  0  0  0
  152.9431  141.3928  159.5958 H   0  0  0  0  0  0  0  0  0  0  0  0
  153.3457  142.2306  158.1013 H   0  0  0  0  0  0  0  0  0  0  0  0
  153.7371  143.5830  160.4141 H   0  0  0  0  0  0  0  0  0  0  0  0
  153.0858  145.6846  159.2880 H   0  0  0  0  0  0  0  0  0  0  0  0
  153.4299  144.6203  157.9247 H   0  0  0  0  0  0  0  0  0  0  0  0
  150.8446  145.7347  158.7649 H   0  0  0  0  0  0  0  0  0  0  0  0
  151.1268  144.7407  157.3470 H   0  0  0  0  0  0  0  0  0  0  0  0
  149.6344  143.6649  159.3463 H   0  0  0  0  0  0  0  0  0  0  0  0
  151.3287  142.8431  161.1735 H   0  0  0  0  0  0  0  0  0  0  0  0
  151.3960  144.6148  161.0353 H   0  0  0  0  0  0  0  0  0  0  0  0
  1  2  1  0  0  0  0
  1 24  1  0  0  0  0
  1 25  1  0  0  0  0
  1 26  1  0  0  0  0
  2 22  1  0  0  0  0
  2  3  2  0  0  0  0
  3  4  1  0  0  0  0
  4  5  1  0  0  0  0
  4  6  2  0  0  0  0
  5 27  1  0  0  0  0
  5 28  1  0  0  0  0
  5 29  1  0  0  0  0
  6  7  1  0  0  0  0
  6 20  1  0  0  0  0
  7  8  1  0  0  0  0
  7 30  1  0  0  0  0
  7 31  1  0  0  0  0
  8  9  2  0  0  0  0
  8 10  1  0  0  0  0
 10 11  1  0  0  0  0
 10 32  1  0  0  0  0
 11 12  1  0  0  0  0
 11 13  1  0  0  0  0
 11 33  1  0  0  0  0
 12 34  1  0  0  0  0
 12 35  1  0  0  0  0
 12 36  1  0  0  0  0
 13 18  1  0  0  0  0
 13 14  1  0  0  0  0
 13 37  1  0  0  0  0
 14 15  1  0  0  0  0
 14 38  1  0  0  0  0
 14 39  1  0  0  0  0
 15 19  1  0  0  0  0
 15 16  1  0  0  0  0
 15 40  1  0  0  0  0
 16 17  1  0  0  0  0
 16 41  1  0  0  0  0
 16 42  1  0  0  0  0
 17 18  1  0  0  0  0
 17 43  1  0  0  0  0
 17 44  1  0  0  0  0
 18 19  1  0  0  0  0
 18 45  1  0  0  0  0
 19 46  1  0  0  0  0
 19 47  1  0  0  0  0
 20 21  2  0  0  0  0
 20 22  1  0  0  0  0
 22 23  1  0  0  0  0
M  END
> <s_m_source_file>
AV-unprocessed.smi

> <i_m_source_file_index>
2124

> <i_lp_mmshare_version>
43012

> <i_f3d_flags>
0

> <s_epik_input>
W0NIM11jMW5jKFtDSDNdKWMoYyg9TylbbkhdMSlbQ0gyXUMoPU8pW05IXVtDQEhdKFtDSDNdKVtDQEhdKFtDSDJdW0NASF0yMylbQ0BIXShbQ0gyXTMpW0NIMl1bQ0gyXTI=

> <s_epik_cmdline>
J2VwaWtfcHl0aG9uJywgJy1waCcsICc3LjAnLCAnLXRuJywgJzgnLCAnLW1hJywgJzIwMCcsICctbWV0YWxfYmluZGluZycsICctaW1hZScsICc8aW5maWxlLm1hZT4nLCAnLW9tYWUnLCAnPG91dGZpbGUubWFlPic=

> <r_lp_tautomer_probability>
0.839158

> <r_epik_Ionization_Penalty>
0.000383628

> <r_epik_Ionization_Penalty_Charging>
0.00035045

> <r_epik_Ionization_Penalty_Neutral>
3.31781e-05

> <r_epik_State_Penalty>
0.09125

> <r_epik_Charging_Adjusted_Penalty>
0.0916005

> <i_epik_Tot_Q>
0

> <i_epik_Tot_abs_Q>
0

> <r_epik_Metal_State_Penalty>
0.255229

> <b_epik_Metal_Only>
0

> <s_lp_Force_Field>
OPLS_2005

> <r_lp_Energy>
50.9321

> <b_lp_Chiralities_Consistent>
1

> <s_lp_Variant>
AV-unprocessed.smi:2124-7

> <Gold.Version>
5.8.1

> <Gold.Id.Protein>
6NUR|6NUR_protein|mol2

> <Gold.PLP.Fitness>
46.6221

> <Gold.PLP.PLP>
-40.0061

> <Gold.PLP.part.hbond>
-2.7688

> <Gold.PLP.part.metal>
0.0000

> <Gold.PLP.part.buried>
-4.1862

> <Gold.PLP.part.nonpolar>
-33.4788

> <Gold.PLP.part.repulsive>
0.6278

> <Gold.PLP.ligand.clash>
0.0000

> <Gold.PLP.ligand.torsion>
0.5709

> <Gold.PLP.Chemscore.Hbond>
2.5760

> <Gold.PLP.Chemscore.CHOScore>
0.0000

> <Gold.PLP.Chemscore.Metal>
0.0000

> <Gold.Chemscore.Hbonds>
donor molecule, donor type, donor heavy atom, donor atom, acceptor molecule, acceptor atom, score
      L1  H    10    32       P1  8028  1.00
      L1  H    22    23       P1  7957  1.00
      P1  H  8011  8017       L1    21  0.40

> <Gold.PLP.Chemscore.Internal.Correction>
0.0297

> <Gold.Rescore>
     Score         DG    S(hbond)    S(metal)    S(lipo)     H(rot)  DE(clash)    DE(int)     intcor
     21.03     -22.93       2.68        0.00     108.89       1.65       0.34       1.57       ----

> <Gold.Chemscore.Fitness>
21.0303

> <Gold.Chemscore.DG>
-22.9341

> <Gold.Chemscore.ZeroCoef>
-5.4800

> <Gold.Chemscore.Hbond>
2.6786

> <Gold.Chemscore.Metal>
0.0000

> <Gold.Chemscore.Lipo>
108.8898

> <Gold.Chemscore.Internal_Hbond>
0.0000

> <Gold.Chemscore.DEClash>
0.3350

> <Gold.Chemscore.DEInternal>
1.5688

> <Gold.Chemscore.Rot>
1.6534

> <Gold.Chemscore.Internal.Correction>
   9.000000E+99

> <Gold.Chemscore.Hbonds>
donor molecule, donor type, donor heavy atom, donor atom, acceptor molecule, acceptor atom, score
      L1  H    10    32       P1  8028  1.00
      L1  H    22    23       P1  7957  0.95
      P1  H  8011  8017       L1    21  0.38

> <Gold.Chemscore.Hbond.Weighted>
-8.9466

> <Gold.Chemscore.Metal.Weighted>
-0.0000

> <Gold.Chemscore.Lipo.Weighted>
-12.7401

> <Gold.Chemscore.Internal_Hbond.Weighted>
0.0000

> <Gold.Chemscore.DEClash.Weighted>
0.3350

> <Gold.Chemscore.DEInternal.Weighted>
1.5688

> <Gold.Chemscore.Rot.Weighted>
4.2326

> <Gold.Chemscore.Internal.Correction.Weighted>
   9.000000E+99

> <Gold.Protein.RotatedTorsions>
[ 6907 6896 6895 6894 ] final -161.73 input  -60.11 | X-H torsion
[ 7974 7965 7964 7962 ] final  179.82 input  175.53 | X-H torsion
[ 8008 7997 7996 7995 ] final   63.45 input   59.86 | X-H torsion
[ 10167 10162 10161 10158 ] final   90.80 input  -65.29 | X-H torsion
[ 10718 10713 10712 10709 ] final   14.78 input   66.30 | X-H torsion
[ 10763 10752 10751 10750 ] final   75.15 input  -60.55 | X-H torsion
[ 11005 11000 10999 10996 ] final   43.54 input  -57.11 | X-H torsion

> <Gold.Protein.ActiveResidues>
 VAL166  LYS551  ARG553  GLY616  TRP617  ASP618  TYR619  PRO620  LYS621  CYS622 
 ASP623  PHE694  ASN695  SER759  ASP760  ASP761  ALA762  ILE779  LEU786  VAL792 
 PHE793  MET794  SER795  GLU796  ALA797  LYS798  CYS799  TRP800  GLU811  SER814 

> <Gold.Protein.RotatedAtoms>
  151.3691  133.3861  159.2697 H   0  0  0  0  0  0  0  0  0  0  0  0  # atno 6907 bound_to 6896
  150.9665  134.9046  159.7772 H   0  0  0  0  0  0  0  0  0  0  0  0  # atno 6908 bound_to 6896
  152.5169  134.3652  159.9351 H   0  0  0  0  0  0  0  0  0  0  0  0  # atno 6909 bound_to 6896
  144.7142  140.0606  143.6432 H   0  0  0  0  0  0  0  0  0  0  0  0  # atno 7974 bound_to 7965
  155.6304  140.3496  155.4681 H   0  0  0  0  0  0  0  0  0  0  0  0  # atno 8008 bound_to 7997
  156.0007  140.1213  157.0573 H   0  0  0  0  0  0  0  0  0  0  0  0  # atno 8009 bound_to 7997
  154.4248  140.1101  156.5679 H   0  0  0  0  0  0  0  0  0  0  0  0  # atno 8010 bound_to 7997
  139.8437  144.6628  150.9252 H   0  0  0  0  0  0  0  0  0  0  0  0  # atno 10167 bound_to 10162
  157.0441  130.6243  149.5756 H   0  0  0  0  0  0  0  0  0  0  0  0  # atno 10718 bound_to 10713
  153.0635  135.4999  154.8148 H   0  0  0  0  0  0  0  0  0  0  0  0  # atno 10763 bound_to 10752
  154.6919  135.2986  154.9470 H   0  0  0  0  0  0  0  0  0  0  0  0  # atno 10764 bound_to 10752
  154.0222  135.6740  153.4826 H   0  0  0  0  0  0  0  0  0  0  0  0  # atno 10765 bound_to 10752
  140.1635  134.4311  155.8302 H   0  0  0  0  0  0  0  0  0  0  0  0  # atno 11005 bound_to 11000
  145.9867  139.2983  143.1009 LP  0  0  0  0  0  0  0  0  0  0  0  0  # atno 17320 bound_to 7965
  145.8949  140.9280  143.0533 LP  0  0  0  0  0  0  0  0  0  0  0  0  # atno 17321 bound_to 7965
  140.7795  143.3889  151.1345 LP  0  0  0  0  0  0  0  0  0  0  0  0  # atno 17342 bound_to 10162
  139.7533  143.8745  152.3082 LP  0  0  0  0  0  0  0  0  0  0  0  0  # atno 17343 bound_to 10162
  156.0028  130.5110  150.7726 LP  0  0  0  0  0  0  0  0  0  0  0  0  # atno 17370 bound_to 10713
  157.5081  131.0923  151.0232 LP  0  0  0  0  0  0  0  0  0  0  0  0  # atno 17371 bound_to 10713
  141.2211  133.6924  156.7637 LP  0  0  0  0  0  0  0  0  0  0  0  0  # atno 17394 bound_to 11000
  140.2461  134.8576  157.3622 LP  0  0  0  0  0  0  0  0  0  0  0  0  # atno 17395 bound_to 11000

$$$$
