#       Name:                AV-unprocessed.smi:149
#       Creating user name   scv26
#       Creation time:       Thu Mar 26 18:44:35 2020


#       File generated by GOLD software.
#

@<TRIPOS>MOLECULE
AV-unprocessed.smi:149
    69    73     1
SMALL
NO_CHARGES


@<TRIPOS>ATOM
      1 ****        -3.9387  -1.0625  -0.9361 C.3            1 S1                 0.0000
      2 ****        -3.4510  -1.3069   0.5066 C.3            1 S1                 0.0000
      3 ****        -1.9271  -1.5133   0.5335 C.3            1 S1                 0.0000
      4 ****        -1.3504  -0.2276   0.9081 N.pl3          1 S1                 0.0000
      5 ****        -0.1191   0.1456   0.4725 C.ar           1 S1                 0.0000
      6 ****         0.1453   1.4701   0.3180 N.ar           1 S1                 0.0000
      7 ****         1.3441   1.8768  -0.1080 C.ar           1 S1                 0.0000
      8 ****         2.4090   1.1404  -0.4261 N.ar           1 S1                 0.0000
      9 ****         2.1610  -0.1908  -0.2622 C.ar           1 S1                 0.0000
     10 ****         0.9355  -0.7691   0.1801 C.ar           1 S1                 0.0000
     11 ****         1.0652  -2.1521   0.2359 N.2            1 S1                 0.0000
     12 ****         2.2877  -2.3786  -0.1584 C.2            1 S1                 0.0000
     13 ****         3.0196  -1.2578  -0.4787 N.pl3          1 S1                 0.0000
     14 ****         4.3821  -1.2345  -0.9344 C.3            1 S1                 0.0000
     15 ****         5.4455  -0.3829  -0.2388 C.3            1 S1                 0.0000
     16 ****         6.1545  -0.1743  -1.5964 C.3            1 S1                 0.0000
     17 ****         6.6613   1.2542  -1.8547 C.3            1 S1                 0.0000
     18 ****         7.6798   1.6116  -0.9424 O.3            1 S1                 0.0000
     19 ****         7.2840  -1.1778  -1.9051 C.3            1 S1                 0.0000
     20 ****         7.6112  -1.1835  -3.2801 O.3            1 S1                 0.0000
     21 ****         4.7822  -0.5150  -2.2234 C.3            1 S1                 0.0000
     22 ****        -2.4057   0.7465   1.1423 C.3            1 S1                 0.0000
     23 ****        -3.6401  -0.1056   1.4556 C.3            1 S1                 0.0000
     24 ****        -4.9458   0.6010   1.3296 N.4            1 S1                 1.0000
     25 ****        -6.0974  -0.2489   1.7282 C.3            1 S1                 0.0000
     26 ****        -7.4232   0.5034   1.5277 C.3            1 S1                 0.0000
     27 ****        -7.4021   1.7107   2.2772 O.3            1 S1                 0.0000
     28 ****        -6.3607   2.5782   1.8504 C.3            1 S1                 0.0000
     29 ****        -4.9981   1.8953   2.0567 C.3            1 S1                 0.0000
     30 ****        -3.4611  -0.1895  -1.3815 H              1 S1                 0.0000
     31 ****        -5.0165  -0.9102  -0.9804 H              1 S1                 0.0000
     32 ****        -3.7103  -1.9191  -1.5707 H              1 S1                 0.0000
     33 ****        -3.9541  -2.1923   0.8967 H              1 S1                 0.0000
     34 ****        -1.6552  -2.2484   1.2917 H              1 S1                 0.0000
     35 ****        -1.5546  -1.8683  -0.4283 H              1 S1                 0.0000
     36 ****         1.4683   2.9451  -0.2085 H              1 S1                 0.0000
     37 ****         2.6902  -3.3789  -0.2242 H              1 S1                 0.0000
     38 ****         4.7110  -2.2745  -0.9756 H              1 S1                 0.0000
     39 ****         5.0465   0.5435   0.1769 H              1 S1                 0.0000
     40 ****         6.0346  -0.9186   0.5063 H              1 S1                 0.0000
     41 ****         7.0377   1.3695  -2.8713 H              1 S1                 0.0000
     42 ****         5.8514   1.9763  -1.7460 H              1 S1                 0.0000
     43 ****         7.9485   2.4990  -1.1257 H              1 S1                 0.0000
     44 ****         8.1841  -0.9550  -1.3316 H              1 S1                 0.0000
     45 ****         6.9954  -2.1922  -1.6290 H              1 S1                 0.0000
     46 ****         8.3087  -1.8056  -3.4198 H              1 S1                 0.0000
     47 ****         4.8225  -1.1605  -3.1013 H              1 S1                 0.0000
     48 ****         4.1751   0.3691  -2.4237 H              1 S1                 0.0000
     49 ****        -2.1498   1.4102   1.9690 H              1 S1                 0.0000
     50 ****        -2.5599   1.3501   0.2468 H              1 S1                 0.0000
     51 ****        -3.5441  -0.4615   2.4836 H              1 S1                 0.0000
     52 ****        -6.1168  -1.1688   1.1445 H              1 S1                 0.0000
     53 ****        -5.9918  -0.5401   2.7745 H              1 S1                 0.0000
     54 ****        -7.5965   0.7168   0.4716 H              1 S1                 0.0000
     55 ****        -8.2575  -0.1089   1.8702 H              1 S1                 0.0000
     56 ****        -6.5045   2.8525   0.8040 H              1 S1                 0.0000
     57 ****        -6.4106   3.4999   2.4302 H              1 S1                 0.0000
     58 ****        -4.8218   1.7256   3.1199 H              1 S1                 0.0000
     59 ****        -4.2156   2.5670   1.7044 H              1 S1                 0.0000
     60 ****        -5.0629   0.8177   0.3501 H              1 S1                 0.0000
     61 ****        -0.5630   2.1449   0.5248 LP             1 S1                 0.0000
     62 ****         3.2792   1.5163  -0.7445 LP             1 S1                 0.0000
     63 ****         0.3770  -2.8218   0.5151 LP             1 S1                 0.0000
     64 ****         8.4594   0.9943  -1.0483 LP             1 S1                 0.0000
     65 ****         7.3314   1.5510  -0.0070 LP             1 S1                 0.0000
     66 ****         7.9118  -0.2715  -3.5591 LP             1 S1                 0.0000
     67 ****         6.8100  -1.4490  -3.8164 LP             1 S1                 0.0000
     68 ****        -7.2643   1.4899   3.2427 LP             1 S1                 0.0000
     69 ****        -8.2792   2.1775   2.1639 LP             1 S1                 0.0000
@<TRIPOS>BOND
    1    1    2 1     
    2    1   30 1     
    3    1   31 1     
    4    1   32 1     
    5    2   23 1     
    6    2    3 1     
    7    2   33 1     
    8    3    4 1     
    9    3   34 1     
   10    3   35 1     
   11    4    5 1     
   12    4   22 1     
   13    5   10 ar    
   14    5    6 ar    
   15    6    7 ar    
   16    7    8 ar    
   17    7   36 1     
   18    8    9 ar    
   19    9   13 1     
   20    9   10 ar    
   21   10   11 1     
   22   11   12 2     
   23   12   13 1     
   24   12   37 1     
   25   13   14 1     
   26   14   21 1     
   27   14   15 1     
   28   14   38 1     
   29   15   16 1     
   30   15   39 1     
   31   15   40 1     
   32   16   17 1     
   33   16   19 1     
   34   16   21 1     
   35   17   18 1     
   36   17   41 1     
   37   17   42 1     
   38   18   43 1     
   39   19   20 1     
   40   19   44 1     
   41   19   45 1     
   42   20   46 1     
   43   21   47 1     
   44   21   48 1     
   45   22   23 1     
   46   22   49 1     
   47   22   50 1     
   48   23   24 1     
   49   23   51 1     
   50   24   29 1     
   51   24   25 1     
   52   24   60 1     
   53   25   26 1     
   54   25   52 1     
   55   25   53 1     
   56   26   27 1     
   57   26   54 1     
   58   26   55 1     
   59   27   28 1     
   60   28   29 1     
   61   28   56 1     
   62   28   57 1     
   63   29   58 1     
   64   29   59 1     
   65    6   61 1     
   66    8   62 1     
   67   11   63 1     
   68   18   64 1     
   69   18   65 1     
   70   20   66 1     
   71   20   67 1     
   72   27   68 1     
   73   27   69 1     
@<TRIPOS>SUBSTRUCTURE
      1 S1             1
@<TRIPOS>SET
LONE_PAIRS      STATIC     ATOMS    <user>   **** ""
9 61 62 63 64 65 66 67 68 69
DONOR_HYDROGENS      STATIC     ATOMS    <user>   **** ""
3 43 46 60
ATOM$BLUE        STATIC     ATOMS    COLORGROUP SYSTEM
9 61 62 63 64 65 66 67 68 69
ATOM$RED        STATIC     ATOMS    COLORGROUP SYSTEM
3 43 46 60
