#       Name:                AV-unprocessed.smi:261
#       Creating user name   scv26
#       Creation time:       Thu Mar 26 21:15:57 2020


#       File generated by GOLD software.
#

@<TRIPOS>MOLECULE
AV-unprocessed.smi:261
    63    66     1
SMALL
NO_CHARGES


@<TRIPOS>ATOM
      1 ****        -5.2025   2.5986  -0.7778 C.3            1 S1                 0.0000
      2 ****        -5.5726   1.3111  -0.3131 O.3            1 S1                 0.0000
      3 ****        -4.4629   0.4961   0.0331 C.3            1 S1                 0.0000
      4 ****        -4.9262  -0.7967   0.6927 C.3            1 S1                 0.0000
      5 ****        -3.7294  -1.7365   0.4913 C.3            1 S1                 0.0000
      6 ****        -4.1486  -3.2133   0.5019 C.2            1 S1                 0.0000
      7 ****        -4.0334  -3.8623   1.6626 N.am           1 S1                 0.0000
      8 ****        -4.5832  -3.7586  -0.5114 O.2            1 S1                 0.0000
      9 ****        -3.1655  -1.3336  -0.8002 N.3            1 S1                 0.0000
     10 ****        -1.8290  -1.4963  -0.9162 C.ar           1 S1                 0.0000
     11 ****        -1.3916  -2.4780  -1.7415 N.ar           1 S1                 0.0000
     12 ****        -0.0803  -2.6933  -1.8857 C.ar           1 S1                 0.0000
     13 ****         0.9399  -2.0567  -1.3053 N.ar           1 S1                 0.0000
     14 ****         0.4999  -1.0701  -0.4724 C.ar           1 S1                 0.0000
     15 ****        -0.8568  -0.7222  -0.2228 C.ar           1 S1                 0.0000
     16 ****        -0.9197   0.3311   0.6819 N.2            1 S1                 0.0000
     17 ****         0.3302   0.5905   0.9533 C.2            1 S1                 0.0000
     18 ****         1.2484  -0.2031   0.3037 N.pl3          1 S1                 0.0000
     19 ****         2.6942  -0.1338   0.4284 C.3            1 S1                 0.0000
     20 ****         3.2957   1.0744  -0.3208 C.3            1 S1                 0.0000
     21 ****         2.9372   0.9669  -1.6850 O.3            1 S1                 0.0000
     22 ****         4.8348   1.1310  -0.2403 C.3            1 S1                 0.0000
     23 ****         5.4094   1.0282   1.1747 C.3            1 S1                 0.0000
     24 ****         6.7629   1.7106   1.0645 C.3            1 S1                 0.0000
     25 ****         6.6562   2.5300  -0.2236 C.3            1 S1                 0.0000
     26 ****         5.2967   2.4189  -0.6214 O.3            1 S1                 0.0000
     27 ****        -3.6812  -0.0211  -1.1784 C.3            1 S1                 0.0000
     28 ****        -3.7942   1.0205   0.7187 H              1 S1                 0.0000
     29 ****        -3.0045  -1.5609   1.2893 H              1 S1                 0.0000
     30 ****        -6.0994   3.1775  -0.9969 H              1 S1                 0.0000
     31 ****        -4.6115   2.5404  -1.6923 H              1 S1                 0.0000
     32 ****        -4.6293   3.1401  -0.0242 H              1 S1                 0.0000
     33 ****        -5.1810  -0.6586   1.7441 H              1 S1                 0.0000
     34 ****        -5.8120  -1.1765   0.1796 H              1 S1                 0.0000
     35 ****        -4.2947  -4.8355   1.7253 H              1 S1                 0.0000
     36 ****        -3.6838  -3.3751   2.4749 H              1 S1                 0.0000
     37 ****         0.1901  -3.4910  -2.5617 H              1 S1                 0.0000
     38 ****         0.6197   1.3732   1.6397 H              1 S1                 0.0000
     39 ****         2.9299  -0.0840   1.4915 H              1 S1                 0.0000
     40 ****         3.1266  -1.0647   0.0589 H              1 S1                 0.0000
     41 ****         2.8731   1.9955   0.0830 H              1 S1                 0.0000
     42 ****         1.9951   0.9252  -1.7453 H              1 S1                 0.0000
     43 ****         5.2904   0.3698  -0.8774 H              1 S1                 0.0000
     44 ****         4.7815   1.5800   1.8759 H              1 S1                 0.0000
     45 ****         5.4846  -0.0012   1.5270 H              1 S1                 0.0000
     46 ****         6.9579   2.3391   1.9342 H              1 S1                 0.0000
     47 ****         7.5698   0.9810   0.9871 H              1 S1                 0.0000
     48 ****         6.9370   3.5736  -0.0807 H              1 S1                 0.0000
     49 ****         7.2947   2.1084  -1.0013 H              1 S1                 0.0000
     50 ****        -4.3511  -0.1672  -2.0265 H              1 S1                 0.0000
     51 ****        -2.9098   0.6838  -1.4931 H              1 S1                 0.0000
     52 ****        -6.0912   0.8510  -1.0337 LP             1 S1                 0.0000
     53 ****        -6.1504   1.4200   0.4957 LP             1 S1                 0.0000
     54 ****        -4.6685  -3.2389  -1.3615 LP             1 S1                 0.0000
     55 ****        -4.8512  -4.7217  -0.4851 LP             1 S1                 0.0000
     56 ****        -3.4884  -1.9815  -1.4900 LP             1 S1                 0.0000
     57 ****        -2.0492  -3.0409  -2.2422 LP             1 S1                 0.0000
     58 ****         1.9032  -2.2752  -1.4612 LP             1 S1                 0.0000
     59 ****        -1.7346   0.7853   1.0418 LP             1 S1                 0.0000
     60 ****         3.3372   0.1372  -2.0744 LP             1 S1                 0.0000
     61 ****         3.2722   1.7651  -2.1856 LP             1 S1                 0.0000
     62 ****         4.7512   3.1236  -0.1678 LP             1 S1                 0.0000
     63 ****         5.2228   2.5269  -1.6128 LP             1 S1                 0.0000
@<TRIPOS>BOND
    1    1    2 1     
    2    1   30 1     
    3    1   31 1     
    4    1   32 1     
    5    2    3 1     
    6    3   28 1     
    7    3   27 1     
    8    3    4 1     
    9    4    5 1     
   10    4   33 1     
   11    4   34 1     
   12    5   29 1     
   13    5    6 1     
   14    5    9 1     
   15    6    7 am    
   16    6    8 2     
   17    7   35 1     
   18    7   36 1     
   19    9   10 1     
   20    9   27 1     
   21   10   15 ar    
   22   10   11 ar    
   23   11   12 ar    
   24   12   13 ar    
   25   12   37 1     
   26   13   14 ar    
   27   14   18 1     
   28   14   15 ar    
   29   15   16 1     
   30   16   17 2     
   31   17   18 1     
   32   17   38 1     
   33   18   19 1     
   34   19   20 1     
   35   19   39 1     
   36   19   40 1     
   37   20   21 1     
   38   20   22 1     
   39   20   41 1     
   40   21   42 1     
   41   22   26 1     
   42   22   23 1     
   43   22   43 1     
   44   23   24 1     
   45   23   44 1     
   46   23   45 1     
   47   24   25 1     
   48   24   46 1     
   49   24   47 1     
   50   25   26 1     
   51   25   48 1     
   52   25   49 1     
   53   27   50 1     
   54   27   51 1     
   55    2   52 1     
   56    2   53 1     
   57    8   54 1     
   58    8   55 1     
   59    9   56 1     
   60   11   57 1     
   61   13   58 1     
   62   16   59 1     
   63   21   60 1     
   64   21   61 1     
   65   26   62 1     
   66   26   63 1     
@<TRIPOS>SUBSTRUCTURE
      1 S1             1
@<TRIPOS>SET
LONE_PAIRS      STATIC     ATOMS    <user>   **** ""
12 52 53 54 55 56 57 58 59 60 61 62 63
DONOR_HYDROGENS      STATIC     ATOMS    <user>   **** ""
3 35 36 42
ATOM$BLUE        STATIC     ATOMS    COLORGROUP SYSTEM
12 52 53 54 55 56 57 58 59 60 61 62 63
ATOM$RED        STATIC     ATOMS    COLORGROUP SYSTEM
3 35 36 42
