#       Name:                AV-unprocessed.smi:438
#       Creating user name   scv26
#       Creation time:       Thu Mar 26 22:56:17 2020


#       File generated by GOLD software.
#

@<TRIPOS>MOLECULE
AV-unprocessed.smi:438
    56    57     1
SMALL
NO_CHARGES


@<TRIPOS>ATOM
      1 ****        -1.0573   2.4604  -1.7160 C.3            1 S1                 0.0000
      2 ****        -1.5918   1.7466  -0.4881 C.ar           1 S1                 0.0000
      3 ****        -0.9430   2.0023   0.6689 N.ar           1 S1                 0.0000
      4 ****        -1.3924   1.3751   1.7549 C.ar           1 S1                 0.0000
      5 ****        -0.4624   1.6614   3.2465 S.3            1 S1                 0.0000
      6 ****        -0.1642  -0.0445   3.8203 C.3            1 S1                 0.0000
      7 ****         0.4122  -0.9822   2.7550 C.2            1 S1                 0.0000
      8 ****        -0.0358  -2.1226   2.6402 O.2            1 S1                 0.0000
      9 ****         1.3829  -0.4889   1.9696 N.am           1 S1                 0.0000
     10 ****         1.9591  -1.1674   0.8116 C.3            1 S1                 0.0000
     11 ****         1.0559  -0.9341  -0.4186 C.3            1 S1                 0.0000
     12 ****         1.6415  -1.5737  -1.6846 C.3            1 S1                 0.0000
     13 ****         3.0634  -1.0606  -1.9488 C.3            1 S1                 0.0000
     14 ****         3.9720  -1.3026  -0.7339 C.3            1 S1                 0.0000
     15 ****         3.4006  -0.6653   0.5494 C.3            1 S1                 0.0000
     16 ****         4.3388  -0.9186   1.7431 C.3            1 S1                 0.0000
     17 ****        -2.4259   0.5356   1.8366 N.ar           1 S1                 0.0000
     18 ****        -3.0831   0.2680   0.6881 C.ar           1 S1                 0.0000
     19 ****        -4.1417  -0.5912   0.7439 O.3            1 S1                 0.0000
     20 ****        -2.6941   0.8557  -0.5418 C.ar           1 S1                 0.0000
     21 ****        -3.4289   0.5454  -1.8395 C.3            1 S1                 0.0000
     22 ****        -4.6530   1.4482  -2.0406 C.3            1 S1                 0.0000
     23 ****        -5.2835   1.1321  -3.2623 O.3            1 S1                 0.0000
     24 ****        -1.8623   2.9707  -2.2451 H              1 S1                 0.0000
     25 ****        -0.5921   1.7456  -2.3950 H              1 S1                 0.0000
     26 ****        -0.3081   3.2067  -1.4481 H              1 S1                 0.0000
     27 ****         0.5184  -0.0135   4.6694 H              1 S1                 0.0000
     28 ****        -1.1051  -0.4548   4.1885 H              1 S1                 0.0000
     29 ****         1.6948   0.4560   2.1433 H              1 S1                 0.0000
     30 ****         2.0057  -2.2396   1.0125 H              1 S1                 0.0000
     31 ****         0.0572  -1.3335  -0.2373 H              1 S1                 0.0000
     32 ****         0.9328   0.1366  -0.5853 H              1 S1                 0.0000
     33 ****         1.6556  -2.6589  -1.5743 H              1 S1                 0.0000
     34 ****         1.0015  -1.3565  -2.5402 H              1 S1                 0.0000
     35 ****         3.4789  -1.5533  -2.8282 H              1 S1                 0.0000
     36 ****         3.0320   0.0057  -2.1766 H              1 S1                 0.0000
     37 ****         4.0994  -2.3758  -0.5860 H              1 S1                 0.0000
     38 ****         4.9649  -0.9009  -0.9392 H              1 S1                 0.0000
     39 ****         3.3592   0.4137   0.3901 H              1 S1                 0.0000
     40 ****         4.4013  -1.9816   1.9777 H              1 S1                 0.0000
     41 ****         3.9998  -0.3989   2.6395 H              1 S1                 0.0000
     42 ****         5.3481  -0.5665   1.5289 H              1 S1                 0.0000
     43 ****        -4.2948  -0.9225   1.6154 H              1 S1                 0.0000
     44 ****        -2.7486   0.6435  -2.6853 H              1 S1                 0.0000
     45 ****        -3.7358  -0.5012  -1.8368 H              1 S1                 0.0000
     46 ****        -5.3675   1.3168  -1.2274 H              1 S1                 0.0000
     47 ****        -4.3617   2.4989  -2.0533 H              1 S1                 0.0000
     48 ****        -6.0425   1.6864  -3.3607 H              1 S1                 0.0000
     49 ****        -0.1655   2.6299   0.7081 LP             1 S1                 0.0000
     50 ****        -0.7726  -2.4332   3.2407 LP             1 S1                 0.0000
     51 ****         0.3370  -2.7388   1.9463 LP             1 S1                 0.0000
     52 ****        -2.7004   0.1246   2.7059 LP             1 S1                 0.0000
     53 ****        -3.9601  -1.3634   0.1350 LP             1 S1                 0.0000
     54 ****        -4.9620  -0.1094   0.4356 LP             1 S1                 0.0000
     55 ****        -5.5650   0.1725  -3.2582 LP             1 S1                 0.0000
     56 ****        -4.6499   1.2903  -4.0196 LP             1 S1                 0.0000
@<TRIPOS>BOND
    1    1    2 1     
    2    1   24 1     
    3    1   25 1     
    4    1   26 1     
    5    2   20 ar    
    6    2    3 ar    
    7    3    4 ar    
    8    4    5 1     
    9    4   17 ar    
   10    5    6 1     
   11    6    7 1     
   12    6   27 1     
   13    6   28 1     
   14    7    8 2     
   15    7    9 am    
   16    9   10 1     
   17    9   29 1     
   18   10   15 1     
   19   10   11 1     
   20   10   30 1     
   21   11   12 1     
   22   11   31 1     
   23   11   32 1     
   24   12   13 1     
   25   12   33 1     
   26   12   34 1     
   27   13   14 1     
   28   13   35 1     
   29   13   36 1     
   30   14   15 1     
   31   14   37 1     
   32   14   38 1     
   33   15   16 1     
   34   15   39 1     
   35   16   40 1     
   36   16   41 1     
   37   16   42 1     
   38   17   18 ar    
   39   18   19 1     
   40   18   20 ar    
   41   19   43 1     
   42   20   21 1     
   43   21   22 1     
   44   21   44 1     
   45   21   45 1     
   46   22   23 1     
   47   22   46 1     
   48   22   47 1     
   49   23   48 1     
   50    3   49 1     
   51    8   50 1     
   52    8   51 1     
   53   17   52 1     
   54   19   53 1     
   55   19   54 1     
   56   23   55 1     
   57   23   56 1     
@<TRIPOS>SUBSTRUCTURE
      1 S1             1
@<TRIPOS>SET
LONE_PAIRS      STATIC     ATOMS    <user>   **** ""
8 49 50 51 52 53 54 55 56
DONOR_HYDROGENS      STATIC     ATOMS    <user>   **** ""
3 29 43 48
ATOM$BLUE        STATIC     ATOMS    COLORGROUP SYSTEM
8 49 50 51 52 53 54 55 56
ATOM$RED        STATIC     ATOMS    COLORGROUP SYSTEM
3 29 43 48
