AV-unprocessed.smi:1278|AV-procd|sdf|5349|dock4
  -GOLD-   22720 4483D 1   1.00000     0.00000
 Structure written by MMmdl.
 39 40  0  0  0  0  0  0  0  0  2 V2000
  145.3572  142.7784  154.6475 C   0  0  0  0  0  0  0  0  0  0  0  0
  146.5851  141.9720  155.1060 C   0  0  2  0  0  0  0  0  0  0  0  0
  147.7366  142.0034  154.0841 C   0  0  0  0  0  0  0  0  0  0  0  0
  147.4271  141.1176  152.8692 C   0  0  0  0  0  0  0  0  0  0  0  0
  147.0524  139.6925  153.3063 C   0  0  0  0  0  0  0  0  0  0  0  0
  145.9134  139.7056  154.2604 N   0  3  1  0  0  0  0  0  0  0  0  0
  145.4317  138.3379  154.5789 C   0  0  0  0  0  0  0  0  0  0  0  0
  146.5890  137.3448  154.8003 C   0  0  0  0  0  0  0  0  0  0  0  0
  146.7786  136.4766  153.6438 N   0  0  0  0  0  0  0  0  0  0  0  0
  145.8392  135.6695  153.1295 C   0  0  0  0  0  0  0  0  0  0  0  0
  144.6978  135.5867  153.5844 O   0  0  0  0  0  0  0  0  0  0  0  0
  146.3082  134.9850  152.0715 N   0  0  0  0  0  0  0  0  0  0  0  0
  145.6231  134.0385  151.2649 C   0  0  0  0  0  0  0  0  0  0  0  0
  144.2911  133.9508  151.1708 N   0  0  0  0  0  0  0  0  0  0  0  0
  143.8929  132.9274  150.3066 C   0  0  0  0  0  0  0  0  0  0  0  0
  144.9424  132.2430  149.7460 C   0  0  0  0  0  0  0  0  0  0  0  0
  146.4818  132.8589  150.2850 S   0  0  0  0  0  0  0  0  0  0  0  0
  146.2230  140.5167  155.4694 C   0  0  0  0  0  0  0  0  0  0  0  0
  144.9045  142.3582  153.7494 H   0  0  0  0  0  0  0  0  0  0  0  0
  145.6265  143.8122  154.4300 H   0  0  0  0  0  0  0  0  0  0  0  0
  144.5914  142.7972  155.4233 H   0  0  0  0  0  0  0  0  0  0  0  0
  146.9463  142.4551  156.0150 H   0  0  0  0  0  0  0  0  0  0  0  0
  147.9407  143.0264  153.7657 H   0  0  0  0  0  0  0  0  0  0  0  0
  148.6498  141.6449  154.5616 H   0  0  0  0  0  0  0  0  0  0  0  0
  146.6124  141.5511  152.2883 H   0  0  0  0  0  0  0  0  0  0  0  0
  148.2910  141.0862  152.2048 H   0  0  0  0  0  0  0  0  0  0  0  0
  146.7900  139.1090  152.4230 H   0  0  0  0  0  0  0  0  0  0  0  0
  147.9099  139.2010  153.7686 H   0  0  0  0  0  0  0  0  0  0  0  0
  144.8357  138.3771  155.4917 H   0  0  0  0  0  0  0  0  0  0  0  0
  144.7632  137.9871  153.7912 H   0  0  0  0  0  0  0  0  0  0  0  0
  147.5284  137.8712  154.9647 H   0  0  0  0  0  0  0  0  0  0  0  0
  146.4105  136.7421  155.6928 H   0  0  0  0  0  0  0  0  0  0  0  0
  147.6907  136.4833  153.2108 H   0  0  0  0  0  0  0  0  0  0  0  0
  147.2681  135.1584  151.8122 H   0  0  0  0  0  0  0  0  0  0  0  0
  142.8387  132.7545  150.1478 H   0  0  0  0  0  0  0  0  0  0  0  0
  144.9031  131.4169  149.0515 H   0  0  0  0  0  0  0  0  0  0  0  0
  147.0541  140.0535  156.0039 H   0  0  0  0  0  0  0  0  0  0  0  0
  145.3786  140.5200  156.1577 H   0  0  0  0  0  0  0  0  0  0  0  0
  145.1541  140.1686  153.7811 H   0  0  0  0  0  0  0  0  0  0  0  0
  1  2  1  0  0  0  0
  1 19  1  0  0  0  0
  1 20  1  0  0  0  0
  1 21  1  0  0  0  0
  2 18  1  0  0  0  0
  2  3  1  0  0  0  0
  2 22  1  0  0  0  0
  3  4  1  0  0  0  0
  3 23  1  0  0  0  0
  3 24  1  0  0  0  0
  4  5  1  0  0  0  0
  4 25  1  0  0  0  0
  4 26  1  0  0  0  0
  5  6  1  0  0  0  0
  5 27  1  0  0  0  0
  5 28  1  0  0  0  0
  6  7  1  0  0  0  0
  6 18  1  0  0  0  0
  6 39  1  0  0  0  0
  7  8  1  0  0  0  0
  7 29  1  0  0  0  0
  7 30  1  0  0  0  0
  8  9  1  0  0  0  0
  8 31  1  0  0  0  0
  8 32  1  0  0  0  0
  9 10  1  0  0  0  0
  9 33  1  0  0  0  0
 10 11  2  0  0  0  0
 10 12  1  0  0  0  0
 12 13  1  0  0  0  0
 12 34  1  0  0  0  0
 13 17  1  0  0  0  0
 13 14  2  0  0  0  0
 14 15  1  0  0  0  0
 15 16  2  0  0  0  0
 15 35  1  0  0  0  0
 16 17  1  0  0  0  0
 16 36  1  0  0  0  0
 18 37  1  0  0  0  0
 18 38  1  0  0  0  0
M  CHG  1   6   1
M  END
> <s_m_source_file>
AV-unprocessed.smi

> <i_m_source_file_index>
1278

> <i_lp_mmshare_version>
43012

> <i_f3d_flags>
0

> <s_epik_input>
W0NIM11bQ0BASF0xW0NIMl1bQ0gyXVtDSDJdTihbQ0gyXTEpW0NIMl1bQ0gyXVtOSF1DKD1PKVtOSF1jMm5bY0hdW2NIXXMy

> <s_epik_cmdline>
J2VwaWtfcHl0aG9uJywgJy1waCcsICc3LjAnLCAnLXRuJywgJzgnLCAnLW1hJywgJzIwMCcsICctbWV0YWxfYmluZGluZycsICctaW1hZScsICc8aW5maWxlLm1hZT4nLCAnLW9tYWUnLCAnPG91dGZpbGUubWFlPic=

> <r_lp_tautomer_probability>
0.999

> <r_epik_Ionization_Penalty>
0.00222194

> <r_epik_Ionization_Penalty_Charging>
0.00208169

> <r_epik_Ionization_Penalty_Neutral>
0.000140251

> <r_epik_State_Penalty>
0.00142585

> <r_epik_Charging_Adjusted_Penalty>
0.00350754

> <i_epik_Tot_Q>
1

> <i_epik_Tot_abs_Q>
1

> <r_epik_Metal_State_Penalty>
0.0570424

> <b_epik_Metal_Only>
0

> <s_lp_Force_Field>
OPLS_2005

> <r_lp_Energy>
16.5942

> <b_lp_Chiralities_Consistent>
1

> <s_lp_Variant>
AV-unprocessed.smi:1278-3

> <Gold.Version>
5.8.1

> <Gold.Id.Protein>
6NUR|6NUR_protein|mol2

> <Gold.PLP.Fitness>
40.2152

> <Gold.PLP.PLP>
-26.4276

> <Gold.PLP.part.hbond>
-3.0000

> <Gold.PLP.part.metal>
0.0000

> <Gold.PLP.part.buried>
-2.7183

> <Gold.PLP.part.nonpolar>
-21.0560

> <Gold.PLP.part.repulsive>
0.2122

> <Gold.PLP.ligand.clash>
0.0000

> <Gold.PLP.ligand.torsion>
0.6166

> <Gold.PLP.Chemscore.Hbond>
4.0000

> <Gold.PLP.Chemscore.CHOScore>
1.0000

> <Gold.PLP.Chemscore.Metal>
0.0000

> <Gold.Chemscore.Hbonds>
donor molecule, donor type, donor heavy atom, donor atom, acceptor molecule, acceptor atom, score
      L1  H     6    39       P1 10175  2.00
      L1  H     9    33       P1  7948  1.00
      L1  H    12    34       P1  7948  1.00
      L1  C    15    35       P1 10186  0.96

> <Gold.PLP.Chemscore.Internal.Correction>
0.0207

> <Gold.Rescore>
     Score         DG    S(hbond)    S(metal)    S(lipo)     H(rot)  DE(clash)    DE(int)     intcor
     15.16     -18.79       2.94        0.00      64.83       1.60       1.23       2.40       ----

> <Gold.Chemscore.Fitness>
15.1621

> <Gold.Chemscore.DG>
-18.7887

> <Gold.Chemscore.ZeroCoef>
-5.4800

> <Gold.Chemscore.Hbond>
2.9399

> <Gold.Chemscore.Metal>
0.0000

> <Gold.Chemscore.Lipo>
64.8341

> <Gold.Chemscore.Internal_Hbond>
0.0000

> <Gold.Chemscore.DEClash>
1.2289

> <Gold.Chemscore.DEInternal>
2.3976

> <Gold.Chemscore.Rot>
1.6001

> <Gold.Chemscore.Internal.Correction>
   9.000000E+99

> <Gold.Chemscore.Hbonds>
donor molecule, donor type, donor heavy atom, donor atom, acceptor molecule, acceptor atom, score
      L1  H     6    39       P1 10175  0.96
      L1  H     9    33       P1  7948  0.99
      L1  H    12    34       P1  7948  0.92

> <Gold.Chemscore.Hbond.Weighted>
-9.8193

> <Gold.Chemscore.Metal.Weighted>
-0.0000

> <Gold.Chemscore.Lipo.Weighted>
-7.5856

> <Gold.Chemscore.Internal_Hbond.Weighted>
0.0000

> <Gold.Chemscore.DEClash.Weighted>
1.2289

> <Gold.Chemscore.DEInternal.Weighted>
2.3976

> <Gold.Chemscore.Rot.Weighted>
4.0963

> <Gold.Chemscore.Internal.Correction.Weighted>
   9.000000E+99

> <Gold.Protein.RotatedTorsions>
[ 6907 6896 6895 6894 ] final  129.85 input  -60.11 | X-H torsion
[ 7974 7965 7964 7962 ] final  -97.30 input  175.53 | X-H torsion
[ 8008 7997 7996 7995 ] final  -19.51 input   59.86 | X-H torsion
[ 10167 10162 10161 10158 ] final  163.08 input  -65.29 | X-H torsion
[ 10718 10713 10712 10709 ] final  128.06 input   66.30 | X-H torsion
[ 10763 10752 10751 10750 ] final  -87.93 input  -60.55 | X-H torsion
[ 11005 11000 10999 10996 ] final   60.38 input  -57.11 | X-H torsion

> <Gold.Protein.ActiveResidues>
 VAL166  LYS551  ARG553  GLY616  TRP617  ASP618  TYR619  PRO620  LYS621  CYS622 
 ASP623  PHE694  ASN695  SER759  ASP760  ASP761  ALA762  ILE779  LEU786  VAL792 
 PHE793  MET794  SER795  GLU796  ALA797  LYS798  CYS799  TRP800  GLU811  SER814 

> <Gold.Protein.RotatedAtoms>
  152.3584  133.6265  159.5996 H   0  0  0  0  0  0  0  0  0  0  0  0  # atno 6907 bound_to 6896
  150.7584  133.9463  159.3481 H   0  0  0  0  0  0  0  0  0  0  0  0  # atno 6908 bound_to 6896
  151.7305  135.0876  160.0350 H   0  0  0  0  0  0  0  0  0  0  0  0  # atno 6909 bound_to 6896
  145.3355  140.9450  143.2637 H   0  0  0  0  0  0  0  0  0  0  0  0  # atno 7974 bound_to 7965
  154.4832  140.2087  155.9716 H   0  0  0  0  0  0  0  0  0  0  0  0  # atno 8008 bound_to 7997
  156.1196  140.3215  155.8158 H   0  0  0  0  0  0  0  0  0  0  0  0  # atno 8009 bound_to 7997
  155.4491  140.0515  157.2993 H   0  0  0  0  0  0  0  0  0  0  0  0  # atno 8010 bound_to 7997
  139.4869  144.4373  151.8996 H   0  0  0  0  0  0  0  0  0  0  0  0  # atno 10167 bound_to 10162
  157.5278  131.1098  150.9055 H   0  0  0  0  0  0  0  0  0  0  0  0  # atno 10718 bound_to 10713
  154.6390  135.5395  153.7768 H   0  0  0  0  0  0  0  0  0  0  0  0  # atno 10763 bound_to 10752
  153.0324  135.6454  154.1187 H   0  0  0  0  0  0  0  0  0  0  0  0  # atno 10764 bound_to 10752
  154.1113  135.2926  155.3210 H   0  0  0  0  0  0  0  0  0  0  0  0  # atno 10765 bound_to 10752
  140.0236  134.6116  155.9604 H   0  0  0  0  0  0  0  0  0  0  0  0  # atno 11005 bound_to 11000
  144.8831  139.4877  143.6714 LP  0  0  0  0  0  0  0  0  0  0  0  0  # atno 17320 bound_to 7965
  146.3028  139.7483  142.9078 LP  0  0  0  0  0  0  0  0  0  0  0  0  # atno 17321 bound_to 7965
  140.3823  144.2721  150.5907 LP  0  0  0  0  0  0  0  0  0  0  0  0  # atno 17342 bound_to 10162
  140.5222  143.2263  151.8371 LP  0  0  0  0  0  0  0  0  0  0  0  0  # atno 17343 bound_to 10162
  156.9646  130.5468  149.5287 LP  0  0  0  0  0  0  0  0  0  0  0  0  # atno 17370 bound_to 10713
  156.0400  130.5483  150.8747 LP  0  0  0  0  0  0  0  0  0  0  0  0  # atno 17371 bound_to 10713
  141.1789  133.6543  156.4939 LP  0  0  0  0  0  0  0  0  0  0  0  0  # atno 17394 bound_to 11000
  140.4345  134.7072  157.4959 LP  0  0  0  0  0  0  0  0  0  0  0  0  # atno 17395 bound_to 11000

$$$$
