AV-unprocessed.smi:1706|AV-procd|sdf|6886|dock4
  -GOLD-   22720 8 93D 1   1.00000     0.00000
 Structure written by MMmdl.
 35 36  0  0  0  0  0  0  0  0  1 V2000
  153.5426  142.7007  163.0976 C   0  0  0  0  0  0  0  0  0  0  0  0
  152.9201  143.1206  161.8605 N   0  0  0  0  0  0  0  0  0  0  0  0
  152.8198  142.4308  160.6718 C   0  0  0  0  0  0  0  0  0  0  0  0
  152.1630  143.2363  159.7845 C   0  0  0  0  0  0  0  0  0  0  0  0
  151.8184  142.9663  158.3433 C   0  0  0  0  0  0  0  0  0  0  0  0
  150.2998  142.9430  158.1016 C   0  0  0  0  0  0  0  0  0  0  0  0
  149.9890  142.4205  156.7750 N   0  0  0  0  0  0  0  0  0  0  0  0
  150.2511  141.1778  156.3393 C   0  0  0  0  0  0  0  0  0  0  0  0
  150.8450  140.3503  157.0317 O   0  0  0  0  0  0  0  0  0  0  0  0
  149.7684  140.9020  155.1022 N   0  0  0  0  0  0  0  0  0  0  0  0
  149.8671  139.6228  154.3830 C   0  0  0  0  0  0  0  0  0  0  0  0
  148.4560  139.0169  154.2774 C   0  0  0  0  0  0  0  0  0  0  0  0
  147.5895  139.9315  153.6105 O   0  0  0  0  0  0  0  0  0  0  0  0
  147.4960  141.1935  154.2669 C   0  0  0  0  0  0  0  0  0  0  0  0
  148.8952  141.8260  154.3732 C   0  0  0  0  0  0  0  0  0  0  0  0
  151.8948  144.4123  160.5418 C   0  0  0  0  0  0  0  0  0  0  0  0
  152.3497  144.3403  161.7821 N   0  0  0  0  0  0  0  0  0  0  0  0
  153.7391  141.6286  163.0715 H   0  0  0  0  0  0  0  0  0  0  0  0
  152.8849  142.9193  163.9395 H   0  0  0  0  0  0  0  0  0  0  0  0
  154.4855  143.2316  163.2314 H   0  0  0  0  0  0  0  0  0  0  0  0
  153.2282  141.4379  160.5527 H   0  0  0  0  0  0  0  0  0  0  0  0
  152.2680  143.7212  157.6974 H   0  0  0  0  0  0  0  0  0  0  0  0
  152.2430  142.0157  158.0194 H   0  0  0  0  0  0  0  0  0  0  0  0
  149.8074  142.3250  158.8529 H   0  0  0  0  0  0  0  0  0  0  0  0
  149.9057  143.9544  158.2157 H   0  0  0  0  0  0  0  0  0  0  0  0
  149.4914  143.0388  156.1513 H   0  0  0  0  0  0  0  0  0  0  0  0
  150.2709  139.8034  153.3857 H   0  0  0  0  0  0  0  0  0  0  0  0
  150.5383  138.8997  154.8462 H   0  0  0  0  0  0  0  0  0  0  0  0
  148.4864  138.0846  153.7135 H   0  0  0  0  0  0  0  0  0  0  0  0
  148.0593  138.7800  155.2660 H   0  0  0  0  0  0  0  0  0  0  0  0
  146.8315  141.8406  153.6944 H   0  0  0  0  0  0  0  0  0  0  0  0
  147.0495  141.0686  155.2547 H   0  0  0  0  0  0  0  0  0  0  0  0
  148.8247  142.8064  154.8465 H   0  0  0  0  0  0  0  0  0  0  0  0
  149.3054  142.0025  153.3779 H   0  0  0  0  0  0  0  0  0  0  0  0
  151.3923  145.3144  160.2251 H   0  0  0  0  0  0  0  0  0  0  0  0
  1  2  1  0  0  0  0
  1 18  1  0  0  0  0
  1 19  1  0  0  0  0
  1 20  1  0  0  0  0
  2 17  1  0  0  0  0
  2  3  1  0  0  0  0
  3  4  2  0  0  0  0
  3 21  1  0  0  0  0
  4  5  1  0  0  0  0
  4 16  1  0  0  0  0
  5  6  1  0  0  0  0
  5 22  1  0  0  0  0
  5 23  1  0  0  0  0
  6  7  1  0  0  0  0
  6 24  1  0  0  0  0
  6 25  1  0  0  0  0
  7  8  1  0  0  0  0
  7 26  1  0  0  0  0
  8  9  2  0  0  0  0
  8 10  1  0  0  0  0
 10 15  1  0  0  0  0
 10 11  1  0  0  0  0
 11 12  1  0  0  0  0
 11 27  1  0  0  0  0
 11 28  1  0  0  0  0
 12 13  1  0  0  0  0
 12 29  1  0  0  0  0
 12 30  1  0  0  0  0
 13 14  1  0  0  0  0
 14 15  1  0  0  0  0
 14 31  1  0  0  0  0
 14 32  1  0  0  0  0
 15 33  1  0  0  0  0
 15 34  1  0  0  0  0
 16 17  2  0  0  0  0
 16 35  1  0  0  0  0
M  END
> <s_m_source_file>
AV-unprocessed.smi

> <i_m_source_file_index>
1706

> <i_lp_mmshare_version>
43012

> <i_f3d_flags>
0

> <s_epik_input>
W0NIM11uMVtjSF1jKFtjSF1uMSlbQ0gyXVtDSDJdW05IXUMoPU8pTjJbQ0gyXVtDSDJdT1tDSDJdW0NIMl0y

> <s_epik_cmdline>
J2VwaWtfcHl0aG9uJywgJy1waCcsICc3LjAnLCAnLXRuJywgJzgnLCAnLW1hJywgJzIwMCcsICctbWV0YWxfYmluZGluZycsICctaW1hZScsICc8aW5maWxlLm1hZT4nLCAnLW9tYWUnLCAnPG91dGZpbGUubWFlPic=

> <r_lp_tautomer_probability>
1

> <r_epik_Ionization_Penalty>
0.000534981

> <r_epik_Ionization_Penalty_Charging>
0

> <r_epik_Ionization_Penalty_Neutral>
0.000534981

> <r_epik_State_Penalty>
-0

> <r_epik_Charging_Adjusted_Penalty>
0

> <i_epik_Tot_Q>
0

> <i_epik_Tot_abs_Q>
0

> <r_epik_Metal_State_Penalty>
-0

> <b_epik_Metal_Only>
0

> <s_lp_Force_Field>
OPLS_2005

> <r_lp_Energy>
25.9186

> <b_lp_Chiralities_Consistent>
1

> <s_lp_Variant>
AV-unprocessed.smi:1706-1

> <Gold.Version>
5.8.1

> <Gold.Id.Protein>
6NUR|6NUR_protein|mol2

> <Gold.PLP.Fitness>
40.5548

> <Gold.PLP.PLP>
-39.2956

> <Gold.PLP.part.hbond>
-1.0000

> <Gold.PLP.part.metal>
0.0000

> <Gold.PLP.part.buried>
-3.0810

> <Gold.PLP.part.nonpolar>
-35.6721

> <Gold.PLP.part.repulsive>
0.7299

> <Gold.PLP.ligand.clash>
1.6152

> <Gold.PLP.ligand.torsion>
0.0666

> <Gold.PLP.Chemscore.Hbond>
0.9920

> <Gold.PLP.Chemscore.CHOScore>
0.0000

> <Gold.PLP.Chemscore.Metal>
0.0000

> <Gold.Chemscore.Hbonds>
donor molecule, donor type, donor heavy atom, donor atom, acceptor molecule, acceptor atom, score
      L1  H     7    26       P1  8028  1.00

> <Gold.PLP.Chemscore.Internal.Correction>
0.0316

> <Gold.Rescore>
     Score         DG    S(hbond)    S(metal)    S(lipo)     H(rot)  DE(clash)    DE(int)     intcor
     14.74     -15.31       0.95        0.00      88.25       1.44       0.49       0.08       ----

> <Gold.Chemscore.Fitness>
14.7436

> <Gold.Chemscore.DG>
-15.3074

> <Gold.Chemscore.ZeroCoef>
-5.4800

> <Gold.Chemscore.Hbond>
0.9526

> <Gold.Chemscore.Metal>
0.0000

> <Gold.Chemscore.Lipo>
88.2457

> <Gold.Chemscore.Internal_Hbond>
0.0000

> <Gold.Chemscore.DEClash>
0.4854

> <Gold.Chemscore.DEInternal>
0.0785

> <Gold.Chemscore.Rot>
1.4371

> <Gold.Chemscore.Internal.Correction>
   9.000000E+99

> <Gold.Chemscore.Hbonds>
donor molecule, donor type, donor heavy atom, donor atom, acceptor molecule, acceptor atom, score
      L1  H     7    26       P1  8028  0.96

> <Gold.Chemscore.Hbond.Weighted>
-3.1817

> <Gold.Chemscore.Metal.Weighted>
-0.0000

> <Gold.Chemscore.Lipo.Weighted>
-10.3248

> <Gold.Chemscore.Internal_Hbond.Weighted>
0.0000

> <Gold.Chemscore.DEClash.Weighted>
0.4854

> <Gold.Chemscore.DEInternal.Weighted>
0.0785

> <Gold.Chemscore.Rot.Weighted>
3.6790

> <Gold.Chemscore.Internal.Correction.Weighted>
   9.000000E+99

> <Gold.Protein.RotatedTorsions>
[ 6907 6896 6895 6894 ] final  -82.69 input  -60.11 | X-H torsion
[ 7974 7965 7964 7962 ] final   74.18 input  175.53 | X-H torsion
[ 8008 7997 7996 7995 ] final  121.79 input   59.86 | X-H torsion
[ 10167 10162 10161 10158 ] final  161.60 input  -65.29 | X-H torsion
[ 10718 10713 10712 10709 ] final   80.80 input   66.30 | X-H torsion
[ 10763 10752 10751 10750 ] final -136.03 input  -60.55 | X-H torsion
[ 11005 11000 10999 10996 ] final  -97.23 input  -57.11 | X-H torsion

> <Gold.Protein.ActiveResidues>
 VAL166  LYS551  ARG553  GLY616  TRP617  ASP618  TYR619  PRO620  LYS621  CYS622 
 ASP623  PHE694  ASN695  SER759  ASP760  ASP761  ALA762  ILE779  LEU786  VAL792 
 PHE793  MET794  SER795  GLU796  ALA797  LYS798  CYS799  TRP800  GLU811  SER814 

> <Gold.Protein.RotatedAtoms>
  150.6894  134.3626  159.4956 H   0  0  0  0  0  0  0  0  0  0  0  0  # atno 6907 bound_to 6896
  152.1453  134.9028  160.0560 H   0  0  0  0  0  0  0  0  0  0  0  0  # atno 6908 bound_to 6896
  152.0146  133.3840  159.4270 H   0  0  0  0  0  0  0  0  0  0  0  0  # atno 6909 bound_to 6896
  145.7316  139.2686  143.1538 H   0  0  0  0  0  0  0  0  0  0  0  0  # atno 7974 bound_to 7965
  156.2701  140.2800  156.1364 H   0  0  0  0  0  0  0  0  0  0  0  0  # atno 8008 bound_to 7997
  155.1000  140.0389  157.2711 H   0  0  0  0  0  0  0  0  0  0  0  0  # atno 8009 bound_to 7997
  154.6823  140.2611  155.6902 H   0  0  0  0  0  0  0  0  0  0  0  0  # atno 8010 bound_to 7997
  139.4851  144.4520  151.8817 H   0  0  0  0  0  0  0  0  0  0  0  0  # atno 10167 bound_to 10162
  157.6816  130.9976  150.2133 H   0  0  0  0  0  0  0  0  0  0  0  0  # atno 10718 bound_to 10713
  154.8692  135.3685  154.4994 H   0  0  0  0  0  0  0  0  0  0  0  0  # atno 10763 bound_to 10752
  153.5636  135.7022  153.5541 H   0  0  0  0  0  0  0  0  0  0  0  0  # atno 10764 bound_to 10752
  153.3605  135.4047  155.1678 H   0  0  0  0  0  0  0  0  0  0  0  0  # atno 10765 bound_to 10752
  141.1386  133.8155  157.0678 H   0  0  0  0  0  0  0  0  0  0  0  0  # atno 11005 bound_to 11000
  146.0532  140.8047  142.9771 LP  0  0  0  0  0  0  0  0  0  0  0  0  # atno 17320 bound_to 7965
  144.6891  140.3085  143.7252 LP  0  0  0  0  0  0  0  0  0  0  0  0  # atno 17321 bound_to 7965
  140.3978  144.2533  150.5895 LP  0  0  0  0  0  0  0  0  0  0  0  0  # atno 17342 bound_to 10162
  140.5086  143.2297  151.8570 LP  0  0  0  0  0  0  0  0  0  0  0  0  # atno 17343 bound_to 10162
  156.2799  130.3732  149.7945 LP  0  0  0  0  0  0  0  0  0  0  0  0  # atno 17370 bound_to 10713
  156.5637  130.8394  151.3336 LP  0  0  0  0  0  0  0  0  0  0  0  0  # atno 17371 bound_to 10713
  140.0531  134.9795  157.1171 LP  0  0  0  0  0  0  0  0  0  0  0  0  # atno 17394 bound_to 11000
  140.3960  134.2133  155.7164 LP  0  0  0  0  0  0  0  0  0  0  0  0  # atno 17395 bound_to 11000

$$$$
