#       Name:                AV-unprocessed.smi:2714
#       Creating user name   scv26
#       Creation time:       Fri Mar 27 14:52:18 2020


#       File generated by GOLD software.
#

@<TRIPOS>MOLECULE
AV-unprocessed.smi:2714
    52    53     1
SMALL
NO_CHARGES


@<TRIPOS>ATOM
      1 ****        -2.2122  -2.6415   4.5248 C.3            1 S1                 0.0000
      2 ****        -1.6641  -1.8222   3.3514 C.3            1 S1                 0.0000
      3 ****        -2.0254  -2.4354   1.9862 C.3            1 S1                 0.0000
      4 ****        -1.5811  -1.5892   0.7729 C.3            1 S1                 0.0000
      5 ****        -2.1490  -2.1646  -0.5361 C.3            1 S1                 0.0000
      6 ****        -0.0520  -1.4770   0.6805 C.2            1 S1                 0.0000
      7 ****         0.6328  -2.4747   0.4524 O.2            1 S1                 0.0000
      8 ****         0.4669  -0.2519   0.8493 N.am           1 S1                 0.0000
      9 ****         1.8797   0.0877   0.7196 C.3            1 S1                 0.0000
     10 ****         2.3688   0.1159  -0.7250 C.ar           1 S1                 0.0000
     11 ****         3.4109  -0.7487  -1.1223 C.ar           1 S1                 0.0000
     12 ****         3.8554  -0.7208  -2.4567 C.ar           1 S1                 0.0000
     13 ****         3.2379   0.1763  -3.3474 C.ar           1 S1                 0.0000
     14 ****         2.2430   1.0119  -2.9836 N.ar           1 S1                 0.0000
     15 ****         1.8127   0.9863  -1.6988 C.ar           1 S1                 0.0000
     16 ****         0.7765   1.8665  -1.3504 N.3            1 S1                 0.0000
     17 ****         1.1419   3.2750  -1.4031 C.3            1 S1                 0.0000
     18 ****        -0.0044   4.1295  -0.8342 C.3            1 S1                 0.0000
     19 ****        -1.2105   3.8471  -1.5400 O.3            1 S1                 0.0000
     20 ****        -1.5937   2.4789  -1.4263 C.3            1 S1                 0.0000
     21 ****        -0.4891   1.5858  -2.0152 C.3            1 S1                 0.0000
     22 ****        -1.9395  -2.1866   5.4770 H              1 S1                 0.0000
     23 ****        -1.8154  -3.6569   4.5148 H              1 S1                 0.0000
     24 ****        -3.3000  -2.7059   4.4868 H              1 S1                 0.0000
     25 ****        -2.0554  -0.8061   3.4113 H              1 S1                 0.0000
     26 ****        -0.5815  -1.7428   3.4540 H              1 S1                 0.0000
     27 ****        -1.6022  -3.4386   1.9142 H              1 S1                 0.0000
     28 ****        -3.1074  -2.5665   1.9423 H              1 S1                 0.0000
     29 ****        -1.9928  -0.5849   0.8901 H              1 S1                 0.0000
     30 ****        -1.8265  -1.5837  -1.4009 H              1 S1                 0.0000
     31 ****        -3.2391  -2.1529  -0.5261 H              1 S1                 0.0000
     32 ****        -1.8321  -3.1968  -0.6918 H              1 S1                 0.0000
     33 ****        -0.1678   0.5099   1.0397 H              1 S1                 0.0000
     34 ****         2.0359   1.0744   1.1563 H              1 S1                 0.0000
     35 ****         2.4794  -0.6055   1.3118 H              1 S1                 0.0000
     36 ****         3.8636  -1.4292  -0.4160 H              1 S1                 0.0000
     37 ****         4.6494  -1.3727  -2.7895 H              1 S1                 0.0000
     38 ****         3.5512   0.2248  -4.3797 H              1 S1                 0.0000
     39 ****         2.0558   3.4422  -0.8316 H              1 S1                 0.0000
     40 ****         1.3453   3.5644  -2.4349 H              1 S1                 0.0000
     41 ****        -0.1417   3.9343   0.2306 H              1 S1                 0.0000
     42 ****         0.2290   5.1893  -0.9372 H              1 S1                 0.0000
     43 ****        -1.7809   2.2272  -0.3810 H              1 S1                 0.0000
     44 ****        -2.5293   2.3247  -1.9637 H              1 S1                 0.0000
     45 ****        -0.3932   1.7701  -3.0861 H              1 S1                 0.0000
     46 ****        -0.7484   0.5342  -1.8897 H              1 S1                 0.0000
     47 ****         0.1938  -3.3643   0.3262 LP             1 S1                 0.0000
     48 ****         1.6279  -2.3954   0.3934 LP             1 S1                 0.0000
     49 ****         1.8320   1.6365  -3.6476 LP             1 S1                 0.0000
     50 ****         0.6189   1.6736  -0.3819 LP             1 S1                 0.0000
     51 ****        -1.0763   4.0645  -2.5068 LP             1 S1                 0.0000
     52 ****        -1.9423   4.4183  -1.1683 LP             1 S1                 0.0000
@<TRIPOS>BOND
    1    1    2 1     
    2    1   22 1     
    3    1   23 1     
    4    1   24 1     
    5    2    3 1     
    6    2   25 1     
    7    2   26 1     
    8    3    4 1     
    9    3   27 1     
   10    3   28 1     
   11    4    5 1     
   12    4    6 1     
   13    4   29 1     
   14    5   30 1     
   15    5   31 1     
   16    5   32 1     
   17    6    7 2     
   18    6    8 am    
   19    8    9 1     
   20    8   33 1     
   21    9   10 1     
   22    9   34 1     
   23    9   35 1     
   24   10   15 ar    
   25   10   11 ar    
   26   11   12 ar    
   27   11   36 1     
   28   12   13 ar    
   29   12   37 1     
   30   13   14 ar    
   31   13   38 1     
   32   14   15 ar    
   33   15   16 1     
   34   16   21 1     
   35   16   17 1     
   36   17   18 1     
   37   17   39 1     
   38   17   40 1     
   39   18   19 1     
   40   18   41 1     
   41   18   42 1     
   42   19   20 1     
   43   20   21 1     
   44   20   43 1     
   45   20   44 1     
   46   21   45 1     
   47   21   46 1     
   48    7   47 1     
   49    7   48 1     
   50   14   49 1     
   51   16   50 1     
   52   19   51 1     
   53   19   52 1     
@<TRIPOS>SUBSTRUCTURE
      1 S1             1
@<TRIPOS>SET
LONE_PAIRS      STATIC     ATOMS    <user>   **** ""
6 47 48 49 50 51 52
DONOR_HYDROGENS      STATIC     ATOMS    <user>   **** ""
1 33
ATOM$BLUE        STATIC     ATOMS    COLORGROUP SYSTEM
6 47 48 49 50 51 52
ATOM$RED        STATIC     ATOMS    COLORGROUP SYSTEM
1 33
