AV-unprocessed.smi:290|AV-procd|sdf|2219|dock4
  -GOLD-   2262022 63D 1   1.00000     0.00000
 Structure written by MMmdl.
 59 62  0  0  0  0  0  0  0  0  2 V2000
  151.8558  144.1722  158.0248 C   0  0  0  0  0  0  0  0  0  0  0  0
  151.3681  142.8717  158.6820 C   0  0  2  0  0  0  0  0  0  0  0  0
  152.4667  142.3078  159.3938 O   0  0  0  0  0  0  0  0  0  0  0  0
  152.3199  140.8994  159.4169 C   0  0  0  0  0  0  0  0  0  0  0  0
  151.8286  140.6012  158.0090 C   0  0  0  0  0  0  0  0  0  0  0  0
  150.8621  141.7498  157.7310 C   0  0  1  0  0  0  0  0  0  0  0  0
  149.5789  141.3486  158.1816 O   0  0  0  0  0  0  0  0  0  0  0  0
  150.7535  142.1170  156.2273 C   0  0  0  0  0  0  0  0  0  0  0  0
  150.0359  141.1252  155.4411 N   0  0  0  0  0  0  0  0  0  0  0  0
  150.4108  139.8183  155.2192 C   0  0  0  0  0  0  0  0  0  0  0  0
  149.5907  139.1203  154.4811 N   0  0  0  0  0  0  0  0  0  0  0  0
  148.5795  140.0177  154.1653 C   0  0  0  0  0  0  0  0  0  0  0  0
  147.3826  139.9258  153.4097 C   0  0  0  0  0  0  0  0  0  0  0  0
  147.0090  138.7716  152.8118 N   0  0  0  0  0  0  0  0  0  0  0  0
  146.8318  138.8687  151.3753 C   0  0  0  0  0  0  0  0  0  0  0  0
  146.0385  137.6250  150.9762 C   0  0  0  0  0  0  0  0  0  0  0  0
  145.4396  137.0627  152.2833 C   0  0  2  0  0  0  0  0  0  0  0  0
  143.9828  136.7546  152.1252 N   0  3  1  0  0  0  0  0  0  0  0  0
  143.7825  135.5298  151.3075 C   0  0  0  0  0  0  0  0  0  0  0  0
  143.1938  136.7255  153.3903 C   0  0  0  0  0  0  0  0  0  0  0  0
  141.7265  136.2954  153.2021 C   0  0  0  0  0  0  0  0  0  0  0  0
  141.1061  136.1030  154.4562 O   0  0  0  0  0  0  0  0  0  0  0  0
  145.8114  138.1310  153.3415 C   0  0  1  0  0  0  0  0  0  0  0  0
  146.0939  137.5565  154.7476 C   0  0  0  0  0  0  0  0  0  0  0  0
  146.6029  141.0352  153.3122 N   0  0  0  0  0  0  0  0  0  0  0  0
  146.9787  142.1682  153.9142 C   0  0  0  0  0  0  0  0  0  0  0  0
  148.0679  142.4012  154.6503 N   0  0  0  0  0  0  0  0  0  0  0  0
  148.8454  141.2848  154.7539 C   0  0  0  0  0  0  0  0  0  0  0  0
  145.9659  136.1398  152.5349 H   0  0  0  0  0  0  0  0  0  0  0  0
  145.0187  138.8788  153.3972 H   0  0  0  0  0  0  0  0  0  0  0  0
  151.0553  144.6640  157.4723 H   0  0  0  0  0  0  0  0  0  0  0  0
  152.6838  143.9900  157.3396 H   0  0  0  0  0  0  0  0  0  0  0  0
  152.2080  144.8742  158.7810 H   0  0  0  0  0  0  0  0  0  0  0  0
  150.5983  143.1257  159.4133 H   0  0  0  0  0  0  0  0  0  0  0  0
  153.2585  140.3982  159.6529 H   0  0  0  0  0  0  0  0  0  0  0  0
  151.5761  140.6162  160.1633 H   0  0  0  0  0  0  0  0  0  0  0  0
  152.6769  140.6503  157.3252 H   0  0  0  0  0  0  0  0  0  0  0  0
  151.3800  139.6116  157.9106 H   0  0  0  0  0  0  0  0  0  0  0  0
  149.3512  141.8652  158.9398 H   0  0  0  0  0  0  0  0  0  0  0  0
  150.2523  143.0778  156.1030 H   0  0  0  0  0  0  0  0  0  0  0  0
  151.7456  142.2269  155.7885 H   0  0  0  0  0  0  0  0  0  0  0  0
  151.3153  139.3935  155.6300 H   0  0  0  0  0  0  0  0  0  0  0  0
  146.2745  139.7686  151.1106 H   0  0  0  0  0  0  0  0  0  0  0  0
  147.7954  138.9082  150.8663 H   0  0  0  0  0  0  0  0  0  0  0  0
  145.2787  137.8937  150.2413 H   0  0  0  0  0  0  0  0  0  0  0  0
  146.6918  136.8839  150.5143 H   0  0  0  0  0  0  0  0  0  0  0  0
  144.0313  134.6352  151.8800 H   0  0  0  0  0  0  0  0  0  0  0  0
  144.4036  135.5330  150.4122 H   0  0  0  0  0  0  0  0  0  0  0  0
  142.7539  135.4420  150.9606 H   0  0  0  0  0  0  0  0  0  0  0  0
  143.6846  136.0616  154.1032 H   0  0  0  0  0  0  0  0  0  0  0  0
  143.1659  137.7148  153.8429 H   0  0  0  0  0  0  0  0  0  0  0  0
  141.1557  137.0071  152.6074 H   0  0  0  0  0  0  0  0  0  0  0  0
  141.6897  135.3502  152.6596 H   0  0  0  0  0  0  0  0  0  0  0  0
  140.6525  136.8971  154.6961 H   0  0  0  0  0  0  0  0  0  0  0  0
  145.2445  137.0198  155.1646 H   0  0  0  0  0  0  0  0  0  0  0  0
  146.3452  138.3477  155.4545 H   0  0  0  0  0  0  0  0  0  0  0  0
  146.9344  136.8619  154.7239 H   0  0  0  0  0  0  0  0  0  0  0  0
  146.3107  143.0079  153.7904 H   0  0  0  0  0  0  0  0  0  0  0  0
  143.6009  137.5222  151.5907 H   0  0  0  0  0  0  0  0  0  0  0  0
  1  2  1  0  0  0  0
  1 31  1  0  0  0  0
  1 32  1  0  0  0  0
  1 33  1  0  0  0  0
  2  6  1  0  0  0  0
  2  3  1  0  0  0  0
  2 34  1  0  0  0  0
  3  4  1  0  0  0  0
  4  5  1  0  0  0  0
  4 35  1  0  0  0  0
  4 36  1  0  0  0  0
  5  6  1  0  0  0  0
  5 37  1  0  0  0  0
  5 38  1  0  0  0  0
  6  7  1  0  0  0  0
  6  8  1  0  0  0  0
  7 39  1  0  0  0  0
  8  9  1  0  0  0  0
  8 40  1  0  0  0  0
  8 41  1  0  0  0  0
  9 28  1  0  0  0  0
  9 10  1  0  0  0  0
 10 11  2  0  0  0  0
 10 42  1  0  0  0  0
 11 12  1  0  0  0  0
 12 28  2  0  0  0  0
 12 13  1  0  0  0  0
 13 14  1  0  0  0  0
 13 25  2  0  0  0  0
 14 23  1  0  0  0  0
 14 15  1  0  0  0  0
 15 16  1  0  0  0  0
 15 43  1  0  0  0  0
 15 44  1  0  0  0  0
 16 17  1  0  0  0  0
 16 45  1  0  0  0  0
 16 46  1  0  0  0  0
 17 29  1  0  0  0  0
 17 18  1  0  0  0  0
 17 23  1  0  0  0  0
 18 19  1  0  0  0  0
 18 20  1  0  0  0  0
 18 59  1  0  0  0  0
 19 47  1  0  0  0  0
 19 48  1  0  0  0  0
 19 49  1  0  0  0  0
 20 21  1  0  0  0  0
 20 50  1  0  0  0  0
 20 51  1  0  0  0  0
 21 22  1  0  0  0  0
 21 52  1  0  0  0  0
 21 53  1  0  0  0  0
 22 54  1  0  0  0  0
 23 30  1  0  0  0  0
 23 24  1  0  0  0  0
 24 55  1  0  0  0  0
 24 56  1  0  0  0  0
 24 57  1  0  0  0  0
 25 26  1  0  0  0  0
 26 27  2  0  0  0  0
 26 58  1  0  0  0  0
 27 28  1  0  0  0  0
M  CHG  1  18   1
M  END
> <s_m_source_file>
AV-unprocessed.smi

> <i_m_source_file_index>
290

> <i_lp_mmshare_version>
43012

> <i_f3d_flags>
0

> <s_epik_input>
W0NIMl0xW0NIMl1PW0NAQEhdKFtDSDNdKVtDQEBdMShbT0hdKVtDSDJdbihbY0hdbjIpYyhjMjMpbltjSF1uYzNONFtDSDJdW0NIMl1bQ0BIXShbQ0BIXTRbQ0gzXSlOKFtDSDNdKVtDSDJdW0NIMl1bT0hd

> <s_epik_cmdline>
J2VwaWtfcHl0aG9uJywgJy1waCcsICc3LjAnLCAnLXRuJywgJzgnLCAnLW1hJywgJzIwMCcsICctbWV0YWxfYmluZGluZycsICctaW1hZScsICc8aW5maWxlLm1hZT4nLCAnLW9tYWUnLCAnPG91dGZpbGUubWFlPic=

> <r_lp_tautomer_probability>
1

> <r_epik_Ionization_Penalty>
0.0036983

> <r_epik_Ionization_Penalty_Charging>
0.0032725

> <r_epik_Ionization_Penalty_Neutral>
0.000425798

> <r_epik_State_Penalty>
-0

> <r_epik_Charging_Adjusted_Penalty>
0.0032725

> <i_epik_Tot_Q>
1

> <i_epik_Tot_abs_Q>
1

> <r_epik_Metal_State_Penalty>
-0

> <b_epik_Metal_Only>
0

> <s_lp_Force_Field>
OPLS_2005

> <r_lp_Energy>
64.8136

> <b_lp_Chiralities_Consistent>
1

> <s_lp_Variant>
AV-unprocessed.smi:290-5

> <Gold.Version>
5.8.1

> <Gold.Id.Protein>
6NUR|6NUR_protein|mol2

> <Gold.PLP.Fitness>
46.4576

> <Gold.PLP.PLP>
-44.3978

> <Gold.PLP.part.hbond>
-2.0000

> <Gold.PLP.part.metal>
0.0000

> <Gold.PLP.part.buried>
-2.2080

> <Gold.PLP.part.nonpolar>
-45.2348

> <Gold.PLP.part.repulsive>
4.1418

> <Gold.PLP.ligand.clash>
0.0000

> <Gold.PLP.ligand.torsion>
0.5423

> <Gold.PLP.Chemscore.Hbond>
0.9802

> <Gold.PLP.Chemscore.CHOScore>
0.0000

> <Gold.PLP.Chemscore.Metal>
0.0000

> <Gold.Chemscore.Hbonds>
donor molecule, donor type, donor heavy atom, donor atom, acceptor molecule, acceptor atom, score
      L1  H    18    59       P1 10171  0.76
      P1  H 11000 11005       L1    22  0.26

> <Gold.PLP.Chemscore.Internal.Correction>
0.2039

> <Gold.Rescore>
     Score         DG    S(hbond)    S(metal)    S(lipo)     H(rot)  DE(clash)    DE(int)     intcor
      6.76     -10.42       0.79        0.00      99.83       3.67       3.27       0.40       ----

> <Gold.Chemscore.Fitness>
6.7589

> <Gold.Chemscore.DG>
-10.4217

> <Gold.Chemscore.ZeroCoef>
-5.4800

> <Gold.Chemscore.Hbond>
0.7923

> <Gold.Chemscore.Metal>
0.0000

> <Gold.Chemscore.Lipo>
99.8279

> <Gold.Chemscore.Internal_Hbond>
0.0000

> <Gold.Chemscore.DEClash>
3.2652

> <Gold.Chemscore.DEInternal>
0.3977

> <Gold.Chemscore.Rot>
3.6658

> <Gold.Chemscore.Internal.Correction>
   9.000000E+99

> <Gold.Chemscore.Hbonds>
donor molecule, donor type, donor heavy atom, donor atom, acceptor molecule, acceptor atom, score
      L1  H    18    59       P1 10171  0.72
      P1  H 11000 11005       L1    22  0.11

> <Gold.Chemscore.Hbond.Weighted>
-2.6463

> <Gold.Chemscore.Metal.Weighted>
-0.0000

> <Gold.Chemscore.Lipo.Weighted>
-11.6799

> <Gold.Chemscore.Internal_Hbond.Weighted>
0.0000

> <Gold.Chemscore.DEClash.Weighted>
3.2652

> <Gold.Chemscore.DEInternal.Weighted>
0.3977

> <Gold.Chemscore.Rot.Weighted>
9.3844

> <Gold.Chemscore.Internal.Correction.Weighted>
   9.000000E+99

> <Gold.Protein.RotatedTorsions>
[ 6907 6896 6895 6894 ] final -171.71 input  -60.11 | X-H torsion
[ 7974 7965 7964 7962 ] final  -25.36 input  175.53 | X-H torsion
[ 8008 7997 7996 7995 ] final  -28.07 input   59.86 | X-H torsion
[ 10167 10162 10161 10158 ] final   96.88 input  -65.29 | X-H torsion
[ 10718 10713 10712 10709 ] final  164.26 input   66.30 | X-H torsion
[ 10763 10752 10751 10750 ] final  -34.84 input  -60.55 | X-H torsion
[ 11005 11000 10999 10996 ] final   45.85 input  -57.11 | X-H torsion

> <Gold.Protein.ActiveResidues>
 VAL166  LYS551  ARG553  GLY616  TRP617  ASP618  TYR619  PRO620  LYS621  CYS622 
 ASP623  PHE694  ASN695  SER759  ASP760  ASP761  ALA762  ILE779  LEU786  VAL792 
 PHE793  MET794  SER795  GLU796  ALA797  LYS798  CYS799  TRP800  GLU811  SER814 

> <Gold.Protein.RotatedAtoms>
  151.5283  133.3454  159.2913 H   0  0  0  0  0  0  0  0  0  0  0  0  # atno 6907 bound_to 6896
  150.8609  134.7964  159.7093 H   0  0  0  0  0  0  0  0  0  0  0  0  # atno 6908 bound_to 6896
  152.4629  134.5151  159.9817 H   0  0  0  0  0  0  0  0  0  0  0  0  # atno 6909 bound_to 6896
  146.1496  140.4875  142.8617 H   0  0  0  0  0  0  0  0  0  0  0  0  # atno 7974 bound_to 7965
  154.4348  140.1855  156.1032 H   0  0  0  0  0  0  0  0  0  0  0  0  # atno 8008 bound_to 7997
  156.0276  140.3334  155.7079 H   0  0  0  0  0  0  0  0  0  0  0  0  # atno 8009 bound_to 7997
  155.5886  140.0628  157.2755 H   0  0  0  0  0  0  0  0  0  0  0  0  # atno 8010 bound_to 7997
  139.7853  144.6873  150.9966 H   0  0  0  0  0  0  0  0  0  0  0  0  # atno 10167 bound_to 10162
  157.0969  131.0432  151.2514 H   0  0  0  0  0  0  0  0  0  0  0  0  # atno 10718 bound_to 10713
  153.8534  135.6847  153.4790 H   0  0  0  0  0  0  0  0  0  0  0  0  # atno 10763 bound_to 10752
  153.1384  135.4668  154.9456 H   0  0  0  0  0  0  0  0  0  0  0  0  # atno 10764 bound_to 10752
  154.7792  135.3263  154.7975 H   0  0  0  0  0  0  0  0  0  0  0  0  # atno 10765 bound_to 10752
  140.1422  134.4569  155.8441 H   0  0  0  0  0  0  0  0  0  0  0  0  # atno 11005 bound_to 11000
  144.7888  140.5990  143.6555 LP  0  0  0  0  0  0  0  0  0  0  0  0  # atno 17320 bound_to 7965
  145.4855  139.1492  143.3738 LP  0  0  0  0  0  0  0  0  0  0  0  0  # atno 17321 bound_to 7965
  140.7819  143.4439  151.0512 LP  0  0  0  0  0  0  0  0  0  0  0  0  # atno 17342 bound_to 10162
  139.8118  143.7941  152.3171 LP  0  0  0  0  0  0  0  0  0  0  0  0  # atno 17343 bound_to 10162
  157.4674  130.7689  149.7292 LP  0  0  0  0  0  0  0  0  0  0  0  0  # atno 17370 bound_to 10713
  155.9883  130.3960  150.3122 LP  0  0  0  0  0  0  0  0  0  0  0  0  # atno 17371 bound_to 10713
  141.2187  133.6838  156.7267 LP  0  0  0  0  0  0  0  0  0  0  0  0  # atno 17394 bound_to 11000
  140.2708  134.8393  157.3845 LP  0  0  0  0  0  0  0  0  0  0  0  0  # atno 17395 bound_to 11000

$$$$
