AV-unprocessed.smi:2786|AV-procd|sdf|10755|dock9
  -GOLD-   2272015183D 1   1.00000     0.00000
 Structure written by MMmdl.
 26 27  0  0  0  0  0  0  0  0  1 V2000
  152.1990  144.9887  156.9383 C   0  0  0  0  0  0  0  0  0  0  0  0
  151.9620  143.9958  157.9681 N   0  0  0  0  0  0  0  0  0  0  0  0
  152.2466  144.1430  159.3193 C   0  0  0  0  0  0  0  0  0  0  0  0
  151.8766  142.9698  159.9302 C   0  0  0  0  0  0  0  0  0  0  0  0
  151.3670  142.0954  158.9768 N   0  0  0  0  0  0  0  0  0  0  0  0
  151.4342  142.7635  157.8269 C   0  0  0  0  0  0  0  0  0  0  0  0
  151.0082  142.2055  156.4984 C   0  0  1  0  0  0  0  0  0  0  0  0
  151.5398  140.7686  156.3046 C   0  0  0  0  0  0  0  0  0  0  0  0
  151.1313  140.2271  155.0065 N   0  0  0  0  0  0  0  0  0  0  0  0
  149.6751  140.2546  154.8620 C   0  0  0  0  0  0  0  0  0  0  0  0
  149.1397  141.6863  155.0447 C   0  0  0  0  0  0  0  0  0  0  0  0
  149.5481  142.2298  156.3416 N   0  0  0  0  0  0  0  0  0  0  0  0
  152.7467  145.8360  157.3518 H   0  0  0  0  0  0  0  0  0  0  0  0
  151.2469  145.3430  156.5426 H   0  0  0  0  0  0  0  0  0  0  0  0
  152.7862  144.5520  156.1299 H   0  0  0  0  0  0  0  0  0  0  0  0
  152.6809  145.0457  159.7237 H   0  0  0  0  0  0  0  0  0  0  0  0
  151.9391  142.6887  160.9710 H   0  0  0  0  0  0  0  0  0  0  0  0
  151.4405  142.8331  155.7186 H   0  0  0  0  0  0  0  0  0  0  0  0
  152.6275  140.7640  156.3778 H   0  0  0  0  0  0  0  0  0  0  0  0
  151.1728  140.1266  157.1068 H   0  0  0  0  0  0  0  0  0  0  0  0
  151.4604  139.2707  154.9223 H   0  0  0  0  0  0  0  0  0  0  0  0
  149.3916  139.8760  153.8799 H   0  0  0  0  0  0  0  0  0  0  0  0
  149.2150  139.5915  155.5959 H   0  0  0  0  0  0  0  0  0  0  0  0
  149.5082  142.3241  154.2400 H   0  0  0  0  0  0  0  0  0  0  0  0
  148.0523  141.6867  154.9687 H   0  0  0  0  0  0  0  0  0  0  0  0
  149.2187  143.1861  156.4245 H   0  0  0  0  0  0  0  0  0  0  0  0
  1  2  1  0  0  0  0
  1 13  1  0  0  0  0
  1 14  1  0  0  0  0
  1 15  1  0  0  0  0
  2  6  1  0  0  0  0
  2  3  1  0  0  0  0
  3  4  2  0  0  0  0
  3 16  1  0  0  0  0
  4  5  1  0  0  0  0
  4 17  1  0  0  0  0
  5  6  2  0  0  0  0
  6  7  1  0  0  0  0
  7 12  1  0  0  0  0
  7  8  1  0  0  0  0
  7 18  1  0  0  0  0
  8  9  1  0  0  0  0
  8 19  1  0  0  0  0
  8 20  1  0  0  0  0
  9 10  1  0  0  0  0
  9 21  1  0  0  0  0
 10 11  1  0  0  0  0
 10 22  1  0  0  0  0
 10 23  1  0  0  0  0
 11 12  1  0  0  0  0
 11 24  1  0  0  0  0
 11 25  1  0  0  0  0
 12 26  1  0  0  0  0
M  END
> <s_m_source_file>
AV-unprocessed.smi

> <i_m_source_file_index>
2786

> <i_lp_mmshare_version>
43012

> <i_f3d_flags>
0

> <s_epik_input>
W0NIM11uMVtjSF1bY0hdbmMxW0NAQEhdMltDSDJdW05IXVtDSDJdW0NIMl1bTkhdMg==

> <s_epik_cmdline>
J2VwaWtfcHl0aG9uJywgJy1waCcsICc3LjAnLCAnLXRuJywgJzgnLCAnLW1hJywgJzIwMCcsICctbWV0YWxfYmluZGluZycsICctaW1hZScsICc8aW5maWxlLm1hZT4nLCAnLW9tYWUnLCAnPG91dGZpbGUubWFlPic=

> <r_lp_tautomer_probability>
1

> <r_epik_Ionization_Penalty>
3.5722

> <r_epik_Ionization_Penalty_Charging>
1.66148

> <r_epik_Ionization_Penalty_Neutral>
1.91072

> <r_epik_State_Penalty>
2.63328

> <r_epik_Charging_Adjusted_Penalty>
4.29476

> <i_epik_Tot_Q>
0

> <i_epik_Tot_abs_Q>
0

> <r_epik_Metal_State_Penalty>
0.942173

> <b_epik_Metal_Only>
0

> <s_lp_Force_Field>
OPLS_2005

> <r_lp_Energy>
22.0451

> <b_lp_Chiralities_Consistent>
1

> <s_lp_Variant>
AV-unprocessed.smi:2786-8

> <Gold.Version>
5.8.1

> <Gold.Id.Protein>
6NUR|6NUR_protein|mol2

> <Gold.PLP.Fitness>
33.0319

> <Gold.PLP.PLP>
-27.8384

> <Gold.PLP.part.hbond>
-2.0000

> <Gold.PLP.part.metal>
0.0000

> <Gold.PLP.part.buried>
-3.6111

> <Gold.PLP.part.nonpolar>
-21.4128

> <Gold.PLP.part.repulsive>
0.0022

> <Gold.PLP.ligand.clash>
0.0000

> <Gold.PLP.ligand.torsion>
0.3987

> <Gold.PLP.Chemscore.Hbond>
1.9920

> <Gold.PLP.Chemscore.CHOScore>
0.0000

> <Gold.PLP.Chemscore.Metal>
0.0000

> <Gold.Chemscore.Hbonds>
donor molecule, donor type, donor heavy atom, donor atom, acceptor molecule, acceptor atom, score
      L1  H    12    26       P1  8028  0.98
      P1  H  7989  7998       L1     9  1.00

> <Gold.PLP.Chemscore.Internal.Correction>
0.0150

> <Gold.Rescore>
     Score         DG    S(hbond)    S(metal)    S(lipo)     H(rot)  DE(clash)    DE(int)     intcor
     13.05     -15.07       1.33        0.00      65.91       1.00       1.64       0.38       ----

> <Gold.Chemscore.Fitness>
13.0512

> <Gold.Chemscore.DG>
-15.0699

> <Gold.Chemscore.ZeroCoef>
-5.4800

> <Gold.Chemscore.Hbond>
1.3290

> <Gold.Chemscore.Metal>
0.0000

> <Gold.Chemscore.Lipo>
65.9059

> <Gold.Chemscore.Internal_Hbond>
0.0000

> <Gold.Chemscore.DEClash>
1.6431

> <Gold.Chemscore.DEInternal>
0.3756

> <Gold.Chemscore.Rot>
1.0000

> <Gold.Chemscore.Internal.Correction>
   9.000000E+99

> <Gold.Chemscore.Hbonds>
donor molecule, donor type, donor heavy atom, donor atom, acceptor molecule, acceptor atom, score
      L1  H    12    26       P1  8028  0.93
      P1  H  7989  7998       L1     9  0.10

> <Gold.Chemscore.Hbond.Weighted>
-4.4389

> <Gold.Chemscore.Metal.Weighted>
-0.0000

> <Gold.Chemscore.Lipo.Weighted>
-7.7110

> <Gold.Chemscore.Internal_Hbond.Weighted>
0.0000

> <Gold.Chemscore.DEClash.Weighted>
1.6431

> <Gold.Chemscore.DEInternal.Weighted>
0.3756

> <Gold.Chemscore.Rot.Weighted>
2.5600

> <Gold.Chemscore.Internal.Correction.Weighted>
   9.000000E+99

> <Gold.Protein.RotatedTorsions>
[ 6907 6896 6895 6894 ] final -169.15 input  -60.11 | X-H torsion
[ 7974 7965 7964 7962 ] final  -46.24 input  175.53 | X-H torsion
[ 8008 7997 7996 7995 ] final -121.63 input   59.86 | X-H torsion
[ 10167 10162 10161 10158 ] final -113.88 input  -65.29 | X-H torsion
[ 10718 10713 10712 10709 ] final  108.67 input   66.30 | X-H torsion
[ 10763 10752 10751 10750 ] final  -70.46 input  -60.55 | X-H torsion
[ 11005 11000 10999 10996 ] final  160.92 input  -57.11 | X-H torsion

> <Gold.Protein.ActiveResidues>
 VAL166  LYS551  ARG553  GLY616  TRP617  ASP618  TYR619  PRO620  LYS621  CYS622 
 ASP623  PHE694  ASN695  SER759  ASP760  ASP761  ALA762  ILE779  LEU786  VAL792 
 PHE793  MET794  SER795  GLU796  ALA797  LYS798  CYS799  TRP800  GLU811  SER814 

> <Gold.Protein.RotatedAtoms>
  151.4871  133.3533  159.2847 H   0  0  0  0  0  0  0  0  0  0  0  0  # atno 6907 bound_to 6896
  150.8859  134.8259  159.7269 H   0  0  0  0  0  0  0  0  0  0  0  0  # atno 6908 bound_to 6896
  152.4793  134.4774  159.9706 H   0  0  0  0  0  0  0  0  0  0  0  0  # atno 6909 bound_to 6896
  145.9739  140.7354  142.9397 H   0  0  0  0  0  0  0  0  0  0  0  0  # atno 7974 bound_to 7965
  155.1510  140.0404  157.2821 H   0  0  0  0  0  0  0  0  0  0  0  0  # atno 8008 bound_to 7997
  154.6404  140.2545  155.7302 H   0  0  0  0  0  0  0  0  0  0  0  0  # atno 8009 bound_to 7997
  156.2529  140.2857  156.0795 H   0  0  0  0  0  0  0  0  0  0  0  0  # atno 8010 bound_to 7997
  140.1070  143.4561  152.1776 H   0  0  0  0  0  0  0  0  0  0  0  0  # atno 10167 bound_to 10162
  157.6576  131.0898  150.6339 H   0  0  0  0  0  0  0  0  0  0  0  0  # atno 10718 bound_to 10713
  154.4180  135.5993  153.5992 H   0  0  0  0  0  0  0  0  0  0  0  0  # atno 10763 bound_to 10752
  152.9792  135.5945  154.3990 H   0  0  0  0  0  0  0  0  0  0  0  0  # atno 10764 bound_to 10752
  154.3811  135.2841  155.2189 H   0  0  0  0  0  0  0  0  0  0  0  0  # atno 10765 bound_to 10752
  140.2107  134.8270  157.3117 H   0  0  0  0  0  0  0  0  0  0  0  0  # atno 11005 bound_to 11000
  144.6844  140.2795  143.7294 LP  0  0  0  0  0  0  0  0  0  0  0  0  # atno 17320 bound_to 7965
  145.7866  139.1911  143.2127 LP  0  0  0  0  0  0  0  0  0  0  0  0  # atno 17321 bound_to 7965
  139.5640  144.7423  151.4075 LP  0  0  0  0  0  0  0  0  0  0  0  0  # atno 17342 bound_to 10162
  140.6947  143.7779  150.7308 LP  0  0  0  0  0  0  0  0  0  0  0  0  # atno 17343 bound_to 10162
  156.6644  130.4521  149.5677 LP  0  0  0  0  0  0  0  0  0  0  0  0  # atno 17370 bound_to 10713
  156.2043  130.6639  151.1201 LP  0  0  0  0  0  0  0  0  0  0  0  0  # atno 17371 bound_to 10713
  140.1954  134.4320  155.7692 LP  0  0  0  0  0  0  0  0  0  0  0  0  # atno 17394 bound_to 11000
  141.2226  133.7047  156.8096 LP  0  0  0  0  0  0  0  0  0  0  0  0  # atno 17395 bound_to 11000

$$$$
