AV-unprocessed.smi:1625|AV-procd|sdf|6505|dock3
  -GOLD-   22720 7173D 1   1.00000     0.00000
 Structure written by MMmdl.
 49 51  0  0  0  0  0  0  0  0  2 V2000
  147.0383  140.0999  153.8223 O   0  0  0  0  0  0  0  0  0  0  0  0
  147.8947  139.3469  153.3599 C   0  0  0  0  0  0  0  0  0  0  0  0
  147.6554  138.4807  152.3654 N   0  0  0  0  0  0  0  0  0  0  0  0
  146.3690  138.2991  151.6960 C   0  0  0  0  0  0  0  0  0  0  0  0
  145.5651  137.0914  152.2254 C   0  0  0  0  0  0  0  0  0  0  0  0
  146.2021  135.7906  151.9094 N   0  3  0  0  0  0  0  0  0  0  0  0
  146.2448  134.8174  153.0270 C   0  0  0  0  0  0  0  0  0  0  0  0
  145.9033  133.4436  152.4334 C   0  0  0  0  0  0  0  0  0  0  0  0
  146.0129  133.6362  150.9238 C   0  0  0  0  0  0  0  0  0  0  0  0
  145.6260  135.0996  150.7396 C   0  0  0  0  0  0  0  0  0  0  0  0
  149.1694  139.2702  153.7774 N   0  0  0  0  0  0  0  0  0  0  0  0
  149.8180  140.0590  154.7648 C   0  0  0  0  0  0  0  0  0  0  0  0
  151.0232  139.5804  155.3135 C   0  0  0  0  0  0  0  0  0  0  0  0
  151.6930  140.3520  156.2815 C   0  0  0  0  0  0  0  0  0  0  0  0
  151.1439  141.5952  156.6749 C   0  0  0  0  0  0  0  0  0  0  0  0
  151.7926  142.3823  157.6514 N   0  0  0  0  0  0  0  0  0  0  0  0
  151.4687  143.8068  157.7086 C   0  0  0  0  0  0  0  0  0  0  0  0
  152.4601  144.5461  158.6229 C   0  0  0  0  0  0  0  0  0  0  0  0
  152.4719  143.9356  159.9088 O   0  0  0  0  0  0  0  0  0  0  0  0
  152.8977  142.5787  159.8454 C   0  0  0  0  0  0  0  0  0  0  0  0
  151.9273  141.7668  158.9697 C   0  0  0  0  0  0  0  0  0  0  0  0
  149.9971  142.0667  156.1264 N   0  0  0  0  0  0  0  0  0  0  0  0
  149.3555  141.3226  155.2016 C   0  0  0  0  0  0  0  0  0  0  0  0
  148.4147  137.8887  152.0604 H   0  0  0  0  0  0  0  0  0  0  0  0
  145.7940  139.2139  151.8418 H   0  0  0  0  0  0  0  0  0  0  0  0
  146.5237  138.2056  150.6202 H   0  0  0  0  0  0  0  0  0  0  0  0
  145.4087  137.1812  153.3012 H   0  0  0  0  0  0  0  0  0  0  0  0
  144.5725  137.1018  151.7730 H   0  0  0  0  0  0  0  0  0  0  0  0
  147.2458  134.8231  153.4590 H   0  0  0  0  0  0  0  0  0  0  0  0
  145.5410  135.0739  153.8201 H   0  0  0  0  0  0  0  0  0  0  0  0
  146.5553  132.6516  152.8033 H   0  0  0  0  0  0  0  0  0  0  0  0
  144.8775  133.1779  152.6931 H   0  0  0  0  0  0  0  0  0  0  0  0
  147.0438  133.4808  150.6018 H   0  0  0  0  0  0  0  0  0  0  0  0
  145.3763  132.9536  150.3599 H   0  0  0  0  0  0  0  0  0  0  0  0
  144.5389  135.1967  150.7519 H   0  0  0  0  0  0  0  0  0  0  0  0
  145.9942  135.5185  149.8024 H   0  0  0  0  0  0  0  0  0  0  0  0
  149.7301  138.5337  153.3740 H   0  0  0  0  0  0  0  0  0  0  0  0
  151.4323  138.6307  155.0008 H   0  0  0  0  0  0  0  0  0  0  0  0
  152.6210  139.9896  156.6979 H   0  0  0  0  0  0  0  0  0  0  0  0
  151.5049  144.2435  156.7098 H   0  0  0  0  0  0  0  0  0  0  0  0
  150.4519  143.9315  158.0833 H   0  0  0  0  0  0  0  0  0  0  0  0
  153.4641  144.5391  158.1952 H   0  0  0  0  0  0  0  0  0  0  0  0
  152.1664  145.5905  158.7279 H   0  0  0  0  0  0  0  0  0  0  0  0
  153.9146  142.5232  159.4530 H   0  0  0  0  0  0  0  0  0  0  0  0
  152.9243  142.1681  160.8547 H   0  0  0  0  0  0  0  0  0  0  0  0
  150.9443  141.7285  159.4409 H   0  0  0  0  0  0  0  0  0  0  0  0
  152.2865  140.7410  158.9026 H   0  0  0  0  0  0  0  0  0  0  0  0
  148.4638  141.7761  154.7975 H   0  0  0  0  0  0  0  0  0  0  0  0
  147.1633  135.9842  151.6662 H   0  0  0  0  0  0  0  0  0  0  0  0
  1  2  2  0  0  0  0
  2  3  1  0  0  0  0
  2 11  1  0  0  0  0
  3  4  1  0  0  0  0
  3 24  1  0  0  0  0
  4  5  1  0  0  0  0
  4 25  1  0  0  0  0
  4 26  1  0  0  0  0
  5  6  1  0  0  0  0
  5 27  1  0  0  0  0
  5 28  1  0  0  0  0
  6 10  1  0  0  0  0
  6  7  1  0  0  0  0
  6 49  1  0  0  0  0
  7  8  1  0  0  0  0
  7 29  1  0  0  0  0
  7 30  1  0  0  0  0
  8  9  1  0  0  0  0
  8 31  1  0  0  0  0
  8 32  1  0  0  0  0
  9 10  1  0  0  0  0
  9 33  1  0  0  0  0
  9 34  1  0  0  0  0
 10 35  1  0  0  0  0
 10 36  1  0  0  0  0
 11 12  1  0  0  0  0
 11 37  1  0  0  0  0
 12 23  1  0  0  0  0
 12 13  2  0  0  0  0
 13 14  1  0  0  0  0
 13 38  1  0  0  0  0
 14 15  2  0  0  0  0
 14 39  1  0  0  0  0
 15 16  1  0  0  0  0
 15 22  1  0  0  0  0
 16 21  1  0  0  0  0
 16 17  1  0  0  0  0
 17 18  1  0  0  0  0
 17 40  1  0  0  0  0
 17 41  1  0  0  0  0
 18 19  1  0  0  0  0
 18 42  1  0  0  0  0
 18 43  1  0  0  0  0
 19 20  1  0  0  0  0
 20 21  1  0  0  0  0
 20 44  1  0  0  0  0
 20 45  1  0  0  0  0
 21 46  1  0  0  0  0
 21 47  1  0  0  0  0
 22 23  2  0  0  0  0
 23 48  1  0  0  0  0
M  CHG  1   6   1
M  END
> <s_m_source_file>
AV-unprocessed.smi

> <i_m_source_file_index>
1625

> <i_lp_mmshare_version>
43012

> <i_f3d_flags>
0

> <s_epik_input>
W0NIMl0xW0NIMl1bQ0gyXVtDSDJdTjFbQ0gyXVtDSDJdW05IXUMoPU8pW05IXWMyW2NIXVtjSF1jKG5bY0hdMilOM1tDSDJdW0NIMl1PW0NIMl1bQ0gyXTM=

> <s_epik_cmdline>
J2VwaWtfcHl0aG9uJywgJy1waCcsICc3LjAnLCAnLXRuJywgJzgnLCAnLW1hJywgJzIwMCcsICctbWV0YWxfYmluZGluZycsICctaW1hZScsICc8aW5maWxlLm1hZT4nLCAnLW9tYWUnLCAnPG91dGZpbGUubWFlPic=

> <r_lp_tautomer_probability>
1

> <r_epik_Ionization_Penalty>
0.00378777

> <r_epik_Ionization_Penalty_Charging>
0.00210487

> <r_epik_Ionization_Penalty_Neutral>
0.0016829

> <r_epik_State_Penalty>
-0

> <r_epik_Charging_Adjusted_Penalty>
0.00210487

> <i_epik_Tot_Q>
1

> <i_epik_Tot_abs_Q>
1

> <r_epik_Metal_State_Penalty>
-0

> <b_epik_Metal_Only>
0

> <s_lp_Force_Field>
OPLS_2005

> <r_lp_Energy>
50.0619

> <b_lp_Chiralities_Consistent>
1

> <s_lp_Variant>
AV-unprocessed.smi:1625-1

> <Gold.Version>
5.8.1

> <Gold.Id.Protein>
6NUR|6NUR_protein|mol2

> <Gold.PLP.Fitness>
52.1978

> <Gold.PLP.PLP>
-45.1382

> <Gold.PLP.part.hbond>
-4.0000

> <Gold.PLP.part.metal>
0.0000

> <Gold.PLP.part.buried>
-2.5250

> <Gold.PLP.part.nonpolar>
-40.6476

> <Gold.PLP.part.repulsive>
1.9212

> <Gold.PLP.ligand.clash>
0.0000

> <Gold.PLP.ligand.torsion>
1.1193

> <Gold.PLP.Chemscore.Hbond>
2.9600

> <Gold.PLP.Chemscore.CHOScore>
0.0000

> <Gold.PLP.Chemscore.Metal>
0.0000

> <Gold.Chemscore.Hbonds>
donor molecule, donor type, donor heavy atom, donor atom, acceptor molecule, acceptor atom, score
      L1  H     3    24       P1  7948  0.93
      L1  H     6    49       P1  7948  2.00

> <Gold.PLP.Chemscore.Internal.Correction>
0.4182

> <Gold.Rescore>
     Score         DG    S(hbond)    S(metal)    S(lipo)     H(rot)  DE(clash)    DE(int)     intcor
     17.56     -19.91       1.94        0.00     103.89       1.65       0.28       2.06       ----

> <Gold.Chemscore.Fitness>
17.5617

> <Gold.Chemscore.DG>
-19.9054

> <Gold.Chemscore.ZeroCoef>
-5.4800

> <Gold.Chemscore.Hbond>
1.9442

> <Gold.Chemscore.Metal>
0.0000

> <Gold.Chemscore.Lipo>
103.8867

> <Gold.Chemscore.Internal_Hbond>
0.0000

> <Gold.Chemscore.DEClash>
0.2843

> <Gold.Chemscore.DEInternal>
2.0594

> <Gold.Chemscore.Rot>
1.6495

> <Gold.Chemscore.Internal.Correction>
   9.000000E+99

> <Gold.Chemscore.Hbonds>
donor molecule, donor type, donor heavy atom, donor atom, acceptor molecule, acceptor atom, score
      L1  H     3    24       P1  7948  0.91
      L1  H     6    49       P1  7948  1.00

> <Gold.Chemscore.Hbond.Weighted>
-6.4935

> <Gold.Chemscore.Metal.Weighted>
-0.0000

> <Gold.Chemscore.Lipo.Weighted>
-12.1547

> <Gold.Chemscore.Internal_Hbond.Weighted>
0.0000

> <Gold.Chemscore.DEClash.Weighted>
0.2843

> <Gold.Chemscore.DEInternal.Weighted>
2.0594

> <Gold.Chemscore.Rot.Weighted>
4.2228

> <Gold.Chemscore.Internal.Correction.Weighted>
   9.000000E+99

> <Gold.Protein.RotatedTorsions>
[ 6907 6896 6895 6894 ] final   88.90 input  -60.11 | X-H torsion
[ 7974 7965 7964 7962 ] final -138.00 input  175.53 | X-H torsion
[ 8008 7997 7996 7995 ] final   99.03 input   59.86 | X-H torsion
[ 10167 10162 10161 10158 ] final  129.35 input  -65.29 | X-H torsion
[ 10718 10713 10712 10709 ] final   98.70 input   66.30 | X-H torsion
[ 10763 10752 10751 10750 ] final  -36.91 input  -60.55 | X-H torsion
[ 11005 11000 10999 10996 ] final -112.24 input  -57.11 | X-H torsion

> <Gold.Protein.ActiveResidues>
 VAL166  LYS551  ARG553  GLY616  TRP617  ASP618  TYR619  PRO620  LYS621  CYS622 
 ASP623  PHE694  ASN695  SER759  ASP760  ASP761  ALA762  ILE779  LEU786  VAL792 
 PHE793  MET794  SER795  GLU796  ALA797  LYS798  CYS799  TRP800  GLU811  SER814 

> <Gold.Protein.RotatedAtoms>
  152.5430  134.2049  159.8726 H   0  0  0  0  0  0  0  0  0  0  0  0  # atno 6907 bound_to 6896
  151.2035  133.4590  159.2604 H   0  0  0  0  0  0  0  0  0  0  0  0  # atno 6908 bound_to 6896
  151.0966  134.9960  159.8484 H   0  0  0  0  0  0  0  0  0  0  0  0  # atno 6909 bound_to 6896
  144.8794  140.6485  143.5215 H   0  0  0  0  0  0  0  0  0  0  0  0  # atno 7974 bound_to 7965
  156.1064  140.3235  155.8011 H   0  0  0  0  0  0  0  0  0  0  0  0  # atno 8008 bound_to 7997
  155.4749  140.0549  157.2992 H   0  0  0  0  0  0  0  0  0  0  0  0  # atno 8009 bound_to 7997
  154.4730  140.2020  155.9962 H   0  0  0  0  0  0  0  0  0  0  0  0  # atno 8010 bound_to 7997
  139.5482  144.6791  151.4407 H   0  0  0  0  0  0  0  0  0  0  0  0  # atno 10167 bound_to 10162
  157.6890  131.0648  150.4836 H   0  0  0  0  0  0  0  0  0  0  0  0  # atno 10718 bound_to 10713
  153.8876  135.6815  153.4762 H   0  0  0  0  0  0  0  0  0  0  0  0  # atno 10763 bound_to 10752
  153.1199  135.4744  154.9175 H   0  0  0  0  0  0  0  0  0  0  0  0  # atno 10764 bound_to 10752
  154.7638  135.3218  154.8279 H   0  0  0  0  0  0  0  0  0  0  0  0  # atno 10765 bound_to 10752
  141.0687  133.9416  157.2528 H   0  0  0  0  0  0  0  0  0  0  0  0  # atno 11005 bound_to 11000
  145.3982  139.1603  143.4192 LP  0  0  0  0  0  0  0  0  0  0  0  0  # atno 17320 bound_to 7965
  146.2984  140.4076  142.8713 LP  0  0  0  0  0  0  0  0  0  0  0  0  # atno 17321 bound_to 7965
  140.6737  143.8238  150.7031 LP  0  0  0  0  0  0  0  0  0  0  0  0  # atno 17342 bound_to 10162
  140.1670  143.4227  152.2027 LP  0  0  0  0  0  0  0  0  0  0  0  0  # atno 17343 bound_to 10162
  156.5167  130.4152  149.6272 LP  0  0  0  0  0  0  0  0  0  0  0  0  # atno 17370 bound_to 10713
  156.3191  130.7271  151.2179 LP  0  0  0  0  0  0  0  0  0  0  0  0  # atno 17371 bound_to 10713
  139.9502  135.0177  156.8970 LP  0  0  0  0  0  0  0  0  0  0  0  0  # atno 17394 bound_to 11000
  140.5719  134.0435  155.7433 LP  0  0  0  0  0  0  0  0  0  0  0  0  # atno 17395 bound_to 11000

$$$$
