#       Name:                AV-unprocessed.smi:1564
#       Creating user name   scv26
#       Creation time:       Fri Mar 27 06:49:38 2020


#       File generated by GOLD software.
#

@<TRIPOS>MOLECULE
AV-unprocessed.smi:1564
    48    49     1
SMALL
NO_CHARGES


@<TRIPOS>ATOM
      1 ****        -5.2075   6.3245  -0.9293 C.3            1 S1                 0.0000
      2 ****        -5.7015   4.9949  -0.8102 O.3            1 S1                 0.0000
      3 ****        -4.7893   3.9638  -0.7180 C.ar           1 S1                 0.0000
      4 ****        -5.2707   2.6472  -0.5791 C.ar           1 S1                 0.0000
      5 ****        -4.3430   1.5934  -0.4799 C.ar           1 S1                 0.0000
      6 ****        -2.9638   1.8825  -0.5158 C.ar           1 S1                 0.0000
      7 ****        -2.0555   0.7923  -0.4249 N.am           1 S1                 0.0000
      8 ****        -0.7413   0.8109  -0.1426 C.2            1 S1                 0.0000
      9 ****        -0.0761   1.8159   0.1054 O.2            1 S1                 0.0000
     10 ****        -0.2277  -0.4270  -0.1464 N.am           1 S1                 0.0000
     11 ****         1.1699  -0.7475   0.1237 C.3            1 S1                 0.0000
     12 ****         1.5984  -0.5993   1.5782 C.3            1 S1                 0.0000
     13 ****         2.8804  -1.4310   1.5991 C.3            1 S1                 0.0000
     14 ****         2.6424  -2.5799   0.6892 N.4            1 S1                 1.0000
     15 ****         3.8444  -3.1080  -0.0178 C.3            1 S1                 0.0000
     16 ****         3.5200  -4.4208  -0.7572 C.3            1 S1                 0.0000
     17 ****         5.0177  -3.3557   0.9520 C.3            1 S1                 0.0000
     18 ****         1.4947  -2.2126  -0.1810 C.3            1 S1                 0.0000
     19 ****        -2.5807   3.2375  -0.6723 C.ar           1 S1                 0.0000
     20 ****        -3.4655   4.2525  -0.7678 N.ar           1 S1                 0.0000
     21 ****        -6.0470   7.0167  -0.9917 H              1 S1                 0.0000
     22 ****        -4.6085   6.4494  -1.8324 H              1 S1                 0.0000
     23 ****        -4.6099   6.6064  -0.0611 H              1 S1                 0.0000
     24 ****        -6.3321   2.4500  -0.5476 H              1 S1                 0.0000
     25 ****        -4.6904   0.5758  -0.3734 H              1 S1                 0.0000
     26 ****        -2.4694  -0.1208  -0.5434 H              1 S1                 0.0000
     27 ****        -0.8448  -1.1981  -0.3564 H              1 S1                 0.0000
     28 ****         1.8070  -0.1149  -0.4984 H              1 S1                 0.0000
     29 ****         1.7631   0.4376   1.8733 H              1 S1                 0.0000
     30 ****         0.8530  -1.0328   2.2469 H              1 S1                 0.0000
     31 ****         3.6980  -0.8179   1.2157 H              1 S1                 0.0000
     32 ****         3.1472  -1.7605   2.6036 H              1 S1                 0.0000
     33 ****         4.1606  -2.3643  -0.7510 H              1 S1                 0.0000
     34 ****         4.4035  -4.8100  -1.2641 H              1 S1                 0.0000
     35 ****         2.7521  -4.2945  -1.5193 H              1 S1                 0.0000
     36 ****         3.1754  -5.1886  -0.0639 H              1 S1                 0.0000
     37 ****         5.8676  -3.7983   0.4312 H              1 S1                 0.0000
     38 ****         4.7323  -4.0384   1.7532 H              1 S1                 0.0000
     39 ****         5.3787  -2.4348   1.4094 H              1 S1                 0.0000
     40 ****         0.6573  -2.8633   0.0753 H              1 S1                 0.0000
     41 ****         1.6999  -2.3393  -1.2442 H              1 S1                 0.0000
     42 ****        -1.5479   3.5394  -0.7433 H              1 S1                 0.0000
     43 ****         2.3089  -3.3306   1.2772 H              1 S1                 0.0000
     44 ****        -6.2692   4.8169  -1.6140 LP             1 S1                 0.0000
     45 ****        -6.2690   4.9625   0.0125 LP             1 S1                 0.0000
     46 ****        -0.5118   2.7159   0.1075 LP             1 S1                 0.0000
     47 ****         0.9003   1.7326   0.3049 LP             1 S1                 0.0000
     48 ****        -3.1516   5.1961  -0.8729 LP             1 S1                 0.0000
@<TRIPOS>BOND
    1    1    2 1     
    2    1   21 1     
    3    1   22 1     
    4    1   23 1     
    5    2    3 1     
    6    3   20 ar    
    7    3    4 ar    
    8    4    5 ar    
    9    4   24 1     
   10    5    6 ar    
   11    5   25 1     
   12    6    7 1     
   13    6   19 ar    
   14    7    8 am    
   15    7   26 1     
   16    8    9 2     
   17    8   10 am    
   18   10   11 1     
   19   10   27 1     
   20   11   18 1     
   21   11   12 1     
   22   11   28 1     
   23   12   13 1     
   24   12   29 1     
   25   12   30 1     
   26   13   14 1     
   27   13   31 1     
   28   13   32 1     
   29   14   15 1     
   30   14   18 1     
   31   14   43 1     
   32   15   16 1     
   33   15   17 1     
   34   15   33 1     
   35   16   34 1     
   36   16   35 1     
   37   16   36 1     
   38   17   37 1     
   39   17   38 1     
   40   17   39 1     
   41   18   40 1     
   42   18   41 1     
   43   19   20 ar    
   44   19   42 1     
   45    2   44 1     
   46    2   45 1     
   47    9   46 1     
   48    9   47 1     
   49   20   48 1     
@<TRIPOS>SUBSTRUCTURE
      1 S1             1
@<TRIPOS>SET
LONE_PAIRS      STATIC     ATOMS    <user>   **** ""
5 44 45 46 47 48
DONOR_HYDROGENS      STATIC     ATOMS    <user>   **** ""
3 26 27 43
ATOM$BLUE        STATIC     ATOMS    COLORGROUP SYSTEM
5 44 45 46 47 48
ATOM$RED        STATIC     ATOMS    COLORGROUP SYSTEM
3 26 27 43
