#       Name:                AV-unprocessed.smi:1791
#       Creating user name   scv26
#       Creation time:       Fri Mar 27 08:46:04 2020


#       File generated by GOLD software.
#

@<TRIPOS>MOLECULE
AV-unprocessed.smi:1791
    45    46     1
SMALL
NO_CHARGES


@<TRIPOS>ATOM
      1 ****        -6.8329   2.6300   0.2327 C.3            1 S1                 0.0000
      2 ****        -6.2865   1.3157   0.2051 O.3            1 S1                 0.0000
      3 ****        -4.9138   1.1767   0.2323 C.ar           1 S1                 0.0000
      4 ****        -4.3664  -0.1216   0.2172 C.ar           1 S1                 0.0000
      5 ****        -2.9666  -0.2724   0.2533 C.ar           1 S1                 0.0000
      6 ****        -2.1553   0.8864   0.3106 C.ar           1 S1                 0.0000
      7 ****        -0.7342   0.8784   0.3462 N.am           1 S1                 0.0000
      8 ****         0.0986  -0.1265   0.6672 C.2            1 S1                 0.0000
      9 ****        -0.2429  -1.2718   0.9597 O.2            1 S1                 0.0000
     10 ****         1.3749   0.2837   0.6367 N.am           1 S1                 0.0000
     11 ****         2.5492  -0.5318   0.9424 C.3            1 S1                 0.0000
     12 ****         3.4192   0.2152   1.9638 C.3            1 S1                 0.0000
     13 ****         3.3266  -0.8491  -0.3502 C.3            1 S1                 0.0000
     14 ****         2.5372  -1.6285  -1.4045 C.3            1 S1                 0.0000
     15 ****         3.6136  -2.3503  -2.2008 C.3            1 S1                 0.0000
     16 ****         4.8709  -2.2179  -1.3371 C.3            1 S1                 0.0000
     17 ****         4.4099  -1.7269  -0.0868 O.3            1 S1                 0.0000
     18 ****        -2.8019   2.1394   0.3049 C.ar           1 S1                 0.0000
     19 ****        -4.1424   2.2908   0.2707 N.ar           1 S1                 0.0000
     20 ****        -7.9209   2.5694   0.2191 H              1 S1                 0.0000
     21 ****        -6.5228   3.2087  -0.6386 H              1 S1                 0.0000
     22 ****        -6.5432   3.1640   1.1387 H              1 S1                 0.0000
     23 ****        -5.0096  -0.9884   0.1777 H              1 S1                 0.0000
     24 ****        -2.5521  -1.2675   0.2266 H              1 S1                 0.0000
     25 ****        -0.2966   1.7719   0.1749 H              1 S1                 0.0000
     26 ****         1.5520   1.2450   0.3851 H              1 S1                 0.0000
     27 ****         2.2425  -1.4741   1.3996 H              1 S1                 0.0000
     28 ****         4.2975  -0.3704   2.2369 H              1 S1                 0.0000
     29 ****         2.8629   0.4159   2.8800 H              1 S1                 0.0000
     30 ****         3.7670   1.1702   1.5684 H              1 S1                 0.0000
     31 ****         3.7196   0.0696  -0.7910 H              1 S1                 0.0000
     32 ****         1.8882  -2.3617  -0.9233 H              1 S1                 0.0000
     33 ****         1.9126  -0.9838  -2.0234 H              1 S1                 0.0000
     34 ****         3.3424  -3.3945  -2.3596 H              1 S1                 0.0000
     35 ****         3.7674  -1.8909  -3.1777 H              1 S1                 0.0000
     36 ****         5.4001  -3.1635  -1.2180 H              1 S1                 0.0000
     37 ****         5.5609  -1.4941  -1.7732 H              1 S1                 0.0000
     38 ****        -2.2263   3.0531   0.3352 H              1 S1                 0.0000
     39 ****        -6.6119   0.8774  -0.6327 LP             1 S1                 0.0000
     40 ****        -6.6491   0.8278   0.9991 LP             1 S1                 0.0000
     41 ****        -1.2123  -1.5169   0.9713 LP             1 S1                 0.0000
     42 ****         0.4490  -1.9575   1.1857 LP             1 S1                 0.0000
     43 ****         4.1030  -2.4864   0.4867 LP             1 S1                 0.0000
     44 ****         5.1446  -1.2333   0.3787 LP             1 S1                 0.0000
     45 ****        -4.5560   3.2013   0.2736 LP             1 S1                 0.0000
@<TRIPOS>BOND
    1    1    2 1     
    2    1   20 1     
    3    1   21 1     
    4    1   22 1     
    5    2    3 1     
    6    3   19 ar    
    7    3    4 ar    
    8    4    5 ar    
    9    4   23 1     
   10    5    6 ar    
   11    5   24 1     
   12    6    7 1     
   13    6   18 ar    
   14    7    8 am    
   15    7   25 1     
   16    8    9 2     
   17    8   10 am    
   18   10   11 1     
   19   10   26 1     
   20   11   12 1     
   21   11   13 1     
   22   11   27 1     
   23   12   28 1     
   24   12   29 1     
   25   12   30 1     
   26   13   17 1     
   27   13   14 1     
   28   13   31 1     
   29   14   15 1     
   30   14   32 1     
   31   14   33 1     
   32   15   16 1     
   33   15   34 1     
   34   15   35 1     
   35   16   17 1     
   36   16   36 1     
   37   16   37 1     
   38   18   19 ar    
   39   18   38 1     
   40    2   39 1     
   41    2   40 1     
   42    9   41 1     
   43    9   42 1     
   44   17   43 1     
   45   17   44 1     
   46   19   45 1     
@<TRIPOS>SUBSTRUCTURE
      1 S1             1
@<TRIPOS>SET
LONE_PAIRS      STATIC     ATOMS    <user>   **** ""
7 39 40 41 42 43 44 45
DONOR_HYDROGENS      STATIC     ATOMS    <user>   **** ""
2 25 26
ATOM$BLUE        STATIC     ATOMS    COLORGROUP SYSTEM
7 39 40 41 42 43 44 45
ATOM$RED        STATIC     ATOMS    COLORGROUP SYSTEM
2 25 26
