AV-unprocessed.smi:610|AV-procd|sdf|3053|dock10
  -GOLD-   2262023573D 1   1.00000     0.00000
 Structure written by MMmdl.
 39 40  0  0  0  0  0  0  0  0  3 V2000
  145.4907  135.2034  148.8728 C   0  0  0  0  0  0  0  0  0  0  0  0
  146.2506  135.0283  150.1942 C   0  0  2  0  0  0  0  0  0  0  0  0
  145.8191  136.0877  151.2309 C   0  0  0  0  0  0  0  0  0  0  0  0
  145.3259  135.5000  152.4816 N   0  0  0  0  0  0  0  0  0  0  0  0
  145.5054  135.9815  153.7533 C   0  0  0  0  0  0  0  0  0  0  0  0
  144.8692  135.1070  154.5962 C   0  0  0  0  0  0  0  0  0  0  0  0
  144.3371  134.1241  153.8052 N   0  3  0  0  0  0  0  0  0  0  0  0
  144.6217  134.3611  152.5204 C   0  0  0  0  0  0  0  0  0  0  0  0
  147.6862  135.1112  149.9270 N   0  0  0  0  0  0  0  0  0  0  0  0
  148.3631  134.3982  149.0101 C   0  0  0  0  0  0  0  0  0  0  0  0
  147.8106  133.5830  148.2709 O   0  0  0  0  0  0  0  0  0  0  0  0
  149.8865  134.6356  148.8778 C   0  0  0  0  0  0  0  0  0  0  0  0
  150.4880  134.3576  150.1951 N   0  3  0  0  0  0  0  0  0  0  0  0
  150.5677  133.8151  147.7627 C   0  0  0  0  0  0  0  0  0  0  0  0
  150.2842  134.5841  146.4654 C   0  0  0  0  0  0  0  0  0  0  0  0
  150.0745  136.0478  146.8846 C   0  0  0  0  0  0  0  0  0  0  0  0
  150.1907  136.0737  148.4160 C   0  0  0  0  0  0  0  0  0  0  0  0
  144.4145  135.1166  149.0246 H   0  0  0  0  0  0  0  0  0  0  0  0
  145.7808  134.4425  148.1476 H   0  0  0  0  0  0  0  0  0  0  0  0
  145.6849  136.1800  148.4277 H   0  0  0  0  0  0  0  0  0  0  0  0
  146.0012  134.0373  150.5775 H   0  0  0  0  0  0  0  0  0  0  0  0
  146.6435  136.7650  151.4611 H   0  0  0  0  0  0  0  0  0  0  0  0
  145.0111  136.7006  150.8290 H   0  0  0  0  0  0  0  0  0  0  0  0
  146.0530  136.8904  153.9577 H   0  0  0  0  0  0  0  0  0  0  0  0
  144.7607  135.1092  155.6711 H   0  0  0  0  0  0  0  0  0  0  0  0
  144.3330  133.7541  151.6807 H   0  0  0  0  0  0  0  0  0  0  0  0
  148.2094  135.7655  150.4915 H   0  0  0  0  0  0  0  0  0  0  0  0
  149.8745  134.6900  150.9254 H   0  0  0  0  0  0  0  0  0  0  0  0
  151.3810  134.8244  150.2649 H   0  0  0  0  0  0  0  0  0  0  0  0
  151.6461  133.8003  147.9311 H   0  0  0  0  0  0  0  0  0  0  0  0
  150.2552  132.7717  147.7077 H   0  0  0  0  0  0  0  0  0  0  0  0
  151.0986  134.4751  145.7485 H   0  0  0  0  0  0  0  0  0  0  0  0
  149.3792  134.2025  145.9914 H   0  0  0  0  0  0  0  0  0  0  0  0
  150.8060  136.7114  146.4224 H   0  0  0  0  0  0  0  0  0  0  0  0
  149.0860  136.3866  146.5731 H   0  0  0  0  0  0  0  0  0  0  0  0
  149.5436  136.8313  148.8601 H   0  0  0  0  0  0  0  0  0  0  0  0
  151.2135  136.3396  148.6889 H   0  0  0  0  0  0  0  0  0  0  0  0
  150.6232  133.3615  150.2956 H   0  0  0  0  0  0  0  0  0  0  0  0
  143.8107  133.3278  154.1428 H   0  0  0  0  0  0  0  0  0  0  0  0
  1  2  1  0  0  0  0
  1 18  1  0  0  0  0
  1 19  1  0  0  0  0
  1 20  1  0  0  0  0
  2  3  1  0  0  0  0
  2  9  1  0  0  0  0
  2 21  1  0  0  0  0
  3  4  1  0  0  0  0
  3 22  1  0  0  0  0
  3 23  1  0  0  0  0
  4  8  1  0  0  0  0
  4  5  1  0  0  0  0
  5  6  2  0  0  0  0
  5 24  1  0  0  0  0
  6  7  1  0  0  0  0
  6 25  1  0  0  0  0
  7  8  2  0  0  0  0
  7 39  1  0  0  0  0
  8 26  1  0  0  0  0
  9 10  1  0  0  0  0
  9 27  1  0  0  0  0
 10 11  2  0  0  0  0
 10 12  1  0  0  0  0
 12 17  1  0  0  0  0
 12 13  1  0  0  0  0
 12 14  1  0  0  0  0
 13 28  1  0  0  0  0
 13 29  1  0  0  0  0
 13 38  1  0  0  0  0
 14 15  1  0  0  0  0
 14 30  1  0  0  0  0
 14 31  1  0  0  0  0
 15 16  1  0  0  0  0
 15 32  1  0  0  0  0
 15 33  1  0  0  0  0
 16 17  1  0  0  0  0
 16 34  1  0  0  0  0
 16 35  1  0  0  0  0
 17 36  1  0  0  0  0
 17 37  1  0  0  0  0
M  CHG  1   7   1
M  CHG  1  13   1
M  END
> <s_m_source_file>
AV-unprocessed.smi

> <i_m_source_file_index>
610

> <i_lp_mmshare_version>
43012

> <i_f3d_flags>
0

> <s_epik_input>
W2NIXTFuW2NIXVtjSF1uMVtDSDJdW0NAQEhdKFtDSDNdKVtOSF1DKD1PKUMyKFtOSDJdKVtDSDJdW0NIMl1bQ0gyXVtDSDJdMg==

> <s_epik_cmdline>
J2VwaWtfcHl0aG9uJywgJy1waCcsICc3LjAnLCAnLXRuJywgJzgnLCAnLW1hJywgJzIwMCcsICctbWV0YWxfYmluZGluZycsICctaW1hZScsICc8aW5maWxlLm1hZT4nLCAnLW9tYWUnLCAnPG91dGZpbGUubWFlPic=

> <r_lp_tautomer_probability>
1

> <r_epik_Ionization_Penalty>
0.349719

> <r_epik_Ionization_Penalty_Charging>
0.0753376

> <r_epik_Ionization_Penalty_Neutral>
0.274381

> <r_epik_State_Penalty>
0.326418

> <r_epik_Charging_Adjusted_Penalty>
0.401755

> <i_epik_Tot_Q>
2

> <i_epik_Tot_abs_Q>
2

> <r_epik_Metal_State_Penalty>
0.608513

> <b_epik_Metal_Only>
0

> <s_lp_Force_Field>
OPLS_2005

> <r_lp_Energy>
30.886

> <b_lp_Chiralities_Consistent>
1

> <s_lp_Variant>
AV-unprocessed.smi:610-1

> <Gold.Version>
5.8.1

> <Gold.Id.Protein>
6NUR|6NUR_protein|mol2

> <Gold.PLP.Fitness>
44.6131

> <Gold.PLP.PLP>
-25.8524

> <Gold.PLP.part.hbond>
-3.8909

> <Gold.PLP.part.metal>
0.0000

> <Gold.PLP.part.buried>
-4.6062

> <Gold.PLP.part.nonpolar>
-18.8792

> <Gold.PLP.part.repulsive>
0.1049

> <Gold.PLP.ligand.clash>
0.0000

> <Gold.PLP.ligand.torsion>
1.1498

> <Gold.PLP.Chemscore.Hbond>
6.0000

> <Gold.PLP.Chemscore.CHOScore>
1.0000

> <Gold.PLP.Chemscore.Metal>
0.0000

> <Gold.Chemscore.Hbonds>
donor molecule, donor type, donor heavy atom, donor atom, acceptor molecule, acceptor atom, score
      L1  H     7    39       P1 10957  1.95
      L1  H     9    27       P1  7948  0.05
      L1  H    13    29       P1  7949  0.02

> <Gold.PLP.Chemscore.Internal.Correction>
0.0603

> <Gold.Rescore>
     Score         DG    S(hbond)    S(metal)    S(lipo)     H(rot)  DE(clash)    DE(int)     intcor
     17.10     -19.39       3.80        0.00      55.53       2.06       0.05       2.24       ----

> <Gold.Chemscore.Fitness>
17.1017

> <Gold.Chemscore.DG>
-19.3922

> <Gold.Chemscore.ZeroCoef>
-5.4800

> <Gold.Chemscore.Hbond>
3.8023

> <Gold.Chemscore.Metal>
0.0000

> <Gold.Chemscore.Lipo>
55.5319

> <Gold.Chemscore.Internal_Hbond>
0.0000

> <Gold.Chemscore.DEClash>
0.0473

> <Gold.Chemscore.DEInternal>
2.2432

> <Gold.Chemscore.Rot>
2.0644

> <Gold.Chemscore.Internal.Correction>
   9.000000E+99

> <Gold.Chemscore.Hbonds>
donor molecule, donor type, donor heavy atom, donor atom, acceptor molecule, acceptor atom, score
      L1  H     7    39       P1 10957  0.91

> <Gold.Chemscore.Hbond.Weighted>
-12.6997

> <Gold.Chemscore.Metal.Weighted>
-0.0000

> <Gold.Chemscore.Lipo.Weighted>
-6.4972

> <Gold.Chemscore.Internal_Hbond.Weighted>
0.0000

> <Gold.Chemscore.DEClash.Weighted>
0.0473

> <Gold.Chemscore.DEInternal.Weighted>
2.2432

> <Gold.Chemscore.Rot.Weighted>
5.2848

> <Gold.Chemscore.Internal.Correction.Weighted>
   9.000000E+99

> <Gold.Protein.RotatedTorsions>
[ 6907 6896 6895 6894 ] final   47.15 input  -60.11 | X-H torsion
[ 7974 7965 7964 7962 ] final   -3.14 input  175.53 | X-H torsion
[ 8008 7997 7996 7995 ] final  -80.81 input   59.86 | X-H torsion
[ 10167 10162 10161 10158 ] final  135.12 input  -65.29 | X-H torsion
[ 10718 10713 10712 10709 ] final   34.91 input   66.30 | X-H torsion
[ 10763 10752 10751 10750 ] final  -88.94 input  -60.55 | X-H torsion
[ 11005 11000 10999 10996 ] final   61.80 input  -57.11 | X-H torsion

> <Gold.Protein.ActiveResidues>
 VAL166  LYS551  ARG553  GLY616  TRP617  ASP618  TYR619  PRO620  LYS621  CYS622 
 ASP623  PHE694  ASN695  SER759  ASP760  ASP761  ALA762  ILE779  LEU786  VAL792 
 PHE793  MET794  SER795  GLU796  ALA797  LYS798  CYS799  TRP800  GLU811  SER814 

> <Gold.Protein.RotatedAtoms>
  152.2647  134.7997  160.0424 H   0  0  0  0  0  0  0  0  0  0  0  0  # atno 6907 bound_to 6896
  151.8631  133.3456  159.3718 H   0  0  0  0  0  0  0  0  0  0  0  0  # atno 6908 bound_to 6896
  150.7129  134.5114  159.5653 H   0  0  0  0  0  0  0  0  0  0  0  0  # atno 6909 bound_to 6896
  146.2394  140.1677  142.8332 H   0  0  0  0  0  0  0  0  0  0  0  0  # atno 7974 bound_to 7965
  154.5920  140.0657  156.9252 H   0  0  0  0  0  0  0  0  0  0  0  0  # atno 8008 bound_to 7997
  155.2278  140.3335  155.4289 H   0  0  0  0  0  0  0  0  0  0  0  0  # atno 8009 bound_to 7997
  156.2262  140.1820  156.7341 H   0  0  0  0  0  0  0  0  0  0  0  0  # atno 8010 bound_to 7997
  139.5229  144.6533  151.5238 H   0  0  0  0  0  0  0  0  0  0  0  0  # atno 10167 bound_to 10162
  157.3162  130.7424  149.6756 H   0  0  0  0  0  0  0  0  0  0  0  0  # atno 10718 bound_to 10713
  154.6500  135.5359  153.7890 H   0  0  0  0  0  0  0  0  0  0  0  0  # atno 10763 bound_to 10752
  153.0380  135.6480  154.1032 H   0  0  0  0  0  0  0  0  0  0  0  0  # atno 10764 bound_to 10752
  154.0950  135.2937  155.3243 H   0  0  0  0  0  0  0  0  0  0  0  0  # atno 10765 bound_to 10752
  140.0136  134.6259  155.9743 H   0  0  0  0  0  0  0  0  0  0  0  0  # atno 11005 bound_to 11000
  145.0037  140.8654  143.5266 LP  0  0  0  0  0  0  0  0  0  0  0  0  # atno 17320 bound_to 7965
  145.1700  139.2409  143.5347 LP  0  0  0  0  0  0  0  0  0  0  0  0  # atno 17321 bound_to 7965
  140.6347  143.9007  150.6637 LP  0  0  0  0  0  0  0  0  0  0  0  0  # atno 17342 bound_to 10162
  140.2322  143.3727  152.1556 LP  0  0  0  0  0  0  0  0  0  0  0  0  # atno 17343 bound_to 10162
  155.9682  130.4237  150.4573 LP  0  0  0  0  0  0  0  0  0  0  0  0  # atno 17370 bound_to 10713
  157.2580  131.0561  151.2338 LP  0  0  0  0  0  0  0  0  0  0  0  0  # atno 17371 bound_to 10713
  141.1728  133.6538  156.4714 LP  0  0  0  0  0  0  0  0  0  0  0  0  # atno 17394 bound_to 11000
  140.4510  134.6928  157.5039 LP  0  0  0  0  0  0  0  0  0  0  0  0  # atno 17395 bound_to 11000

$$$$
