AV-unprocessed.smi:3342|AV-procd|sdf|12888|dock2
  -GOLD-   2272019293D 1   1.00000     0.00000
 Structure written by MMmdl.
 42 43  0  0  0  0  0  0  0  0  2 V2000
  148.4069  132.6079  153.1305 C   0  0  0  0  0  0  0  0  0  0  0  0
  147.3587  133.1602  152.1552 C   0  0  1  0  0  0  0  0  0  0  0  0
  146.1755  132.1812  151.9929 C   0  0  0  0  0  0  0  0  0  0  0  0
  145.3798  132.4351  150.7874 N   0  0  0  0  0  0  0  0  0  0  0  0
  145.7297  132.1708  149.4878 C   0  0  0  0  0  0  0  0  0  0  0  0
  144.6703  132.5631  148.7109 C   0  0  0  0  0  0  0  0  0  0  0  0
  143.7225  133.0556  149.5675 N   0  3  0  0  0  0  0  0  0  0  0  0
  144.1577  132.9812  150.8293 C   0  0  0  0  0  0  0  0  0  0  0  0
  146.9027  134.4616  152.6418 N   0  0  0  0  0  0  0  0  0  0  0  0
  146.2776  134.6967  153.8091 C   0  0  0  0  0  0  0  0  0  0  0  0
  146.0510  133.7996  154.6226 O   0  0  0  0  0  0  0  0  0  0  0  0
  145.9651  135.9980  154.0323 N   0  0  0  0  0  0  0  0  0  0  0  0
  146.0313  137.0905  153.0469 C   0  0  0  0  0  0  0  0  0  0  0  0
  144.6003  137.4377  152.5974 C   0  0  0  0  0  0  0  0  0  0  0  0
  143.7126  137.8170  153.8067 C   0  0  0  0  0  0  0  0  0  0  0  0
  142.2552  138.0303  153.3759 C   0  0  0  0  0  0  0  0  0  0  0  0
  142.0204  138.9870  152.4745 N   0  0  0  0  0  0  0  0  0  0  0  0
  141.3522  137.3425  153.8483 O   0  0  0  0  0  0  0  0  0  0  0  0
  143.8119  136.7470  154.9197 C   0  0  0  0  0  0  0  0  0  0  0  0
  145.2808  136.4321  155.2563 C   0  0  0  0  0  0  0  0  0  0  0  0
  148.7972  131.6497  152.7861 H   0  0  0  0  0  0  0  0  0  0  0  0
  147.9857  132.4571  154.1251 H   0  0  0  0  0  0  0  0  0  0  0  0
  149.2523  133.2903  153.2272 H   0  0  0  0  0  0  0  0  0  0  0  0
  147.8533  133.2817  151.1899 H   0  0  0  0  0  0  0  0  0  0  0  0
  146.5378  131.1540  151.9313 H   0  0  0  0  0  0  0  0  0  0  0  0
  145.5104  132.2299  152.8564 H   0  0  0  0  0  0  0  0  0  0  0  0
  146.6781  131.7280  149.2202 H   0  0  0  0  0  0  0  0  0  0  0  0
  144.5232  132.5291  147.6411 H   0  0  0  0  0  0  0  0  0  0  0  0
  143.6225  133.2905  151.7094 H   0  0  0  0  0  0  0  0  0  0  0  0
  147.0621  135.2516  152.0333 H   0  0  0  0  0  0  0  0  0  0  0  0
  146.4967  137.9620  153.5095 H   0  0  0  0  0  0  0  0  0  0  0  0
  146.6464  136.8662  152.1755 H   0  0  0  0  0  0  0  0  0  0  0  0
  144.6300  138.2615  151.8832 H   0  0  0  0  0  0  0  0  0  0  0  0
  144.1764  136.5837  152.0659 H   0  0  0  0  0  0  0  0  0  0  0  0
  144.0934  138.7552  154.2151 H   0  0  0  0  0  0  0  0  0  0  0  0
  141.0778  139.1632  152.1585 H   0  0  0  0  0  0  0  0  0  0  0  0
  142.7894  139.5305  152.1100 H   0  0  0  0  0  0  0  0  0  0  0  0
  143.2954  137.0910  155.8167 H   0  0  0  0  0  0  0  0  0  0  0  0
  143.3119  135.8276  154.6096 H   0  0  0  0  0  0  0  0  0  0  0  0
  145.3313  135.6894  156.0537 H   0  0  0  0  0  0  0  0  0  0  0  0
  145.7742  137.3209  155.6521 H   0  0  0  0  0  0  0  0  0  0  0  0
  142.8203  133.4210  149.2891 H   0  0  0  0  0  0  0  0  0  0  0  0
  1  2  1  0  0  0  0
  1 21  1  0  0  0  0
  1 22  1  0  0  0  0
  1 23  1  0  0  0  0
  2  3  1  0  0  0  0
  2  9  1  0  0  0  0
  2 24  1  0  0  0  0
  3  4  1  0  0  0  0
  3 25  1  0  0  0  0
  3 26  1  0  0  0  0
  4  8  1  0  0  0  0
  4  5  1  0  0  0  0
  5  6  2  0  0  0  0
  5 27  1  0  0  0  0
  6  7  1  0  0  0  0
  6 28  1  0  0  0  0
  7  8  2  0  0  0  0
  7 42  1  0  0  0  0
  8 29  1  0  0  0  0
  9 10  1  0  0  0  0
  9 30  1  0  0  0  0
 10 11  2  0  0  0  0
 10 12  1  0  0  0  0
 12 20  1  0  0  0  0
 12 13  1  0  0  0  0
 13 14  1  0  0  0  0
 13 31  1  0  0  0  0
 13 32  1  0  0  0  0
 14 15  1  0  0  0  0
 14 33  1  0  0  0  0
 14 34  1  0  0  0  0
 15 16  1  0  0  0  0
 15 19  1  0  0  0  0
 15 35  1  0  0  0  0
 16 17  1  0  0  0  0
 16 18  2  0  0  0  0
 17 36  1  0  0  0  0
 17 37  1  0  0  0  0
 19 20  1  0  0  0  0
 19 38  1  0  0  0  0
 19 39  1  0  0  0  0
 20 40  1  0  0  0  0
 20 41  1  0  0  0  0
M  CHG  1   7   1
M  END
> <s_m_source_file>
AV-unprocessed.smi

> <i_m_source_file_index>
3342

> <i_lp_mmshare_version>
43012

> <i_f3d_flags>
0

> <s_epik_input>
W2NIXTFuW2NIXVtjSF1uMVtDSDJdW0NAQEhdKFtDSDNdKVtOSF1DKD1PKU4yW0NIMl1bQ0gyXVtDSF0oQyg9TylbTkgyXSlbQ0gyXVtDSDJdMg==

> <s_epik_cmdline>
J2VwaWtfcHl0aG9uJywgJy1waCcsICc3LjAnLCAnLXRuJywgJzgnLCAnLW1hJywgJzIwMCcsICctbWV0YWxfYmluZGluZycsICctaW1hZScsICc8aW5maWxlLm1hZT4nLCAnLW9tYWUnLCAnPG91dGZpbGUubWFlPic=

> <r_lp_tautomer_probability>
1

> <r_epik_Ionization_Penalty>
0.254015

> <r_epik_Ionization_Penalty_Charging>
0

> <r_epik_Ionization_Penalty_Neutral>
0.254015

> <r_epik_State_Penalty>
0.245417

> <r_epik_Charging_Adjusted_Penalty>
0.245417

> <i_epik_Tot_Q>
1

> <i_epik_Tot_abs_Q>
1

> <r_epik_Metal_State_Penalty>
0.535589

> <b_epik_Metal_Only>
0

> <s_lp_Force_Field>
OPLS_2005

> <r_lp_Energy>
31.4878

> <b_lp_Chiralities_Consistent>
1

> <s_lp_Variant>
AV-unprocessed.smi:3342-2

> <Gold.Version>
5.8.1

> <Gold.Id.Protein>
6NUR|6NUR_protein|mol2

> <Gold.PLP.Fitness>
41.2162

> <Gold.PLP.PLP>
-30.7966

> <Gold.PLP.part.hbond>
-4.0000

> <Gold.PLP.part.metal>
0.0000

> <Gold.PLP.part.buried>
-4.1733

> <Gold.PLP.part.nonpolar>
-23.4072

> <Gold.PLP.part.repulsive>
0.2672

> <Gold.PLP.ligand.clash>
0.0000

> <Gold.PLP.ligand.torsion>
0.3411

> <Gold.PLP.Chemscore.Hbond>
3.1593

> <Gold.PLP.Chemscore.CHOScore>
0.5149

> <Gold.PLP.Chemscore.Metal>
0.0000

> <Gold.Chemscore.Hbonds>
donor molecule, donor type, donor heavy atom, donor atom, acceptor molecule, acceptor atom, score
      L1  H     7    42       P1 10186  1.72
      L1  H     9    30       P1  7948  0.38
      L1  H    17    36       P1 10160  0.54
      L1  H    17    37       P1 10175  0.26
      L1  C     5    27       P1 10747  0.71

> <Gold.PLP.Chemscore.Internal.Correction>
0.0790

> <Gold.Rescore>
     Score         DG    S(hbond)    S(metal)    S(lipo)     H(rot)  DE(clash)    DE(int)     intcor
     12.00     -13.35       2.36        0.00      51.12       2.34       0.08       1.26       ----

> <Gold.Chemscore.Fitness>
12.0000

> <Gold.Chemscore.DG>
-13.3452

> <Gold.Chemscore.ZeroCoef>
-5.4800

> <Gold.Chemscore.Hbond>
2.3577

> <Gold.Chemscore.Metal>
0.0000

> <Gold.Chemscore.Lipo>
51.1179

> <Gold.Chemscore.Internal_Hbond>
0.0000

> <Gold.Chemscore.DEClash>
0.0817

> <Gold.Chemscore.DEInternal>
1.2635

> <Gold.Chemscore.Rot>
2.3400

> <Gold.Chemscore.Internal.Correction>
   9.000000E+99

> <Gold.Chemscore.Hbonds>
donor molecule, donor type, donor heavy atom, donor atom, acceptor molecule, acceptor atom, score
      L1  H     7    42       P1 10186  0.83
      L1  H     9    30       P1  7948  0.37
      L1  H    17    36       P1 10160  0.53
      L1  H    17    37       P1 10175  0.14

> <Gold.Chemscore.Hbond.Weighted>
-7.8748

> <Gold.Chemscore.Metal.Weighted>
-0.0000

> <Gold.Chemscore.Lipo.Weighted>
-5.9808

> <Gold.Chemscore.Internal_Hbond.Weighted>
0.0000

> <Gold.Chemscore.DEClash.Weighted>
0.0817

> <Gold.Chemscore.DEInternal.Weighted>
1.2635

> <Gold.Chemscore.Rot.Weighted>
5.9904

> <Gold.Chemscore.Internal.Correction.Weighted>
   9.000000E+99

> <Gold.Protein.RotatedTorsions>
[ 6907 6896 6895 6894 ] final -108.36 input  -60.11 | X-H torsion
[ 7974 7965 7964 7962 ] final -106.85 input  175.53 | X-H torsion
[ 8008 7997 7996 7995 ] final  -46.93 input   59.86 | X-H torsion
[ 10167 10162 10161 10158 ] final  152.75 input  -65.29 | X-H torsion
[ 10718 10713 10712 10709 ] final  122.65 input   66.30 | X-H torsion
[ 10763 10752 10751 10750 ] final -153.75 input  -60.55 | X-H torsion
[ 11005 11000 10999 10996 ] final  -27.90 input  -57.11 | X-H torsion

> <Gold.Protein.ActiveResidues>
 VAL166  LYS551  ARG553  GLY616  TRP617  ASP618  TYR619  PRO620  LYS621  CYS622 
 ASP623  PHE694  ASN695  SER759  ASP760  ASP761  ALA762  ILE779  LEU786  VAL792 
 PHE793  MET794  SER795  GLU796  ALA797  LYS798  CYS799  TRP800  GLU811  SER814 

> <Gold.Protein.RotatedAtoms>
  150.7497  133.9689  159.3539 H   0  0  0  0  0  0  0  0  0  0  0  0  # atno 6907 bound_to 6896
  151.7621  135.0805  160.0356 H   0  0  0  0  0  0  0  0  0  0  0  0  # atno 6908 bound_to 6896
  152.3396  133.6014  159.5903 H   0  0  0  0  0  0  0  0  0  0  0  0  # atno 6909 bound_to 6896
  145.2126  140.9102  143.3305 H   0  0  0  0  0  0  0  0  0  0  0  0  # atno 7974 bound_to 7965
  154.4012  140.1359  156.4093 H   0  0  0  0  0  0  0  0  0  0  0  0  # atno 8008 bound_to 7997
  155.7749  140.3483  155.5246 H   0  0  0  0  0  0  0  0  0  0  0  0  # atno 8009 bound_to 7997
  155.8730  140.0975  157.1527 H   0  0  0  0  0  0  0  0  0  0  0  0  # atno 8010 bound_to 7997
  139.4831  144.5331  151.7689 H   0  0  0  0  0  0  0  0  0  0  0  0  # atno 10167 bound_to 10162
  157.5726  131.1082  150.8339 H   0  0  0  0  0  0  0  0  0  0  0  0  # atno 10718 bound_to 10713
  154.7906  135.3205  154.7785 H   0  0  0  0  0  0  0  0  0  0  0  0  # atno 10763 bound_to 10752
  153.8475  135.6865  153.4800 H   0  0  0  0  0  0  0  0  0  0  0  0  # atno 10764 bound_to 10752
  153.1575  135.4674  154.9665 H   0  0  0  0  0  0  0  0  0  0  0  0  # atno 10765 bound_to 10752
  140.9161  133.7429  156.0736 H   0  0  0  0  0  0  0  0  0  0  0  0  # atno 11005 bound_to 11000
  144.9841  139.3754  143.6247 LP  0  0  0  0  0  0  0  0  0  0  0  0  # atno 17320 bound_to 7965
  146.3394  139.8995  142.8796 LP  0  0  0  0  0  0  0  0  0  0  0  0  # atno 17321 bound_to 7965
  140.4860  144.1380  150.5941 LP  0  0  0  0  0  0  0  0  0  0  0  0  # atno 17342 bound_to 10162
  140.4224  143.2605  151.9698 LP  0  0  0  0  0  0  0  0  0  0  0  0  # atno 17343 bound_to 10162
  156.8807  130.5178  149.5291 LP  0  0  0  0  0  0  0  0  0  0  0  0  # atno 17370 bound_to 10713
  156.0771  130.5790  150.9493 LP  0  0  0  0  0  0  0  0  0  0  0  0  # atno 17371 bound_to 10713
  140.8048  134.3467  157.5429 LP  0  0  0  0  0  0  0  0  0  0  0  0  # atno 17394 bound_to 11000
  139.8766  134.9219  156.3288 LP  0  0  0  0  0  0  0  0  0  0  0  0  # atno 17395 bound_to 11000

$$$$
