AV-unprocessed.smi:2129|AV-procd|sdf|8683|dock5
  -GOLD-   2272011433D 1   1.00000     0.00000
 Structure written by MMmdl.
 34 34  0  0  0  0  0  0  0  0  1 V2000
  152.3393  143.2210  161.4039 C   0  0  0  0  0  0  0  0  0  0  0  0
  152.1025  142.6960  159.9766 C   0  0  0  0  0  0  0  0  0  0  0  0
  151.5295  143.7269  158.9660 C   0  0  0  0  0  0  0  0  0  0  0  0
  150.1620  144.2458  159.4519 C   0  0  0  0  0  0  0  0  0  0  0  0
  152.4853  144.9340  158.8474 C   0  0  0  0  0  0  0  0  0  0  0  0
  151.3090  143.1217  157.6476 N   0  0  0  0  0  0  0  0  0  0  0  0
  150.4919  142.1056  157.3083 C   0  0  0  0  0  0  0  0  0  0  0  0
  149.7930  141.4998  158.1190 O   0  0  0  0  0  0  0  0  0  0  0  0
  150.4311  141.6996  155.8255 C   0  0  0  0  0  0  0  0  0  0  0  0
  150.6794  140.2708  155.5693 N   0  0  0  0  0  0  0  0  0  0  0  0
  149.9242  139.5886  154.6260 C   0  0  0  0  0  0  0  0  0  0  0  0
  150.0874  138.2729  154.3504 C   0  0  0  0  0  0  0  0  0  0  0  0
  151.0960  137.4898  155.0560 C   0  0  0  0  0  0  0  0  0  0  0  0
  151.3186  136.2945  154.8774 O   0  0  0  0  0  0  0  0  0  0  0  0
  151.8347  138.2113  155.9977 N   0  0  0  0  0  0  0  0  0  0  0  0
  151.6713  139.5667  156.2873 C   0  0  0  0  0  0  0  0  0  0  0  0
  152.3704  140.1040  157.1453 O   0  0  0  0  0  0  0  0  0  0  0  0
  152.5443  137.7101  156.5124 H   0  0  0  0  0  0  0  0  0  0  0  0
  152.7242  142.4257  162.0421 H   0  0  0  0  0  0  0  0  0  0  0  0
  151.4186  143.5851  161.8598 H   0  0  0  0  0  0  0  0  0  0  0  0
  153.0679  144.0309  161.4221 H   0  0  0  0  0  0  0  0  0  0  0  0
  153.0434  142.3018  159.5909 H   0  0  0  0  0  0  0  0  0  0  0  0
  151.4366  141.8349  160.0391 H   0  0  0  0  0  0  0  0  0  0  0  0
  150.2327  144.6783  160.4505 H   0  0  0  0  0  0  0  0  0  0  0  0
  149.4144  143.4529  159.4887 H   0  0  0  0  0  0  0  0  0  0  0  0
  149.7742  145.0192  158.7874 H   0  0  0  0  0  0  0  0  0  0  0  0
  152.5739  145.4582  159.7996 H   0  0  0  0  0  0  0  0  0  0  0  0
  152.1290  145.6541  158.1097 H   0  0  0  0  0  0  0  0  0  0  0  0
  153.4920  144.6356  158.5551 H   0  0  0  0  0  0  0  0  0  0  0  0
  151.8287  143.5418  156.8907 H   0  0  0  0  0  0  0  0  0  0  0  0
  149.4495  141.9803  155.4416 H   0  0  0  0  0  0  0  0  0  0  0  0
  151.1393  142.3127  155.2648 H   0  0  0  0  0  0  0  0  0  0  0  0
  149.1614  140.1282  154.0827 H   0  0  0  0  0  0  0  0  0  0  0  0
  149.4666  137.7970  153.6049 H   0  0  0  0  0  0  0  0  0  0  0  0
  1  2  1  0  0  0  0
  1 19  1  0  0  0  0
  1 20  1  0  0  0  0
  1 21  1  0  0  0  0
  2  3  1  0  0  0  0
  2 22  1  0  0  0  0
  2 23  1  0  0  0  0
  3  4  1  0  0  0  0
  3  5  1  0  0  0  0
  3  6  1  0  0  0  0
  4 24  1  0  0  0  0
  4 25  1  0  0  0  0
  4 26  1  0  0  0  0
  5 27  1  0  0  0  0
  5 28  1  0  0  0  0
  5 29  1  0  0  0  0
  6  7  1  0  0  0  0
  6 30  1  0  0  0  0
  7  8  2  0  0  0  0
  7  9  1  0  0  0  0
  9 10  1  0  0  0  0
  9 31  1  0  0  0  0
  9 32  1  0  0  0  0
 10 16  1  0  0  0  0
 10 11  1  0  0  0  0
 11 12  2  0  0  0  0
 11 33  1  0  0  0  0
 12 13  1  0  0  0  0
 12 34  1  0  0  0  0
 13 14  2  0  0  0  0
 13 15  1  0  0  0  0
 15 18  1  0  0  0  0
 15 16  1  0  0  0  0
 16 17  2  0  0  0  0
M  END
> <s_m_source_file>
AV-unprocessed.smi

> <i_m_source_file_index>
2129

> <i_lp_mmshare_version>
43012

> <i_f3d_flags>
0

> <s_epik_input>
W0NIM11bQ0gyXUMoW0NIM10pKFtDSDNdKVtOSF1DKD1PKVtDSDJdbjFbY0hdW2NIXWMoPU8pW25IXWMxPU8=

> <s_epik_cmdline>
J2VwaWtfcHl0aG9uJywgJy1waCcsICc3LjAnLCAnLXRuJywgJzgnLCAnLW1hJywgJzIwMCcsICctbWV0YWxfYmluZGluZycsICctaW1hZScsICc8aW5maWxlLm1hZT4nLCAnLW9tYWUnLCAnPG91dGZpbGUubWFlPic=

> <r_lp_tautomer_probability>
0.999537

> <r_epik_Ionization_Penalty>
0.00293907

> <r_epik_Ionization_Penalty_Charging>
0.00293905

> <r_epik_Ionization_Penalty_Neutral>
1.95902e-08

> <r_epik_State_Penalty>
0.0020607

> <r_epik_Charging_Adjusted_Penalty>
0.00499975

> <i_epik_Tot_Q>
0

> <i_epik_Tot_abs_Q>
0

> <r_epik_Metal_State_Penalty>
0.360223

> <b_epik_Metal_Only>
0

> <s_lp_Force_Field>
OPLS_2005

> <r_lp_Energy>
5.65175

> <b_lp_Chiralities_Consistent>
1

> <s_lp_Variant>
AV-unprocessed.smi:2129-1

> <Gold.Version>
5.8.1

> <Gold.Id.Protein>
6NUR|6NUR_protein|mol2

> <Gold.PLP.Fitness>
43.3803

> <Gold.PLP.PLP>
-38.0020

> <Gold.PLP.part.hbond>
-2.0000

> <Gold.PLP.part.metal>
0.0000

> <Gold.PLP.part.buried>
-4.4985

> <Gold.PLP.part.nonpolar>
-32.0164

> <Gold.PLP.part.repulsive>
0.3347

> <Gold.PLP.ligand.clash>
0.0018

> <Gold.PLP.ligand.torsion>
0.3276

> <Gold.PLP.Chemscore.Hbond>
2.0000

> <Gold.PLP.Chemscore.CHOScore>
0.0000

> <Gold.PLP.Chemscore.Metal>
0.0000

> <Gold.Chemscore.Hbonds>
donor molecule, donor type, donor heavy atom, donor atom, acceptor molecule, acceptor atom, score
      P1  H  7997  8010       L1    17  0.86
      P1  H 10752 10765       L1    14  1.00

> <Gold.PLP.Chemscore.Internal.Correction>
0.0353

> <Gold.Rescore>
     Score         DG    S(hbond)    S(metal)    S(lipo)     H(rot)  DE(clash)    DE(int)     intcor
     14.45     -16.02       1.96        0.00      76.78       1.95       0.01       1.56       ----

> <Gold.Chemscore.Fitness>
14.4500

> <Gold.Chemscore.DG>
-16.0227

> <Gold.Chemscore.ZeroCoef>
-5.4800

> <Gold.Chemscore.Hbond>
1.9602

> <Gold.Chemscore.Metal>
0.0000

> <Gold.Chemscore.Lipo>
76.7798

> <Gold.Chemscore.Internal_Hbond>
0.0000

> <Gold.Chemscore.DEClash>
0.0127

> <Gold.Chemscore.DEInternal>
1.5600

> <Gold.Chemscore.Rot>
1.9483

> <Gold.Chemscore.Internal.Correction>
   9.000000E+99

> <Gold.Chemscore.Hbonds>
donor molecule, donor type, donor heavy atom, donor atom, acceptor molecule, acceptor atom, score
      P1  H  7997  8010       L1    17  0.52
      P1  H 10752 10765       L1    14  0.95

> <Gold.Chemscore.Hbond.Weighted>
-6.5471

> <Gold.Chemscore.Metal.Weighted>
-0.0000

> <Gold.Chemscore.Lipo.Weighted>
-8.9832

> <Gold.Chemscore.Internal_Hbond.Weighted>
0.0000

> <Gold.Chemscore.DEClash.Weighted>
0.0127

> <Gold.Chemscore.DEInternal.Weighted>
1.5600

> <Gold.Chemscore.Rot.Weighted>
4.9876

> <Gold.Chemscore.Internal.Correction.Weighted>
   9.000000E+99

> <Gold.Protein.RotatedTorsions>
[ 6907 6896 6895 6894 ] final  -47.12 input  -60.11 | X-H torsion
[ 7974 7965 7964 7962 ] final -132.53 input  175.53 | X-H torsion
[ 8008 7997 7996 7995 ] final   71.76 input   59.86 | X-H torsion
[ 10167 10162 10161 10158 ] final -168.83 input  -65.29 | X-H torsion
[ 10718 10713 10712 10709 ] final  151.71 input   66.30 | X-H torsion
[ 10763 10752 10751 10750 ] final  157.53 input  -60.55 | X-H torsion
[ 11005 11000 10999 10996 ] final  173.00 input  -57.11 | X-H torsion

> <Gold.Protein.ActiveResidues>
 VAL166  LYS551  ARG553  GLY616  TRP617  ASP618  TYR619  PRO620  LYS621  CYS622 
 ASP623  PHE694  ASN695  SER759  ASP760  ASP761  ALA762  ILE779  LEU786  VAL792 
 PHE793  MET794  SER795  GLU796  ALA797  LYS798  CYS799  TRP800  GLU811  SER814 

> <Gold.Protein.RotatedAtoms>
  150.9041  134.8454  159.7379 H   0  0  0  0  0  0  0  0  0  0  0  0  # atno 6907 bound_to 6896
  152.4908  134.4459  159.9568 H   0  0  0  0  0  0  0  0  0  0  0  0  # atno 6908 bound_to 6896
  151.4507  133.3579  159.2830 H   0  0  0  0  0  0  0  0  0  0  0  0  # atno 6909 bound_to 6896
  144.9277  140.7091  143.4926 H   0  0  0  0  0  0  0  0  0  0  0  0  # atno 7974 bound_to 7965
  155.7587  140.3487  155.5187 H   0  0  0  0  0  0  0  0  0  0  0  0  # atno 8008 bound_to 7997
  155.8935  140.1022  157.1423 H   0  0  0  0  0  0  0  0  0  0  0  0  # atno 8009 bound_to 7997
  154.4036  140.1300  156.4332 H   0  0  0  0  0  0  0  0  0  0  0  0  # atno 8010 bound_to 7997
  139.5961  144.1110  152.1690 H   0  0  0  0  0  0  0  0  0  0  0  0  # atno 10167 bound_to 10162
  157.2672  131.0810  151.1625 H   0  0  0  0  0  0  0  0  0  0  0  0  # atno 10718 bound_to 10713
  154.2017  135.2790  155.2988 H   0  0  0  0  0  0  0  0  0  0  0  0  # atno 10763 bound_to 10752
  154.5849  135.5578  153.7225 H   0  0  0  0  0  0  0  0  0  0  0  0  # atno 10764 bound_to 10752
  153.0086  135.6354  154.2155 H   0  0  0  0  0  0  0  0  0  0  0  0  # atno 10765 bound_to 10752
  140.3358  134.7319  157.4167 H   0  0  0  0  0  0  0  0  0  0  0  0  # atno 11005 bound_to 11000
  145.3193  139.1793  143.4596 LP  0  0  0  0  0  0  0  0  0  0  0  0  # atno 17320 bound_to 7965
  146.3233  140.3208  142.8633 LP  0  0  0  0  0  0  0  0  0  0  0  0  # atno 17321 bound_to 7965
  140.0695  144.5790  150.7202 LP  0  0  0  0  0  0  0  0  0  0  0  0  # atno 17342 bound_to 10162
  140.7212  143.2591  151.4270 LP  0  0  0  0  0  0  0  0  0  0  0  0  # atno 17343 bound_to 10162
  157.3111  130.6890  149.6216 LP  0  0  0  0  0  0  0  0  0  0  0  0  # atno 17370 bound_to 10713
  155.9663  130.4363  150.5129 LP  0  0  0  0  0  0  0  0  0  0  0  0  # atno 17371 bound_to 10713
  140.0822  134.5715  155.8528 LP  0  0  0  0  0  0  0  0  0  0  0  0  # atno 17394 bound_to 11000
  141.2052  133.6645  156.6164 LP  0  0  0  0  0  0  0  0  0  0  0  0  # atno 17395 bound_to 11000

$$$$
