AV-unprocessed.smi:1159|AV-procd|sdf|4915|dock6
  -GOLD-   22720 3493D 1   1.00000     0.00000
 Structure written by MMmdl.
 41 42  0  0  0  0  0  0  0  0  1 V2000
  146.2842  137.8247  154.9535 O   0  0  0  0  0  0  0  0  0  0  0  0
  147.1471  137.3145  154.2391 C   0  0  0  0  0  0  0  0  0  0  0  0
  148.4332  137.7003  154.1806 N   0  0  0  0  0  0  0  0  0  0  0  0
  149.0775  138.7262  154.9232 C   0  0  0  0  0  0  0  0  0  0  0  0
  148.7178  139.0968  156.2406 C   0  0  0  0  0  0  0  0  0  0  0  0
  149.4443  140.1180  156.8822 C   0  0  0  0  0  0  0  0  0  0  0  0
  150.5099  140.7321  156.1950 C   0  0  0  0  0  0  0  0  0  0  0  0
  151.2139  141.7338  156.8307 O   0  0  0  0  0  0  0  0  0  0  0  0
  150.8436  142.0875  158.1608 C   0  0  0  0  0  0  0  0  0  0  0  0
  151.7769  143.1932  158.6669 C   0  0  0  0  0  0  0  0  0  0  0  0
  151.3108  143.7026  159.8068 F   0  0  0  0  0  0  0  0  0  0  0  0
  152.9865  142.6807  158.8902 F   0  0  0  0  0  0  0  0  0  0  0  0
  151.8842  144.1596  157.7554 F   0  0  0  0  0  0  0  0  0  0  0  0
  150.8697  140.3721  154.9380 N   0  0  0  0  0  0  0  0  0  0  0  0
  150.1702  139.3910  154.3293 C   0  0  0  0  0  0  0  0  0  0  0  0
  146.9050  136.3051  153.3904 N   0  0  0  0  0  0  0  0  0  0  0  0
  145.6100  135.6545  153.1822 C   0  0  1  0  0  0  0  0  0  0  0  0
  145.6776  134.7286  151.9468 C   0  0  0  0  0  0  0  0  0  0  0  0
  144.3099  134.4249  151.3144 C   0  0  0  0  0  0  0  0  0  0  0  0
  143.3347  133.6628  152.2235 C   0  0  0  0  0  0  0  0  0  0  0  0
  142.8925  134.4628  153.4607 C   0  0  0  0  0  0  0  0  0  0  0  0
  143.8923  134.4527  154.5213 N   0  0  0  0  0  0  0  0  0  0  0  0
  145.1346  134.9575  154.4713 C   0  0  0  0  0  0  0  0  0  0  0  0
  145.8874  134.8596  155.4402 O   0  0  0  0  0  0  0  0  0  0  0  0
  149.0018  137.2504  153.4781 H   0  0  0  0  0  0  0  0  0  0  0  0
  147.9144  138.6121  156.7733 H   0  0  0  0  0  0  0  0  0  0  0  0
  149.1903  140.4222  157.8869 H   0  0  0  0  0  0  0  0  0  0  0  0
  149.8114  142.4406  158.1847 H   0  0  0  0  0  0  0  0  0  0  0  0
  150.9154  141.2184  158.8168 H   0  0  0  0  0  0  0  0  0  0  0  0
  150.4913  139.1334  153.3306 H   0  0  0  0  0  0  0  0  0  0  0  0
  147.6764  135.9466  152.8464 H   0  0  0  0  0  0  0  0  0  0  0  0
  144.8850  136.4457  152.9811 H   0  0  0  0  0  0  0  0  0  0  0  0
  146.2919  135.1948  151.1751 H   0  0  0  0  0  0  0  0  0  0  0  0
  146.1858  133.7980  152.2035 H   0  0  0  0  0  0  0  0  0  0  0  0
  143.8478  135.3556  150.9827 H   0  0  0  0  0  0  0  0  0  0  0  0
  144.4715  133.8367  150.4105 H   0  0  0  0  0  0  0  0  0  0  0  0
  142.4477  133.4227  151.6364 H   0  0  0  0  0  0  0  0  0  0  0  0
  143.7624  132.7049  152.5228 H   0  0  0  0  0  0  0  0  0  0  0  0
  142.6287  135.4874  153.1949 H   0  0  0  0  0  0  0  0  0  0  0  0
  141.9889  134.0122  153.8718 H   0  0  0  0  0  0  0  0  0  0  0  0
  143.6164  134.0056  155.3839 H   0  0  0  0  0  0  0  0  0  0  0  0
  1  2  2  0  0  0  0
  2  3  1  0  0  0  0
  2 16  1  0  0  0  0
  3  4  1  0  0  0  0
  3 25  1  0  0  0  0
  4 15  1  0  0  0  0
  4  5  2  0  0  0  0
  5  6  1  0  0  0  0
  5 26  1  0  0  0  0
  6  7  2  0  0  0  0
  6 27  1  0  0  0  0
  7  8  1  0  0  0  0
  7 14  1  0  0  0  0
  8  9  1  0  0  0  0
  9 10  1  0  0  0  0
  9 28  1  0  0  0  0
  9 29  1  0  0  0  0
 10 11  1  0  0  0  0
 10 12  1  0  0  0  0
 10 13  1  0  0  0  0
 14 15  2  0  0  0  0
 15 30  1  0  0  0  0
 16 17  1  0  0  0  0
 16 31  1  0  0  0  0
 17 23  1  0  0  0  0
 17 18  1  0  0  0  0
 17 32  1  0  0  0  0
 18 19  1  0  0  0  0
 18 33  1  0  0  0  0
 18 34  1  0  0  0  0
 19 20  1  0  0  0  0
 19 35  1  0  0  0  0
 19 36  1  0  0  0  0
 20 21  1  0  0  0  0
 20 37  1  0  0  0  0
 20 38  1  0  0  0  0
 21 22  1  0  0  0  0
 21 39  1  0  0  0  0
 21 40  1  0  0  0  0
 22 23  1  0  0  0  0
 22 41  1  0  0  0  0
 23 24  2  0  0  0  0
M  END
> <s_m_source_file>
AV-unprocessed.smi

> <i_m_source_file_index>
1159

> <i_lp_mmshare_version>
43012

> <i_f3d_flags>
0

> <s_epik_input>
Tz1DMVtOSF1bQ0gyXVtDSDJdW0NIMl1bQ0gyXVtDQEhdMVtOSF1DKD1PKVtOSF1jMltjSF1bY0hdYyhuW2NIXTIpT1tDSDJdQyhGKShGKUY=

> <s_epik_cmdline>
J2VwaWtfcHl0aG9uJywgJy1waCcsICc3LjAnLCAnLXRuJywgJzgnLCAnLW1hJywgJzIwMCcsICctbWV0YWxfYmluZGluZycsICctaW1hZScsICc8aW5maWxlLm1hZT4nLCAnLW9tYWUnLCAnPG91dGZpbGUubWFlPic=

> <r_lp_tautomer_probability>
1

> <r_epik_Ionization_Penalty>
3.53205e-05

> <r_epik_Ionization_Penalty_Charging>
0

> <r_epik_Ionization_Penalty_Neutral>
3.53205e-05

> <r_epik_State_Penalty>
-0

> <r_epik_Charging_Adjusted_Penalty>
0

> <i_epik_Tot_Q>
0

> <i_epik_Tot_abs_Q>
0

> <r_epik_Metal_State_Penalty>
-0

> <b_epik_Metal_Only>
0

> <s_lp_Force_Field>
OPLS_2005

> <r_lp_Energy>
11.134

> <b_lp_Chiralities_Consistent>
1

> <s_lp_Variant>
AV-unprocessed.smi:1159-2

> <Gold.Version>
5.8.1

> <Gold.Id.Protein>
6NUR|6NUR_protein|mol2

> <Gold.PLP.Fitness>
45.2470

> <Gold.PLP.PLP>
-35.9868

> <Gold.PLP.part.hbond>
-3.3527

> <Gold.PLP.part.metal>
0.0000

> <Gold.PLP.part.buried>
-4.3329

> <Gold.PLP.part.nonpolar>
-28.1116

> <Gold.PLP.part.repulsive>
0.2299

> <Gold.PLP.ligand.clash>
0.5975

> <Gold.PLP.ligand.torsion>
0.3517

> <Gold.PLP.Chemscore.Hbond>
2.6280

> <Gold.PLP.Chemscore.CHOScore>
0.8797

> <Gold.PLP.Chemscore.Metal>
0.0000

> <Gold.Chemscore.Hbonds>
donor molecule, donor type, donor heavy atom, donor atom, acceptor molecule, acceptor atom, score
      L1  H     3    25       P1  7948  0.91
      L1  H    16    31       P1  7948  0.99
      P1  H  7989  7998       L1    14  0.70
      L1  C    15    30       P1  7957  0.97

> <Gold.PLP.Chemscore.Internal.Correction>
0.0382

> <Gold.Rescore>
     Score         DG    S(hbond)    S(metal)    S(lipo)     H(rot)  DE(clash)    DE(int)     intcor
     14.52     -15.49       2.48        0.00      54.28       1.81       0.07       0.90       ----

> <Gold.Chemscore.Fitness>
14.5229

> <Gold.Chemscore.DG>
-15.4911

> <Gold.Chemscore.ZeroCoef>
-5.4800

> <Gold.Chemscore.Hbond>
2.4802

> <Gold.Chemscore.Metal>
0.0000

> <Gold.Chemscore.Lipo>
54.2820

> <Gold.Chemscore.Internal_Hbond>
0.0000

> <Gold.Chemscore.DEClash>
0.0696

> <Gold.Chemscore.DEInternal>
0.8986

> <Gold.Chemscore.Rot>
1.8062

> <Gold.Chemscore.Internal.Correction>
   9.000000E+99

> <Gold.Chemscore.Hbonds>
donor molecule, donor type, donor heavy atom, donor atom, acceptor molecule, acceptor atom, score
      L1  H     3    25       P1  7948  0.89
      L1  H    16    31       P1  7948  0.94
      P1  H  7989  7998       L1    14  0.07

> <Gold.Chemscore.Hbond.Weighted>
-8.2839

> <Gold.Chemscore.Metal.Weighted>
-0.0000

> <Gold.Chemscore.Lipo.Weighted>
-6.3510

> <Gold.Chemscore.Internal_Hbond.Weighted>
0.0000

> <Gold.Chemscore.DEClash.Weighted>
0.0696

> <Gold.Chemscore.DEInternal.Weighted>
0.8986

> <Gold.Chemscore.Rot.Weighted>
4.6238

> <Gold.Chemscore.Internal.Correction.Weighted>
   9.000000E+99

> <Gold.Protein.RotatedTorsions>
[ 6907 6896 6895 6894 ] final  -87.19 input  -60.11 | X-H torsion
[ 7974 7965 7964 7962 ] final  -84.94 input  175.53 | X-H torsion
[ 8008 7997 7996 7995 ] final  -13.75 input   59.86 | X-H torsion
[ 10167 10162 10161 10158 ] final   -6.06 input  -65.29 | X-H torsion
[ 10718 10713 10712 10709 ] final  100.29 input   66.30 | X-H torsion
[ 10763 10752 10751 10750 ] final  140.08 input  -60.55 | X-H torsion
[ 11005 11000 10999 10996 ] final -138.06 input  -57.11 | X-H torsion

> <Gold.Protein.ActiveResidues>
 VAL166  LYS551  ARG553  GLY616  TRP617  ASP618  TYR619  PRO620  LYS621  CYS622 
 ASP623  PHE694  ASN695  SER759  ASP760  ASP761  ALA762  ILE779  LEU786  VAL792 
 PHE793  MET794  SER795  GLU796  ALA797  LYS798  CYS799  TRP800  GLU811  SER814 

> <Gold.Protein.RotatedAtoms>
  150.6866  134.2934  159.4676 H   0  0  0  0  0  0  0  0  0  0  0  0  # atno 6907 bound_to 6896
  152.0837  134.9451  160.0582 H   0  0  0  0  0  0  0  0  0  0  0  0  # atno 6908 bound_to 6896
  152.0794  133.4110  159.4531 H   0  0  0  0  0  0  0  0  0  0  0  0  # atno 6909 bound_to 6896
  145.4998  140.9548  143.1766 H   0  0  0  0  0  0  0  0  0  0  0  0  # atno 7974 bound_to 7965
  154.5267  140.2241  155.8878 H   0  0  0  0  0  0  0  0  0  0  0  0  # atno 8008 bound_to 7997
  156.1720  140.3119  155.8956 H   0  0  0  0  0  0  0  0  0  0  0  0  # atno 8009 bound_to 7997
  155.3537  140.0457  157.3037 H   0  0  0  0  0  0  0  0  0  0  0  0  # atno 8010 bound_to 7997
  140.6984  143.6237  150.8588 H   0  0  0  0  0  0  0  0  0  0  0  0  # atno 10167 bound_to 10162
  157.6857  131.0694  150.5079 H   0  0  0  0  0  0  0  0  0  0  0  0  # atno 10718 bound_to 10713
  153.9167  135.3005  155.3448 H   0  0  0  0  0  0  0  0  0  0  0  0  # atno 10763 bound_to 10752
  154.7596  135.4940  153.9442 H   0  0  0  0  0  0  0  0  0  0  0  0  # atno 10764 bound_to 10752
  153.1163  135.6771  153.9514 H   0  0  0  0  0  0  0  0  0  0  0  0  # atno 10765 bound_to 10752
  140.8652  134.2120  157.4684 H   0  0  0  0  0  0  0  0  0  0  0  0  # atno 11005 bound_to 11000
  144.7786  139.6575  143.7164 LP  0  0  0  0  0  0  0  0  0  0  0  0  # atno 17320 bound_to 7965
  146.2233  139.5675  142.9604 LP  0  0  0  0  0  0  0  0  0  0  0  0  # atno 17321 bound_to 7965
  139.9957  143.5798  152.2894 LP  0  0  0  0  0  0  0  0  0  0  0  0  # atno 17342 bound_to 10162
  139.6470  144.7658  151.2224 LP  0  0  0  0  0  0  0  0  0  0  0  0  # atno 17343 bound_to 10162
  156.5397  130.4205  149.6160 LP  0  0  0  0  0  0  0  0  0  0  0  0  # atno 17370 bound_to 10713
  156.2996  130.7169  151.2038 LP  0  0  0  0  0  0  0  0  0  0  0  0  # atno 17371 bound_to 10713
  139.8709  134.9748  156.4860 LP  0  0  0  0  0  0  0  0  0  0  0  0  # atno 17394 bound_to 11000
  140.8637  133.8040  155.9292 LP  0  0  0  0  0  0  0  0  0  0  0  0  # atno 17395 bound_to 11000

$$$$
