#       Name:                AV-unprocessed.smi:227
#       Creating user name   scv26
#       Creation time:       Thu Mar 26 20:24:40 2020


#       File generated by GOLD software.
#

@<TRIPOS>MOLECULE
AV-unprocessed.smi:227
    64    68     1
SMALL
NO_CHARGES


@<TRIPOS>ATOM
      1 ****        -1.4934   3.7121  -2.0727 O.3            1 S1                 0.0000
      2 ****        -2.0050   3.1318  -0.8911 C.3            1 S1                 0.0000
      3 ****        -1.3432   3.7495   0.3638 C.3            1 S1                 0.0000
      4 ****         0.1926   3.5169   0.3954 C.3            1 S1                 0.0000
      5 ****         0.5870   2.1153   0.3908 N.pl3          1 S1                 0.0000
      6 ****         0.7227   1.2897   1.4831 C.2            1 S1                 0.0000
      7 ****         1.0875   0.0673   1.2136 N.2            1 S1                 0.0000
      8 ****         1.2282   0.0415  -0.1692 C.ar           1 S1                 0.0000
      9 ****         1.5923  -0.9557  -1.1234 C.ar           1 S1                 0.0000
     10 ****         1.9049  -2.2470  -0.8207 N.3            1 S1                 0.0000
     11 ****         1.2946  -2.9331   0.3094 C.3            1 S1                 0.0000
     12 ****        -0.1479  -3.2091  -0.1585 C.3            1 S1                 0.0000
     13 ****         0.0700  -3.4622  -1.6581 C.3            1 S1                 0.0000
     14 ****         1.6044  -3.3080  -1.7741 C.3            1 S1                 0.0000
     15 ****         2.3498  -4.5049  -1.1411 C.3            1 S1                 0.0000
     16 ****         1.9906  -5.9151  -1.6470 C.3            1 S1                 0.0000
     17 ****         2.2651  -6.0274  -3.0271 O.3            1 S1                 0.0000
     18 ****         2.0654  -4.2652   0.3518 C.3            1 S1                 0.0000
     19 ****         1.6510  -0.5726  -2.4266 N.ar           1 S1                 0.0000
     20 ****         1.3561   0.6796  -2.7832 C.ar           1 S1                 0.0000
     21 ****         0.9863   1.6999  -2.0094 N.ar           1 S1                 0.0000
     22 ****         0.9344   1.3326  -0.6976 C.ar           1 S1                 0.0000
     23 ****        -2.0431   3.2633   1.6605 C.3            1 S1                 0.0000
     24 ****        -1.5602   3.9385   2.9335 C.3            1 S1                 0.0000
     25 ****        -2.6865   3.6262   3.9115 C.3            1 S1                 0.0000
     26 ****        -3.8735   3.5979   3.1281 O.3            1 S1                 0.0000
     27 ****        -3.5419   3.5772   1.7431 C.3            1 S1                 0.0000
     28 ****        -0.5775   3.4879  -2.1444 H              1 S1                 0.0000
     29 ****        -3.0797   3.3105  -0.8924 H              1 S1                 0.0000
     30 ****        -1.8673   2.0508  -0.9251 H              1 S1                 0.0000
     31 ****        -1.4957   4.8284   0.3064 H              1 S1                 0.0000
     32 ****         0.6601   4.0036  -0.4610 H              1 S1                 0.0000
     33 ****         0.6356   3.9928   1.2702 H              1 S1                 0.0000
     34 ****         0.5374   1.6193   2.4944 H              1 S1                 0.0000
     35 ****         1.3490  -2.4156   1.2651 H              1 S1                 0.0000
     36 ****        -0.6024  -4.0574   0.3543 H              1 S1                 0.0000
     37 ****        -0.7859  -2.3380  -0.0034 H              1 S1                 0.0000
     38 ****        -0.3055  -4.4278  -1.9926 H              1 S1                 0.0000
     39 ****        -0.4387  -2.6977  -2.2465 H              1 S1                 0.0000
     40 ****         1.9388  -3.1121  -2.7935 H              1 S1                 0.0000
     41 ****         3.4182  -4.3542  -1.3075 H              1 S1                 0.0000
     42 ****         2.5861  -6.6593  -1.1175 H              1 S1                 0.0000
     43 ****         0.9473  -6.1652  -1.4588 H              1 S1                 0.0000
     44 ****         3.1842  -5.8564  -3.1659 H              1 S1                 0.0000
     45 ****         2.9988  -4.1617   0.9065 H              1 S1                 0.0000
     46 ****         1.4862  -5.0639   0.8168 H              1 S1                 0.0000
     47 ****         1.4261   0.8936  -3.8395 H              1 S1                 0.0000
     48 ****        -1.9200   2.1846   1.7660 H              1 S1                 0.0000
     49 ****        -0.5951   3.5751   3.2848 H              1 S1                 0.0000
     50 ****        -1.4830   5.0168   2.7866 H              1 S1                 0.0000
     51 ****        -2.5406   2.6415   4.3574 H              1 S1                 0.0000
     52 ****        -2.7554   4.3572   4.7173 H              1 S1                 0.0000
     53 ****        -3.7554   4.5627   1.3266 H              1 S1                 0.0000
     54 ****        -4.1518   2.8468   1.2111 H              1 S1                 0.0000
     55 ****        -1.5953   4.7060  -2.0320 LP             1 S1                 0.0000
     56 ****        -1.9905   3.3582  -2.8650 LP             1 S1                 0.0000
     57 ****         1.2334  -0.6837   1.8576 LP             1 S1                 0.0000
     58 ****         2.8582  -1.9666  -0.7091 LP             1 S1                 0.0000
     59 ****         1.7180  -5.3619  -3.5348 LP             1 S1                 0.0000
     60 ****         2.0428  -6.9505  -3.3410 LP             1 S1                 0.0000
     61 ****         1.9179  -1.2361  -3.1256 LP             1 S1                 0.0000
     62 ****         0.7742   2.6168  -2.3476 LP             1 S1                 0.0000
     63 ****        -4.4203   4.4115   3.3257 LP             1 S1                 0.0000
     64 ****        -4.4006   2.7789   3.3548 LP             1 S1                 0.0000
@<TRIPOS>BOND
    1    1    2 1     
    2    1   28 1     
    3    2    3 1     
    4    2   29 1     
    5    2   30 1     
    6    3    4 1     
    7    3   23 1     
    8    3   31 1     
    9    4    5 1     
   10    4   32 1     
   11    4   33 1     
   12    5   22 1     
   13    5    6 1     
   14    6    7 2     
   15    6   34 1     
   16    7    8 1     
   17    8   22 ar    
   18    8    9 ar    
   19    9   10 1     
   20    9   19 ar    
   21   10   14 1     
   22   10   11 1     
   23   11   18 1     
   24   11   12 1     
   25   11   35 1     
   26   12   13 1     
   27   12   36 1     
   28   12   37 1     
   29   13   14 1     
   30   13   38 1     
   31   13   39 1     
   32   14   15 1     
   33   14   40 1     
   34   15   16 1     
   35   15   18 1     
   36   15   41 1     
   37   16   17 1     
   38   16   42 1     
   39   16   43 1     
   40   17   44 1     
   41   18   45 1     
   42   18   46 1     
   43   19   20 ar    
   44   20   21 ar    
   45   20   47 1     
   46   21   22 ar    
   47   23   27 1     
   48   23   24 1     
   49   23   48 1     
   50   24   25 1     
   51   24   49 1     
   52   24   50 1     
   53   25   26 1     
   54   25   51 1     
   55   25   52 1     
   56   26   27 1     
   57   27   53 1     
   58   27   54 1     
   59    1   55 1     
   60    1   56 1     
   61    7   57 1     
   62   10   58 1     
   63   17   59 1     
   64   17   60 1     
   65   19   61 1     
   66   21   62 1     
   67   26   63 1     
   68   26   64 1     
@<TRIPOS>SUBSTRUCTURE
      1 S1             1
@<TRIPOS>SET
LONE_PAIRS      STATIC     ATOMS    <user>   **** ""
10 55 56 57 58 59 60 61 62 63 64
DONOR_HYDROGENS      STATIC     ATOMS    <user>   **** ""
2 28 44
ATOM$BLUE        STATIC     ATOMS    COLORGROUP SYSTEM
10 55 56 57 58 59 60 61 62 63 64
ATOM$RED        STATIC     ATOMS    COLORGROUP SYSTEM
2 28 44
