AV-unprocessed.smi:379|AV-procd|sdf|2459|dock10
  -GOLD-   2262022403D 1   1.00000     0.00000
 Structure written by MMmdl.
 39 40  0  0  0  0  0  0  0  0  1 V2000
  153.4068  142.2711  161.1321 C   0  0  0  0  0  0  0  0  0  0  0  0
  153.1568  142.5756  159.6476 C   0  0  0  0  0  0  0  0  0  0  0  0
  151.8956  143.4216  159.3787 C   0  0  1  0  0  0  0  0  0  0  0  0
  152.1254  144.8996  159.7237 C   0  0  0  0  0  0  0  0  0  0  0  0
  151.4857  143.3168  157.9793 N   0  0  0  0  0  0  0  0  0  0  0  0
  151.0456  142.2057  157.3679 C   0  0  0  0  0  0  0  0  0  0  0  0
  150.9186  141.1220  157.9397 O   0  0  0  0  0  0  0  0  0  0  0  0
  150.6945  142.3548  155.8802 C   0  0  0  0  0  0  0  0  0  0  0  0
  150.2230  141.0948  155.2654 N   0  0  0  0  0  0  0  0  0  0  0  0
  151.0579  139.9510  155.3500 C   0  0  0  0  0  0  0  0  0  0  0  0
  152.1604  140.0094  155.8979 O   0  0  0  0  0  0  0  0  0  0  0  0
  150.5124  138.7289  154.7645 C   0  0  0  0  0  0  0  0  0  0  0  0
  151.3085  137.5505  154.8586 C   0  0  0  0  0  0  0  0  0  0  0  0
  151.9524  136.5941  154.9595 N   0  0  0  0  0  0  0  0  0  0  0  0
  149.3028  138.7243  154.1677 C   0  0  0  0  0  0  0  0  0  0  0  0
  148.5239  139.8560  154.0618 N   0  0  0  0  0  0  0  0  0  0  0  0
  147.1782  139.7943  153.5652 C   0  0  0  0  0  0  0  0  0  0  0  0
  146.5793  138.4447  153.2343 C   0  0  0  0  0  0  0  0  0  0  0  0
  146.9119  139.4098  152.1227 C   0  0  0  0  0  0  0  0  0  0  0  0
  148.9439  141.0651  154.6587 C   0  0  0  0  0  0  0  0  0  0  0  0
  148.2161  142.0611  154.6622 O   0  0  0  0  0  0  0  0  0  0  0  0
  154.3495  141.7397  161.2634 H   0  0  0  0  0  0  0  0  0  0  0  0
  152.6186  141.6461  161.5525 H   0  0  0  0  0  0  0  0  0  0  0  0
  153.4575  143.1884  161.7192 H   0  0  0  0  0  0  0  0  0  0  0  0
  154.0263  143.1030  159.2534 H   0  0  0  0  0  0  0  0  0  0  0  0
  153.0976  141.6371  159.0946 H   0  0  0  0  0  0  0  0  0  0  0  0
  151.0971  143.0596  160.0289 H   0  0  0  0  0  0  0  0  0  0  0  0
  152.4002  145.0191  160.7721 H   0  0  0  0  0  0  0  0  0  0  0  0
  151.2237  145.4885  159.5517 H   0  0  0  0  0  0  0  0  0  0  0  0
  152.9249  145.3299  159.1194 H   0  0  0  0  0  0  0  0  0  0  0  0
  151.5543  144.1589  157.4263 H   0  0  0  0  0  0  0  0  0  0  0  0
  149.9553  143.1509  155.7840 H   0  0  0  0  0  0  0  0  0  0  0  0
  151.5644  142.7357  155.3416 H   0  0  0  0  0  0  0  0  0  0  0  0
  148.9291  137.8000  153.7510 H   0  0  0  0  0  0  0  0  0  0  0  0
  146.4925  140.5228  153.9945 H   0  0  0  0  0  0  0  0  0  0  0  0
  147.2113  137.5640  153.3338 H   0  0  0  0  0  0  0  0  0  0  0  0
  145.5280  138.2916  153.4696 H   0  0  0  0  0  0  0  0  0  0  0  0
  146.0831  139.9020  151.6180 H   0  0  0  0  0  0  0  0  0  0  0  0
  147.7621  139.1633  151.4891 H   0  0  0  0  0  0  0  0  0  0  0  0
  1  2  1  0  0  0  0
  1 22  1  0  0  0  0
  1 23  1  0  0  0  0
  1 24  1  0  0  0  0
  2  3  1  0  0  0  0
  2 25  1  0  0  0  0
  2 26  1  0  0  0  0
  3  4  1  0  0  0  0
  3  5  1  0  0  0  0
  3 27  1  0  0  0  0
  4 28  1  0  0  0  0
  4 29  1  0  0  0  0
  4 30  1  0  0  0  0
  5  6  1  0  0  0  0
  5 31  1  0  0  0  0
  6  7  2  0  0  0  0
  6  8  1  0  0  0  0
  8  9  1  0  0  0  0
  8 32  1  0  0  0  0
  8 33  1  0  0  0  0
  9 20  1  0  0  0  0
  9 10  1  0  0  0  0
 10 11  2  0  0  0  0
 10 12  1  0  0  0  0
 12 13  1  0  0  0  0
 12 15  2  0  0  0  0
 13 14  3  0  0  0  0
 15 16  1  0  0  0  0
 15 34  1  0  0  0  0
 16 17  1  0  0  0  0
 16 20  1  0  0  0  0
 17 19  1  0  0  0  0
 17 18  1  0  0  0  0
 17 35  1  0  0  0  0
 18 19  1  0  0  0  0
 18 36  1  0  0  0  0
 18 37  1  0  0  0  0
 19 38  1  0  0  0  0
 19 39  1  0  0  0  0
 20 21  2  0  0  0  0
M  END
> <s_m_source_file>
AV-unprocessed.smi

> <i_m_source_file_index>
379

> <i_lp_mmshare_version>
43012

> <i_f3d_flags>
0

> <s_epik_input>
W0NIM11bQ0gyXVtDQEhdKFtDSDNdKVtOSF1DKD1PKVtDSDJdbjFjKD1PKWMoQyNOKVtjSF1uKGMxPU8pW0NIXTJbQ0gyXVtDSDJdMg==

> <s_epik_cmdline>
J2VwaWtfcHl0aG9uJywgJy1waCcsICc3LjAnLCAnLXRuJywgJzgnLCAnLW1hJywgJzIwMCcsICctbWV0YWxfYmluZGluZycsICctaW1hZScsICc8aW5maWxlLm1hZT4nLCAnLW9tYWUnLCAnPG91dGZpbGUubWFlPic=

> <r_lp_tautomer_probability>
1

> <r_epik_Ionization_Penalty>
1.93863e-08

> <r_epik_Ionization_Penalty_Charging>
8.45512e-11

> <r_epik_Ionization_Penalty_Neutral>
1.93017e-08

> <r_epik_State_Penalty>
-0

> <r_epik_Charging_Adjusted_Penalty>
8.45512e-11

> <i_epik_Tot_Q>
0

> <i_epik_Tot_abs_Q>
0

> <r_epik_Metal_State_Penalty>
-0

> <b_epik_Metal_Only>
0

> <s_lp_Force_Field>
OPLS_2005

> <r_lp_Energy>
29.1248

> <b_lp_Chiralities_Consistent>
1

> <s_lp_Variant>
AV-unprocessed.smi:379-2

> <Gold.Version>
5.8.1

> <Gold.Id.Protein>
6NUR|6NUR_protein|mol2

> <Gold.PLP.Fitness>
49.7867

> <Gold.PLP.PLP>
-42.7401

> <Gold.PLP.part.hbond>
-1.1459

> <Gold.PLP.part.metal>
0.0000

> <Gold.PLP.part.buried>
-0.8975

> <Gold.PLP.part.nonpolar>
-41.1134

> <Gold.PLP.part.repulsive>
1.6190

> <Gold.PLP.ligand.clash>
0.0000

> <Gold.PLP.ligand.torsion>
0.3337

> <Gold.PLP.Chemscore.Hbond>
1.4958

> <Gold.PLP.Chemscore.CHOScore>
1.0000

> <Gold.PLP.Chemscore.Metal>
0.0000

> <Gold.Chemscore.Hbonds>
donor molecule, donor type, donor heavy atom, donor atom, acceptor molecule, acceptor atom, score
      P1  H  7997  8008       L1    11  0.55
      P1  H 10752 10763       L1    14  0.89
      L1  C    15    34       P1  7948  1.00

> <Gold.PLP.Chemscore.Internal.Correction>
0.2267

> <Gold.Rescore>
     Score         DG    S(hbond)    S(metal)    S(lipo)     H(rot)  DE(clash)    DE(int)     intcor
     11.53     -15.57       1.64        0.00      82.81       1.98       0.43       3.61       ----

> <Gold.Chemscore.Fitness>
11.5297

> <Gold.Chemscore.DG>
-15.5695

> <Gold.Chemscore.ZeroCoef>
-5.4800

> <Gold.Chemscore.Hbond>
1.6357

> <Gold.Chemscore.Metal>
0.0000

> <Gold.Chemscore.Lipo>
82.8081

> <Gold.Chemscore.Internal_Hbond>
0.0000

> <Gold.Chemscore.DEClash>
0.4324

> <Gold.Chemscore.DEInternal>
3.6074

> <Gold.Chemscore.Rot>
1.9774

> <Gold.Chemscore.Internal.Correction>
   9.000000E+99

> <Gold.Chemscore.Hbonds>
donor molecule, donor type, donor heavy atom, donor atom, acceptor molecule, acceptor atom, score
      P1  H  7997  8008       L1    11  0.56
      P1  H 10752 10763       L1    14  0.82

> <Gold.Chemscore.Hbond.Weighted>
-5.4633

> <Gold.Chemscore.Metal.Weighted>
-0.0000

> <Gold.Chemscore.Lipo.Weighted>
-9.6886

> <Gold.Chemscore.Internal_Hbond.Weighted>
0.0000

> <Gold.Chemscore.DEClash.Weighted>
0.4324

> <Gold.Chemscore.DEInternal.Weighted>
3.6074

> <Gold.Chemscore.Rot.Weighted>
5.0623

> <Gold.Chemscore.Internal.Correction.Weighted>
   9.000000E+99

> <Gold.Protein.RotatedTorsions>
[ 6907 6896 6895 6894 ] final -179.06 input  -60.11 | X-H torsion
[ 7974 7965 7964 7962 ] final   23.23 input  175.53 | X-H torsion
[ 8008 7997 7996 7995 ] final  -36.92 input   59.86 | X-H torsion
[ 10167 10162 10161 10158 ] final  128.45 input  -65.29 | X-H torsion
[ 10718 10713 10712 10709 ] final -101.71 input   66.30 | X-H torsion
[ 10763 10752 10751 10750 ] final   45.67 input  -60.55 | X-H torsion
[ 11005 11000 10999 10996 ] final   62.19 input  -57.11 | X-H torsion

> <Gold.Protein.ActiveResidues>
 VAL166  LYS551  ARG553  GLY616  TRP617  ASP618  TYR619  PRO620  LYS621  CYS622 
 ASP623  PHE694  ASN695  SER759  ASP760  ASP761  ALA762  ILE779  LEU786  VAL792 
 PHE793  MET794  SER795  GLU796  ALA797  LYS798  CYS799  TRP800  GLU811  SER814 

> <Gold.Protein.RotatedAtoms>
  151.6474  133.3322  159.3143 H   0  0  0  0  0  0  0  0  0  0  0  0  # atno 6907 bound_to 6896
  150.7977  134.7053  159.6582 H   0  0  0  0  0  0  0  0  0  0  0  0  # atno 6908 bound_to 6896
  152.4066  134.6200  160.0099 H   0  0  0  0  0  0  0  0  0  0  0  0  # atno 6909 bound_to 6896
  146.1994  139.7774  142.8773 H   0  0  0  0  0  0  0  0  0  0  0  0  # atno 7974 bound_to 7965
  154.4063  140.1618  156.2453 H   0  0  0  0  0  0  0  0  0  0  0  0  # atno 8008 bound_to 7997
  155.9166  140.3424  155.6117 H   0  0  0  0  0  0  0  0  0  0  0  0  # atno 8009 bound_to 7997
  155.7272  140.0776  157.2295 H   0  0  0  0  0  0  0  0  0  0  0  0  # atno 8010 bound_to 7997
  139.5526  144.6825  151.4277 H   0  0  0  0  0  0  0  0  0  0  0  0  # atno 10167 bound_to 10162
  156.0204  130.5386  150.7003 H   0  0  0  0  0  0  0  0  0  0  0  0  # atno 10718 bound_to 10713
  152.9821  135.6032  154.3474 H   0  0  0  0  0  0  0  0  0  0  0  0  # atno 10763 bound_to 10752
  154.3166  135.2770  155.2542 H   0  0  0  0  0  0  0  0  0  0  0  0  # atno 10764 bound_to 10752
  154.4727  135.5937  153.6389 H   0  0  0  0  0  0  0  0  0  0  0  0  # atno 10765 bound_to 10752
  140.0109  134.6297  155.9782 H   0  0  0  0  0  0  0  0  0  0  0  0  # atno 11005 bound_to 11000
  145.3536  141.0312  143.3324 LP  0  0  0  0  0  0  0  0  0  0  0  0  # atno 17320 bound_to 7965
  144.8649  139.5122  143.6795 LP  0  0  0  0  0  0  0  0  0  0  0  0  # atno 17321 bound_to 7965
  140.6792  143.8120  150.7099 LP  0  0  0  0  0  0  0  0  0  0  0  0  # atno 17342 bound_to 10162
  140.1568  143.4310  152.2094 LP  0  0  0  0  0  0  0  0  0  0  0  0  # atno 17343 bound_to 10162
  157.4665  131.0888  151.0689 LP  0  0  0  0  0  0  0  0  0  0  0  0  # atno 17370 bound_to 10713
  157.1162  130.6042  149.5494 LP  0  0  0  0  0  0  0  0  0  0  0  0  # atno 17371 bound_to 10713
  141.1710  133.6537  156.4652 LP  0  0  0  0  0  0  0  0  0  0  0  0  # atno 17394 bound_to 11000
  140.4556  134.6889  157.5061 LP  0  0  0  0  0  0  0  0  0  0  0  0  # atno 17395 bound_to 11000

$$$$
