AV-unprocessed.smi:749|AV-procd|sdf|3586|dock5
  -GOLD-   22720 0583D 1   1.00000     0.00000
 Structure written by MMmdl.
 42 43  0  0  0  0  0  0  0  0  2 V2000
  153.5241  142.6065  160.4399 C   0  0  0  0  0  0  0  0  0  0  0  0
  152.5540  142.2004  159.4216 N   0  0  0  0  0  0  0  0  0  0  0  0
  152.1007  140.8044  159.5223 C   0  0  0  0  0  0  0  0  0  0  0  0
  151.3868  140.2822  158.2639 C   0  0  1  0  0  0  0  0  0  0  0  0
  150.7161  139.0214  158.5665 N   0  0  0  0  0  0  0  0  0  0  0  0
  151.3085  137.8304  158.7828 C   0  0  0  0  0  0  0  0  0  0  0  0
  152.5354  137.7564  158.7247 O   0  0  0  0  0  0  0  0  0  0  0  0
  150.5100  136.7642  159.0553 N   0  5  0  0  0  0  0  0  0  0  0  0
  149.2682  136.8941  159.5543 C   0  0  0  0  0  0  0  0  0  0  0  0
  148.6789  136.0672  160.5485 C   0  0  0  0  0  0  0  0  0  0  0  0
  147.4309  136.6037  160.7103 C   0  0  0  0  0  0  0  0  0  0  0  0
  146.2649  136.2624  161.5949 C   0  0  0  0  0  0  0  0  0  0  0  0
  145.0250  135.9023  160.7521 C   0  0  0  0  0  0  0  0  0  0  0  0
  145.9125  137.4653  162.4899 C   0  0  0  0  0  0  0  0  0  0  0  0
  146.6153  135.0543  162.4838 C   0  0  0  0  0  0  0  0  0  0  0  0
  147.2725  137.6654  159.8715 O   0  0  0  0  0  0  0  0  0  0  0  0
  148.4475  137.8402  159.1321 N   0  0  0  0  0  0  0  0  0  0  0  0
  150.3825  141.3290  157.7717 C   0  0  0  0  0  0  0  0  0  0  0  0
  151.0992  142.6431  157.4391 C   0  0  0  0  0  0  0  0  0  0  0  0
  152.0872  143.1011  158.5232 C   0  0  0  0  0  0  0  0  0  0  0  0
  152.4488  144.2784  158.5178 O   0  0  0  0  0  0  0  0  0  0  0  0
  154.4688  142.8900  159.9746 H   0  0  0  0  0  0  0  0  0  0  0  0
  153.7323  141.8076  161.1527 H   0  0  0  0  0  0  0  0  0  0  0  0
  153.1542  143.4598  161.0101 H   0  0  0  0  0  0  0  0  0  0  0  0
  152.9478  140.1541  159.7457 H   0  0  0  0  0  0  0  0  0  0  0  0
  151.4281  140.7436  160.3795 H   0  0  0  0  0  0  0  0  0  0  0  0
  152.1372  140.1159  157.4884 H   0  0  0  0  0  0  0  0  0  0  0  0
  149.7082  139.0482  158.6158 H   0  0  0  0  0  0  0  0  0  0  0  0
  149.1092  135.2213  161.0635 H   0  0  0  0  0  0  0  0  0  0  0  0
  144.1723  135.6521  161.3842 H   0  0  0  0  0  0  0  0  0  0  0  0
  145.2169  135.0428  160.1083 H   0  0  0  0  0  0  0  0  0  0  0  0
  144.7242  136.7325  160.1117 H   0  0  0  0  0  0  0  0  0  0  0  0
  145.6540  138.3401  161.8924 H   0  0  0  0  0  0  0  0  0  0  0  0
  146.7482  137.7431  163.1333 H   0  0  0  0  0  0  0  0  0  0  0  0
  145.0623  137.2461  163.1368 H   0  0  0  0  0  0  0  0  0  0  0  0
  145.7805  134.7782  163.1289 H   0  0  0  0  0  0  0  0  0  0  0  0
  147.4687  135.2669  163.1289 H   0  0  0  0  0  0  0  0  0  0  0  0
  146.8694  134.1810  161.8818 H   0  0  0  0  0  0  0  0  0  0  0  0
  149.8586  140.9670  156.8863 H   0  0  0  0  0  0  0  0  0  0  0  0
  149.6201  141.5045  158.5323 H   0  0  0  0  0  0  0  0  0  0  0  0
  151.6606  142.5242  156.5117 H   0  0  0  0  0  0  0  0  0  0  0  0
  150.3658  143.4301  157.2599 H   0  0  0  0  0  0  0  0  0  0  0  0
  1  2  1  0  0  0  0
  1 22  1  0  0  0  0
  1 23  1  0  0  0  0
  1 24  1  0  0  0  0
  2 20  1  0  0  0  0
  2  3  1  0  0  0  0
  3  4  1  0  0  0  0
  3 25  1  0  0  0  0
  3 26  1  0  0  0  0
  4  5  1  0  0  0  0
  4 18  1  0  0  0  0
  4 27  1  0  0  0  0
  5  6  1  0  0  0  0
  5 28  1  0  0  0  0
  6  7  2  0  0  0  0
  6  8  1  0  0  0  0
  8  9  1  0  0  0  0
  9 17  2  0  0  0  0
  9 10  1  0  0  0  0
 10 11  2  0  0  0  0
 10 29  1  0  0  0  0
 11 12  1  0  0  0  0
 11 16  1  0  0  0  0
 12 13  1  0  0  0  0
 12 14  1  0  0  0  0
 12 15  1  0  0  0  0
 13 30  1  0  0  0  0
 13 31  1  0  0  0  0
 13 32  1  0  0  0  0
 14 33  1  0  0  0  0
 14 34  1  0  0  0  0
 14 35  1  0  0  0  0
 15 36  1  0  0  0  0
 15 37  1  0  0  0  0
 15 38  1  0  0  0  0
 16 17  1  0  0  0  0
 18 19  1  0  0  0  0
 18 39  1  0  0  0  0
 18 40  1  0  0  0  0
 19 20  1  0  0  0  0
 19 41  1  0  0  0  0
 19 42  1  0  0  0  0
 20 21  2  0  0  0  0
M  CHG  1   8  -1
M  END
> <s_m_source_file>
AV-unprocessed.smi

> <i_m_source_file_index>
749

> <i_lp_mmshare_version>
43012

> <i_f3d_flags>
0

> <s_epik_input>
Tz1DMVtDSDJdW0NIMl1bQ0BASF0oW0NIMl1OMVtDSDNdKVtOSF1DKD1PKVtOSF1jMltjSF1jKG9uMilDKFtDSDNdKShbQ0gzXSlbQ0gzXQ==

> <s_epik_cmdline>
J2VwaWtfcHl0aG9uJywgJy1waCcsICc3LjAnLCAnLXRuJywgJzgnLCAnLW1hJywgJzIwMCcsICctbWV0YWxfYmluZGluZycsICctaW1hZScsICc8aW5maWxlLm1hZT4nLCAnLW9tYWUnLCAnPG91dGZpbGUubWFlPic=

> <r_lp_tautomer_probability>
1

> <r_epik_Ionization_Penalty>
6.47858

> <r_epik_Ionization_Penalty_Charging>
6.47844

> <r_epik_Ionization_Penalty_Neutral>
0.000138814

> <r_epik_State_Penalty>
6.47843

> <r_epik_Charging_Adjusted_Penalty>
12.9569

> <i_epik_Tot_Q>
-1

> <i_epik_Tot_abs_Q>
1

> <r_epik_Metal_State_Penalty>
2.40644

> <b_epik_Metal_Only>
1

> <s_lp_Force_Field>
OPLS_2005

> <r_lp_Energy>
10.0232

> <b_lp_Chiralities_Consistent>
1

> <s_lp_Variant>
AV-unprocessed.smi:749-3

> <Gold.Version>
5.8.1

> <Gold.Id.Protein>
6NUR|6NUR_protein|mol2

> <Gold.PLP.Fitness>
45.3765

> <Gold.PLP.PLP>
-37.6786

> <Gold.PLP.part.hbond>
-3.0000

> <Gold.PLP.part.metal>
0.0000

> <Gold.PLP.part.buried>
-6.7081

> <Gold.PLP.part.nonpolar>
-28.8085

> <Gold.PLP.part.repulsive>
0.1891

> <Gold.PLP.ligand.clash>
0.0000

> <Gold.PLP.ligand.torsion>
0.5640

> <Gold.PLP.Chemscore.Hbond>
2.9280

> <Gold.PLP.Chemscore.CHOScore>
0.0000

> <Gold.PLP.Chemscore.Metal>
0.0000

> <Gold.Chemscore.Hbonds>
donor molecule, donor type, donor heavy atom, donor atom, acceptor molecule, acceptor atom, score
      P1  H  6896  6907       L1     8  1.73
      P1  H  6934  6947       L1    16  0.90

> <Gold.PLP.Chemscore.Internal.Correction>
0.0419

> <Gold.Rescore>
     Score         DG    S(hbond)    S(metal)    S(lipo)     H(rot)  DE(clash)    DE(int)     intcor
     11.69     -14.07       0.93        0.00      73.58       1.22       0.21       2.16       ----

> <Gold.Chemscore.Fitness>
11.6895

> <Gold.Chemscore.DG>
-14.0654

> <Gold.Chemscore.ZeroCoef>
-5.4800

> <Gold.Chemscore.Hbond>
0.9279

> <Gold.Chemscore.Metal>
0.0000

> <Gold.Chemscore.Lipo>
73.5798

> <Gold.Chemscore.Internal_Hbond>
0.0000

> <Gold.Chemscore.DEClash>
0.2136

> <Gold.Chemscore.DEInternal>
2.1623

> <Gold.Chemscore.Rot>
1.2198

> <Gold.Chemscore.Internal.Correction>
   9.000000E+99

> <Gold.Chemscore.Hbonds>
donor molecule, donor type, donor heavy atom, donor atom, acceptor molecule, acceptor atom, score
      P1  H  6896  6907       L1     8  0.15
      P1  H  6934  6947       L1    16  0.22

> <Gold.Chemscore.Hbond.Weighted>
-3.0993

> <Gold.Chemscore.Metal.Weighted>
-0.0000

> <Gold.Chemscore.Lipo.Weighted>
-8.6088

> <Gold.Chemscore.Internal_Hbond.Weighted>
0.0000

> <Gold.Chemscore.DEClash.Weighted>
0.2136

> <Gold.Chemscore.DEInternal.Weighted>
2.1623

> <Gold.Chemscore.Rot.Weighted>
3.1228

> <Gold.Chemscore.Internal.Correction.Weighted>
   9.000000E+99

> <Gold.Protein.RotatedTorsions>
[ 6907 6896 6895 6894 ] final  -50.24 input  -60.11 | X-H torsion
[ 7974 7965 7964 7962 ] final -111.57 input  175.53 | X-H torsion
[ 8008 7997 7996 7995 ] final  168.69 input   59.86 | X-H torsion
[ 10167 10162 10161 10158 ] final  -26.78 input  -65.29 | X-H torsion
[ 10718 10713 10712 10709 ] final  165.48 input   66.30 | X-H torsion
[ 10763 10752 10751 10750 ] final   90.97 input  -60.55 | X-H torsion
[ 11005 11000 10999 10996 ] final  -69.95 input  -57.11 | X-H torsion

> <Gold.Protein.ActiveResidues>
 VAL166  LYS551  ARG553  GLY616  TRP617  ASP618  TYR619  PRO620  LYS621  CYS622 
 ASP623  PHE694  ASN695  SER759  ASP760  ASP761  ALA762  ILE779  LEU786  VAL792 
 PHE793  MET794  SER795  GLU796  ALA797  LYS798  CYS799  TRP800  GLU811  SER814 

> <Gold.Protein.RotatedAtoms>
  150.8726  134.8103  159.7165 H   0  0  0  0  0  0  0  0  0  0  0  0  # atno 6907 bound_to 6896
  152.4725  134.4922  159.9709 H   0  0  0  0  0  0  0  0  0  0  0  0  # atno 6908 bound_to 6896
  151.5009  133.3466  159.2904 H   0  0  0  0  0  0  0  0  0  0  0  0  # atno 6909 bound_to 6896
  145.1544  140.8846  143.3627 H   0  0  0  0  0  0  0  0  0  0  0  0  # atno 7974 bound_to 7965
  156.1524  140.1584  156.8748 H   0  0  0  0  0  0  0  0  0  0  0  0  # atno 8008 bound_to 7997
  154.5083  140.0807  156.7976 H   0  0  0  0  0  0  0  0  0  0  0  0  # atno 8009 bound_to 7997
  155.3870  140.3408  155.4251 H   0  0  0  0  0  0  0  0  0  0  0  0  # atno 8010 bound_to 7997
  140.7281  143.4149  151.1045 H   0  0  0  0  0  0  0  0  0  0  0  0  # atno 10167 bound_to 10162
  157.0795  131.0388  151.2580 H   0  0  0  0  0  0  0  0  0  0  0  0  # atno 10718 bound_to 10713
  153.2032  135.4414  155.0291 H   0  0  0  0  0  0  0  0  0  0  0  0  # atno 10763 bound_to 10752
  154.8159  135.3315  154.7180 H   0  0  0  0  0  0  0  0  0  0  0  0  # atno 10764 bound_to 10752
  153.7624  135.6990  153.4978 H   0  0  0  0  0  0  0  0  0  0  0  0  # atno 10765 bound_to 10752
  141.1564  133.6777  156.6678 H   0  0  0  0  0  0  0  0  0  0  0  0  # atno 11005 bound_to 11000
  145.0396  139.3271  143.5983 LP  0  0  0  0  0  0  0  0  0  0  0  0  # atno 17320 bound_to 7965
  146.3490  139.9765  142.8700 LP  0  0  0  0  0  0  0  0  0  0  0  0  # atno 17321 bound_to 7965
  139.7787  143.8387  152.3134 LP  0  0  0  0  0  0  0  0  0  0  0  0  # atno 17342 bound_to 10162
  139.8331  144.7245  150.9426 LP  0  0  0  0  0  0  0  0  0  0  0  0  # atno 17343 bound_to 10162
  157.4812  130.7766  149.7416 LP  0  0  0  0  0  0  0  0  0  0  0  0  # atno 17370 bound_to 10713
  155.9927  130.3929  150.2929 LP  0  0  0  0  0  0  0  0  0  0  0  0  # atno 17371 bound_to 10713
  140.3198  134.8017  157.4243 LP  0  0  0  0  0  0  0  0  0  0  0  0  # atno 17394 bound_to 11000
  140.1107  134.5350  155.8269 LP  0  0  0  0  0  0  0  0  0  0  0  0  # atno 17395 bound_to 11000

$$$$
