AV-unprocessed.smi:500|AV-procd|sdf|2737|dock3
  -GOLD-   2262023193D 1   1.00000     0.00000
 Structure written by MMmdl.
 46 48  0  0  0  0  0  0  0  0  2 V2000
  144.4770  144.1364  154.9225 C   0  0  0  0  0  0  0  0  0  0  0  0
  145.2281  142.8217  154.6996 C   0  0  0  0  0  0  0  0  0  0  0  0
  146.4325  143.0902  154.0017 O   0  0  0  0  0  0  0  0  0  0  0  0
  147.0657  141.9133  153.5302 C   0  0  0  0  0  0  0  0  0  0  0  0
  147.4899  141.0665  154.7360 C   0  0  0  0  0  0  0  0  0  0  0  0
  148.3503  139.9435  154.3413 N   0  0  0  0  0  0  0  0  0  0  0  0
  148.0938  138.8725  153.5348 C   0  0  0  0  0  0  0  0  0  0  0  0
  146.7915  138.5643  152.8492 C   0  0  1  0  0  0  0  0  0  0  0  0
  146.4924  139.5203  151.6785 C   0  0  0  0  0  0  0  0  0  0  0  0
  146.6888  137.1635  152.4388 N   0  0  0  0  0  0  0  0  0  0  0  0
  145.5618  136.4770  152.1822 C   0  0  0  0  0  0  0  0  0  0  0  0
  144.4330  136.9579  152.2812 O   0  0  0  0  0  0  0  0  0  0  0  0
  145.7487  135.0783  151.7531 C   0  0  0  0  0  0  0  0  0  0  0  0
  144.9086  134.2071  151.1102 C   0  0  0  0  0  0  0  0  0  0  0  0
  145.6264  132.9893  150.9543 C   0  0  0  0  0  0  0  0  0  0  0  0
  146.8538  133.2026  151.5124 C   0  0  0  0  0  0  0  0  0  0  0  0
  146.9445  134.4690  152.0021 O   0  0  0  0  0  0  0  0  0  0  0  0
  149.2266  138.1115  153.5114 N   0  3  0  0  0  0  0  0  0  0  0  0
  150.2172  138.7088  154.2910 C   0  0  0  0  0  0  0  0  0  0  0  0
  151.5239  138.3162  154.5640 C   0  0  0  0  0  0  0  0  0  0  0  0
  152.2756  139.1617  155.4065 C   0  0  0  0  0  0  0  0  0  0  0  0
  151.7235  140.3435  155.9424 C   0  0  0  0  0  0  0  0  0  0  0  0
  150.3970  140.7301  155.6592 C   0  0  0  0  0  0  0  0  0  0  0  0
  149.6612  139.8881  154.8259 C   0  0  0  0  0  0  0  0  0  0  0  0
  143.5426  143.9645  155.4572 H   0  0  0  0  0  0  0  0  0  0  0  0
  144.2355  144.6152  153.9731 H   0  0  0  0  0  0  0  0  0  0  0  0
  145.0741  144.8355  155.5085 H   0  0  0  0  0  0  0  0  0  0  0  0
  145.4464  142.3509  155.6593 H   0  0  0  0  0  0  0  0  0  0  0  0
  144.6063  142.1322  154.1269 H   0  0  0  0  0  0  0  0  0  0  0  0
  146.3805  141.3467  152.8975 H   0  0  0  0  0  0  0  0  0  0  0  0
  147.9352  142.1746  152.9252 H   0  0  0  0  0  0  0  0  0  0  0  0
  148.0138  141.6698  155.4780 H   0  0  0  0  0  0  0  0  0  0  0  0
  146.6113  140.6585  155.2357 H   0  0  0  0  0  0  0  0  0  0  0  0
  146.0041  138.7125  153.5888 H   0  0  0  0  0  0  0  0  0  0  0  0
  146.4691  140.5567  152.0164 H   0  0  0  0  0  0  0  0  0  0  0  0
  145.5211  139.3006  151.2344 H   0  0  0  0  0  0  0  0  0  0  0  0
  147.2394  139.4471  150.8876 H   0  0  0  0  0  0  0  0  0  0  0  0
  147.5620  136.6694  152.3249 H   0  0  0  0  0  0  0  0  0  0  0  0
  143.8986  134.4174  150.7902 H   0  0  0  0  0  0  0  0  0  0  0  0
  145.2879  132.0733  150.4931 H   0  0  0  0  0  0  0  0  0  0  0  0
  147.7366  132.5934  151.6404 H   0  0  0  0  0  0  0  0  0  0  0  0
  151.9485  137.4109  154.1552 H   0  0  0  0  0  0  0  0  0  0  0  0
  153.2956  138.8986  155.6467 H   0  0  0  0  0  0  0  0  0  0  0  0
  152.3295  140.9663  156.5845 H   0  0  0  0  0  0  0  0  0  0  0  0
  149.9832  141.6375  156.0738 H   0  0  0  0  0  0  0  0  0  0  0  0
  149.3079  137.2408  153.0022 H   0  0  0  0  0  0  0  0  0  0  0  0
  1  2  1  0  0  0  0
  1 25  1  0  0  0  0
  1 26  1  0  0  0  0
  1 27  1  0  0  0  0
  2  3  1  0  0  0  0
  2 28  1  0  0  0  0
  2 29  1  0  0  0  0
  3  4  1  0  0  0  0
  4  5  1  0  0  0  0
  4 30  1  0  0  0  0
  4 31  1  0  0  0  0
  5  6  1  0  0  0  0
  5 32  1  0  0  0  0
  5 33  1  0  0  0  0
  6 24  1  0  0  0  0
  6  7  1  0  0  0  0
  7  8  1  0  0  0  0
  7 18  2  0  0  0  0
  8  9  1  0  0  0  0
  8 10  1  0  0  0  0
  8 34  1  0  0  0  0
  9 35  1  0  0  0  0
  9 36  1  0  0  0  0
  9 37  1  0  0  0  0
 10 11  1  0  0  0  0
 10 38  1  0  0  0  0
 11 12  2  0  0  0  0
 11 13  1  0  0  0  0
 13 17  1  0  0  0  0
 13 14  2  0  0  0  0
 14 15  1  0  0  0  0
 14 39  1  0  0  0  0
 15 16  2  0  0  0  0
 15 40  1  0  0  0  0
 16 17  1  0  0  0  0
 16 41  1  0  0  0  0
 18 19  1  0  0  0  0
 18 46  1  0  0  0  0
 19 24  2  0  0  0  0
 19 20  1  0  0  0  0
 20 21  2  0  0  0  0
 20 42  1  0  0  0  0
 21 22  1  0  0  0  0
 21 43  1  0  0  0  0
 22 23  2  0  0  0  0
 22 44  1  0  0  0  0
 23 24  1  0  0  0  0
 23 45  1  0  0  0  0
M  CHG  1  18   1
M  END
> <s_m_source_file>
AV-unprocessed.smi

> <i_m_source_file_index>
500

> <i_lp_mmshare_version>
43012

> <i_f3d_flags>
0

> <s_epik_input>
W0NIM11bQ0gyXU9bQ0gyXVtDSDJdbihjKGMxMilbY0hdW2NIXVtjSF1bY0hdMiljKG4xKVtDQEhdKFtDSDNdKVtOSF1DKD1PKWMzW2NIXVtjSF1bY0hdbzM=

> <s_epik_cmdline>
J2VwaWtfcHl0aG9uJywgJy1waCcsICc3LjAnLCAnLXRuJywgJzgnLCAnLW1hJywgJzIwMCcsICctbWV0YWxfYmluZGluZycsICctaW1hZScsICc8aW5maWxlLm1hZT4nLCAnLW9tYWUnLCAnPG91dGZpbGUubWFlPic=

> <r_epik_Ionization_Penalty>
1.05286

> <r_epik_Ionization_Penalty_Charging>
1.05283

> <r_epik_Ionization_Penalty_Neutral>
2.09263e-05

> <r_epik_State_Penalty>
1.10586

> <r_epik_Charging_Adjusted_Penalty>
2.15869

> <i_epik_Tot_Q>
1

> <i_epik_Tot_abs_Q>
1

> <r_epik_Metal_State_Penalty>
1.22833

> <b_epik_Metal_Only>
0

> <s_lp_Force_Field>
OPLS_2005

> <r_lp_Energy>
11.8725

> <b_lp_Chiralities_Consistent>
1

> <s_lp_Variant>
AV-unprocessed.smi:500-4

> <Gold.Version>
5.8.1

> <Gold.Id.Protein>
6NUR|6NUR_protein|mol2

> <Gold.PLP.Fitness>
54.2562

> <Gold.PLP.PLP>
-43.6198

> <Gold.PLP.part.hbond>
-2.8556

> <Gold.PLP.part.metal>
0.0000

> <Gold.PLP.part.buried>
-5.3152

> <Gold.PLP.part.nonpolar>
-41.6314

> <Gold.PLP.part.repulsive>
4.4334

> <Gold.PLP.ligand.clash>
0.0000

> <Gold.PLP.ligand.torsion>
0.7871

> <Gold.PLP.Chemscore.Hbond>
2.9913

> <Gold.PLP.Chemscore.CHOScore>
0.9917

> <Gold.PLP.Chemscore.Metal>
0.0000

> <Gold.Chemscore.Hbonds>
donor molecule, donor type, donor heavy atom, donor atom, acceptor molecule, acceptor atom, score
      L1  H    10    38       P1  7948  0.98
      L1  H    18    46       P1  7948  2.00
      L1  C    16    41       P1 10747  1.00

> <Gold.PLP.Chemscore.Internal.Correction>
0.2619

> <Gold.Rescore>
     Score         DG    S(hbond)    S(metal)    S(lipo)     H(rot)  DE(clash)    DE(int)     intcor
     16.32     -18.67       1.84        0.00     103.52       1.97       1.32       1.03       ----

> <Gold.Chemscore.Fitness>
16.3167

> <Gold.Chemscore.DG>
-18.6694

> <Gold.Chemscore.ZeroCoef>
-5.4800

> <Gold.Chemscore.Hbond>
1.8361

> <Gold.Chemscore.Metal>
0.0000

> <Gold.Chemscore.Lipo>
103.5191

> <Gold.Chemscore.Internal_Hbond>
0.0000

> <Gold.Chemscore.DEClash>
1.3187

> <Gold.Chemscore.DEInternal>
1.0341

> <Gold.Chemscore.Rot>
1.9746

> <Gold.Chemscore.Internal.Correction>
   9.000000E+99

> <Gold.Chemscore.Hbonds>
donor molecule, donor type, donor heavy atom, donor atom, acceptor molecule, acceptor atom, score
      L1  H    10    38       P1  7948  0.91
      L1  H    18    46       P1  7948  0.88

> <Gold.Chemscore.Hbond.Weighted>
-6.1327

> <Gold.Chemscore.Metal.Weighted>
-0.0000

> <Gold.Chemscore.Lipo.Weighted>
-12.1117

> <Gold.Chemscore.Internal_Hbond.Weighted>
0.0000

> <Gold.Chemscore.DEClash.Weighted>
1.3187

> <Gold.Chemscore.DEInternal.Weighted>
1.0341

> <Gold.Chemscore.Rot.Weighted>
5.0550

> <Gold.Chemscore.Internal.Correction.Weighted>
   9.000000E+99

> <Gold.Protein.RotatedTorsions>
[ 6907 6896 6895 6894 ] final  -93.08 input  -60.11 | X-H torsion
[ 7974 7965 7964 7962 ] final -164.00 input  175.53 | X-H torsion
[ 8008 7997 7996 7995 ] final  -21.57 input   59.86 | X-H torsion
[ 10167 10162 10161 10158 ] final -135.42 input  -65.29 | X-H torsion
[ 10718 10713 10712 10709 ] final   99.46 input   66.30 | X-H torsion
[ 10763 10752 10751 10750 ] final  -14.10 input  -60.55 | X-H torsion
[ 11005 11000 10999 10996 ] final   29.50 input  -57.11 | X-H torsion

> <Gold.Protein.ActiveResidues>
 VAL166  LYS551  ARG553  GLY616  TRP617  ASP618  TYR619  PRO620  LYS621  CYS622 
 ASP623  PHE694  ASN695  SER759  ASP760  ASP761  ALA762  ILE779  LEU786  VAL792 
 PHE793  MET794  SER795  GLU796  ALA797  LYS798  CYS799  TRP800  GLU811  SER814 

> <Gold.Protein.RotatedAtoms>
  150.6916  134.2023  159.4326 H   0  0  0  0  0  0  0  0  0  0  0  0  # atno 6907 bound_to 6896
  151.9988  134.9937  160.0573 H   0  0  0  0  0  0  0  0  0  0  0  0  # atno 6908 bound_to 6896
  152.1598  133.4539  159.4892 H   0  0  0  0  0  0  0  0  0  0  0  0  # atno 6909 bound_to 6896
  144.7309  140.3025  143.6202 H   0  0  0  0  0  0  0  0  0  0  0  0  # atno 7974 bound_to 7965
  154.4697  140.2031  156.0026 H   0  0  0  0  0  0  0  0  0  0  0  0  # atno 8008 bound_to 7997
  156.0990  140.3247  155.7887 H   0  0  0  0  0  0  0  0  0  0  0  0  # atno 8009 bound_to 7997
  155.4830  140.0540  157.2955 H   0  0  0  0  0  0  0  0  0  0  0  0  # atno 8010 bound_to 7997
  139.8780  143.6874  152.2631 H   0  0  0  0  0  0  0  0  0  0  0  0  # atno 10167 bound_to 10162
  157.6875  131.0670  150.4952 H   0  0  0  0  0  0  0  0  0  0  0  0  # atno 10718 bound_to 10713
  153.5233  135.7015  153.5720 H   0  0  0  0  0  0  0  0  0  0  0  0  # atno 10763 bound_to 10752
  153.3760  135.3932  155.1823 H   0  0  0  0  0  0  0  0  0  0  0  0  # atno 10764 bound_to 10752
  154.8692  135.3823  154.4723 H   0  0  0  0  0  0  0  0  0  0  0  0  # atno 10765 bound_to 10752
  140.3042  134.2722  155.7747 H   0  0  0  0  0  0  0  0  0  0  0  0  # atno 11005 bound_to 11000
  145.7746  139.1869  143.2192 LP  0  0  0  0  0  0  0  0  0  0  0  0  # atno 17320 bound_to 7965
  146.0883  140.7685  142.9608 LP  0  0  0  0  0  0  0  0  0  0  0  0  # atno 17321 bound_to 7965
  139.7222  144.7600  151.0937 LP  0  0  0  0  0  0  0  0  0  0  0  0  # atno 17342 bound_to 10162
  140.7749  143.5193  150.9556 LP  0  0  0  0  0  0  0  0  0  0  0  0  # atno 17343 bound_to 10162
  156.5276  130.4177  149.6218 LP  0  0  0  0  0  0  0  0  0  0  0  0  # atno 17370 bound_to 10713
  156.3098  130.7222  151.2112 LP  0  0  0  0  0  0  0  0  0  0  0  0  # atno 17371 bound_to 10713
  141.2122  133.7666  156.9812 LP  0  0  0  0  0  0  0  0  0  0  0  0  # atno 17394 bound_to 11000
  140.1082  134.9493  157.2025 LP  0  0  0  0  0  0  0  0  0  0  0  0  # atno 17395 bound_to 11000

$$$$
