AV-unprocessed.smi:776|AV-procd|sdf|3700|dock3
  -GOLD-   22720 1123D 1   1.00000     0.00000
 Structure written by MMmdl.
 44 45  0  0  0  0  0  0  0  0  1 V2000
  147.7854  134.0491  159.6509 C   0  0  0  0  0  0  0  0  0  0  0  0
  147.8847  135.3185  160.5102 C   0  0  0  0  0  0  0  0  0  0  0  0
  146.5549  135.6963  161.1804 C   0  0  0  0  0  0  0  0  0  0  0  0
  148.4735  136.4652  159.7463 C   0  0  0  0  0  0  0  0  0  0  0  0
  147.7933  137.5887  159.5420 N   0  0  0  0  0  0  0  0  0  0  0  0
  148.6797  138.3739  158.7915 O   0  0  0  0  0  0  0  0  0  0  0  0
  149.8009  137.6283  158.6460 C   0  0  0  0  0  0  0  0  0  0  0  0
  150.9297  138.1750  157.8382 C   0  0  0  0  0  0  0  0  0  0  0  0
  150.7565  139.6704  157.5274 C   0  0  0  0  0  0  0  0  0  0  0  0
  151.7078  140.4871  158.2721 N   0  0  0  0  0  0  0  0  0  0  0  0
  151.4037  141.6061  158.9513 C   0  0  0  0  0  0  0  0  0  0  0  0
  150.2637  142.0702  158.9734 O   0  0  0  0  0  0  0  0  0  0  0  0
  152.4868  142.2249  159.4870 N   0  0  0  0  0  0  0  0  0  0  0  0
  153.6425  141.4488  159.9737 C   0  0  0  0  0  0  0  0  0  0  0  0
  153.4639  141.1698  161.4793 C   0  0  0  0  0  0  0  0  0  0  0  0
  153.2794  142.4789  162.2693 C   0  0  0  0  0  0  0  0  0  0  0  0
  152.2068  143.3852  161.6357 C   0  0  0  0  0  0  0  0  0  0  0  0
  152.4629  143.5603  160.1245 C   0  0  2  0  0  0  0  0  0  0  0  0
  151.5088  144.5870  159.4781 C   0  0  0  0  0  0  0  0  0  0  0  0
  149.7226  136.4235  159.2051 N   0  0  0  0  0  0  0  0  0  0  0  0
  148.7617  133.7672  159.2552 H   0  0  0  0  0  0  0  0  0  0  0  0
  147.1108  134.1920  158.8060 H   0  0  0  0  0  0  0  0  0  0  0  0
  147.4113  133.2084  160.2353 H   0  0  0  0  0  0  0  0  0  0  0  0
  148.5791  135.0865  161.3191 H   0  0  0  0  0  0  0  0  0  0  0  0
  146.6784  136.5545  161.8417 H   0  0  0  0  0  0  0  0  0  0  0  0
  146.1693  134.8709  161.7793 H   0  0  0  0  0  0  0  0  0  0  0  0
  145.7952  135.9512  160.4407 H   0  0  0  0  0  0  0  0  0  0  0  0
  151.8593  138.0098  158.3839 H   0  0  0  0  0  0  0  0  0  0  0  0
  151.0032  137.6000  156.9142 H   0  0  0  0  0  0  0  0  0  0  0  0
  150.8616  139.8539  156.4567 H   0  0  0  0  0  0  0  0  0  0  0  0
  149.7511  139.9920  157.8005 H   0  0  0  0  0  0  0  0  0  0  0  0
  152.6723  140.1890  158.2614 H   0  0  0  0  0  0  0  0  0  0  0  0
  153.7832  140.5053  159.4451 H   0  0  0  0  0  0  0  0  0  0  0  0
  154.5603  142.0132  159.8031 H   0  0  0  0  0  0  0  0  0  0  0  0
  152.5952  140.5276  161.6307 H   0  0  0  0  0  0  0  0  0  0  0  0
  154.3239  140.6213  161.8645 H   0  0  0  0  0  0  0  0  0  0  0  0
  153.0259  142.2618  163.3073 H   0  0  0  0  0  0  0  0  0  0  0  0
  154.2285  143.0158  162.2909 H   0  0  0  0  0  0  0  0  0  0  0  0
  151.2178  142.9533  161.7962 H   0  0  0  0  0  0  0  0  0  0  0  0
  152.2057  144.3548  162.1349 H   0  0  0  0  0  0  0  0  0  0  0  0
  153.4608  143.9857  160.0032 H   0  0  0  0  0  0  0  0  0  0  0  0
  151.7101  145.5871  159.8625 H   0  0  0  0  0  0  0  0  0  0  0  0
  150.4608  144.3769  159.6904 H   0  0  0  0  0  0  0  0  0  0  0  0
  151.6391  144.6231  158.3960 H   0  0  0  0  0  0  0  0  0  0  0  0
  1  2  1  0  0  0  0
  1 21  1  0  0  0  0
  1 22  1  0  0  0  0
  1 23  1  0  0  0  0
  2  3  1  0  0  0  0
  2  4  1  0  0  0  0
  2 24  1  0  0  0  0
  3 25  1  0  0  0  0
  3 26  1  0  0  0  0
  3 27  1  0  0  0  0
  4 20  1  0  0  0  0
  4  5  2  0  0  0  0
  5  6  1  0  0  0  0
  6  7  1  0  0  0  0
  7  8  1  0  0  0  0
  7 20  2  0  0  0  0
  8  9  1  0  0  0  0
  8 28  1  0  0  0  0
  8 29  1  0  0  0  0
  9 10  1  0  0  0  0
  9 30  1  0  0  0  0
  9 31  1  0  0  0  0
 10 11  1  0  0  0  0
 10 32  1  0  0  0  0
 11 12  2  0  0  0  0
 11 13  1  0  0  0  0
 13 18  1  0  0  0  0
 13 14  1  0  0  0  0
 14 15  1  0  0  0  0
 14 33  1  0  0  0  0
 14 34  1  0  0  0  0
 15 16  1  0  0  0  0
 15 35  1  0  0  0  0
 15 36  1  0  0  0  0
 16 17  1  0  0  0  0
 16 37  1  0  0  0  0
 16 38  1  0  0  0  0
 17 18  1  0  0  0  0
 17 39  1  0  0  0  0
 17 40  1  0  0  0  0
 18 19  1  0  0  0  0
 18 41  1  0  0  0  0
 19 42  1  0  0  0  0
 19 43  1  0  0  0  0
 19 44  1  0  0  0  0
M  END
> <s_m_source_file>
AV-unprocessed.smi

> <i_m_source_file_index>
776

> <i_lp_mmshare_version>
43012

> <i_f3d_flags>
0

> <s_epik_input>
W0NIM11bQ0hdKFtDSDNdKWMxbm9jKG4xKVtDSDJdW0NIMl1bTkhdQyg9TylOMltDSDJdW0NIMl1bQ0gyXVtDSDJdW0NASF0yW0NIM10=

> <s_epik_cmdline>
J2VwaWtfcHl0aG9uJywgJy1waCcsICc3LjAnLCAnLXRuJywgJzgnLCAnLW1hJywgJzIwMCcsICctbWV0YWxfYmluZGluZycsICctaW1hZScsICc8aW5maWxlLm1hZT4nLCAnLW9tYWUnLCAnPG91dGZpbGUubWFlPic=

> <r_lp_tautomer_probability>
1

> <r_epik_Ionization_Penalty>
6.23032e-05

> <r_epik_Ionization_Penalty_Charging>
0

> <r_epik_Ionization_Penalty_Neutral>
6.23032e-05

> <r_epik_State_Penalty>
-0

> <r_epik_Charging_Adjusted_Penalty>
0

> <i_epik_Tot_Q>
0

> <i_epik_Tot_abs_Q>
0

> <r_epik_Metal_State_Penalty>
-0

> <b_epik_Metal_Only>
0

> <s_lp_Force_Field>
OPLS_2005

> <r_lp_Energy>
25.3462

> <b_lp_Chiralities_Consistent>
1

> <s_lp_Variant>
AV-unprocessed.smi:776-2

> <Gold.Version>
5.8.1

> <Gold.Id.Protein>
6NUR|6NUR_protein|mol2

> <Gold.PLP.Fitness>
48.4234

> <Gold.PLP.PLP>
-44.8261

> <Gold.PLP.part.hbond>
-4.5957

> <Gold.PLP.part.metal>
0.0000

> <Gold.PLP.part.buried>
-5.6166

> <Gold.PLP.part.nonpolar>
-35.0511

> <Gold.PLP.part.repulsive>
0.1416

> <Gold.PLP.ligand.clash>
0.0000

> <Gold.PLP.ligand.torsion>
0.8001

> <Gold.PLP.Chemscore.Hbond>
1.5600

> <Gold.PLP.Chemscore.CHOScore>
0.0000

> <Gold.PLP.Chemscore.Metal>
0.0000

> <Gold.Chemscore.Hbonds>
donor molecule, donor type, donor heavy atom, donor atom, acceptor molecule, acceptor atom, score
      P1  H  6896  6909       L1    20  1.00
      P1  H  6934  6947       L1     5  0.51

> <Gold.PLP.Chemscore.Internal.Correction>
0.5175

> <Gold.Rescore>
     Score         DG    S(hbond)    S(metal)    S(lipo)     H(rot)  DE(clash)    DE(int)     intcor
     14.85     -16.90       1.35        0.00      94.99       1.65       0.05       2.00       ----

> <Gold.Chemscore.Fitness>
14.8470

> <Gold.Chemscore.DG>
-16.8953

> <Gold.Chemscore.ZeroCoef>
-5.4800

> <Gold.Chemscore.Hbond>
1.3525

> <Gold.Chemscore.Metal>
0.0000

> <Gold.Chemscore.Lipo>
94.9930

> <Gold.Chemscore.Internal_Hbond>
0.0000

> <Gold.Chemscore.DEClash>
0.0528

> <Gold.Chemscore.DEInternal>
1.9955

> <Gold.Chemscore.Rot>
1.6470

> <Gold.Chemscore.Internal.Correction>
   9.000000E+99

> <Gold.Chemscore.Hbonds>
donor molecule, donor type, donor heavy atom, donor atom, acceptor molecule, acceptor atom, score
      P1  H  6896  6909       L1    20  0.83
      P1  H  6934  6947       L1     5  0.10

> <Gold.Chemscore.Hbond.Weighted>
-4.5175

> <Gold.Chemscore.Metal.Weighted>
-0.0000

> <Gold.Chemscore.Lipo.Weighted>
-11.1142

> <Gold.Chemscore.Internal_Hbond.Weighted>
0.0000

> <Gold.Chemscore.DEClash.Weighted>
0.0528

> <Gold.Chemscore.DEInternal.Weighted>
1.9955

> <Gold.Chemscore.Rot.Weighted>
4.2164

> <Gold.Chemscore.Internal.Correction.Weighted>
   9.000000E+99

> <Gold.Protein.RotatedTorsions>
[ 6907 6896 6895 6894 ] final   59.46 input  -60.11 | X-H torsion
[ 7974 7965 7964 7962 ] final -145.94 input  175.53 | X-H torsion
[ 8008 7997 7996 7995 ] final  -59.82 input   59.86 | X-H torsion
[ 10167 10162 10161 10158 ] final   91.30 input  -65.29 | X-H torsion
[ 10718 10713 10712 10709 ] final  -44.94 input   66.30 | X-H torsion
[ 10763 10752 10751 10750 ] final   62.40 input  -60.55 | X-H torsion
[ 11005 11000 10999 10996 ] final  -39.98 input  -57.11 | X-H torsion

> <Gold.Protein.ActiveResidues>
 VAL166  LYS551  ARG553  GLY616  TRP617  ASP618  TYR619  PRO620  LYS621  CYS622 
 ASP623  PHE694  ASN695  SER759  ASP760  ASP761  ALA762  ILE779  LEU786  VAL792 
 PHE793  MET794  SER795  GLU796  ALA797  LYS798  CYS799  TRP800  GLU811  SER814 

> <Gold.Protein.RotatedAtoms>
  152.3917  134.6431  160.0104 H   0  0  0  0  0  0  0  0  0  0  0  0  # atno 6907 bound_to 6896
  151.6663  133.3309  159.3194 H   0  0  0  0  0  0  0  0  0  0  0  0  # atno 6908 bound_to 6896
  150.7832  134.6838  159.6503 H   0  0  0  0  0  0  0  0  0  0  0  0  # atno 6909 bound_to 6896
  144.8193  140.5519  143.5589 H   0  0  0  0  0  0  0  0  0  0  0  0  # atno 7974 bound_to 7965
  154.4370  140.1053  156.6175 H   0  0  0  0  0  0  0  0  0  0  0  0  # atno 8008 bound_to 7997
  155.5743  140.3489  155.4504 H   0  0  0  0  0  0  0  0  0  0  0  0  # atno 8009 bound_to 7997
  156.0366  140.1272  157.0190 H   0  0  0  0  0  0  0  0  0  0  0  0  # atno 8010 bound_to 7997
  139.8388  144.6651  150.9309 H   0  0  0  0  0  0  0  0  0  0  0  0  # atno 10167 bound_to 10162
  156.2334  130.4174  149.8847 H   0  0  0  0  0  0  0  0  0  0  0  0  # atno 10718 bound_to 10713
  152.9981  135.5466  154.6187 H   0  0  0  0  0  0  0  0  0  0  0  0  # atno 10763 bound_to 10752
  154.5492  135.2825  155.1027 H   0  0  0  0  0  0  0  0  0  0  0  0  # atno 10764 bound_to 10752
  154.2274  135.6440  153.5216 H   0  0  0  0  0  0  0  0  0  0  0  0  # atno 10765 bound_to 10752
  141.0141  133.6893  156.2260 H   0  0  0  0  0  0  0  0  0  0  0  0  # atno 11005 bound_to 11000
  145.5142  139.1478  143.3588 LP  0  0  0  0  0  0  0  0  0  0  0  0  # atno 17320 bound_to 7965
  146.2498  140.5283  142.8898 LP  0  0  0  0  0  0  0  0  0  0  0  0  # atno 17321 bound_to 7965
  140.7800  143.3932  151.1274 LP  0  0  0  0  0  0  0  0  0  0  0  0  # atno 17342 bound_to 10162
  139.7580  143.8678  152.3093 LP  0  0  0  0  0  0  0  0  0  0  0  0  # atno 17343 bound_to 10162
  156.6453  130.8721  151.3521 LP  0  0  0  0  0  0  0  0  0  0  0  0  # atno 17370 bound_to 10713
  157.7143  130.9478  150.1200 LP  0  0  0  0  0  0  0  0  0  0  0  0  # atno 17371 bound_to 10713
  140.6683  134.4894  157.5586 LP  0  0  0  0  0  0  0  0  0  0  0  0  # atno 17394 bound_to 11000
  139.9107  134.8351  156.1539 LP  0  0  0  0  0  0  0  0  0  0  0  0  # atno 17395 bound_to 11000

$$$$
