#       Name:                AV-unprocessed.smi:37
#       Creating user name   scv26
#       Creation time:       Thu Mar 26 16:13:16 2020


#       File generated by GOLD software.
#

@<TRIPOS>MOLECULE
AV-unprocessed.smi:37
    54    55     1
SMALL
NO_CHARGES


@<TRIPOS>ATOM
      1 ****        -5.2077   2.4780   0.9841 C.3            1 S1                 0.0000
      2 ****        -3.7230   2.1104   1.1205 C.3            1 S1                 0.0000
      3 ****        -3.4205   0.6481   0.7869 C.2            1 S1                 0.0000
      4 ****        -4.3041  -0.1643   0.5080 O.2            1 S1                 0.0000
      5 ****        -2.1063   0.3878   0.8370 O.3            1 S1                 0.0000
      6 ****        -1.6291  -0.9088   0.5178 C.3            1 S1                 0.0000
      7 ****        -0.1070  -0.8605   0.3379 C.3            1 S1                 0.0000
      8 ****         0.4246  -2.1836   0.3648 O.3            1 S1                 0.0000
      9 ****         1.4953  -2.2889  -0.5253 C.3            1 S1                 0.0000
     10 ****         2.7080  -2.7554   0.2463 N.am           1 S1                 0.0000
     11 ****         3.0907  -2.1081   1.4131 C.2            1 S1                 0.0000
     12 ****         4.1480  -2.4995   2.1624 C.2            1 S1                 0.0000
     13 ****         4.4574  -1.8195   3.2792 F              1 S1                 0.0000
     14 ****         4.9513  -3.6532   1.7691 C.2            1 S1                 0.0000
     15 ****         5.9279  -4.0830   2.3794 O.2            1 S1                 0.0000
     16 ****         4.5252  -4.2786   0.5936 N.am           1 S1                 0.0000
     17 ****         3.4364  -3.8861  -0.1875 C.2            1 S1                 0.0000
     18 ****         3.1595  -4.5148  -1.2078 O.2            1 S1                 0.0000
     19 ****         1.7246  -0.9104  -1.1461 C.3            1 S1                 0.0000
     20 ****         2.2796  -1.0412  -3.0530 Br             1 S1                 0.0000
     21 ****         0.3579  -0.2766  -1.0012 C.3            1 S1                 0.0000
     22 ****         0.4910   1.1391  -0.9654 O.3            1 S1                 0.0000
     23 ****        -0.4383   1.9278  -1.5337 C.2            1 S1                 0.0000
     24 ****        -1.4512   1.5405  -2.1187 O.2            1 S1                 0.0000
     25 ****        -0.1068   3.4119  -1.3667 C.3            1 S1                 0.0000
     26 ****        -1.2085   4.3491  -1.8842 C.3            1 S1                 0.0000
     27 ****         5.0507  -5.0828   0.2828 H              1 S1                 0.0000
     28 ****        -5.3662   3.5288   1.2263 H              1 S1                 0.0000
     29 ****        -5.8283   1.8873   1.6589 H              1 S1                 0.0000
     30 ****        -5.5651   2.3171  -0.0336 H              1 S1                 0.0000
     31 ****        -3.1274   2.7441   0.4631 H              1 S1                 0.0000
     32 ****        -3.3874   2.3089   2.1386 H              1 S1                 0.0000
     33 ****        -1.8861  -1.5827   1.3359 H              1 S1                 0.0000
     34 ****        -2.1044  -1.2939  -0.3858 H              1 S1                 0.0000
     35 ****         0.3526  -0.3158   1.1644 H              1 S1                 0.0000
     36 ****         1.2271  -3.0464  -1.2622 H              1 S1                 0.0000
     37 ****         2.5247  -1.2508   1.7463 H              1 S1                 0.0000
     38 ****         2.4833  -0.3558  -0.5925 H              1 S1                 0.0000
     39 ****        -0.2864  -0.6271  -1.8091 H              1 S1                 0.0000
     40 ****         0.0734   3.6088  -0.3096 H              1 S1                 0.0000
     41 ****         0.8272   3.6183  -1.8897 H              1 S1                 0.0000
     42 ****        -0.9280   5.3912  -1.7314 H              1 S1                 0.0000
     43 ****        -2.1510   4.1819  -1.3617 H              1 S1                 0.0000
     44 ****        -1.3828   4.2087  -2.9516 H              1 S1                 0.0000
     45 ****        -5.2617   0.1236   0.4938 LP             1 S1                 0.0000
     46 ****        -4.0636  -1.1115   0.2959 LP             1 S1                 0.0000
     47 ****        -0.2894  -2.8323   0.1015 LP             1 S1                 0.0000
     48 ****         0.7414  -2.3940   1.2897 LP             1 S1                 0.0000
     49 ****         6.2298  -3.6333   3.2200 LP             1 S1                 0.0000
     50 ****         6.4204  -4.8824   2.0353 LP             1 S1                 0.0000
     51 ****         2.3859  -4.2320  -1.7749 LP             1 S1                 0.0000
     52 ****         3.7079  -5.3088  -1.4702 LP             1 S1                 0.0000
     53 ****        -1.6374   0.5615  -2.2012 LP             1 S1                 0.0000
     54 ****        -2.0870   2.2052  -2.5110 LP             1 S1                 0.0000
@<TRIPOS>BOND
    1    1    2 1     
    2    1   28 1     
    3    1   29 1     
    4    1   30 1     
    5    2    3 1     
    6    2   31 1     
    7    2   32 1     
    8    3    4 2     
    9    3    5 1     
   10    5    6 1     
   11    6    7 1     
   12    6   33 1     
   13    6   34 1     
   14    7   21 1     
   15    7    8 1     
   16    7   35 1     
   17    8    9 1     
   18    9   10 1     
   19    9   19 1     
   20    9   36 1     
   21   10   17 1     
   22   10   11 1     
   23   11   12 2     
   24   11   37 1     
   25   12   13 1     
   26   12   14 1     
   27   14   15 2     
   28   14   16 1     
   29   16   27 1     
   30   16   17 1     
   31   17   18 2     
   32   19   20 1     
   33   19   21 1     
   34   19   38 1     
   35   21   22 1     
   36   21   39 1     
   37   22   23 1     
   38   23   24 2     
   39   23   25 1     
   40   25   26 1     
   41   25   40 1     
   42   25   41 1     
   43   26   42 1     
   44   26   43 1     
   45   26   44 1     
   46    4   45 1     
   47    4   46 1     
   48    8   47 1     
   49    8   48 1     
   50   15   49 1     
   51   15   50 1     
   52   18   51 1     
   53   18   52 1     
   54   24   53 1     
   55   24   54 1     
@<TRIPOS>SUBSTRUCTURE
      1 S1             1
@<TRIPOS>SET
LONE_PAIRS      STATIC     ATOMS    <user>   **** ""
10 45 46 47 48 49 50 51 52 53 54
DONOR_HYDROGENS      STATIC     ATOMS    <user>   **** ""
1 27
ATOM$BLUE        STATIC     ATOMS    COLORGROUP SYSTEM
10 45 46 47 48 49 50 51 52 53 54
ATOM$RED        STATIC     ATOMS    COLORGROUP SYSTEM
1 27
