#       Name:                AV-unprocessed.smi:1126
#       Creating user name   scv26
#       Creation time:       Fri Mar 27 03:40:21 2020


#       File generated by GOLD software.
#

@<TRIPOS>MOLECULE
AV-unprocessed.smi:1126
    53    54     1
SMALL
NO_CHARGES


@<TRIPOS>ATOM
      1 ****        -3.6498  -5.8875   0.6851 C.3            1 S1                 0.0000
      2 ****        -3.0562  -4.9542  -0.2005 O.3            1 S1                 0.0000
      3 ****        -1.6472  -4.8843  -0.0544 C.3            1 S1                 0.0000
      4 ****        -1.0965  -3.8533  -1.0515 C.3            1 S1                 0.0000
      5 ****        -1.6012  -2.4823  -0.7844 N.4            1 S1                 1.0000
      6 ****        -1.5694  -1.6249  -1.9968 C.3            1 S1                 0.0000
      7 ****        -2.2262  -0.2579  -1.7316 C.3            1 S1                 0.0000
      8 ****        -1.5830   0.4779  -0.5412 C.3            1 S1                 0.0000
      9 ****        -0.1907   1.0494  -0.8971 C.3            1 S1                 0.0000
     10 ****         0.3504   1.8951   0.1618 N.am           1 S1                 0.0000
     11 ****         1.3045   1.5415   1.0379 C.2            1 S1                 0.0000
     12 ****         1.8177   0.4232   1.0692 O.2            1 S1                 0.0000
     13 ****         1.7397   2.6117   2.0406 C.3            1 S1                 0.0000
     14 ****         2.4401   3.6993   1.3804 N.pl3          1 S1                 0.0000
     15 ****         3.7642   3.7593   0.9995 C.2            1 S1                 0.0000
     16 ****         3.9667   4.9725   0.4048 C.2            1 S1                 0.0000
     17 ****         5.2303   5.5292  -0.1851 C.3            1 S1                 0.0000
     18 ****         2.6865   5.5922   0.4729 C.2            1 S1                 0.0000
     19 ****         1.7757   4.8297   1.0559 N.2            1 S1                 0.0000
     20 ****        -1.5921  -0.4642   0.6809 C.3            1 S1                 0.0000
     21 ****        -0.9382  -1.8225   0.3713 C.3            1 S1                 0.0000
     22 ****        -4.7292  -5.9015   0.5329 H              1 S1                 0.0000
     23 ****        -3.4604  -5.6195   1.7253 H              1 S1                 0.0000
     24 ****        -3.2719  -6.8952   0.5081 H              1 S1                 0.0000
     25 ****        -1.3769  -4.6343   0.9716 H              1 S1                 0.0000
     26 ****        -1.2124  -5.8619  -0.2679 H              1 S1                 0.0000
     27 ****        -0.0056  -3.8522  -1.0387 H              1 S1                 0.0000
     28 ****        -1.3905  -4.1665  -2.0544 H              1 S1                 0.0000
     29 ****        -0.5388  -1.4996  -2.3311 H              1 S1                 0.0000
     30 ****        -2.1035  -2.1203  -2.8086 H              1 S1                 0.0000
     31 ****        -2.1800   0.3602  -2.6288 H              1 S1                 0.0000
     32 ****        -3.2869  -0.4099  -1.5266 H              1 S1                 0.0000
     33 ****        -2.2204   1.3311  -0.3041 H              1 S1                 0.0000
     34 ****         0.5107   0.2553  -1.1552 H              1 S1                 0.0000
     35 ****        -0.2728   1.6721  -1.7885 H              1 S1                 0.0000
     36 ****        -0.0087   2.8378   0.2177 H              1 S1                 0.0000
     37 ****         0.8684   3.0034   2.5681 H              1 S1                 0.0000
     38 ****         2.4006   2.1760   2.7911 H              1 S1                 0.0000
     39 ****         4.4445   2.9396   1.1796 H              1 S1                 0.0000
     40 ****         5.2335   6.6193  -0.1790 H              1 S1                 0.0000
     41 ****         5.3634   5.2126  -1.2195 H              1 S1                 0.0000
     42 ****         6.1118   5.2032   0.3674 H              1 S1                 0.0000
     43 ****         2.3935   6.5688   0.1160 H              1 S1                 0.0000
     44 ****        -1.1063   0.0001   1.5385 H              1 S1                 0.0000
     45 ****        -2.6248  -0.6353   0.9880 H              1 S1                 0.0000
     46 ****        -1.0090  -2.4519   1.2576 H              1 S1                 0.0000
     47 ****         0.1252  -1.6974   0.1638 H              1 S1                 0.0000
     48 ****        -2.5768  -2.5853  -0.5429 H              1 S1                 0.0000
     49 ****        -3.4424  -4.0498  -0.0188 LP             1 S1                 0.0000
     50 ****        -3.2679  -5.2244  -1.1397 LP             1 S1                 0.0000
     51 ****         1.5272  -0.2786   0.4188 LP             1 S1                 0.0000
     52 ****         2.5251   0.2165   1.7451 LP             1 S1                 0.0000
     53 ****         0.8123   5.0425   1.2195 LP             1 S1                 0.0000
@<TRIPOS>BOND
    1    1    2 1     
    2    1   22 1     
    3    1   23 1     
    4    1   24 1     
    5    2    3 1     
    6    3    4 1     
    7    3   25 1     
    8    3   26 1     
    9    4    5 1     
   10    4   27 1     
   11    4   28 1     
   12    5   21 1     
   13    5    6 1     
   14    5   48 1     
   15    6    7 1     
   16    6   29 1     
   17    6   30 1     
   18    7    8 1     
   19    7   31 1     
   20    7   32 1     
   21    8    9 1     
   22    8   20 1     
   23    8   33 1     
   24    9   10 1     
   25    9   34 1     
   26    9   35 1     
   27   10   11 am    
   28   10   36 1     
   29   11   12 2     
   30   11   13 1     
   31   13   14 1     
   32   13   37 1     
   33   13   38 1     
   34   14   19 1     
   35   14   15 1     
   36   15   16 2     
   37   15   39 1     
   38   16   17 1     
   39   16   18 1     
   40   17   40 1     
   41   17   41 1     
   42   17   42 1     
   43   18   19 2     
   44   18   43 1     
   45   20   21 1     
   46   20   44 1     
   47   20   45 1     
   48   21   46 1     
   49   21   47 1     
   50    2   49 1     
   51    2   50 1     
   52   12   51 1     
   53   12   52 1     
   54   19   53 1     
@<TRIPOS>SUBSTRUCTURE
      1 S1             1
@<TRIPOS>SET
LONE_PAIRS      STATIC     ATOMS    <user>   **** ""
5 49 50 51 52 53
DONOR_HYDROGENS      STATIC     ATOMS    <user>   **** ""
2 48 36
ATOM$BLUE        STATIC     ATOMS    COLORGROUP SYSTEM
5 49 50 51 52 53
ATOM$RED        STATIC     ATOMS    COLORGROUP SYSTEM
2 48 36
