#       Name:                AV-unprocessed.smi:265
#       Creating user name   scv26
#       Creation time:       Thu Mar 26 21:23:01 2020


#       File generated by GOLD software.
#

@<TRIPOS>MOLECULE
AV-unprocessed.smi:265
    64    68     1
SMALL
NO_CHARGES


@<TRIPOS>ATOM
      1 ****        -3.9543  -0.5406   1.6445 C.3            1 S1                 0.0000
      2 ****        -3.3577  -1.5850   2.6019 C.3            1 S1                 0.0000
      3 ****        -4.3882  -2.3235   3.2424 O.3            1 S1                 0.0000
      4 ****        -3.8039  -2.9638   4.3620 C.3            1 S1                 0.0000
      5 ****        -2.9438  -1.8616   4.9681 C.3            1 S1                 0.0000
      6 ****        -2.4627  -1.0581   3.7556 C.3            1 S1                 0.0000
      7 ****        -2.6963   0.3163   4.0176 O.3            1 S1                 0.0000
      8 ****        -0.9488  -1.2513   3.4923 C.3            1 S1                 0.0000
      9 ****        -0.4823  -0.5978   2.2783 N.pl3          1 S1                 0.0000
     10 ****        -0.1806   0.7366   2.1231 C.2            1 S1                 0.0000
     11 ****         0.2100   1.0841   0.9277 N.2            1 S1                 0.0000
     12 ****         0.1918  -0.1031   0.2056 C.ar           1 S1                 0.0000
     13 ****         0.4931  -0.4478  -1.1425 C.ar           1 S1                 0.0000
     14 ****         0.9225   0.4629  -2.0526 N.3            1 S1                 0.0000
     15 ****         0.7281   0.1539  -3.4690 C.3            1 S1                 0.0000
     16 ****         0.8844   1.4183  -4.3275 C.3            1 S1                 0.0000
     17 ****         2.2173   2.1346  -4.0549 C.3            1 S1                 0.0000
     18 ****         3.3045   1.3485  -4.5254 O.3            1 S1                 0.0000
     19 ****         4.5649   2.0194  -4.4747 C.3            1 S1                 0.0000
     20 ****         4.8244   2.6769  -3.1063 C.2            1 S1                 0.0000
     21 ****         5.9601   3.0354  -2.8041 O.2            1 S1                 0.0000
     22 ****         3.7762   2.8780  -2.2917 N.am           1 S1                 0.0000
     23 ****         2.4316   2.3707  -2.5440 C.3            1 S1                 0.0000
     24 ****         2.2083   1.0791  -1.7318 C.3            1 S1                 0.0000
     25 ****         0.3372  -1.7496  -1.5045 N.ar           1 S1                 0.0000
     26 ****        -0.0740  -2.6542  -0.6114 C.ar           1 S1                 0.0000
     27 ****        -0.3831  -2.4764   0.6741 N.ar           1 S1                 0.0000
     28 ****        -0.2398  -1.1712   1.0418 C.ar           1 S1                 0.0000
     29 ****         2.2158   3.0866  -4.5895 H              1 S1                 0.0000
     30 ****         1.7197   3.1233  -2.2023 H              1 S1                 0.0000
     31 ****        -3.1704   0.0374   1.1545 H              1 S1                 0.0000
     32 ****        -4.6112   0.1549   2.1672 H              1 S1                 0.0000
     33 ****        -4.5433  -1.0246   0.8655 H              1 S1                 0.0000
     34 ****        -2.7961  -2.3108   2.0128 H              1 S1                 0.0000
     35 ****        -4.5592  -3.3384   5.0531 H              1 S1                 0.0000
     36 ****        -3.1904  -3.8030   4.0299 H              1 S1                 0.0000
     37 ****        -3.5690  -1.2505   5.6216 H              1 S1                 0.0000
     38 ****        -2.1317  -2.2606   5.5772 H              1 S1                 0.0000
     39 ****        -2.2135   0.5609   4.7920 H              1 S1                 0.0000
     40 ****        -0.3643  -0.8709   4.3310 H              1 S1                 0.0000
     41 ****        -0.7159  -2.3145   3.4193 H              1 S1                 0.0000
     42 ****        -0.2694   1.4519   2.9278 H              1 S1                 0.0000
     43 ****         1.4549  -0.5993  -3.7771 H              1 S1                 0.0000
     44 ****        -0.2642  -0.2698  -3.6298 H              1 S1                 0.0000
     45 ****         0.8017   1.1671  -5.3851 H              1 S1                 0.0000
     46 ****         0.0621   2.1001  -4.1074 H              1 S1                 0.0000
     47 ****         5.3569   1.3037  -4.6969 H              1 S1                 0.0000
     48 ****         4.5978   2.7884  -5.2473 H              1 S1                 0.0000
     49 ****         3.9377   3.3410  -1.4092 H              1 S1                 0.0000
     50 ****         2.2885   1.3041  -0.6686 H              1 S1                 0.0000
     51 ****         2.9958   0.3572  -1.9537 H              1 S1                 0.0000
     52 ****        -0.1687  -3.6651  -0.9799 H              1 S1                 0.0000
     53 ****        -4.7637  -3.0050   2.6142 LP             1 S1                 0.0000
     54 ****        -5.1175  -1.7077   3.5408 LP             1 S1                 0.0000
     55 ****        -3.6732   0.4698   4.1668 LP             1 S1                 0.0000
     56 ****        -2.3876   0.8649   3.2406 LP             1 S1                 0.0000
     57 ****         0.4642   1.9958   0.6050 LP             1 S1                 0.0000
     58 ****         0.2448   1.1879  -1.9294 LP             1 S1                 0.0000
     59 ****         3.1212   1.0928  -5.4746 LP             1 S1                 0.0000
     60 ****         3.3635   0.5234  -3.9634 LP             1 S1                 0.0000
     61 ****         6.7146   2.9002  -3.4463 LP             1 S1                 0.0000
     62 ****         6.1299   3.4624  -1.9159 LP             1 S1                 0.0000
     63 ****         0.5314  -2.0311  -2.4442 LP             1 S1                 0.0000
     64 ****        -0.6816  -3.2064   1.2890 LP             1 S1                 0.0000
@<TRIPOS>BOND
    1    1    2 1     
    2    1   31 1     
    3    1   32 1     
    4    1   33 1     
    5    2    6 1     
    6    2    3 1     
    7    2   34 1     
    8    3    4 1     
    9    4    5 1     
   10    4   35 1     
   11    4   36 1     
   12    5    6 1     
   13    5   37 1     
   14    5   38 1     
   15    6    7 1     
   16    6    8 1     
   17    7   39 1     
   18    8    9 1     
   19    8   40 1     
   20    8   41 1     
   21    9   28 1     
   22    9   10 1     
   23   10   11 2     
   24   10   42 1     
   25   11   12 1     
   26   12   28 ar    
   27   12   13 ar    
   28   13   14 1     
   29   13   25 ar    
   30   14   24 1     
   31   14   15 1     
   32   15   16 1     
   33   15   43 1     
   34   15   44 1     
   35   16   17 1     
   36   16   45 1     
   37   16   46 1     
   38   17   29 1     
   39   17   23 1     
   40   17   18 1     
   41   18   19 1     
   42   19   20 1     
   43   19   47 1     
   44   19   48 1     
   45   20   21 2     
   46   20   22 am    
   47   22   23 1     
   48   22   49 1     
   49   23   30 1     
   50   23   24 1     
   51   24   50 1     
   52   24   51 1     
   53   25   26 ar    
   54   26   27 ar    
   55   26   52 1     
   56   27   28 ar    
   57    3   53 1     
   58    3   54 1     
   59    7   55 1     
   60    7   56 1     
   61   11   57 1     
   62   14   58 1     
   63   18   59 1     
   64   18   60 1     
   65   21   61 1     
   66   21   62 1     
   67   25   63 1     
   68   27   64 1     
@<TRIPOS>SUBSTRUCTURE
      1 S1             1
@<TRIPOS>SET
LONE_PAIRS      STATIC     ATOMS    <user>   **** ""
12 53 54 55 56 57 58 59 60 61 62 63 64
DONOR_HYDROGENS      STATIC     ATOMS    <user>   **** ""
2 39 49
ATOM$BLUE        STATIC     ATOMS    COLORGROUP SYSTEM
12 53 54 55 56 57 58 59 60 61 62 63 64
ATOM$RED        STATIC     ATOMS    COLORGROUP SYSTEM
2 39 49
