AV-unprocessed.smi:3350|AV-procd|sdf|12942|dock2
  -GOLD-   2272019373D 1   1.00000     0.00000
 Structure written by MMmdl.
 41 42  0  0  0  0  0  0  0  0  1 V2000
  148.9467  133.5931  155.8617 C   0  0  0  0  0  0  0  0  0  0  0  0
  149.0342  135.0558  155.4060 C   0  0  1  0  0  0  0  0  0  0  0  0
  150.5000  135.4975  155.2144 C   0  0  0  0  0  0  0  0  0  0  0  0
  150.6199  136.8979  154.8475 N   0  0  0  0  0  0  0  0  0  0  0  0
  149.6315  137.8583  154.7981 C   0  0  0  0  0  0  0  0  0  0  0  0
  150.2170  139.0232  154.3927 C   0  0  0  0  0  0  0  0  0  0  0  0
  151.5846  138.6711  154.2178 C   0  0  0  0  0  0  0  0  0  0  0  0
  151.8234  137.3993  154.4936 N   0  0  0  0  0  0  0  0  0  0  0  0
  148.2760  135.2121  154.1655 N   0  0  0  0  0  0  0  0  0  0  0  0
  147.0167  134.7983  153.9622 C   0  0  0  0  0  0  0  0  0  0  0  0
  146.3336  134.2192  154.8071 O   0  0  0  0  0  0  0  0  0  0  0  0
  146.5920  135.1001  152.7272 N   0  0  0  0  0  0  0  0  0  0  0  0
  145.2690  134.7984  152.1863 C   0  0  1  0  0  0  0  0  0  0  0  0
  144.5587  136.1247  151.8746 C   0  0  0  0  0  0  0  0  0  0  0  0
  145.4031  133.8988  150.9399 C   0  0  2  0  0  0  0  0  0  0  0  0
  144.0789  133.3574  150.3965 C   0  0  0  0  0  0  0  0  0  0  0  0
  144.4738  132.0717  149.6848 C   0  0  0  0  0  0  0  0  0  0  0  0
  145.9040  131.8063  150.1607 C   0  0  0  0  0  0  0  0  0  0  0  0
  146.0998  132.7002  151.2464 O   0  0  0  0  0  0  0  0  0  0  0  0
  149.4702  133.4449  156.8066 H   0  0  0  0  0  0  0  0  0  0  0  0
  149.3903  132.9202  155.1272 H   0  0  0  0  0  0  0  0  0  0  0  0
  147.9098  133.2890  156.0095 H   0  0  0  0  0  0  0  0  0  0  0  0
  148.5877  135.6648  156.1943 H   0  0  0  0  0  0  0  0  0  0  0  0
  151.0576  135.3496  156.1399 H   0  0  0  0  0  0  0  0  0  0  0  0
  150.9901  134.8834  154.4568 H   0  0  0  0  0  0  0  0  0  0  0  0
  148.6050  137.6335  155.0477 H   0  0  0  0  0  0  0  0  0  0  0  0
  149.7408  139.9805  154.2423 H   0  0  0  0  0  0  0  0  0  0  0  0
  152.4056  139.2977  153.9026 H   0  0  0  0  0  0  0  0  0  0  0  0
  148.7450  135.6838  153.4063 H   0  0  0  0  0  0  0  0  0  0  0  0
  147.2333  135.5773  152.1109 H   0  0  0  0  0  0  0  0  0  0  0  0
  144.6753  134.2746  152.9379 H   0  0  0  0  0  0  0  0  0  0  0  0
  143.5387  135.9579  151.5279 H   0  0  0  0  0  0  0  0  0  0  0  0
  145.0853  136.6858  151.1020 H   0  0  0  0  0  0  0  0  0  0  0  0
  144.4998  136.7550  152.7627 H   0  0  0  0  0  0  0  0  0  0  0  0
  145.9409  134.4236  150.1476 H   0  0  0  0  0  0  0  0  0  0  0  0
  143.4018  133.1226  151.2190 H   0  0  0  0  0  0  0  0  0  0  0  0
  143.5746  134.0657  149.7385 H   0  0  0  0  0  0  0  0  0  0  0  0
  143.8022  131.2573  149.9582 H   0  0  0  0  0  0  0  0  0  0  0  0
  144.4414  132.1837  148.6006 H   0  0  0  0  0  0  0  0  0  0  0  0
  146.0595  130.7717  150.4674 H   0  0  0  0  0  0  0  0  0  0  0  0
  146.6205  132.0393  149.3717 H   0  0  0  0  0  0  0  0  0  0  0  0
  1  2  1  0  0  0  0
  1 20  1  0  0  0  0
  1 21  1  0  0  0  0
  1 22  1  0  0  0  0
  2  3  1  0  0  0  0
  2  9  1  0  0  0  0
  2 23  1  0  0  0  0
  3  4  1  0  0  0  0
  3 24  1  0  0  0  0
  3 25  1  0  0  0  0
  4  8  1  0  0  0  0
  4  5  1  0  0  0  0
  5  6  2  0  0  0  0
  5 26  1  0  0  0  0
  6  7  1  0  0  0  0
  6 27  1  0  0  0  0
  7  8  2  0  0  0  0
  7 28  1  0  0  0  0
  9 10  1  0  0  0  0
  9 29  1  0  0  0  0
 10 11  2  0  0  0  0
 10 12  1  0  0  0  0
 12 13  1  0  0  0  0
 12 30  1  0  0  0  0
 13 14  1  0  0  0  0
 13 15  1  0  0  0  0
 13 31  1  0  0  0  0
 14 32  1  0  0  0  0
 14 33  1  0  0  0  0
 14 34  1  0  0  0  0
 15 19  1  0  0  0  0
 15 16  1  0  0  0  0
 15 35  1  0  0  0  0
 16 17  1  0  0  0  0
 16 36  1  0  0  0  0
 16 37  1  0  0  0  0
 17 18  1  0  0  0  0
 17 38  1  0  0  0  0
 17 39  1  0  0  0  0
 18 19  1  0  0  0  0
 18 40  1  0  0  0  0
 18 41  1  0  0  0  0
M  END
> <s_m_source_file>
AV-unprocessed.smi

> <i_m_source_file_index>
3350

> <i_lp_mmshare_version>
43012

> <i_f3d_flags>
0

> <s_epik_input>
bjFbY0hdW2NIXVtjSF1uMVtDSDJdW0NAQEhdKFtDSDNdKVtOSF1DKD1PKVtOSF1bQ0BIXShbQ0gzXSlbQ0BASF0yW0NIMl1bQ0gyXVtDSDJdTzI=

> <s_epik_cmdline>
J2VwaWtfcHl0aG9uJywgJy1waCcsICc3LjAnLCAnLXRuJywgJzgnLCAnLW1hJywgJzIwMCcsICctbWV0YWxfYmluZGluZycsICctaW1hZScsICc8aW5maWxlLm1hZT4nLCAnLW9tYWUnLCAnPG91dGZpbGUubWFlPic=

> <r_lp_tautomer_probability>
1

> <r_epik_Ionization_Penalty>
6.42349e-05

> <r_epik_Ionization_Penalty_Charging>
0

> <r_epik_Ionization_Penalty_Neutral>
6.42349e-05

> <r_epik_State_Penalty>
-0

> <r_epik_Charging_Adjusted_Penalty>
0

> <i_epik_Tot_Q>
0

> <i_epik_Tot_abs_Q>
0

> <r_epik_Metal_State_Penalty>
-0

> <b_epik_Metal_Only>
0

> <s_lp_Force_Field>
OPLS_2005

> <r_lp_Energy>
15.8996

> <b_lp_Chiralities_Consistent>
1

> <s_lp_Variant>
AV-unprocessed.smi:3350-4

> <Gold.Version>
5.8.1

> <Gold.Id.Protein>
6NUR|6NUR_protein|mol2

> <Gold.PLP.Fitness>
41.5786

> <Gold.PLP.PLP>
-32.9525

> <Gold.PLP.part.hbond>
-3.0000

> <Gold.PLP.part.metal>
0.0000

> <Gold.PLP.part.buried>
-4.6156

> <Gold.PLP.part.nonpolar>
-25.5862

> <Gold.PLP.part.repulsive>
0.3706

> <Gold.PLP.ligand.clash>
0.0000

> <Gold.PLP.ligand.torsion>
0.1637

> <Gold.PLP.Chemscore.Hbond>
2.9440

> <Gold.PLP.Chemscore.CHOScore>
0.0000

> <Gold.PLP.Chemscore.Metal>
0.0000

> <Gold.Chemscore.Hbonds>
donor molecule, donor type, donor heavy atom, donor atom, acceptor molecule, acceptor atom, score
      L1  H     9    29       P1  7948  1.00
      L1  H    12    30       P1  7948  0.96
      P1  H 10752 10765       L1     8  0.89

> <Gold.PLP.Chemscore.Internal.Correction>
0.1215

> <Gold.Rescore>
     Score         DG    S(hbond)    S(metal)    S(lipo)     H(rot)  DE(clash)    DE(int)     intcor
     16.70     -18.43       2.59        0.00      76.71       1.82       0.16       1.58       ----

> <Gold.Chemscore.Fitness>
16.6978

> <Gold.Chemscore.DG>
-18.4347

> <Gold.Chemscore.ZeroCoef>
-5.4800

> <Gold.Chemscore.Hbond>
2.5864

> <Gold.Chemscore.Metal>
0.0000

> <Gold.Chemscore.Lipo>
76.7063

> <Gold.Chemscore.Internal_Hbond>
0.0000

> <Gold.Chemscore.DEClash>
0.1607

> <Gold.Chemscore.DEInternal>
1.5763

> <Gold.Chemscore.Rot>
1.8197

> <Gold.Chemscore.Internal.Correction>
   9.000000E+99

> <Gold.Chemscore.Hbonds>
donor molecule, donor type, donor heavy atom, donor atom, acceptor molecule, acceptor atom, score
      L1  H     9    29       P1  7948  0.95
      L1  H    12    30       P1  7948  0.92
      P1  H 10752 10765       L1     8  0.28

> <Gold.Chemscore.Hbond.Weighted>
-8.6384

> <Gold.Chemscore.Metal.Weighted>
-0.0000

> <Gold.Chemscore.Lipo.Weighted>
-8.9746

> <Gold.Chemscore.Internal_Hbond.Weighted>
0.0000

> <Gold.Chemscore.DEClash.Weighted>
0.1607

> <Gold.Chemscore.DEInternal.Weighted>
1.5763

> <Gold.Chemscore.Rot.Weighted>
4.6583

> <Gold.Chemscore.Internal.Correction.Weighted>
   9.000000E+99

> <Gold.Protein.RotatedTorsions>
[ 6907 6896 6895 6894 ] final   29.92 input  -60.11 | X-H torsion
[ 7974 7965 7964 7962 ] final  156.08 input  175.53 | X-H torsion
[ 8008 7997 7996 7995 ] final  -37.15 input   59.86 | X-H torsion
[ 10167 10162 10161 10158 ] final  -44.40 input  -65.29 | X-H torsion
[ 10718 10713 10712 10709 ] final  175.91 input   66.30 | X-H torsion
[ 10763 10752 10751 10750 ] final  160.63 input  -60.55 | X-H torsion
[ 11005 11000 10999 10996 ] final -146.92 input  -57.11 | X-H torsion

> <Gold.Protein.ActiveResidues>
 VAL166  LYS551  ARG553  GLY616  TRP617  ASP618  TYR619  PRO620  LYS621  CYS622 
 ASP623  PHE694  ASN695  SER759  ASP760  ASP761  ALA762  ILE779  LEU786  VAL792 
 PHE793  MET794  SER795  GLU796  ALA797  LYS798  CYS799  TRP800  GLU811  SER814 

> <Gold.Protein.RotatedAtoms>
  152.0386  134.9725  160.0573 H   0  0  0  0  0  0  0  0  0  0  0  0  # atno 6907 bound_to 6896
  152.1173  133.4329  159.4667 H   0  0  0  0  0  0  0  0  0  0  0  0  # atno 6908 bound_to 6896
  150.6847  134.2496  159.4548 H   0  0  0  0  0  0  0  0  0  0  0  0  # atno 6909 bound_to 6896
  144.7985  139.7155  143.6192 H   0  0  0  0  0  0  0  0  0  0  0  0  # atno 7974 bound_to 7965
  154.4059  140.1612  156.2490 H   0  0  0  0  0  0  0  0  0  0  0  0  # atno 8008 bound_to 7997
  155.9135  140.3426  155.6095 H   0  0  0  0  0  0  0  0  0  0  0  0  # atno 8009 bound_to 7997
  155.7307  140.0780  157.2281 H   0  0  0  0  0  0  0  0  0  0  0  0  # atno 8010 bound_to 7997
  140.6898  143.2932  151.3489 H   0  0  0  0  0  0  0  0  0  0  0  0  # atno 10167 bound_to 10162
  156.9280  130.9962  151.2992 H   0  0  0  0  0  0  0  0  0  0  0  0  # atno 10718 bound_to 10713
  154.2503  135.2771  155.2819 H   0  0  0  0  0  0  0  0  0  0  0  0  # atno 10763 bound_to 10752
  154.5470  135.5686  153.6892 H   0  0  0  0  0  0  0  0  0  0  0  0  # atno 10764 bound_to 10752
  152.9982  135.6265  154.2650 H   0  0  0  0  0  0  0  0  0  0  0  0  # atno 10765 bound_to 10752
  140.7770  134.3123  157.5057 H   0  0  0  0  0  0  0  0  0  0  0  0  # atno 11005 bound_to 11000
  146.2260  139.5724  142.9587 LP  0  0  0  0  0  0  0  0  0  0  0  0  # atno 17320 bound_to 7965
  145.5612  141.0404  143.2225 LP  0  0  0  0  0  0  0  0  0  0  0  0  # atno 17321 bound_to 7965
  139.6290  144.0757  152.2460 LP  0  0  0  0  0  0  0  0  0  0  0  0  # atno 17342 bound_to 10162
  140.0226  144.6141  150.7554 LP  0  0  0  0  0  0  0  0  0  0  0  0  # atno 17343 bound_to 10162
  157.5865  130.8413  149.8597 LP  0  0  0  0  0  0  0  0  0  0  0  0  # atno 17370 bound_to 10713
  156.0460  130.3728  150.1316 LP  0  0  0  0  0  0  0  0  0  0  0  0  # atno 17371 bound_to 10713
  139.8747  134.9295  156.3479 LP  0  0  0  0  0  0  0  0  0  0  0  0  # atno 17394 bound_to 11000
  140.9519  133.7445  156.0283 LP  0  0  0  0  0  0  0  0  0  0  0  0  # atno 17395 bound_to 11000

$$$$
