AV-unprocessed.smi:2510|AV-procd|sdf|9872|dock1
  -GOLD-   2272013503D 1   1.00000     0.00000
 Structure written by MMmdl.
 48 49  0  0  0  0  0  0  0  0  1 V2000
  147.7584  142.0225  154.0828 C   0  0  0  0  0  0  0  0  0  0  0  0
  147.8131  140.5240  153.7353 C   0  0  0  0  0  0  0  0  0  0  0  0
  148.0584  139.5460  154.9208 C   0  0  0  0  0  0  0  0  0  0  0  0
  147.1131  139.8934  156.0873 C   0  0  0  0  0  0  0  0  0  0  0  0
  145.6258  139.9601  155.7057 C   0  0  0  0  0  0  0  0  0  0  0  0
  148.1624  138.0297  154.5890 C   0  0  1  0  0  0  0  0  0  0  0  0
  147.4936  137.6013  153.3653 N   0  0  0  0  0  0  0  0  0  0  0  0
  146.1686  137.4384  153.2306 C   0  0  0  0  0  0  0  0  0  0  0  0
  145.3627  137.6622  154.1337 O   0  0  0  0  0  0  0  0  0  0  0  0
  145.6770  136.9382  151.8705 C   0  0  0  0  0  0  0  0  0  0  0  0
  144.9503  135.6282  152.0213 C   0  0  0  0  0  0  0  0  0  0  0  0
  144.5175  134.7412  150.9913 C   0  0  0  0  0  0  0  0  0  0  0  0
  143.9341  133.7033  151.6616 C   0  0  0  0  0  0  0  0  0  0  0  0
  143.2924  132.4494  151.1738 C   0  0  0  0  0  0  0  0  0  0  0  0
  144.0319  134.0064  152.9998 N   0  0  0  0  0  0  0  0  0  0  0  0
  144.6473  135.1801  153.2327 N   0  0  0  0  0  0  0  0  0  0  0  0
  149.6746  138.1832  154.3917 C   0  0  2  0  0  0  0  0  0  0  0  0
  150.5827  137.0166  154.7586 C   0  0  0  0  0  0  0  0  0  0  0  0
  149.5449  139.3834  155.3398 C   0  0  1  0  0  0  0  0  0  0  0  0
  150.3436  140.5078  155.0002 O   0  0  0  0  0  0  0  0  0  0  0  0
  150.1999  141.5900  155.9028 C   0  0  0  0  0  0  0  0  0  0  0  0
  143.6872  133.4298  153.7543 H   0  0  0  0  0  0  0  0  0  0  0  0
  147.4025  142.6002  153.2299 H   0  0  0  0  0  0  0  0  0  0  0  0
  148.7419  142.4117  154.3439 H   0  0  0  0  0  0  0  0  0  0  0  0
  147.0916  142.2259  154.9168 H   0  0  0  0  0  0  0  0  0  0  0  0
  146.8805  140.2700  153.2315 H   0  0  0  0  0  0  0  0  0  0  0  0
  148.5797  140.3886  152.9721 H   0  0  0  0  0  0  0  0  0  0  0  0
  147.2499  139.2040  156.9199 H   0  0  0  0  0  0  0  0  0  0  0  0
  147.3871  140.8665  156.4961 H   0  0  0  0  0  0  0  0  0  0  0  0
  145.0255  140.2764  156.5587 H   0  0  0  0  0  0  0  0  0  0  0  0
  145.2453  138.9916  155.3826 H   0  0  0  0  0  0  0  0  0  0  0  0
  145.4544  140.6738  154.8997 H   0  0  0  0  0  0  0  0  0  0  0  0
  147.9456  137.3989  155.4551 H   0  0  0  0  0  0  0  0  0  0  0  0
  148.0800  137.4053  152.5664 H   0  0  0  0  0  0  0  0  0  0  0  0
  145.0317  137.6945  151.4216 H   0  0  0  0  0  0  0  0  0  0  0  0
  146.5285  136.8211  151.1990 H   0  0  0  0  0  0  0  0  0  0  0  0
  144.6291  134.8488  149.9225 H   0  0  0  0  0  0  0  0  0  0  0  0
  143.3770  132.3644  150.0902 H   0  0  0  0  0  0  0  0  0  0  0  0
  142.2334  132.4311  151.4314 H   0  0  0  0  0  0  0  0  0  0  0  0
  143.7658  131.5736  151.6179 H   0  0  0  0  0  0  0  0  0  0  0  0
  149.8909  138.5369  153.3817 H   0  0  0  0  0  0  0  0  0  0  0  0
  150.4348  136.7063  155.7932 H   0  0  0  0  0  0  0  0  0  0  0  0
  151.6343  137.2751  154.6386 H   0  0  0  0  0  0  0  0  0  0  0  0
  150.3844  136.1520  154.1249 H   0  0  0  0  0  0  0  0  0  0  0  0
  149.6432  139.0987  156.3904 H   0  0  0  0  0  0  0  0  0  0  0  0
  150.8015  142.4319  155.5602 H   0  0  0  0  0  0  0  0  0  0  0  0
  150.5415  141.3229  156.9023 H   0  0  0  0  0  0  0  0  0  0  0  0
  149.1621  141.9206  155.9616 H   0  0  0  0  0  0  0  0  0  0  0  0
  1  2  1  0  0  0  0
  1 23  1  0  0  0  0
  1 24  1  0  0  0  0
  1 25  1  0  0  0  0
  2  3  1  0  0  0  0
  2 26  1  0  0  0  0
  2 27  1  0  0  0  0
  3 19  1  0  0  0  0
  3  4  1  0  0  0  0
  3  6  1  0  0  0  0
  4  5  1  0  0  0  0
  4 28  1  0  0  0  0
  4 29  1  0  0  0  0
  5 30  1  0  0  0  0
  5 31  1  0  0  0  0
  5 32  1  0  0  0  0
  6  7  1  0  0  0  0
  6 17  1  0  0  0  0
  6 33  1  0  0  0  0
  7  8  1  0  0  0  0
  7 34  1  0  0  0  0
  8  9  2  0  0  0  0
  8 10  1  0  0  0  0
 10 11  1  0  0  0  0
 10 35  1  0  0  0  0
 10 36  1  0  0  0  0
 11 16  2  0  0  0  0
 11 12  1  0  0  0  0
 12 13  2  0  0  0  0
 12 37  1  0  0  0  0
 13 14  1  0  0  0  0
 13 15  1  0  0  0  0
 14 38  1  0  0  0  0
 14 39  1  0  0  0  0
 14 40  1  0  0  0  0
 15 22  1  0  0  0  0
 15 16  1  0  0  0  0
 17 18  1  0  0  0  0
 17 19  1  0  0  0  0
 17 41  1  0  0  0  0
 18 42  1  0  0  0  0
 18 43  1  0  0  0  0
 18 44  1  0  0  0  0
 19 20  1  0  0  0  0
 19 45  1  0  0  0  0
 20 21  1  0  0  0  0
 21 46  1  0  0  0  0
 21 47  1  0  0  0  0
 21 48  1  0  0  0  0
M  END
> <s_m_source_file>
AV-unprocessed.smi

> <i_m_source_file_index>
2510

> <i_lp_mmshare_version>
43012

> <i_f3d_flags>
0

> <s_epik_input>
W0NIM11PW0NAQEhdMVtDQEhdKFtDSDNdKVtDQEBIXShDMShbQ0gyXVtDSDNdKVtDSDJdW0NIM10pW05IXUMoPU8pW0NIMl1jMltjSF1jKFtDSDNdKVtuSF1uMg==

> <s_epik_cmdline>
J2VwaWtfcHl0aG9uJywgJy1waCcsICc3LjAnLCAnLXRuJywgJzgnLCAnLW1hJywgJzIwMCcsICctbWV0YWxfYmluZGluZycsICctaW1hZScsICc8aW5maWxlLm1hZT4nLCAnLW9tYWUnLCAnPG91dGZpbGUubWFlPic=

> <r_lp_tautomer_probability>
0.5

> <r_epik_Ionization_Penalty>
9.73156e-05

> <r_epik_Ionization_Penalty_Charging>
0

> <r_epik_Ionization_Penalty_Neutral>
9.73156e-05

> <r_epik_State_Penalty>
0.41068

> <r_epik_Charging_Adjusted_Penalty>
0.41068

> <i_epik_Tot_Q>
0

> <i_epik_Tot_abs_Q>
0

> <r_epik_Metal_State_Penalty>
0.410699

> <b_epik_Metal_Only>
0

> <s_lp_Force_Field>
OPLS_2005

> <r_lp_Energy>
23.9763

> <b_lp_Chiralities_Consistent>
1

> <s_lp_Variant>
AV-unprocessed.smi:2510-3

> <Gold.Version>
5.8.1

> <Gold.Id.Protein>
6NUR|6NUR_protein|mol2

> <Gold.PLP.Fitness>
35.6755

> <Gold.PLP.PLP>
-29.0335

> <Gold.PLP.part.hbond>
-2.3150

> <Gold.PLP.part.metal>
0.0000

> <Gold.PLP.part.buried>
-4.4059

> <Gold.PLP.part.nonpolar>
-24.9980

> <Gold.PLP.part.repulsive>
0.2732

> <Gold.PLP.ligand.clash>
0.0000

> <Gold.PLP.ligand.torsion>
0.5586

> <Gold.PLP.Chemscore.Hbond>
2.3765

> <Gold.PLP.Chemscore.CHOScore>
0.0000

> <Gold.PLP.Chemscore.Metal>
0.0000

> <Gold.Chemscore.Hbonds>
donor molecule, donor type, donor heavy atom, donor atom, acceptor molecule, acceptor atom, score
      L1  H     7    34       P1  7948  0.88
      L1  H    15    22       P1 10957  0.55
      P1  H  7989  7998       L1    20  0.98

> <Gold.PLP.Chemscore.Internal.Correction>
0.6296

> <Gold.Rescore>
     Score         DG    S(hbond)    S(metal)    S(lipo)     H(rot)  DE(clash)    DE(int)     intcor
     15.54     -17.87       2.41        0.00      76.68       1.81       0.01       2.32       ----

> <Gold.Chemscore.Fitness>
15.5389

> <Gold.Chemscore.DG>
-17.8674

> <Gold.Chemscore.ZeroCoef>
-5.4800

> <Gold.Chemscore.Hbond>
2.4102

> <Gold.Chemscore.Metal>
0.0000

> <Gold.Chemscore.Lipo>
76.6777

> <Gold.Chemscore.Internal_Hbond>
0.0000

> <Gold.Chemscore.DEClash>
0.0108

> <Gold.Chemscore.DEInternal>
2.3178

> <Gold.Chemscore.Rot>
1.8102

> <Gold.Chemscore.Internal.Correction>
   9.000000E+99

> <Gold.Chemscore.Hbonds>
donor molecule, donor type, donor heavy atom, donor atom, acceptor molecule, acceptor atom, score
      L1  H     7    34       P1  7948  0.86
      L1  H    15    22       P1 10957  0.56
      P1  H  7989  7998       L1    20  0.76

> <Gold.Chemscore.Hbond.Weighted>
-8.0502

> <Gold.Chemscore.Metal.Weighted>
-0.0000

> <Gold.Chemscore.Lipo.Weighted>
-8.9713

> <Gold.Chemscore.Internal_Hbond.Weighted>
0.0000

> <Gold.Chemscore.DEClash.Weighted>
0.0108

> <Gold.Chemscore.DEInternal.Weighted>
2.3178

> <Gold.Chemscore.Rot.Weighted>
4.6341

> <Gold.Chemscore.Internal.Correction.Weighted>
   9.000000E+99

> <Gold.Protein.RotatedTorsions>
[ 6907 6896 6895 6894 ] final  109.61 input  -60.11 | X-H torsion
[ 7974 7965 7964 7962 ] final -166.30 input  175.53 | X-H torsion
[ 8008 7997 7996 7995 ] final -132.77 input   59.86 | X-H torsion
[ 10167 10162 10161 10158 ] final  -42.12 input  -65.29 | X-H torsion
[ 10718 10713 10712 10709 ] final  -50.65 input   66.30 | X-H torsion
[ 10763 10752 10751 10750 ] final   15.52 input  -60.55 | X-H torsion
[ 11005 11000 10999 10996 ] final -120.64 input  -57.11 | X-H torsion

> <Gold.Protein.ActiveResidues>
 VAL166  LYS551  ARG553  GLY616  TRP617  ASP618  TYR619  PRO620  LYS621  CYS622 
 ASP623  PHE694  ASN695  SER759  ASP760  ASP761  ALA762  ILE779  LEU786  VAL792 
 PHE793  MET794  SER795  GLU796  ALA797  LYS798  CYS799  TRP800  GLU811  SER814 

> <Gold.Protein.RotatedAtoms>
  152.5059  133.8919  159.7397 H   0  0  0  0  0  0  0  0  0  0  0  0  # atno 6907 bound_to 6896
  150.9356  133.6707  159.2808 H   0  0  0  0  0  0  0  0  0  0  0  0  # atno 6908 bound_to 6896
  151.4037  135.0979  159.9616 H   0  0  0  0  0  0  0  0  0  0  0  0  # atno 6909 bound_to 6896
  144.7249  140.2687  143.6254 H   0  0  0  0  0  0  0  0  0  0  0  0  # atno 7974 bound_to 7965
  155.3344  140.0468  157.3043 H   0  0  0  0  0  0  0  0  0  0  0  0  # atno 8008 bound_to 7997
  154.5311  140.2257  155.8769 H   0  0  0  0  0  0  0  0  0  0  0  0  # atno 8009 bound_to 7997
  156.1789  140.3078  155.9117 H   0  0  0  0  0  0  0  0  0  0  0  0  # atno 8010 bound_to 7997
  140.6980  143.3056  151.3163 H   0  0  0  0  0  0  0  0  0  0  0  0  # atno 10167 bound_to 10162
  156.1781  130.4150  149.9547 H   0  0  0  0  0  0  0  0  0  0  0  0  # atno 10718 bound_to 10713
  153.1518  135.6780  153.8871 H   0  0  0  0  0  0  0  0  0  0  0  0  # atno 10763 bound_to 10752
  153.8295  135.3119  155.3418 H   0  0  0  0  0  0  0  0  0  0  0  0  # atno 10764 bound_to 10752
  154.7868  135.4858  154.0049 H   0  0  0  0  0  0  0  0  0  0  0  0  # atno 10765 bound_to 10752
  141.0129  134.0238  157.3389 H   0  0  0  0  0  0  0  0  0  0  0  0  # atno 11005 bound_to 11000
  145.8064  139.1985  143.2018 LP  0  0  0  0  0  0  0  0  0  0  0  0  # atno 17320 bound_to 7965
  146.0633  140.7947  142.9724 LP  0  0  0  0  0  0  0  0  0  0  0  0  # atno 17321 bound_to 7965
  139.6460  144.0450  152.2591 LP  0  0  0  0  0  0  0  0  0  0  0  0  # atno 17342 bound_to 10162
  139.9971  144.6320  150.7762 LP  0  0  0  0  0  0  0  0  0  0  0  0  # atno 17343 bound_to 10162
  156.7326  130.9049  151.3627 LP  0  0  0  0  0  0  0  0  0  0  0  0  # atno 17370 bound_to 10713
  157.6849  130.9176  150.0362 LP  0  0  0  0  0  0  0  0  0  0  0  0  # atno 17371 bound_to 10713
  139.9100  135.0188  156.7651 LP  0  0  0  0  0  0  0  0  0  0  0  0  # atno 17394 bound_to 11000
  140.6703  133.9565  155.7853 LP  0  0  0  0  0  0  0  0  0  0  0  0  # atno 17395 bound_to 11000

$$$$
