AV-unprocessed.smi:1529|AV-procd|sdf|6152|dock3
  -GOLD-   22720 6303D 1   1.00000     0.00000
 Structure written by MMmdl.
 50 51  0  0  0  0  0  0  0  0  1 V2000
  142.0572  137.1123  153.6888 C   0  0  0  0  0  0  0  0  0  0  0  0
  143.4774  136.5981  153.4786 C   0  0  0  0  0  0  0  0  0  0  0  0
  143.6839  135.3932  153.3369 O   0  0  0  0  0  0  0  0  0  0  0  0
  144.4473  137.5248  153.4618 N   0  0  0  0  0  0  0  0  0  0  0  0
  145.8689  137.2492  153.2787 C   0  0  0  0  0  0  0  0  0  0  0  0
  146.4044  137.7685  151.9319 C   0  0  0  0  0  0  0  0  0  0  0  0
  146.5607  139.2992  151.8793 C   0  0  0  0  0  0  0  0  0  0  0  0
  147.4363  139.7832  152.9396 N   0  0  0  0  0  0  0  0  0  0  0  0
  147.0888  139.9054  154.2312 C   0  0  0  0  0  0  0  0  0  0  0  0
  145.9670  139.6353  154.6613 O   0  0  0  0  0  0  0  0  0  0  0  0
  148.1442  140.4696  155.1378 C   0  0  0  0  0  0  0  0  0  0  0  0
  148.0026  140.3957  156.5391 C   0  0  0  0  0  0  0  0  0  0  0  0
  149.0208  140.9158  157.3608 C   0  0  0  0  0  0  0  0  0  0  0  0
  150.1647  141.4946  156.7622 C   0  0  0  0  0  0  0  0  0  0  0  0
  151.1953  142.0272  157.5668 N   0  0  0  0  0  0  0  0  0  0  0  0
  150.9907  143.3492  158.1553 C   0  0  0  0  0  0  0  0  0  0  0  0
  152.3085  143.8878  158.7421 C   0  0  1  0  0  0  0  0  0  0  0  0
  152.1105  145.2196  159.4734 C   0  0  0  0  0  0  0  0  0  0  0  0
  152.8271  142.9399  159.6710 O   0  0  0  0  0  0  0  0  0  0  0  0
  153.1274  141.6878  159.0605 C   0  0  1  0  0  0  0  0  0  0  0  0
  153.7628  140.7784  160.1173 C   0  0  0  0  0  0  0  0  0  0  0  0
  151.8352  141.0834  158.4794 C   0  0  0  0  0  0  0  0  0  0  0  0
  150.3080  141.5473  155.4149 N   0  0  0  0  0  0  0  0  0  0  0  0
  149.3293  141.0478  154.6311 C   0  0  0  0  0  0  0  0  0  0  0  0
  141.9924  137.6886  154.6123 H   0  0  0  0  0  0  0  0  0  0  0  0
  141.3504  136.2842  153.7533 H   0  0  0  0  0  0  0  0  0  0  0  0
  141.7580  137.7529  152.8590 H   0  0  0  0  0  0  0  0  0  0  0  0
  144.1819  138.4916  153.5832 H   0  0  0  0  0  0  0  0  0  0  0  0
  146.4385  137.6857  154.1009 H   0  0  0  0  0  0  0  0  0  0  0  0
  146.0173  136.1710  153.3432 H   0  0  0  0  0  0  0  0  0  0  0  0
  147.3623  137.2955  151.7099 H   0  0  0  0  0  0  0  0  0  0  0  0
  145.7221  137.4471  151.1439 H   0  0  0  0  0  0  0  0  0  0  0  0
  146.9400  139.6120  150.9048 H   0  0  0  0  0  0  0  0  0  0  0  0
  145.5916  139.7825  152.0043 H   0  0  0  0  0  0  0  0  0  0  0  0
  148.3717  140.0525  152.6712 H   0  0  0  0  0  0  0  0  0  0  0  0
  147.1269  139.9484  156.9871 H   0  0  0  0  0  0  0  0  0  0  0  0
  148.9191  140.8507  158.4338 H   0  0  0  0  0  0  0  0  0  0  0  0
  150.6217  144.0436  157.3990 H   0  0  0  0  0  0  0  0  0  0  0  0
  150.2311  143.2814  158.9355 H   0  0  0  0  0  0  0  0  0  0  0  0
  153.0337  144.0373  157.9400 H   0  0  0  0  0  0  0  0  0  0  0  0
  151.7232  145.9838  158.7992 H   0  0  0  0  0  0  0  0  0  0  0  0
  153.0538  145.5838  159.8813 H   0  0  0  0  0  0  0  0  0  0  0  0
  151.4081  145.1150  160.3010 H   0  0  0  0  0  0  0  0  0  0  0  0
  153.8516  141.8449  158.2589 H   0  0  0  0  0  0  0  0  0  0  0  0
  154.0231  139.8075  159.6949 H   0  0  0  0  0  0  0  0  0  0  0  0
  153.0826  140.6091  160.9526 H   0  0  0  0  0  0  0  0  0  0  0  0
  154.6753  141.2226  160.5156 H   0  0  0  0  0  0  0  0  0  0  0  0
  151.1361  140.8472  159.2830 H   0  0  0  0  0  0  0  0  0  0  0  0
  152.0749  140.1441  157.9831 H   0  0  0  0  0  0  0  0  0  0  0  0
  149.5094  141.1136  153.5681 H   0  0  0  0  0  0  0  0  0  0  0  0
  1  2  1  0  0  0  0
  1 25  1  0  0  0  0
  1 26  1  0  0  0  0
  1 27  1  0  0  0  0
  2  3  2  0  0  0  0
  2  4  1  0  0  0  0
  4  5  1  0  0  0  0
  4 28  1  0  0  0  0
  5  6  1  0  0  0  0
  5 29  1  0  0  0  0
  5 30  1  0  0  0  0
  6  7  1  0  0  0  0
  6 31  1  0  0  0  0
  6 32  1  0  0  0  0
  7  8  1  0  0  0  0
  7 33  1  0  0  0  0
  7 34  1  0  0  0  0
  8  9  1  0  0  0  0
  8 35  1  0  0  0  0
  9 10  2  0  0  0  0
  9 11  1  0  0  0  0
 11 24  1  0  0  0  0
 11 12  2  0  0  0  0
 12 13  1  0  0  0  0
 12 36  1  0  0  0  0
 13 14  2  0  0  0  0
 13 37  1  0  0  0  0
 14 15  1  0  0  0  0
 14 23  1  0  0  0  0
 15 22  1  0  0  0  0
 15 16  1  0  0  0  0
 16 17  1  0  0  0  0
 16 38  1  0  0  0  0
 16 39  1  0  0  0  0
 17 18  1  0  0  0  0
 17 19  1  0  0  0  0
 17 40  1  0  0  0  0
 18 41  1  0  0  0  0
 18 42  1  0  0  0  0
 18 43  1  0  0  0  0
 19 20  1  0  0  0  0
 20 21  1  0  0  0  0
 20 22  1  0  0  0  0
 20 44  1  0  0  0  0
 21 45  1  0  0  0  0
 21 46  1  0  0  0  0
 21 47  1  0  0  0  0
 22 48  1  0  0  0  0
 22 49  1  0  0  0  0
 23 24  2  0  0  0  0
 24 50  1  0  0  0  0
M  END
> <s_m_source_file>
AV-unprocessed.smi

> <i_m_source_file_index>
1529

> <i_lp_mmshare_version>
43012

> <i_f3d_flags>
0

> <s_epik_input>
W0NIM11DKD1PKVtOSF1bQ0gyXVtDSDJdW0NIMl1bTkhdQyg9TyljMVtjSF1bY0hdYyhuW2NIXTEpTjJbQ0gyXVtDQEBIXShbQ0gzXSlPW0NAQEhdKFtDSDNdKVtDSDJdMg==

> <s_epik_cmdline>
J2VwaWtfcHl0aG9uJywgJy1waCcsICc3LjAnLCAnLXRuJywgJzgnLCAnLW1hJywgJzIwMCcsICctbWV0YWxfYmluZGluZycsICctaW1hZScsICc8aW5maWxlLm1hZT4nLCAnLW9tYWUnLCAnPG91dGZpbGUubWFlPic=

> <r_lp_tautomer_probability>
1

> <r_epik_Ionization_Penalty>
2.1474e-05

> <r_epik_Ionization_Penalty_Charging>
0

> <r_epik_Ionization_Penalty_Neutral>
2.1474e-05

> <r_epik_State_Penalty>
-0

> <r_epik_Charging_Adjusted_Penalty>
0

> <i_epik_Tot_Q>
0

> <i_epik_Tot_abs_Q>
0

> <r_epik_Metal_State_Penalty>
-0

> <b_epik_Metal_Only>
0

> <s_lp_Force_Field>
OPLS_2005

> <r_lp_Energy>
16.5769

> <b_lp_Chiralities_Consistent>
1

> <s_lp_Variant>
AV-unprocessed.smi:1529-1

> <Gold.Version>
5.8.1

> <Gold.Id.Protein>
6NUR|6NUR_protein|mol2

> <Gold.PLP.Fitness>
50.3142

> <Gold.PLP.PLP>
-42.7427

> <Gold.PLP.part.hbond>
-3.0000

> <Gold.PLP.part.metal>
0.0000

> <Gold.PLP.part.buried>
-0.0408

> <Gold.PLP.part.nonpolar>
-40.0598

> <Gold.PLP.part.repulsive>
1.3754

> <Gold.PLP.ligand.clash>
0.0000

> <Gold.PLP.ligand.torsion>
0.5269

> <Gold.PLP.Chemscore.Hbond>
1.7520

> <Gold.PLP.Chemscore.CHOScore>
0.9933

> <Gold.PLP.Chemscore.Metal>
0.0000

> <Gold.Chemscore.Hbonds>
donor molecule, donor type, donor heavy atom, donor atom, acceptor molecule, acceptor atom, score
      L1  H     4    28       P1 10175  0.28
      L1  H     8    35       P1  7957  0.83
      L1  C    24    50       P1  7957  0.75

> <Gold.PLP.Chemscore.Internal.Correction>
0.3893

> <Gold.Rescore>
     Score         DG    S(hbond)    S(metal)    S(lipo)     H(rot)  DE(clash)    DE(int)     intcor
     16.01     -18.58       1.79        0.00     106.09       2.07       1.99       0.59       ----

> <Gold.Chemscore.Fitness>
16.0110

> <Gold.Chemscore.DG>
-18.5828

> <Gold.Chemscore.ZeroCoef>
-5.4800

> <Gold.Chemscore.Hbond>
1.7944

> <Gold.Chemscore.Metal>
0.0000

> <Gold.Chemscore.Lipo>
106.0862

> <Gold.Chemscore.Internal_Hbond>
0.0000

> <Gold.Chemscore.DEClash>
1.9865

> <Gold.Chemscore.DEInternal>
0.5853

> <Gold.Chemscore.Rot>
2.0713

> <Gold.Chemscore.Internal.Correction>
   9.000000E+99

> <Gold.Chemscore.Hbonds>
donor molecule, donor type, donor heavy atom, donor atom, acceptor molecule, acceptor atom, score
      L1  H     4    28       P1 10175  0.27
      L1  H     8    35       P1  7957  0.81

> <Gold.Chemscore.Hbond.Weighted>
-5.9933

> <Gold.Chemscore.Metal.Weighted>
-0.0000

> <Gold.Chemscore.Lipo.Weighted>
-12.4121

> <Gold.Chemscore.Internal_Hbond.Weighted>
0.0000

> <Gold.Chemscore.DEClash.Weighted>
1.9865

> <Gold.Chemscore.DEInternal.Weighted>
0.5853

> <Gold.Chemscore.Rot.Weighted>
5.3025

> <Gold.Chemscore.Internal.Correction.Weighted>
   9.000000E+99

> <Gold.Protein.RotatedTorsions>
[ 6907 6896 6895 6894 ] final  -36.93 input  -60.11 | X-H torsion
[ 7974 7965 7964 7962 ] final    3.29 input  175.53 | X-H torsion
[ 8008 7997 7996 7995 ] final  -67.16 input   59.86 | X-H torsion
[ 10167 10162 10161 10158 ] final  111.57 input  -65.29 | X-H torsion
[ 10718 10713 10712 10709 ] final  102.31 input   66.30 | X-H torsion
[ 10763 10752 10751 10750 ] final   75.00 input  -60.55 | X-H torsion
[ 11005 11000 10999 10996 ] final   91.58 input  -57.11 | X-H torsion

> <Gold.Protein.ActiveResidues>
 VAL166  LYS551  ARG553  GLY616  TRP617  ASP618  TYR619  PRO620  LYS621  CYS622 
 ASP623  PHE694  ASN695  SER759  ASP760  ASP761  ALA762  ILE779  LEU786  VAL792 
 PHE793  MET794  SER795  GLU796  ALA797  LYS798  CYS799  TRP800  GLU811  SER814 

> <Gold.Protein.RotatedAtoms>
  151.0210  134.9469  159.8058 H   0  0  0  0  0  0  0  0  0  0  0  0  # atno 6907 bound_to 6896
  152.5325  134.2904  159.9051 H   0  0  0  0  0  0  0  0  0  0  0  0  # atno 6908 bound_to 6896
  151.2912  133.4123  159.2667 H   0  0  0  0  0  0  0  0  0  0  0  0  # atno 6909 bound_to 6896
  146.2445  140.0708  142.8362 H   0  0  0  0  0  0  0  0  0  0  0  0  # atno 7974 bound_to 7965
  154.4782  140.0898  156.7313 H   0  0  0  0  0  0  0  0  0  0  0  0  # atno 8008 bound_to 7997
  155.4541  140.3458  155.4286 H   0  0  0  0  0  0  0  0  0  0  0  0  # atno 8009 bound_to 7997
  156.1149  140.1458  156.9274 H   0  0  0  0  0  0  0  0  0  0  0  0  # atno 8010 bound_to 7997
  139.6601  144.7129  151.1881 H   0  0  0  0  0  0  0  0  0  0  0  0  # atno 10167 bound_to 10162
  157.6806  131.0749  150.5384 H   0  0  0  0  0  0  0  0  0  0  0  0  # atno 10718 bound_to 10713
  153.0625  135.5005  154.8125 H   0  0  0  0  0  0  0  0  0  0  0  0  # atno 10763 bound_to 10752
  154.6904  135.2983  154.9490 H   0  0  0  0  0  0  0  0  0  0  0  0  # atno 10764 bound_to 10752
  154.0247  135.6737  153.4828 H   0  0  0  0  0  0  0  0  0  0  0  0  # atno 10765 bound_to 10752
  139.8836  134.8682  156.3449 H   0  0  0  0  0  0  0  0  0  0  0  0  # atno 11005 bound_to 11000
  145.0818  140.9226  143.4821 LP  0  0  0  0  0  0  0  0  0  0  0  0  # atno 17320 bound_to 7965
  145.0862  139.2923  143.5758 LP  0  0  0  0  0  0  0  0  0  0  0  0  # atno 17321 bound_to 7965
  140.7576  143.6008  150.8702 LP  0  0  0  0  0  0  0  0  0  0  0  0  # atno 17342 bound_to 10162
  139.9664  143.6105  152.2987 LP  0  0  0  0  0  0  0  0  0  0  0  0  # atno 17343 bound_to 10162
  156.5692  130.4275  149.6027 LP  0  0  0  0  0  0  0  0  0  0  0  0  # atno 17370 bound_to 10713
  156.2755  130.7041  151.1851 LP  0  0  0  0  0  0  0  0  0  0  0  0  # atno 17371 bound_to 10713
  140.9634  133.7374  156.0433 LP  0  0  0  0  0  0  0  0  0  0  0  0  # atno 17394 bound_to 11000
  140.7961  134.3562  157.5452 LP  0  0  0  0  0  0  0  0  0  0  0  0  # atno 17395 bound_to 11000

$$$$
