AV-unprocessed.smi:157|AV-procd|sdf|1319|dock5
  -GOLD-   2262019 13D 1   1.00000     0.00000
 Structure written by MMmdl.
 36 38  0  0  0  0  0  0  0  0  2 V2000
  139.2262  138.6034  152.7934 O   0  0  0  0  0  0  0  0  0  0  0  0
  139.5565  137.3450  153.3407 C   0  0  0  0  0  0  0  0  0  0  0  0
  140.5912  137.5210  154.4743 C   0  0  1  0  0  0  0  0  0  0  0  0
  141.2247  136.2599  154.7038 O   0  0  0  0  0  0  0  0  0  0  0  0
  142.4831  136.2061  154.0930 C   0  0  1  0  0  0  0  0  0  0  0  0
  142.5178  135.0508  153.1430 N   0  0  0  0  0  0  0  0  0  0  0  0
  141.5582  134.1178  152.9623 C   0  0  0  0  0  0  0  0  0  0  0  0
  141.8556  133.1974  152.0606 N   0  3  0  0  0  0  0  0  0  0  0  0
  143.1127  133.5064  151.5863 C   0  0  0  0  0  0  0  0  0  0  0  0
  143.5046  134.6620  152.2667 C   0  0  0  0  0  0  0  0  0  0  0  0
  144.6920  135.4036  152.1696 N   0  0  0  0  0  0  0  0  0  0  0  0
  145.5144  135.2854  151.1784 C   0  0  0  0  0  0  0  0  0  0  0  0
  145.4755  134.4016  150.1128 N   0  0  0  0  0  0  0  0  0  0  0  0
  145.2296  132.9795  150.2746 C   0  0  0  0  0  0  0  0  0  0  0  0
  143.7610  132.6341  150.5564 C   0  0  2  0  0  0  0  0  0  0  0  0
  143.0569  132.6266  149.3317 O   0  0  0  0  0  0  0  0  0  0  0  0
  142.6753  137.5208  153.3380 C   0  0  0  0  0  0  0  0  0  0  0  0
  141.7767  138.4385  154.1356 C   0  0  1  0  0  0  0  0  0  0  0  0
  141.4339  139.6028  153.4121 O   0  0  0  0  0  0  0  0  0  0  0  0
  140.0942  137.8712  155.3800 H   0  0  0  0  0  0  0  0  0  0  0  0
  143.2607  135.9994  154.8296 H   0  0  0  0  0  0  0  0  0  0  0  0
  143.7292  131.6086  150.9261 H   0  0  0  0  0  0  0  0  0  0  0  0
  142.2843  138.7318  155.0559 H   0  0  0  0  0  0  0  0  0  0  0  0
  139.9441  138.8934  152.2515 H   0  0  0  0  0  0  0  0  0  0  0  0
  138.6553  136.8362  153.6821 H   0  0  0  0  0  0  0  0  0  0  0  0
  139.9715  136.7498  152.5276 H   0  0  0  0  0  0  0  0  0  0  0  0
  140.6309  134.1220  153.5072 H   0  0  0  0  0  0  0  0  0  0  0  0
  146.3816  135.9456  151.1305 H   0  0  0  0  0  0  0  0  0  0  0  0
  146.0629  134.5853  149.3118 H   0  0  0  0  0  0  0  0  0  0  0  0
  145.5935  132.4415  149.3985 H   0  0  0  0  0  0  0  0  0  0  0  0
  145.8390  132.6380  151.1128 H   0  0  0  0  0  0  0  0  0  0  0  0
  142.2092  133.0214  149.4658 H   0  0  0  0  0  0  0  0  0  0  0  0
  143.7225  137.8245  153.3284 H   0  0  0  0  0  0  0  0  0  0  0  0
  142.3219  137.4181  152.3103 H   0  0  0  0  0  0  0  0  0  0  0  0
  142.2125  139.9367  152.9928 H   0  0  0  0  0  0  0  0  0  0  0  0
  141.2745  132.4156  151.7859 H   0  0  0  0  0  0  0  0  0  0  0  0
  1  2  1  0  0  0  0
  1 24  1  0  0  0  0
  2  3  1  0  0  0  0
  2 25  1  0  0  0  0
  2 26  1  0  0  0  0
  3 20  1  0  0  0  0
  3 18  1  0  0  0  0
  3  4  1  0  0  0  0
  4  5  1  0  0  0  0
  5 21  1  0  0  0  0
  5  6  1  0  0  0  0
  5 17  1  0  0  0  0
  6 10  1  0  0  0  0
  6  7  1  0  0  0  0
  7  8  2  0  0  0  0
  7 27  1  0  0  0  0
  8  9  1  0  0  0  0
  8 36  1  0  0  0  0
  9 15  1  0  0  0  0
  9 10  2  0  0  0  0
 10 11  1  0  0  0  0
 11 12  2  0  0  0  0
 12 13  1  0  0  0  0
 12 28  1  0  0  0  0
 13 14  1  0  0  0  0
 13 29  1  0  0  0  0
 14 15  1  0  0  0  0
 14 30  1  0  0  0  0
 14 31  1  0  0  0  0
 15 22  1  0  0  0  0
 15 16  1  0  0  0  0
 16 32  1  0  0  0  0
 17 18  1  0  0  0  0
 17 33  1  0  0  0  0
 17 34  1  0  0  0  0
 18 23  1  0  0  0  0
 18 19  1  0  0  0  0
 19 35  1  0  0  0  0
M  CHG  1   8   1
M  END
> <s_m_source_file>
AV-unprocessed.smi

> <i_m_source_file_index>
157

> <i_lp_mmshare_version>
43012

> <i_f3d_flags>
0

> <s_epik_input>
W09IXVtDSDJdW0NASF0xT1tDQEhdKFtDSDJdW0NAQEhdMVtPSF0pbihbY0hdbjIpYyhjMjMpTj1bQ0hdW05IXVtDSDJdW0NASF0zW09IXQ==

> <s_epik_cmdline>
J2VwaWtfcHl0aG9uJywgJy1waCcsICc3LjAnLCAnLXRuJywgJzgnLCAnLW1hJywgJzIwMCcsICctbWV0YWxfYmluZGluZycsICctaW1hZScsICc8aW5maWxlLm1hZT4nLCAnLW9tYWUnLCAnPG91dGZpbGUubWFlPic=

> <r_epik_Ionization_Penalty>
1.68594

> <r_epik_Ionization_Penalty_Charging>
0

> <r_epik_Ionization_Penalty_Neutral>
1.68594

> <r_epik_State_Penalty>
1.79006

> <r_epik_Charging_Adjusted_Penalty>
1.79006

> <i_epik_Tot_Q>
1

> <i_epik_Tot_abs_Q>
1

> <r_epik_Metal_State_Penalty>
5.85324

> <b_epik_Metal_Only>
0

> <s_epik_Chemistry_Notes>
This compound has an imine and may undergo hydrolysis. This compound contains an acetal/aminal-like group ( X-CH(R)-Y where X, Y are N, S, or O) that may be acid/base labile, releasing an aldehyde.

> <s_lp_Force_Field>
OPLS_2005

> <r_lp_Energy>
55.1144

> <b_lp_Chiralities_Consistent>
1

> <s_lp_Variant>
AV-unprocessed.smi:157-29

> <Gold.Version>
5.8.1

> <Gold.Id.Protein>
6NUR|6NUR_protein|mol2

> <Gold.PLP.Fitness>
48.8724

> <Gold.PLP.PLP>
-35.6239

> <Gold.PLP.part.hbond>
-7.4696

> <Gold.PLP.part.metal>
0.0000

> <Gold.PLP.part.buried>
-2.2741

> <Gold.PLP.part.nonpolar>
-23.4662

> <Gold.PLP.part.repulsive>
0.3338

> <Gold.PLP.ligand.clash>
0.0000

> <Gold.PLP.ligand.torsion>
0.1602

> <Gold.PLP.Chemscore.Hbond>
3.5294

> <Gold.PLP.Chemscore.CHOScore>
0.9883

> <Gold.PLP.Chemscore.Metal>
0.0000

> <Gold.Chemscore.Hbonds>
donor molecule, donor type, donor heavy atom, donor atom, acceptor molecule, acceptor atom, score
      L1  H     1    24       P1 10160  0.49
      L1  H    13    29       P1  7921  0.94
      L1  H    16    32       P1 10186  1.00
      L1  H    19    35       P1 10175  1.00
      L1  C    12    28       P1  7948  0.71

> <Gold.PLP.Chemscore.Internal.Correction>
0.0157

> <Gold.Rescore>
     Score         DG    S(hbond)    S(metal)    S(lipo)     H(rot)  DE(clash)    DE(int)     intcor
      9.39     -10.88       2.96        0.00      41.87       3.67       0.60       0.89       ----

> <Gold.Chemscore.Fitness>
9.3904

> <Gold.Chemscore.DG>
-10.8801

> <Gold.Chemscore.ZeroCoef>
-5.4800

> <Gold.Chemscore.Hbond>
2.9599

> <Gold.Chemscore.Metal>
0.0000

> <Gold.Chemscore.Lipo>
41.8712

> <Gold.Chemscore.Internal_Hbond>
0.0000

> <Gold.Chemscore.DEClash>
0.6000

> <Gold.Chemscore.DEInternal>
0.8897

> <Gold.Chemscore.Rot>
3.6659

> <Gold.Chemscore.Internal.Correction>
   9.000000E+99

> <Gold.Chemscore.Hbonds>
donor molecule, donor type, donor heavy atom, donor atom, acceptor molecule, acceptor atom, score
      L1  H     1    24       P1 10160  0.48
      L1  H    13    29       P1  7921  0.46
      L1  H    16    32       P1 10186  0.99
      L1  H    19    35       P1 10175  0.48

> <Gold.Chemscore.Hbond.Weighted>
-9.8860

> <Gold.Chemscore.Metal.Weighted>
-0.0000

> <Gold.Chemscore.Lipo.Weighted>
-4.8989

> <Gold.Chemscore.Internal_Hbond.Weighted>
0.0000

> <Gold.Chemscore.DEClash.Weighted>
0.6000

> <Gold.Chemscore.DEInternal.Weighted>
0.8897

> <Gold.Chemscore.Rot.Weighted>
9.3848

> <Gold.Chemscore.Internal.Correction.Weighted>
   9.000000E+99

> <Gold.Protein.RotatedTorsions>
[ 6907 6896 6895 6894 ] final  -78.99 input  -60.11 | X-H torsion
[ 7974 7965 7964 7962 ] final  135.03 input  175.53 | X-H torsion
[ 8008 7997 7996 7995 ] final -108.13 input   59.86 | X-H torsion
[ 10167 10162 10161 10158 ] final  -54.74 input  -65.29 | X-H torsion
[ 10718 10713 10712 10709 ] final  -36.27 input   66.30 | X-H torsion
[ 10763 10752 10751 10750 ] final  -28.21 input  -60.55 | X-H torsion
[ 11005 11000 10999 10996 ] final  175.73 input  -57.11 | X-H torsion

> <Gold.Protein.ActiveResidues>
 VAL166  LYS551  ARG553  GLY616  TRP617  ASP618  TYR619  PRO620  LYS621  CYS622 
 ASP623  PHE694  ASN695  SER759  ASP760  ASP761  ALA762  ILE779  LEU786  VAL792 
 PHE793  MET794  SER795  GLU796  ALA797  LYS798  CYS799  TRP800  GLU811  SER814 

> <Gold.Protein.RotatedAtoms>
  150.6960  134.4189  159.5195 H   0  0  0  0  0  0  0  0  0  0  0  0  # atno 6907 bound_to 6896
  152.1935  134.8648  160.0524 H   0  0  0  0  0  0  0  0  0  0  0  0  # atno 6908 bound_to 6896
  151.9594  133.3656  159.4066 H   0  0  0  0  0  0  0  0  0  0  0  0  # atno 6909 bound_to 6896
  144.9704  139.4611  143.5435 H   0  0  0  0  0  0  0  0  0  0  0  0  # atno 7974 bound_to 7965
  154.9396  140.0403  157.2090 H   0  0  0  0  0  0  0  0  0  0  0  0  # atno 8008 bound_to 7997
  154.8081  140.2863  155.5851 H   0  0  0  0  0  0  0  0  0  0  0  0  # atno 8009 bound_to 7997
  156.2968  140.2542  156.2964 H   0  0  0  0  0  0  0  0  0  0  0  0  # atno 8010 bound_to 7997
  140.6414  143.2510  151.4980 H   0  0  0  0  0  0  0  0  0  0  0  0  # atno 10167 bound_to 10162
  156.3288  130.4276  149.7892 H   0  0  0  0  0  0  0  0  0  0  0  0  # atno 10718 bound_to 10713
  153.7446  135.6930  153.4959 H   0  0  0  0  0  0  0  0  0  0  0  0  # atno 10763 bound_to 10752
  153.2045  135.4424  155.0305 H   0  0  0  0  0  0  0  0  0  0  0  0  # atno 10764 bound_to 10752
  154.8208  135.3421  154.6970 H   0  0  0  0  0  0  0  0  0  0  0  0  # atno 10765 bound_to 10752
  140.3654  134.7077  157.4358 H   0  0  0  0  0  0  0  0  0  0  0  0  # atno 11005 bound_to 11000
  146.3380  139.8913  142.8808 LP  0  0  0  0  0  0  0  0  0  0  0  0  # atno 17320 bound_to 7965
  145.2567  141.0063  143.3850 LP  0  0  0  0  0  0  0  0  0  0  0  0  # atno 17321 bound_to 7965
  139.5623  144.2127  152.1710 LP  0  0  0  0  0  0  0  0  0  0  0  0  # atno 17342 bound_to 10162
  140.1398  144.5212  150.6751 LP  0  0  0  0  0  0  0  0  0  0  0  0  # atno 17343 bound_to 10162
  156.5172  130.8198  151.3190 LP  0  0  0  0  0  0  0  0  0  0  0  0  # atno 17370 bound_to 10713
  157.7426  130.9894  150.2531 LP  0  0  0  0  0  0  0  0  0  0  0  0  # atno 17371 bound_to 10713
  140.0594  134.6017  155.8767 LP  0  0  0  0  0  0  0  0  0  0  0  0  # atno 17394 bound_to 11000
  141.1971  133.6595  156.5726 LP  0  0  0  0  0  0  0  0  0  0  0  0  # atno 17395 bound_to 11000

$$$$
