AV-unprocessed.smi:3031|AV-procd|sdf|11549|dock3
  -GOLD-   2272016503D 1   1.00000     0.00000
 Structure written by MMmdl.
 48 49  0  0  0  0  0  0  0  0  3 V2000
  144.6413  131.4108  150.2794 C   0  0  0  0  0  0  0  0  0  0  0  0
  144.3300  132.8523  150.5630 C   0  0  0  0  0  0  0  0  0  0  0  0
  143.2281  133.3800  151.2933 C   0  0  0  0  0  0  0  0  0  0  0  0
  143.2413  134.7013  151.3587 N   0  0  0  0  0  0  0  0  0  0  0  0
  144.3519  135.0637  150.6815 N   0  0  0  0  0  0  0  0  0  0  0  0
  144.6856  136.4705  150.5263 C   0  0  0  0  0  0  0  0  0  0  0  0
  144.8632  137.2039  151.8721 C   0  0  2  0  0  0  0  0  0  0  0  0
  143.5248  137.3033  152.6217 C   0  0  0  0  0  0  0  0  0  0  0  0
  145.4462  138.5464  151.6466 N   0  3  0  0  0  0  0  0  0  0  0  0
  146.8373  138.7181  152.1182 C   0  0  0  0  0  0  0  0  0  0  0  0
  146.8990  138.8032  153.6532 C   0  0  2  0  0  0  0  0  0  0  0  0
  145.9563  139.7664  154.0853 O   0  0  0  0  0  0  0  0  0  0  0  0
  148.2967  139.2298  154.1497 C   0  0  0  0  0  0  0  0  0  0  0  0
  149.2868  138.1220  154.1101 N   0  3  0  0  0  0  0  0  0  0  0  0
  150.6836  138.5597  154.3590 C   0  0  0  0  0  0  0  0  0  0  0  0
  151.6472  137.3637  154.2667 C   0  0  0  0  0  0  0  0  0  0  0  0
  151.2489  136.3576  155.1888 O   0  0  0  0  0  0  0  0  0  0  0  0
  149.9459  135.8638  154.9064 C   0  0  0  0  0  0  0  0  0  0  0  0
  148.9253  137.0090  155.0206 C   0  0  0  0  0  0  0  0  0  0  0  0
  145.0208  133.9669  150.1800 C   0  0  0  0  0  0  0  0  0  0  0  0
  144.1655  131.0717  149.3591 H   0  0  0  0  0  0  0  0  0  0  0  0
  144.2945  130.7576  151.0804 H   0  0  0  0  0  0  0  0  0  0  0  0
  145.7127  131.2414  150.1694 H   0  0  0  0  0  0  0  0  0  0  0  0
  142.4221  132.8446  151.7733 H   0  0  0  0  0  0  0  0  0  0  0  0
  145.5969  136.5462  149.9312 H   0  0  0  0  0  0  0  0  0  0  0  0
  143.8924  136.9400  149.9430 H   0  0  0  0  0  0  0  0  0  0  0  0
  145.5542  136.6244  152.4861 H   0  0  0  0  0  0  0  0  0  0  0  0
  143.0877  136.3152  152.7690 H   0  0  0  0  0  0  0  0  0  0  0  0
  142.8027  137.9044  152.0682 H   0  0  0  0  0  0  0  0  0  0  0  0
  143.6458  137.7503  153.6083 H   0  0  0  0  0  0  0  0  0  0  0  0
  145.4544  138.7038  150.6486 H   0  0  0  0  0  0  0  0  0  0  0  0
  147.4304  137.8699  151.7758 H   0  0  0  0  0  0  0  0  0  0  0  0
  147.2736  139.6134  151.6721 H   0  0  0  0  0  0  0  0  0  0  0  0
  146.6271  137.8335  154.0700 H   0  0  0  0  0  0  0  0  0  0  0  0
  145.2446  139.8007  153.4631 H   0  0  0  0  0  0  0  0  0  0  0  0
  148.6749  140.0659  153.5592 H   0  0  0  0  0  0  0  0  0  0  0  0
  148.2033  139.6007  155.1721 H   0  0  0  0  0  0  0  0  0  0  0  0
  150.9839  139.3174  153.6363 H   0  0  0  0  0  0  0  0  0  0  0  0
  150.7546  139.0158  155.3479 H   0  0  0  0  0  0  0  0  0  0  0  0
  151.6714  136.9583  153.2539 H   0  0  0  0  0  0  0  0  0  0  0  0
  152.6622  137.6804  154.5071 H   0  0  0  0  0  0  0  0  0  0  0  0
  149.9199  135.4157  153.9117 H   0  0  0  0  0  0  0  0  0  0  0  0
  149.7052  135.0735  155.6178 H   0  0  0  0  0  0  0  0  0  0  0  0
  148.8858  137.3741  156.0484 H   0  0  0  0  0  0  0  0  0  0  0  0
  147.9304  136.6356  154.7737 H   0  0  0  0  0  0  0  0  0  0  0  0
  145.9256  134.0673  149.5984 H   0  0  0  0  0  0  0  0  0  0  0  0
  144.8523  139.2425  152.0740 H   0  0  0  0  0  0  0  0  0  0  0  0
  149.2563  137.7413  153.1745 H   0  0  0  0  0  0  0  0  0  0  0  0
  1  2  1  0  0  0  0
  1 21  1  0  0  0  0
  1 22  1  0  0  0  0
  1 23  1  0  0  0  0
  2 20  2  0  0  0  0
  2  3  1  0  0  0  0
  3  4  2  0  0  0  0
  3 24  1  0  0  0  0
  4  5  1  0  0  0  0
  5  6  1  0  0  0  0
  5 20  1  0  0  0  0
  6  7  1  0  0  0  0
  6 25  1  0  0  0  0
  6 26  1  0  0  0  0
  7  8  1  0  0  0  0
  7  9  1  0  0  0  0
  7 27  1  0  0  0  0
  8 28  1  0  0  0  0
  8 29  1  0  0  0  0
  8 30  1  0  0  0  0
  9 10  1  0  0  0  0
  9 31  1  0  0  0  0
  9 47  1  0  0  0  0
 10 11  1  0  0  0  0
 10 32  1  0  0  0  0
 10 33  1  0  0  0  0
 11 12  1  0  0  0  0
 11 13  1  0  0  0  0
 11 34  1  0  0  0  0
 12 35  1  0  0  0  0
 13 14  1  0  0  0  0
 13 36  1  0  0  0  0
 13 37  1  0  0  0  0
 14 19  1  0  0  0  0
 14 15  1  0  0  0  0
 14 48  1  0  0  0  0
 15 16  1  0  0  0  0
 15 38  1  0  0  0  0
 15 39  1  0  0  0  0
 16 17  1  0  0  0  0
 16 40  1  0  0  0  0
 16 41  1  0  0  0  0
 17 18  1  0  0  0  0
 18 19  1  0  0  0  0
 18 42  1  0  0  0  0
 18 43  1  0  0  0  0
 19 44  1  0  0  0  0
 19 45  1  0  0  0  0
 20 46  1  0  0  0  0
M  CHG  1   9   1
M  CHG  1  14   1
M  END
> <s_m_source_file>
AV-unprocessed.smi

> <i_m_source_file_index>
3031

> <i_lp_mmshare_version>
43012

> <i_f3d_flags>
0

> <s_epik_input>
W0NIM11jMVtjSF1ubihbY0hdMSlbQ0gyXVtDQEhdKFtDSDNdKVtOSF1bQ0gyXVtDQEhdKFtPSF0pW0NIMl1OMltDSDJdW0NIMl1PW0NIMl1bQ0gyXTI=

> <s_epik_cmdline>
J2VwaWtfcHl0aG9uJywgJy1waCcsICc3LjAnLCAnLXRuJywgJzgnLCAnLW1hJywgJzIwMCcsICctbWV0YWxfYmluZGluZycsICctaW1hZScsICc8aW5maWxlLm1hZT4nLCAnLW9tYWUnLCAnPG91dGZpbGUubWFlPic=

> <r_lp_tautomer_probability>
1

> <r_epik_Ionization_Penalty>
1.76542

> <r_epik_Ionization_Penalty_Charging>
1.76348

> <r_epik_Ionization_Penalty_Neutral>
0.00194017

> <r_epik_State_Penalty>
1.49348

> <r_epik_Charging_Adjusted_Penalty>
3.25696

> <i_epik_Tot_Q>
2

> <i_epik_Tot_abs_Q>
2

> <r_epik_Metal_State_Penalty>
1.49349

> <b_epik_Metal_Only>
0

> <s_lp_Force_Field>
OPLS_2005

> <r_lp_Energy>
27.3319

> <b_lp_Chiralities_Consistent>
1

> <s_lp_Variant>
AV-unprocessed.smi:3031-9

> <Gold.Version>
5.8.1

> <Gold.Id.Protein>
6NUR|6NUR_protein|mol2

> <Gold.PLP.Fitness>
54.4823

> <Gold.PLP.PLP>
-32.8584

> <Gold.PLP.part.hbond>
-4.7682

> <Gold.PLP.part.metal>
0.0000

> <Gold.PLP.part.buried>
3.3108

> <Gold.PLP.part.nonpolar>
-31.2691

> <Gold.PLP.part.repulsive>
0.4019

> <Gold.PLP.ligand.clash>
0.0000

> <Gold.PLP.ligand.torsion>
1.0271

> <Gold.PLP.Chemscore.Hbond>
6.3155

> <Gold.PLP.Chemscore.CHOScore>
1.4769

> <Gold.PLP.Chemscore.Metal>
0.0000

> <Gold.Chemscore.Hbonds>
donor molecule, donor type, donor heavy atom, donor atom, acceptor molecule, acceptor atom, score
      L1  H     9    31       P1 10171  0.35
      L1  H     9    47       P1 10175  2.00
      L1  H    12    35       P1 10175  1.00
      L1  H    14    48       P1  7948  2.00
      P1  H 10752 10764       L1    17  0.35
      L1  C    20    46       P1  7921  0.98

> <Gold.PLP.Chemscore.Internal.Correction>
0.3009

> <Gold.Rescore>
     Score         DG    S(hbond)    S(metal)    S(lipo)     H(rot)  DE(clash)    DE(int)     intcor
     17.44     -21.46       3.61        0.00      93.44       2.74       2.21       1.80       ----

> <Gold.Chemscore.Fitness>
17.4434

> <Gold.Chemscore.DG>
-21.4564

> <Gold.Chemscore.ZeroCoef>
-5.4800

> <Gold.Chemscore.Hbond>
3.6129

> <Gold.Chemscore.Metal>
0.0000

> <Gold.Chemscore.Lipo>
93.4394

> <Gold.Chemscore.Internal_Hbond>
0.0000

> <Gold.Chemscore.DEClash>
2.2138

> <Gold.Chemscore.DEInternal>
1.7993

> <Gold.Chemscore.Rot>
2.7434

> <Gold.Chemscore.Internal.Correction>
   9.000000E+99

> <Gold.Chemscore.Hbonds>
donor molecule, donor type, donor heavy atom, donor atom, acceptor molecule, acceptor atom, score
      L1  H     9    31       P1 10171  0.34
      L1  H     9    47       P1 10175  1.00
      L1  H    12    35       P1 10175  0.98
      L1  H    14    48       P1  7948  0.92
      P1  H 10752 10764       L1    17  0.01

> <Gold.Chemscore.Hbond.Weighted>
-12.0671

> <Gold.Chemscore.Metal.Weighted>
-0.0000

> <Gold.Chemscore.Lipo.Weighted>
-10.9324

> <Gold.Chemscore.Internal_Hbond.Weighted>
0.0000

> <Gold.Chemscore.DEClash.Weighted>
2.2138

> <Gold.Chemscore.DEInternal.Weighted>
1.7993

> <Gold.Chemscore.Rot.Weighted>
7.0231

> <Gold.Chemscore.Internal.Correction.Weighted>
   9.000000E+99

> <Gold.Protein.RotatedTorsions>
[ 6907 6896 6895 6894 ] final   20.95 input  -60.11 | X-H torsion
[ 7974 7965 7964 7962 ] final -156.16 input  175.53 | X-H torsion
[ 8008 7997 7996 7995 ] final   11.06 input   59.86 | X-H torsion
[ 10167 10162 10161 10158 ] final    1.32 input  -65.29 | X-H torsion
[ 10718 10713 10712 10709 ] final  -88.91 input   66.30 | X-H torsion
[ 10763 10752 10751 10750 ] final  -39.95 input  -60.55 | X-H torsion
[ 11005 11000 10999 10996 ] final  -24.35 input  -57.11 | X-H torsion

> <Gold.Protein.ActiveResidues>
 VAL166  LYS551  ARG553  GLY616  TRP617  ASP618  TYR619  PRO620  LYS621  CYS622 
 ASP623  PHE694  ASN695  SER759  ASP760  ASP761  ALA762  ILE779  LEU786  VAL792 
 PHE793  MET794  SER795  GLU796  ALA797  LYS798  CYS799  TRP800  GLU811  SER814 

> <Gold.Protein.RotatedAtoms>
  151.9043  135.0365  160.0508 H   0  0  0  0  0  0  0  0  0  0  0  0  # atno 6907 bound_to 6896
  152.2332  133.5070  159.5236 H   0  0  0  0  0  0  0  0  0  0  0  0  # atno 6908 bound_to 6896
  150.7031  134.1105  159.4041 H   0  0  0  0  0  0  0  0  0  0  0  0  # atno 6909 bound_to 6896
  144.7606  140.4148  143.5979 H   0  0  0  0  0  0  0  0  0  0  0  0  # atno 7974 bound_to 7965
  154.8018  140.2853  155.5916 H   0  0  0  0  0  0  0  0  0  0  0  0  # atno 8008 bound_to 7997
  156.2978  140.2585  156.2817 H   0  0  0  0  0  0  0  0  0  0  0  0  # atno 8009 bound_to 7997
  154.9549  140.0378  157.2152 H   0  0  0  0  0  0  0  0  0  0  0  0  # atno 8010 bound_to 7997
  140.6688  143.7106  150.7880 H   0  0  0  0  0  0  0  0  0  0  0  0  # atno 10167 bound_to 10162
  155.9984  130.4853  150.5091 H   0  0  0  0  0  0  0  0  0  0  0  0  # atno 10718 bound_to 10713
  153.9379  135.6764  153.4744 H   0  0  0  0  0  0  0  0  0  0  0  0  # atno 10763 bound_to 10752
  153.0946  135.4857  154.8751 H   0  0  0  0  0  0  0  0  0  0  0  0  # atno 10764 bound_to 10752
  154.7393  135.3156  154.8715 H   0  0  0  0  0  0  0  0  0  0  0  0  # atno 10765 bound_to 10752
  140.8837  133.7636  156.0334 H   0  0  0  0  0  0  0  0  0  0  0  0  # atno 11005 bound_to 11000
  145.6633  139.1585  143.2796 LP  0  0  0  0  0  0  0  0  0  0  0  0  # atno 17320 bound_to 7965
  146.1664  140.6711  142.9253 LP  0  0  0  0  0  0  0  0  0  0  0  0  # atno 17321 bound_to 7965
  140.0788  143.4989  152.2541 LP  0  0  0  0  0  0  0  0  0  0  0  0  # atno 17342 bound_to 10162
  139.5947  144.7563  151.3314 LP  0  0  0  0  0  0  0  0  0  0  0  0  # atno 17343 bound_to 10162
  157.3066  131.0655  151.2030 LP  0  0  0  0  0  0  0  0  0  0  0  0  # atno 17370 bound_to 10713
  157.2991  130.6834  149.6154 LP  0  0  0  0  0  0  0  0  0  0  0  0  # atno 17371 bound_to 10713
  140.8430  134.3043  157.5306 LP  0  0  0  0  0  0  0  0  0  0  0  0  # atno 17394 bound_to 11000
  139.8722  134.9427  156.3831 LP  0  0  0  0  0  0  0  0  0  0  0  0  # atno 17395 bound_to 11000

$$$$
