AV-unprocessed.smi:415|AV-procd|sdf|2523|dock6
  -GOLD-   2262022473D 1   1.00000     0.00000
 Structure written by MMmdl.
 53 54  0  0  0  0  0  0  0  0  1 V2000
  146.1744  128.6230  152.0227 C   0  0  0  0  0  0  0  0  0  0  0  0
  147.3489  129.4069  151.9140 O   0  0  0  0  0  0  0  0  0  0  0  0
  147.7847  129.9073  153.1671 C   0  0  0  0  0  0  0  0  0  0  0  0
  148.5079  131.2485  152.9608 C   0  0  0  0  0  0  0  0  0  0  0  0
  149.2160  131.7038  154.1428 N   0  0  0  0  0  0  0  0  0  0  0  0
  150.2233  130.9715  154.7660 C   0  0  0  0  0  0  0  0  0  0  0  0
  150.5765  129.7300  154.2693 N   0  0  0  0  0  0  0  0  0  0  0  0
  150.8610  131.4421  155.8609 C   0  0  0  0  0  0  0  0  0  0  0  0
  150.5280  132.7308  156.4521 C   0  0  0  0  0  0  0  0  0  0  0  0
  151.1123  133.1852  157.4360 O   0  0  0  0  0  0  0  0  0  0  0  0
  149.4835  133.4438  155.8204 N   0  0  0  0  0  0  0  0  0  0  0  0
  149.0932  134.7676  156.3537 C   0  0  0  0  0  0  0  0  0  0  0  0
  148.7632  134.7316  157.8529 C   0  0  0  0  0  0  0  0  0  0  0  0
  149.4132  135.4014  158.6567 O   0  0  0  0  0  0  0  0  0  0  0  0
  147.7488  133.9309  158.2130 N   0  0  0  0  0  0  0  0  0  0  0  0
  147.2537  133.7514  159.5768 C   0  0  1  0  0  0  0  0  0  0  0  0
  148.1241  132.7050  160.3008 C   0  0  0  0  0  0  0  0  0  0  0  0
  147.6703  132.5085  161.7498 C   0  0  0  0  0  0  0  0  0  0  0  0
  147.6899  133.8410  162.5057 C   0  0  0  0  0  0  0  0  0  0  0  0
  146.8093  134.9040  161.8189 C   0  0  1  0  0  0  0  0  0  0  0  0
  146.8396  136.2051  162.6421 C   0  0  0  0  0  0  0  0  0  0  0  0
  147.2312  135.1067  160.3352 C   0  0  2  0  0  0  0  0  0  0  0  0
  146.3308  136.1322  159.6118 C   0  0  0  0  0  0  0  0  0  0  0  0
  148.8144  132.9555  154.6750 C   0  0  0  0  0  0  0  0  0  0  0  0
  147.9064  133.6128  154.1574 O   0  0  0  0  0  0  0  0  0  0  0  0
  145.8760  128.2715  151.0351 H   0  0  0  0  0  0  0  0  0  0  0  0
  145.3491  129.2025  152.4380 H   0  0  0  0  0  0  0  0  0  0  0  0
  146.3418  127.7495  152.6541 H   0  0  0  0  0  0  0  0  0  0  0  0
  146.9217  130.0571  153.8174 H   0  0  0  0  0  0  0  0  0  0  0  0
  148.4384  129.1863  153.6604 H   0  0  0  0  0  0  0  0  0  0  0  0
  149.2280  131.1912  152.1456 H   0  0  0  0  0  0  0  0  0  0  0  0
  147.8158  132.0404  152.6686 H   0  0  0  0  0  0  0  0  0  0  0  0
  150.1211  129.3342  153.4594 H   0  0  0  0  0  0  0  0  0  0  0  0
  151.4038  129.2492  154.5931 H   0  0  0  0  0  0  0  0  0  0  0  0
  151.6418  130.8518  156.3193 H   0  0  0  0  0  0  0  0  0  0  0  0
  149.8846  135.4972  156.1718 H   0  0  0  0  0  0  0  0  0  0  0  0
  148.2305  135.1788  155.8282 H   0  0  0  0  0  0  0  0  0  0  0  0
  147.2750  133.4137  157.4867 H   0  0  0  0  0  0  0  0  0  0  0  0
  146.2291  133.3766  159.5321 H   0  0  0  0  0  0  0  0  0  0  0  0
  148.0818  131.7493  159.7768 H   0  0  0  0  0  0  0  0  0  0  0  0
  149.1692  133.0177  160.2867 H   0  0  0  0  0  0  0  0  0  0  0  0
  146.6647  132.0864  161.7687 H   0  0  0  0  0  0  0  0  0  0  0  0
  148.3196  131.7883  162.2482 H   0  0  0  0  0  0  0  0  0  0  0  0
  147.3488  133.6775  163.5286 H   0  0  0  0  0  0  0  0  0  0  0  0
  148.7168  134.2025  162.5785 H   0  0  0  0  0  0  0  0  0  0  0  0
  145.7823  134.5356  161.8295 H   0  0  0  0  0  0  0  0  0  0  0  0
  147.8202  136.6799  162.5983 H   0  0  0  0  0  0  0  0  0  0  0  0
  146.6143  136.0088  163.6908 H   0  0  0  0  0  0  0  0  0  0  0  0
  146.0997  136.9251  162.2943 H   0  0  0  0  0  0  0  0  0  0  0  0
  148.2472  135.5052  160.3317 H   0  0  0  0  0  0  0  0  0  0  0  0
  145.2882  135.8134  159.6165 H   0  0  0  0  0  0  0  0  0  0  0  0
  146.6271  136.2727  158.5726 H   0  0  0  0  0  0  0  0  0  0  0  0
  146.3823  137.1164  160.0753 H   0  0  0  0  0  0  0  0  0  0  0  0
  1  2  1  0  0  0  0
  1 26  1  0  0  0  0
  1 27  1  0  0  0  0
  1 28  1  0  0  0  0
  2  3  1  0  0  0  0
  3  4  1  0  0  0  0
  3 29  1  0  0  0  0
  3 30  1  0  0  0  0
  4  5  1  0  0  0  0
  4 31  1  0  0  0  0
  4 32  1  0  0  0  0
  5 24  1  0  0  0  0
  5  6  1  0  0  0  0
  6  7  1  0  0  0  0
  6  8  2  0  0  0  0
  7 33  1  0  0  0  0
  7 34  1  0  0  0  0
  8  9  1  0  0  0  0
  8 35  1  0  0  0  0
  9 10  2  0  0  0  0
  9 11  1  0  0  0  0
 11 12  1  0  0  0  0
 11 24  1  0  0  0  0
 12 13  1  0  0  0  0
 12 36  1  0  0  0  0
 12 37  1  0  0  0  0
 13 14  2  0  0  0  0
 13 15  1  0  0  0  0
 15 16  1  0  0  0  0
 15 38  1  0  0  0  0
 16 22  1  0  0  0  0
 16 17  1  0  0  0  0
 16 39  1  0  0  0  0
 17 18  1  0  0  0  0
 17 40  1  0  0  0  0
 17 41  1  0  0  0  0
 18 19  1  0  0  0  0
 18 42  1  0  0  0  0
 18 43  1  0  0  0  0
 19 20  1  0  0  0  0
 19 44  1  0  0  0  0
 19 45  1  0  0  0  0
 20 21  1  0  0  0  0
 20 22  1  0  0  0  0
 20 46  1  0  0  0  0
 21 47  1  0  0  0  0
 21 48  1  0  0  0  0
 21 49  1  0  0  0  0
 22 23  1  0  0  0  0
 22 50  1  0  0  0  0
 23 51  1  0  0  0  0
 23 52  1  0  0  0  0
 23 53  1  0  0  0  0
 24 25  2  0  0  0  0
M  END
> <s_m_source_file>
AV-unprocessed.smi

> <i_m_source_file_index>
415

> <i_lp_mmshare_version>
43012

> <i_f3d_flags>
0

> <s_epik_input>
W0NIM11PW0NIMl1bQ0gyXW4xYyhbTkgyXSlbY0hdYyg9TyluKGMxPU8pW0NIMl1DKD1PKVtOSF1bQ0BASF0yW0NIMl1bQ0gyXVtDSDJdW0NAQEhdKFtDSDNdKVtDQEhdMltDSDNd

> <s_epik_cmdline>
J2VwaWtfcHl0aG9uJywgJy1waCcsICc3LjAnLCAnLXRuJywgJzgnLCAnLW1hJywgJzIwMCcsICctbWV0YWxfYmluZGluZycsICctaW1hZScsICc8aW5maWxlLm1hZT4nLCAnLW9tYWUnLCAnPG91dGZpbGUubWFlPic=

> <r_lp_tautomer_probability>
1

> <r_epik_Ionization_Penalty>
8.6647e-06

> <r_epik_Ionization_Penalty_Charging>
1.81162e-08

> <r_epik_Ionization_Penalty_Neutral>
8.64658e-06

> <r_epik_State_Penalty>
-0

> <r_epik_Charging_Adjusted_Penalty>
1.81162e-08

> <i_epik_Tot_Q>
0

> <i_epik_Tot_abs_Q>
0

> <r_epik_Metal_State_Penalty>
-0

> <b_epik_Metal_Only>
0

> <s_lp_Force_Field>
OPLS_2005

> <r_lp_Energy>
22.0049

> <b_lp_Chiralities_Consistent>
1

> <s_lp_Variant>
AV-unprocessed.smi:415-6

> <Gold.Version>
5.8.1

> <Gold.Id.Protein>
6NUR|6NUR_protein|mol2

> <Gold.PLP.Fitness>
41.7398

> <Gold.PLP.PLP>
-38.2238

> <Gold.PLP.part.hbond>
-2.5135

> <Gold.PLP.part.metal>
0.0000

> <Gold.PLP.part.buried>
-2.5947

> <Gold.PLP.part.nonpolar>
-34.8129

> <Gold.PLP.part.repulsive>
2.8978

> <Gold.PLP.ligand.clash>
0.0000

> <Gold.PLP.ligand.torsion>
0.5787

> <Gold.PLP.Chemscore.Hbond>
1.5242

> <Gold.PLP.Chemscore.CHOScore>
0.0000

> <Gold.PLP.Chemscore.Metal>
0.0000

> <Gold.Chemscore.Hbonds>
donor molecule, donor type, donor heavy atom, donor atom, acceptor molecule, acceptor atom, score
      P1  H  6896  6908       L1    10  0.33
      P1  H  6896  6909       L1    14  1.00

> <Gold.PLP.Chemscore.Internal.Correction>
0.1009

> <Gold.Rescore>
     Score         DG    S(hbond)    S(metal)    S(lipo)     H(rot)  DE(clash)    DE(int)     intcor
      9.11     -13.02       1.48        0.00      71.59       2.26       0.68       3.22       ----

> <Gold.Chemscore.Fitness>
9.1133

> <Gold.Chemscore.DG>
-13.0164

> <Gold.Chemscore.ZeroCoef>
-5.4800

> <Gold.Chemscore.Hbond>
1.4844

> <Gold.Chemscore.Metal>
0.0000

> <Gold.Chemscore.Lipo>
71.5857

> <Gold.Chemscore.Internal_Hbond>
0.0000

> <Gold.Chemscore.DEClash>
0.6803

> <Gold.Chemscore.DEInternal>
3.2228

> <Gold.Chemscore.Rot>
2.2645

> <Gold.Chemscore.Internal.Correction>
   9.000000E+99

> <Gold.Chemscore.Hbonds>
donor molecule, donor type, donor heavy atom, donor atom, acceptor molecule, acceptor atom, score
      P1  H  6896  6908       L1    10  0.31
      P1  H  6896  6909       L1    14  0.91

> <Gold.Chemscore.Hbond.Weighted>
-4.9580

> <Gold.Chemscore.Metal.Weighted>
-0.0000

> <Gold.Chemscore.Lipo.Weighted>
-8.3755

> <Gold.Chemscore.Internal_Hbond.Weighted>
0.0000

> <Gold.Chemscore.DEClash.Weighted>
0.6803

> <Gold.Chemscore.DEInternal.Weighted>
3.2228

> <Gold.Chemscore.Rot.Weighted>
5.7972

> <Gold.Chemscore.Internal.Correction.Weighted>
   9.000000E+99

> <Gold.Protein.RotatedTorsions>
[ 6907 6896 6895 6894 ] final   44.47 input  -60.11 | X-H torsion
[ 7974 7965 7964 7962 ] final  133.88 input  175.53 | X-H torsion
[ 8008 7997 7996 7995 ] final   35.80 input   59.86 | X-H torsion
[ 10167 10162 10161 10158 ] final -112.43 input  -65.29 | X-H torsion
[ 10718 10713 10712 10709 ] final -130.24 input   66.30 | X-H torsion
[ 10763 10752 10751 10750 ] final -169.65 input  -60.55 | X-H torsion
[ 11005 11000 10999 10996 ] final -136.75 input  -57.11 | X-H torsion

> <Gold.Protein.ActiveResidues>
 VAL166  LYS551  ARG553  GLY616  TRP617  ASP618  TYR619  PRO620  LYS621  CYS622 
 ASP623  PHE694  ASN695  SER759  ASP760  ASP761  ALA762  ILE779  LEU786  VAL792 
 PHE793  MET794  SER795  GLU796  ALA797  LYS798  CYS799  TRP800  GLU811  SER814 

> <Gold.Protein.RotatedAtoms>
  152.2329  134.8304  160.0470 H   0  0  0  0  0  0  0  0  0  0  0  0  # atno 6907 bound_to 6896
  151.9046  133.3541  159.3851 H   0  0  0  0  0  0  0  0  0  0  0  0  # atno 6908 bound_to 6896
  150.7031  134.4719  159.5473 H   0  0  0  0  0  0  0  0  0  0  0  0  # atno 6909 bound_to 6896
  144.9820  139.4495  143.5382 H   0  0  0  0  0  0  0  0  0  0  0  0  # atno 7974 bound_to 7965
  155.1769  140.3296  155.4382 H   0  0  0  0  0  0  0  0  0  0  0  0  # atno 8008 bound_to 7997
  156.2490  140.1933  156.6820 H   0  0  0  0  0  0  0  0  0  0  0  0  # atno 8009 bound_to 7997
  154.6298  140.0584  156.9704 H   0  0  0  0  0  0  0  0  0  0  0  0  # atno 8010 bound_to 7997
  140.1228  143.4428  152.1679 H   0  0  0  0  0  0  0  0  0  0  0  0  # atno 10167 bound_to 10162
  156.2125  130.6927  151.0666 H   0  0  0  0  0  0  0  0  0  0  0  0  # atno 10718 bound_to 10713
  154.6500  135.2910  154.9998 H   0  0  0  0  0  0  0  0  0  0  0  0  # atno 10763 bound_to 10752
  154.1095  135.6564  153.4886 H   0  0  0  0  0  0  0  0  0  0  0  0  # atno 10764 bound_to 10752
  153.0371  135.5261  154.7404 H   0  0  0  0  0  0  0  0  0  0  0  0  # atno 10765 bound_to 10752
  140.8776  134.1973  157.4612 H   0  0  0  0  0  0  0  0  0  0  0  0  # atno 11005 bound_to 11000
  146.3410  139.9098  142.8782 LP  0  0  0  0  0  0  0  0  0  0  0  0  # atno 17320 bound_to 7965
  145.2408  141.0008  143.3937 LP  0  0  0  0  0  0  0  0  0  0  0  0  # atno 17321 bound_to 7965
  139.5560  144.7373  151.4294 LP  0  0  0  0  0  0  0  0  0  0  0  0  # atno 17342 bound_to 10162
  140.6862  143.7968  150.7190 LP  0  0  0  0  0  0  0  0  0  0  0  0  # atno 17343 bound_to 10162
  157.7046  131.0762  150.6709 LP  0  0  0  0  0  0  0  0  0  0  0  0  # atno 17370 bound_to 10713
  156.6769  130.4556  149.5640 LP  0  0  0  0  0  0  0  0  0  0  0  0  # atno 17371 bound_to 10713
  139.8717  134.9802  156.5069 LP  0  0  0  0  0  0  0  0  0  0  0  0  # atno 17394 bound_to 11000
  140.8500  133.8139  155.9159 LP  0  0  0  0  0  0  0  0  0  0  0  0  # atno 17395 bound_to 11000

$$$$
