AV-unprocessed.smi:1703|AV-procd|sdf|6869|dock1
  -GOLD-   22720 8 63D 1   1.00000     0.00000
 Structure written by MMmdl.
 49 51  0  0  0  0  0  0  0  0  2 V2000
  147.9869  136.5006  162.3029 C   0  0  0  0  0  0  0  0  0  0  0  0
  147.8755  135.8665  160.9075 C   0  0  2  0  0  0  0  0  0  0  0  0
  148.9338  136.3809  159.9096 C   0  0  0  0  0  0  0  0  0  0  0  0
  148.6460  137.7239  159.4092 N   0  0  0  0  0  0  0  0  0  0  0  0
  149.6282  138.1738  158.4216 C   0  0  0  0  0  0  0  0  0  0  0  0
  151.0186  138.5584  158.9760 C   0  0  1  0  0  0  0  0  0  0  0  0
  151.7043  137.3604  159.2712 O   0  0  0  0  0  0  0  0  0  0  0  0
  151.9085  139.3483  157.9909 C   0  0  0  0  0  0  0  0  0  0  0  0
  151.4722  140.7364  157.7747 N   0  0  0  0  0  0  0  0  0  0  0  0
  150.6617  141.2780  156.8182 C   0  0  0  0  0  0  0  0  0  0  0  0
  149.9645  140.5570  155.7094 C   0  0  0  0  0  0  0  0  0  0  0  0
  150.8588  139.9073  154.8313 O   0  0  0  0  0  0  0  0  0  0  0  0
  150.5989  142.6187  157.0580 N   0  3  0  0  0  0  0  0  0  0  0  0
  151.3630  142.9362  158.1806 C   0  0  0  0  0  0  0  0  0  0  0  0
  151.5943  144.1551  158.8103 C   0  0  0  0  0  0  0  0  0  0  0  0
  152.4228  144.1299  159.9513 C   0  0  0  0  0  0  0  0  0  0  0  0
  152.9876  142.9266  160.4224 C   0  0  0  0  0  0  0  0  0  0  0  0
  152.7486  141.6976  159.7724 C   0  0  0  0  0  0  0  0  0  0  0  0
  151.9248  141.7312  158.6481 C   0  0  0  0  0  0  0  0  0  0  0  0
  147.3006  137.7433  158.8508 C   0  0  0  0  0  0  0  0  0  0  0  0
  146.2449  137.3184  159.8855 C   0  0  1  0  0  0  0  0  0  0  0  0
  144.8350  137.2772  159.2879 C   0  0  0  0  0  0  0  0  0  0  0  0
  146.5613  136.0139  160.3679 O   0  0  0  0  0  0  0  0  0  0  0  0
  148.9709  136.3200  162.7362 H   0  0  0  0  0  0  0  0  0  0  0  0
  147.2442  136.0804  162.9808 H   0  0  0  0  0  0  0  0  0  0  0  0
  147.8346  137.5777  162.2719 H   0  0  0  0  0  0  0  0  0  0  0  0
  148.0352  134.7957  161.0356 H   0  0  0  0  0  0  0  0  0  0  0  0
  149.9120  136.3496  160.3875 H   0  0  0  0  0  0  0  0  0  0  0  0
  148.9821  135.6875  159.0684 H   0  0  0  0  0  0  0  0  0  0  0  0
  149.7456  137.3920  157.6691 H   0  0  0  0  0  0  0  0  0  0  0  0
  149.2340  139.0360  157.8821 H   0  0  0  0  0  0  0  0  0  0  0  0
  150.9270  139.1007  159.9157 H   0  0  0  0  0  0  0  0  0  0  0  0
  152.6098  137.4621  159.0204 H   0  0  0  0  0  0  0  0  0  0  0  0
  152.9418  139.3722  158.3401 H   0  0  0  0  0  0  0  0  0  0  0  0
  151.9326  138.8523  157.0201 H   0  0  0  0  0  0  0  0  0  0  0  0
  149.2829  139.8210  156.1357 H   0  0  0  0  0  0  0  0  0  0  0  0
  149.3648  141.2581  155.1302 H   0  0  0  0  0  0  0  0  0  0  0  0
  150.5017  139.0599  154.6123 H   0  0  0  0  0  0  0  0  0  0  0  0
  151.1611  145.0773  158.4516 H   0  0  0  0  0  0  0  0  0  0  0  0
  152.6289  145.0518  160.4757 H   0  0  0  0  0  0  0  0  0  0  0  0
  153.6182  142.9461  161.2995 H   0  0  0  0  0  0  0  0  0  0  0  0
  153.1860  140.7811  160.1399 H   0  0  0  0  0  0  0  0  0  0  0  0
  147.0652  138.7463  158.4930 H   0  0  0  0  0  0  0  0  0  0  0  0
  147.2502  137.0834  157.9829 H   0  0  0  0  0  0  0  0  0  0  0  0
  146.2438  138.0254  160.7157 H   0  0  0  0  0  0  0  0  0  0  0  0
  144.5387  138.2573  158.9137 H   0  0  0  0  0  0  0  0  0  0  0  0
  144.1035  136.9720  160.0366 H   0  0  0  0  0  0  0  0  0  0  0  0
  144.7778  136.5712  158.4589 H   0  0  0  0  0  0  0  0  0  0  0  0
  150.0598  143.2638  156.4948 H   0  0  0  0  0  0  0  0  0  0  0  0
  1  2  1  0  0  0  0
  1 24  1  0  0  0  0
  1 25  1  0  0  0  0
  1 26  1  0  0  0  0
  2 23  1  0  0  0  0
  2  3  1  0  0  0  0
  2 27  1  0  0  0  0
  3  4  1  0  0  0  0
  3 28  1  0  0  0  0
  3 29  1  0  0  0  0
  4  5  1  0  0  0  0
  4 20  1  0  0  0  0
  5  6  1  0  0  0  0
  5 30  1  0  0  0  0
  5 31  1  0  0  0  0
  6  7  1  0  0  0  0
  6  8  1  0  0  0  0
  6 32  1  0  0  0  0
  7 33  1  0  0  0  0
  8  9  1  0  0  0  0
  8 34  1  0  0  0  0
  8 35  1  0  0  0  0
  9 19  1  0  0  0  0
  9 10  1  0  0  0  0
 10 11  1  0  0  0  0
 10 13  2  0  0  0  0
 11 12  1  0  0  0  0
 11 36  1  0  0  0  0
 11 37  1  0  0  0  0
 12 38  1  0  0  0  0
 13 14  1  0  0  0  0
 13 49  1  0  0  0  0
 14 19  2  0  0  0  0
 14 15  1  0  0  0  0
 15 16  2  0  0  0  0
 15 39  1  0  0  0  0
 16 17  1  0  0  0  0
 16 40  1  0  0  0  0
 17 18  2  0  0  0  0
 17 41  1  0  0  0  0
 18 19  1  0  0  0  0
 18 42  1  0  0  0  0
 20 21  1  0  0  0  0
 20 43  1  0  0  0  0
 20 44  1  0  0  0  0
 21 22  1  0  0  0  0
 21 23  1  0  0  0  0
 21 45  1  0  0  0  0
 22 46  1  0  0  0  0
 22 47  1  0  0  0  0
 22 48  1  0  0  0  0
M  CHG  1  13   1
M  END
> <s_m_source_file>
AV-unprocessed.smi

> <i_m_source_file_index>
1703

> <i_lp_mmshare_version>
43012

> <i_f3d_flags>
0

> <s_epik_input>
W0NIM11bQ0BASF0xW0NIMl1OKFtDSDJdW0NASF0oTzEpW0NIM10pW0NIMl1bQ0BIXShbT0hdKVtDSDJdbihjKG4yKVtDSDJdW09IXSljKGMyMylbY0hdW2NIXVtjSF1bY0hdMw==

> <s_epik_cmdline>
J2VwaWtfcHl0aG9uJywgJy1waCcsICc3LjAnLCAnLXRuJywgJzgnLCAnLW1hJywgJzIwMCcsICctbWV0YWxfYmluZGluZycsICctaW1hZScsICc8aW5maWxlLm1hZT4nLCAnLW9tYWUnLCAnPG91dGZpbGUubWFlPic=

> <r_epik_Ionization_Penalty>
1.7682

> <r_epik_Ionization_Penalty_Charging>
1.55298

> <r_epik_Ionization_Penalty_Neutral>
0.215215

> <r_epik_State_Penalty>
1.83821

> <r_epik_Charging_Adjusted_Penalty>
3.39119

> <i_epik_Tot_Q>
1

> <i_epik_Tot_abs_Q>
1

> <r_epik_Metal_State_Penalty>
5.89206

> <b_epik_Metal_Only>
0

> <s_lp_Force_Field>
OPLS_2005

> <r_lp_Energy>
30.0096

> <b_lp_Chiralities_Consistent>
1

> <s_lp_Variant>
AV-unprocessed.smi:1703-17

> <Gold.Version>
5.8.1

> <Gold.Id.Protein>
6NUR|6NUR_protein|mol2

> <Gold.PLP.Fitness>
51.5039

> <Gold.PLP.PLP>
-42.8612

> <Gold.PLP.part.hbond>
-2.9246

> <Gold.PLP.part.metal>
0.0000

> <Gold.PLP.part.buried>
-7.0266

> <Gold.PLP.part.nonpolar>
-33.7771

> <Gold.PLP.part.repulsive>
0.0251

> <Gold.PLP.ligand.clash>
0.0000

> <Gold.PLP.ligand.torsion>
0.6470

> <Gold.PLP.Chemscore.Hbond>
3.3088

> <Gold.PLP.Chemscore.CHOScore>
0.0000

> <Gold.PLP.Chemscore.Metal>
0.0000

> <Gold.Chemscore.Hbonds>
donor molecule, donor type, donor heavy atom, donor atom, acceptor molecule, acceptor atom, score
      L1  H    13    49       P1  8028  1.92
      P1  H  6896  6907       L1     7  0.32
      P1  H  7989  7998       L1    12  1.00

> <Gold.PLP.Chemscore.Internal.Correction>
0.0105

> <Gold.Rescore>
     Score         DG    S(hbond)    S(metal)    S(lipo)     H(rot)  DE(clash)    DE(int)     intcor
     16.78     -17.67       2.14        0.00     107.79       2.96       0.10       0.79       ----

> <Gold.Chemscore.Fitness>
16.7823

> <Gold.Chemscore.DG>
-17.6703

> <Gold.Chemscore.ZeroCoef>
-5.4800

> <Gold.Chemscore.Hbond>
2.1393

> <Gold.Chemscore.Metal>
0.0000

> <Gold.Chemscore.Lipo>
107.7869

> <Gold.Chemscore.Internal_Hbond>
0.0000

> <Gold.Chemscore.DEClash>
0.0998

> <Gold.Chemscore.DEInternal>
0.7881

> <Gold.Chemscore.Rot>
2.9555

> <Gold.Chemscore.Internal.Correction>
   9.000000E+99

> <Gold.Chemscore.Hbonds>
donor molecule, donor type, donor heavy atom, donor atom, acceptor molecule, acceptor atom, score
      L1  H    13    49       P1  8028  0.91
      P1  H  6896  6907       L1     7  0.17
      P1  H  7989  7998       L1    12  0.93

> <Gold.Chemscore.Hbond.Weighted>
-7.1452

> <Gold.Chemscore.Metal.Weighted>
-0.0000

> <Gold.Chemscore.Lipo.Weighted>
-12.6111

> <Gold.Chemscore.Internal_Hbond.Weighted>
0.0000

> <Gold.Chemscore.DEClash.Weighted>
0.0998

> <Gold.Chemscore.DEInternal.Weighted>
0.7881

> <Gold.Chemscore.Rot.Weighted>
7.5660

> <Gold.Chemscore.Internal.Correction.Weighted>
   9.000000E+99

> <Gold.Protein.RotatedTorsions>
[ 6907 6896 6895 6894 ] final   -4.97 input  -60.11 | X-H torsion
[ 7974 7965 7964 7962 ] final   89.79 input  175.53 | X-H torsion
[ 8008 7997 7996 7995 ] final -124.24 input   59.86 | X-H torsion
[ 10167 10162 10161 10158 ] final  -50.36 input  -65.29 | X-H torsion
[ 10718 10713 10712 10709 ] final  171.23 input   66.30 | X-H torsion
[ 10763 10752 10751 10750 ] final   65.90 input  -60.55 | X-H torsion
[ 11005 11000 10999 10996 ] final  101.67 input  -57.11 | X-H torsion

> <Gold.Protein.ActiveResidues>
 VAL166  LYS551  ARG553  GLY616  TRP617  ASP618  TYR619  PRO620  LYS621  CYS622 
 ASP623  PHE694  ASN695  SER759  ASP760  ASP761  ALA762  ILE779  LEU786  VAL792 
 PHE793  MET794  SER795  GLU796  ALA797  LYS798  CYS799  TRP800  GLU811  SER814 

> <Gold.Protein.RotatedAtoms>
  151.4890  135.1056  159.9798 H   0  0  0  0  0  0  0  0  0  0  0  0  # atno 6907 bound_to 6896
  152.4748  133.8110  159.7014 H   0  0  0  0  0  0  0  0  0  0  0  0  # atno 6908 bound_to 6896
  150.8780  133.7350  159.2967 H   0  0  0  0  0  0  0  0  0  0  0  0  # atno 6909 bound_to 6896
  145.5276  139.2282  143.2636 H   0  0  0  0  0  0  0  0  0  0  0  0  # atno 7974 bound_to 7965
  155.1936  140.0414  157.2905 H   0  0  0  0  0  0  0  0  0  0  0  0  # atno 8008 bound_to 7997
  154.6122  140.2479  155.7627 H   0  0  0  0  0  0  0  0  0  0  0  0  # atno 8009 bound_to 7997
  156.2385  140.2912  156.0389 H   0  0  0  0  0  0  0  0  0  0  0  0  # atno 8010 bound_to 7997
  140.6641  143.2661  151.4348 H   0  0  0  0  0  0  0  0  0  0  0  0  # atno 10167 bound_to 10162
  156.9966  131.0163  151.2842 H   0  0  0  0  0  0  0  0  0  0  0  0  # atno 10718 bound_to 10713
  153.0116  135.5340  154.6739 H   0  0  0  0  0  0  0  0  0  0  0  0  # atno 10763 bound_to 10752
  154.5916  135.2859  155.0631 H   0  0  0  0  0  0  0  0  0  0  0  0  # atno 10764 bound_to 10752
  154.1722  135.6530  153.5065 H   0  0  0  0  0  0  0  0  0  0  0  0  # atno 10765 bound_to 10752
  139.8774  134.9192  156.4941 H   0  0  0  0  0  0  0  0  0  0  0  0  # atno 11005 bound_to 11000
  146.2065  140.6091  142.9079 LP  0  0  0  0  0  0  0  0  0  0  0  0  # atno 17320 bound_to 7965
  144.7643  140.5493  143.6714 LP  0  0  0  0  0  0  0  0  0  0  0  0  # atno 17321 bound_to 7965
  139.5884  144.1553  152.2058 LP  0  0  0  0  0  0  0  0  0  0  0  0  # atno 17342 bound_to 10162
  140.0900  144.5629  150.7061 LP  0  0  0  0  0  0  0  0  0  0  0  0  # atno 17343 bound_to 10162
  157.5420  130.8126  149.8041 LP  0  0  0  0  0  0  0  0  0  0  0  0  # atno 17370 bound_to 10713
  156.0187  130.3804  150.2030 LP  0  0  0  0  0  0  0  0  0  0  0  0  # atno 17371 bound_to 10713
  140.8637  133.8040  155.9291 LP  0  0  0  0  0  0  0  0  0  0  0  0  # atno 17394 bound_to 11000
  140.9024  134.2362  157.5034 LP  0  0  0  0  0  0  0  0  0  0  0  0  # atno 17395 bound_to 11000

$$$$
