AV-unprocessed.smi:48|AV-procd|sdf|452|dock2
  -GOLD-   2262016323D 1   1.00000     0.00000
 Structure written by MMmdl.
 30 32  0  0  0  0  0  0  0  0  1 V2000
  148.5811  141.1264  153.2837 O   0  0  0  0  0  0  0  0  0  0  0  0
  148.9576  139.7716  153.4086 C   0  0  0  0  0  0  0  0  0  0  0  0
  149.5683  139.5183  154.7979 C   0  0  2  0  0  0  0  0  0  0  0  0
  150.6735  140.3879  155.0357 O   0  0  0  0  0  0  0  0  0  0  0  0
  151.5972  139.7890  155.8951 C   0  0  1  0  0  0  0  0  0  0  0  0
  151.7209  140.6131  157.1425 N   0  0  0  0  0  0  0  0  0  0  0  0
  151.0051  141.7125  157.4545 C   0  0  0  0  0  0  0  0  0  0  0  0
  151.2628  142.3065  158.6184 N   0  0  0  0  0  0  0  0  0  0  0  0
  152.2624  141.4940  159.1265 C   0  0  0  0  0  0  0  0  0  0  0  0
  153.0065  141.5317  160.3307 C   0  0  0  0  0  0  0  0  0  0  0  0
  152.7355  142.7676  161.5043 Cl  0  0  0  0  0  0  0  0  0  0  0  0
  153.9400  140.5740  160.5427 N   0  0  0  0  0  0  0  0  0  0  0  0
  154.1291  139.6273  159.6154 C   0  0  0  0  0  0  0  0  0  0  0  0
  153.5074  139.4646  158.4424 N   0  0  0  0  0  0  0  0  0  0  0  0
  152.5659  140.4307  158.2281 C   0  0  0  0  0  0  0  0  0  0  0  0
  151.1373  138.3397  156.1556 C   0  0  1  0  0  0  0  0  0  0  0  0
  150.5138  138.1478  157.4130 O   0  0  0  0  0  0  0  0  0  0  0  0
  150.1469  138.1142  155.0238 C   0  0  2  0  0  0  0  0  0  0  0  0
  150.8190  137.6412  153.8702 O   0  0  0  0  0  0  0  0  0  0  0  0
  148.8142  139.6899  155.5667 H   0  0  0  0  0  0  0  0  0  0  0  0
  152.5837  139.8379  155.4324 H   0  0  0  0  0  0  0  0  0  0  0  0
  151.9938  137.6664  156.0996 H   0  0  0  0  0  0  0  0  0  0  0  0
  149.3724  137.3911  155.2829 H   0  0  0  0  0  0  0  0  0  0  0  0
  147.7315  141.1662  152.8716 H   0  0  0  0  0  0  0  0  0  0  0  0
  148.0569  139.1713  153.2789 H   0  0  0  0  0  0  0  0  0  0  0  0
  149.6508  139.4978  152.6127 H   0  0  0  0  0  0  0  0  0  0  0  0
  150.2501  142.1006  156.7864 H   0  0  0  0  0  0  0  0  0  0  0  0
  154.8886  138.8945  159.8454 H   0  0  0  0  0  0  0  0  0  0  0  0
  150.9729  137.4621  157.8732 H   0  0  0  0  0  0  0  0  0  0  0  0
  150.1732  137.3546  153.2428 H   0  0  0  0  0  0  0  0  0  0  0  0
  1  2  1  0  0  0  0
  1 24  1  0  0  0  0
  2  3  1  0  0  0  0
  2 25  1  0  0  0  0
  2 26  1  0  0  0  0
  3 20  1  0  0  0  0
  3 18  1  0  0  0  0
  3  4  1  0  0  0  0
  4  5  1  0  0  0  0
  5 21  1  0  0  0  0
  5  6  1  0  0  0  0
  5 16  1  0  0  0  0
  6 15  1  0  0  0  0
  6  7  1  0  0  0  0
  7  8  2  0  0  0  0
  7 27  1  0  0  0  0
  8  9  1  0  0  0  0
  9 15  2  0  0  0  0
  9 10  1  0  0  0  0
 10 11  1  0  0  0  0
 10 12  2  0  0  0  0
 12 13  1  0  0  0  0
 13 14  2  0  0  0  0
 13 28  1  0  0  0  0
 14 15  1  0  0  0  0
 16 22  1  0  0  0  0
 16 17  1  0  0  0  0
 16 18  1  0  0  0  0
 17 29  1  0  0  0  0
 18 23  1  0  0  0  0
 18 19  1  0  0  0  0
 19 30  1  0  0  0  0
M  END
> <s_m_source_file>
AV-unprocessed.smi

> <i_m_source_file_index>
48

> <i_lp_mmshare_version>
43012

> <i_f3d_flags>
0

> <s_epik_input>
W09IXVtDSDJdW0NASF0xT1tDQEhdKFtDQEhdKFtPSF0pW0NAQEhdMVtPSF0pbihbY0hdbjIpYyhjMjMpbltjSF1uYzNDbA==

> <s_epik_cmdline>
J2VwaWtfcHl0aG9uJywgJy1waCcsICc3LjAnLCAnLXRuJywgJzgnLCAnLW1hJywgJzIwMCcsICctbWV0YWxfYmluZGluZycsICctaW1hZScsICc8aW5maWxlLm1hZT4nLCAnLW9tYWUnLCAnPG91dGZpbGUubWFlPic=

> <r_lp_tautomer_probability>
1

> <r_epik_Ionization_Penalty>
3.45505e-06

> <r_epik_Ionization_Penalty_Charging>
0

> <r_epik_Ionization_Penalty_Neutral>
3.45505e-06

> <r_epik_State_Penalty>
-0

> <r_epik_Charging_Adjusted_Penalty>
0

> <i_epik_Tot_Q>
0

> <i_epik_Tot_abs_Q>
0

> <r_epik_Metal_State_Penalty>
-0

> <b_epik_Metal_Only>
0

> <s_epik_Chemistry_Notes>
This compound contains an acetal/aminal-like group ( X-CH(R)-Y where X, Y are N, S, or O) that may be acid/base labile, releasing an aldehyde.

> <s_lp_Force_Field>
OPLS_2005

> <r_lp_Energy>
39.5324

> <b_lp_Chiralities_Consistent>
1

> <s_lp_Variant>
AV-unprocessed.smi:48-6

> <Gold.Version>
5.8.1

> <Gold.Id.Protein>
6NUR|6NUR_protein|mol2

> <Gold.PLP.Fitness>
41.0304

> <Gold.PLP.PLP>
-30.1486

> <Gold.PLP.part.hbond>
-6.0000

> <Gold.PLP.part.metal>
0.0000

> <Gold.PLP.part.buried>
-0.3003

> <Gold.PLP.part.nonpolar>
-24.8471

> <Gold.PLP.part.repulsive>
0.0864

> <Gold.PLP.ligand.clash>
0.0000

> <Gold.PLP.ligand.torsion>
0.0360

> <Gold.PLP.Chemscore.Hbond>
3.6506

> <Gold.PLP.Chemscore.CHOScore>
0.0000

> <Gold.PLP.Chemscore.Metal>
0.0000

> <Gold.Chemscore.Hbonds>
donor molecule, donor type, donor heavy atom, donor atom, acceptor molecule, acceptor atom, score
      L1  H    19    30       P1  7948  0.69
      P1  H  7989  7998       L1     4  1.00
      P1  H  7997  8009       L1    14  1.00
      P1  H  8011  8017       L1     1  0.96

> <Gold.PLP.Chemscore.Internal.Correction>
0.0019

> <Gold.Rescore>
     Score         DG    S(hbond)    S(metal)    S(lipo)     H(rot)  DE(clash)    DE(int)     intcor
      7.35      -9.27       2.23        0.00      52.06       3.80       1.92       0.00       ----

> <Gold.Chemscore.Fitness>
7.3494

> <Gold.Chemscore.DG>
-9.2745

> <Gold.Chemscore.ZeroCoef>
-5.4800

> <Gold.Chemscore.Hbond>
2.2262

> <Gold.Chemscore.Metal>
0.0000

> <Gold.Chemscore.Lipo>
52.0621

> <Gold.Chemscore.Internal_Hbond>
0.0000

> <Gold.Chemscore.DEClash>
1.9242

> <Gold.Chemscore.DEInternal>
0.0010

> <Gold.Chemscore.Rot>
3.8017

> <Gold.Chemscore.Internal.Correction>
   9.000000E+99

> <Gold.Chemscore.Hbonds>
donor molecule, donor type, donor heavy atom, donor atom, acceptor molecule, acceptor atom, score
      L1  H    19    30       P1  7948  0.12
      P1  H  7989  7998       L1     4  0.49
      P1  H  7997  8009       L1    14  0.09
      P1  H  8011  8017       L1     1  0.52

> <Gold.Chemscore.Hbond.Weighted>
-7.4357

> <Gold.Chemscore.Metal.Weighted>
-0.0000

> <Gold.Chemscore.Lipo.Weighted>
-6.0913

> <Gold.Chemscore.Internal_Hbond.Weighted>
0.0000

> <Gold.Chemscore.DEClash.Weighted>
1.9242

> <Gold.Chemscore.DEInternal.Weighted>
0.0010

> <Gold.Chemscore.Rot.Weighted>
9.7324

> <Gold.Chemscore.Internal.Correction.Weighted>
   9.000000E+99

> <Gold.Protein.RotatedTorsions>
[ 6907 6896 6895 6894 ] final  -84.95 input  -60.11 | X-H torsion
[ 7974 7965 7964 7962 ] final  -21.69 input  175.53 | X-H torsion
[ 8008 7997 7996 7995 ] final  130.96 input   59.86 | X-H torsion
[ 10167 10162 10161 10158 ] final  -99.06 input  -65.29 | X-H torsion
[ 10718 10713 10712 10709 ] final -152.89 input   66.30 | X-H torsion
[ 10763 10752 10751 10750 ] final  -64.43 input  -60.55 | X-H torsion
[ 11005 11000 10999 10996 ] final   19.80 input  -57.11 | X-H torsion

> <Gold.Protein.ActiveResidues>
 VAL166  LYS551  ARG553  GLY616  TRP617  ASP618  TYR619  PRO620  LYS621  CYS622 
 ASP623  PHE694  ASN695  SER759  ASP760  ASP761  ALA762  ILE779  LEU786  VAL792 
 PHE793  MET794  SER795  GLU796  ALA797  LYS798  CYS799  TRP800  GLU811  SER814 

> <Gold.Protein.RotatedAtoms>
  150.6873  134.3280  159.4814 H   0  0  0  0  0  0  0  0  0  0  0  0  # atno 6907 bound_to 6896
  152.1147  134.9246  160.0574 H   0  0  0  0  0  0  0  0  0  0  0  0  # atno 6908 bound_to 6896
  152.0475  133.3969  159.4400 H   0  0  0  0  0  0  0  0  0  0  0  0  # atno 6909 bound_to 6896
  146.1719  140.4376  142.8529 H   0  0  0  0  0  0  0  0  0  0  0  0  # atno 7974 bound_to 7965
  156.2963  140.2583  156.2847 H   0  0  0  0  0  0  0  0  0  0  0  0  # atno 8008 bound_to 7997
  154.9568  140.0393  157.2189 H   0  0  0  0  0  0  0  0  0  0  0  0  # atno 8009 bound_to 7997
  154.7984  140.2824  155.5944 H   0  0  0  0  0  0  0  0  0  0  0  0  # atno 8010 bound_to 7997
  140.2665  143.3372  152.0576 H   0  0  0  0  0  0  0  0  0  0  0  0  # atno 10167 bound_to 10162
  156.4784  130.8292  151.2519 H   0  0  0  0  0  0  0  0  0  0  0  0  # atno 10718 bound_to 10713
  154.3300  135.6178  153.5547 H   0  0  0  0  0  0  0  0  0  0  0  0  # atno 10763 bound_to 10752
  152.9812  135.5744  154.4973 H   0  0  0  0  0  0  0  0  0  0  0  0  # atno 10764 bound_to 10752
  154.4657  135.2857  155.1656 H   0  0  0  0  0  0  0  0  0  0  0  0  # atno 10765 bound_to 10752
  140.4097  134.1631  155.7667 H   0  0  0  0  0  0  0  0  0  0  0  0  # atno 11005 bound_to 11000
  144.8175  140.6494  143.6374 LP  0  0  0  0  0  0  0  0  0  0  0  0  # atno 17320 bound_to 7965
  145.4318  139.1548  143.4018 LP  0  0  0  0  0  0  0  0  0  0  0  0  # atno 17321 bound_to 7965
  139.5001  144.6685  151.6300 LP  0  0  0  0  0  0  0  0  0  0  0  0  # atno 17342 bound_to 10162
  140.5924  143.9756  150.6333 LP  0  0  0  0  0  0  0  0  0  0  0  0  # atno 17343 bound_to 10162
  157.7485  131.0053  150.3108 LP  0  0  0  0  0  0  0  0  0  0  0  0  # atno 17370 bound_to 10713
  156.3546  130.3836  149.7301 LP  0  0  0  0  0  0  0  0  0  0  0  0  # atno 17371 bound_to 10713
  141.1826  133.8382  157.1204 LP  0  0  0  0  0  0  0  0  0  0  0  0  # atno 17394 bound_to 11000
  140.0276  134.9916  157.0718 LP  0  0  0  0  0  0  0  0  0  0  0  0  # atno 17395 bound_to 11000

$$$$
