AV-unprocessed.smi:720|AV-procd|sdf|3495|dock3
  -GOLD-   22720 0493D 1   1.00000     0.00000
 Structure written by MMmdl.
 47 49  0  0  0  0  0  0  0  0  2 V2000
  145.5147  136.1120  150.8301 C   0  0  0  0  0  0  0  0  0  0  0  0
  146.2508  136.4028  152.0818 N   0  3  0  0  0  0  0  0  0  0  0  0
  145.9205  135.4280  153.1448 C   0  0  0  0  0  0  0  0  0  0  0  0
  146.0950  137.8044  152.5445 C   0  0  0  0  0  0  0  0  0  0  0  0
  146.8966  138.0986  153.8262 C   0  0  0  0  0  0  0  0  0  0  0  0
  147.2918  139.4915  153.9030 N   0  0  0  0  0  0  0  0  0  0  0  0
  146.8680  140.5511  153.1259 C   0  0  0  0  0  0  0  0  0  0  0  0
  147.5199  141.6686  153.5649 C   0  0  0  0  0  0  0  0  0  0  0  0
  148.3306  141.1792  154.6257 C   0  0  0  0  0  0  0  0  0  0  0  0
  149.1732  142.0542  155.3564 N   0  0  0  0  0  0  0  0  0  0  0  0
  150.2012  141.7274  156.1641 C   0  0  0  0  0  0  0  0  0  0  0  0
  150.5778  140.5773  156.3840 O   0  0  0  0  0  0  0  0  0  0  0  0
  150.8083  142.7819  156.7373 N   0  0  0  0  0  0  0  0  0  0  0  0
  151.9475  142.7721  157.6596 C   0  0  2  0  0  0  0  0  0  0  0  0
  151.5693  142.1244  159.0100 C   0  0  0  0  0  0  0  0  0  0  0  0
  151.8831  143.2344  160.0303 C   0  0  2  0  0  0  0  0  0  0  0  0
  150.8398  144.3607  159.9054 C   0  0  0  0  0  0  0  0  0  0  0  0
  151.2359  145.0466  158.5842 C   0  0  0  0  0  0  0  0  0  0  0  0
  152.4197  144.1832  158.0974 C   0  0  1  0  0  0  0  0  0  0  0  0
  153.1192  143.8791  159.4176 C   0  0  0  0  0  0  0  0  0  0  0  0
  148.1988  139.8755  154.8266 N   0  0  0  0  0  0  0  0  0  0  0  0
  144.4432  136.2695  150.9601 H   0  0  0  0  0  0  0  0  0  0  0  0
  145.6704  135.0765  150.5262 H   0  0  0  0  0  0  0  0  0  0  0  0
  145.8571  136.7419  150.0099 H   0  0  0  0  0  0  0  0  0  0  0  0
  144.8737  135.5113  153.4399 H   0  0  0  0  0  0  0  0  0  0  0  0
  146.5397  135.5919  154.0275 H   0  0  0  0  0  0  0  0  0  0  0  0
  146.0997  134.4078  152.8036 H   0  0  0  0  0  0  0  0  0  0  0  0
  146.3760  138.4942  151.7472 H   0  0  0  0  0  0  0  0  0  0  0  0
  145.0386  137.9847  152.7499 H   0  0  0  0  0  0  0  0  0  0  0  0
  146.3035  137.8617  154.7106 H   0  0  0  0  0  0  0  0  0  0  0  0
  147.7982  137.4881  153.8752 H   0  0  0  0  0  0  0  0  0  0  0  0
  146.1448  140.4241  152.3338 H   0  0  0  0  0  0  0  0  0  0  0  0
  147.4294  142.6761  153.1861 H   0  0  0  0  0  0  0  0  0  0  0  0
  148.9675  143.0383  155.2668 H   0  0  0  0  0  0  0  0  0  0  0  0
  150.4422  143.6936  156.5036 H   0  0  0  0  0  0  0  0  0  0  0  0
  152.7768  142.2145  157.2204 H   0  0  0  0  0  0  0  0  0  0  0  0
  150.5266  141.8073  159.0620 H   0  0  0  0  0  0  0  0  0  0  0  0
  152.1880  141.2454  159.1952 H   0  0  0  0  0  0  0  0  0  0  0  0
  152.0106  142.8675  161.0490 H   0  0  0  0  0  0  0  0  0  0  0  0
  149.8196  143.9763  159.8851 H   0  0  0  0  0  0  0  0  0  0  0  0
  150.9182  145.0604  160.7385 H   0  0  0  0  0  0  0  0  0  0  0  0
  150.4114  145.1004  157.8734 H   0  0  0  0  0  0  0  0  0  0  0  0
  151.5650  146.0691  158.7742 H   0  0  0  0  0  0  0  0  0  0  0  0
  153.0452  144.6845  157.3582 H   0  0  0  0  0  0  0  0  0  0  0  0
  153.4510  144.7731  159.9493 H   0  0  0  0  0  0  0  0  0  0  0  0
  153.9607  143.1917  159.3139 H   0  0  0  0  0  0  0  0  0  0  0  0
  147.2325  136.2738  151.8819 H   0  0  0  0  0  0  0  0  0  0  0  0
  1  2  1  0  0  0  0
  1 22  1  0  0  0  0
  1 23  1  0  0  0  0
  1 24  1  0  0  0  0
  2  3  1  0  0  0  0
  2  4  1  0  0  0  0
  2 47  1  0  0  0  0
  3 25  1  0  0  0  0
  3 26  1  0  0  0  0
  3 27  1  0  0  0  0
  4  5  1  0  0  0  0
  4 28  1  0  0  0  0
  4 29  1  0  0  0  0
  5  6  1  0  0  0  0
  5 30  1  0  0  0  0
  5 31  1  0  0  0  0
  6 21  1  0  0  0  0
  6  7  1  0  0  0  0
  7  8  2  0  0  0  0
  7 32  1  0  0  0  0
  8  9  1  0  0  0  0
  8 33  1  0  0  0  0
  9 10  1  0  0  0  0
  9 21  2  0  0  0  0
 10 11  1  0  0  0  0
 10 34  1  0  0  0  0
 11 12  2  0  0  0  0
 11 13  1  0  0  0  0
 13 14  1  0  0  0  0
 13 35  1  0  0  0  0
 14 19  1  0  0  0  0
 14 15  1  0  0  0  0
 14 36  1  0  0  0  0
 15 16  1  0  0  0  0
 15 37  1  0  0  0  0
 15 38  1  0  0  0  0
 16 20  1  0  0  0  0
 16 17  1  0  0  0  0
 16 39  1  0  0  0  0
 17 18  1  0  0  0  0
 17 40  1  0  0  0  0
 17 41  1  0  0  0  0
 18 19  1  0  0  0  0
 18 42  1  0  0  0  0
 18 43  1  0  0  0  0
 19 20  1  0  0  0  0
 19 44  1  0  0  0  0
 20 45  1  0  0  0  0
 20 46  1  0  0  0  0
M  CHG  1   2   1
M  END
> <s_m_source_file>
AV-unprocessed.smi

> <i_m_source_file_index>
720

> <i_lp_mmshare_version>
43012

> <i_f3d_flags>
0

> <s_epik_input>
W0NIM11OKFtDSDNdKVtDSDJdW0NIMl1uMVtjSF1bY0hdYyhuMSlbTkhdQyg9TylbTkhdW0NASF0oW0NIMl1bQ0BIXTIzKVtDQEhdKFtDSDJdMylbQ0gyXVtDSDJdMg==

> <s_epik_cmdline>
J2VwaWtfcHl0aG9uJywgJy1waCcsICc3LjAnLCAnLXRuJywgJzgnLCAnLW1hJywgJzIwMCcsICctbWV0YWxfYmluZGluZycsICctaW1hZScsICc8aW5maWxlLm1hZT4nLCAnLW9tYWUnLCAnPG91dGZpbGUubWFlPic=

> <r_lp_tautomer_probability>
1

> <r_epik_Ionization_Penalty>
0.0272832

> <r_epik_Ionization_Penalty_Charging>
0.027243

> <r_epik_Ionization_Penalty_Neutral>
4.01867e-05

> <r_epik_State_Penalty>
0.0222865

> <r_epik_Charging_Adjusted_Penalty>
0.0495295

> <i_epik_Tot_Q>
1

> <i_epik_Tot_abs_Q>
1

> <r_epik_Metal_State_Penalty>
0.0222866

> <b_epik_Metal_Only>
0

> <s_lp_Force_Field>
OPLS_2005

> <r_lp_Energy>
60.2388

> <b_lp_Chiralities_Consistent>
1

> <s_lp_Variant>
AV-unprocessed.smi:720-1

> <Gold.Version>
5.8.1

> <Gold.Id.Protein>
6NUR|6NUR_protein|mol2

> <Gold.PLP.Fitness>
54.9393

> <Gold.PLP.PLP>
-40.6737

> <Gold.PLP.part.hbond>
-3.0000

> <Gold.PLP.part.metal>
0.0000

> <Gold.PLP.part.buried>
-6.2260

> <Gold.PLP.part.nonpolar>
-31.9473

> <Gold.PLP.part.repulsive>
0.3554

> <Gold.PLP.ligand.clash>
0.0000

> <Gold.PLP.ligand.torsion>
0.3887

> <Gold.PLP.Chemscore.Hbond>
3.9920

> <Gold.PLP.Chemscore.CHOScore>
0.9968

> <Gold.PLP.Chemscore.Metal>
0.0000

> <Gold.Chemscore.Hbonds>
donor molecule, donor type, donor heavy atom, donor atom, acceptor molecule, acceptor atom, score
      L1  H     2    47       P1  7948  2.00
      L1  H    10    34       P1  8028  1.00
      L1  H    13    35       P1  8028  0.92
      L1  C     7    32       P1 10175  0.99

> <Gold.PLP.Chemscore.Internal.Correction>
0.0768

> <Gold.Rescore>
     Score         DG    S(hbond)    S(metal)    S(lipo)     H(rot)  DE(clash)    DE(int)     intcor
     21.77     -24.34       2.95        0.00     112.50       1.62       0.98       1.59       ----

> <Gold.Chemscore.Fitness>
21.7680

> <Gold.Chemscore.DG>
-24.3426

> <Gold.Chemscore.ZeroCoef>
-5.4800

> <Gold.Chemscore.Hbond>
2.9493

> <Gold.Chemscore.Metal>
0.0000

> <Gold.Chemscore.Lipo>
112.4976

> <Gold.Chemscore.Internal_Hbond>
0.0000

> <Gold.Chemscore.DEClash>
0.9831

> <Gold.Chemscore.DEInternal>
1.5915

> <Gold.Chemscore.Rot>
1.6212

> <Gold.Chemscore.Internal.Correction>
   9.000000E+99

> <Gold.Chemscore.Hbonds>
donor molecule, donor type, donor heavy atom, donor atom, acceptor molecule, acceptor atom, score
      L1  H     2    47       P1  7948  1.00
      L1  H    10    34       P1  8028  1.00
      L1  H    13    35       P1  8028  0.84

> <Gold.Chemscore.Hbond.Weighted>
-9.8506

> <Gold.Chemscore.Metal.Weighted>
-0.0000

> <Gold.Chemscore.Lipo.Weighted>
-13.1622

> <Gold.Chemscore.Internal_Hbond.Weighted>
0.0000

> <Gold.Chemscore.DEClash.Weighted>
0.9831

> <Gold.Chemscore.DEInternal.Weighted>
1.5915

> <Gold.Chemscore.Rot.Weighted>
4.1502

> <Gold.Chemscore.Internal.Correction.Weighted>
   9.000000E+99

> <Gold.Protein.RotatedTorsions>
[ 6907 6896 6895 6894 ] final  142.73 input  -60.11 | X-H torsion
[ 7974 7965 7964 7962 ] final -102.24 input  175.53 | X-H torsion
[ 8008 7997 7996 7995 ] final  -67.99 input   59.86 | X-H torsion
[ 10167 10162 10161 10158 ] final    5.96 input  -65.29 | X-H torsion
[ 10718 10713 10712 10709 ] final   76.59 input   66.30 | X-H torsion
[ 10763 10752 10751 10750 ] final  -72.92 input  -60.55 | X-H torsion
[ 11005 11000 10999 10996 ] final  -13.25 input  -57.11 | X-H torsion

> <Gold.Protein.ActiveResidues>
 VAL166  LYS551  ARG553  GLY616  TRP617  ASP618  TYR619  PRO620  LYS621  CYS622 
 ASP623  PHE694  ASN695  SER759  ASP760  ASP761  ALA762  ILE779  LEU786  VAL792 
 PHE793  MET794  SER795  GLU796  ALA797  LYS798  CYS799  TRP800  GLU811  SER814 

> <Gold.Protein.RotatedAtoms>
  152.2151  133.4940  159.5130 H   0  0  0  0  0  0  0  0  0  0  0  0  # atno 6907 bound_to 6896
  150.6999  134.1416  159.4116 H   0  0  0  0  0  0  0  0  0  0  0  0  # atno 6908 bound_to 6896
  151.9336  135.0245  160.0581 H   0  0  0  0  0  0  0  0  0  0  0  0  # atno 6909 bound_to 6896
  145.2712  140.9299  143.2985 H   0  0  0  0  0  0  0  0  0  0  0  0  # atno 7974 bound_to 7965
  154.4837  140.0882  156.7437 H   0  0  0  0  0  0  0  0  0  0  0  0  # atno 8008 bound_to 7997
  155.4405  140.3453  155.4271 H   0  0  0  0  0  0  0  0  0  0  0  0  # atno 8009 bound_to 7997
  156.1229  140.1479  156.9166 H   0  0  0  0  0  0  0  0  0  0  0  0  # atno 8010 bound_to 7997
  140.6454  143.7676  150.7490 H   0  0  0  0  0  0  0  0  0  0  0  0  # atno 10167 bound_to 10162
  157.6679  130.9782  150.1520 H   0  0  0  0  0  0  0  0  0  0  0  0  # atno 10718 bound_to 10713
  154.4524  135.5914  153.6200 H   0  0  0  0  0  0  0  0  0  0  0  0  # atno 10763 bound_to 10752
  152.9815  135.6024  154.3588 H   0  0  0  0  0  0  0  0  0  0  0  0  # atno 10764 bound_to 10752
  154.3451  135.2841  155.2381 H   0  0  0  0  0  0  0  0  0  0  0  0  # atno 10765 bound_to 10752
  140.7742  133.8414  155.9233 H   0  0  0  0  0  0  0  0  0  0  0  0  # atno 11005 bound_to 11000
  144.9333  139.4273  143.6484 LP  0  0  0  0  0  0  0  0  0  0  0  0  # atno 17320 bound_to 7965
  146.3246  139.8256  142.8918 LP  0  0  0  0  0  0  0  0  0  0  0  0  # atno 17321 bound_to 7965
  140.1315  143.4521  152.2251 LP  0  0  0  0  0  0  0  0  0  0  0  0  # atno 17342 bound_to 10162
  139.5664  144.7437  151.4011 LP  0  0  0  0  0  0  0  0  0  0  0  0  # atno 17343 bound_to 10162
  156.2317  130.3682  149.8438 LP  0  0  0  0  0  0  0  0  0  0  0  0  # atno 17370 bound_to 10713
  156.6263  130.8647  151.3486 LP  0  0  0  0  0  0  0  0  0  0  0  0  # atno 17371 bound_to 10713
  140.9545  134.1736  157.4702 LP  0  0  0  0  0  0  0  0  0  0  0  0  # atno 17394 bound_to 11000
  139.8751  134.9922  156.5583 LP  0  0  0  0  0  0  0  0  0  0  0  0  # atno 17395 bound_to 11000

$$$$
