AV-unprocessed.smi:1309|AV-procd|sdf|5444|dock5
  -GOLD-   22720 5 13D 1   1.00000     0.00000
 Structure written by MMmdl.
 41 42  0  0  0  0  0  0  0  0  1 V2000
  155.3460  133.5101  164.2835 C   0  0  0  0  0  0  0  0  0  0  0  0
  156.1050  134.2831  163.1951 C   0  0  0  0  0  0  0  0  0  0  0  0
  157.5678  134.5667  163.5675 C   0  0  0  0  0  0  0  0  0  0  0  0
  155.3809  135.5243  162.7773 C   0  0  0  0  0  0  0  0  0  0  0  0
  154.9248  135.7351  161.5390 N   0  0  0  0  0  0  0  0  0  0  0  0
  154.2727  136.9650  161.4028 C   0  0  0  0  0  0  0  0  0  0  0  0
  153.6845  137.3591  160.0793 C   0  0  0  0  0  0  0  0  0  0  0  0
  154.2358  138.7173  159.6424 C   0  0  0  0  0  0  0  0  0  0  0  0
  154.9699  138.7972  158.6577 O   0  0  0  0  0  0  0  0  0  0  0  0
  153.8759  139.7781  160.3833 N   0  0  0  0  0  0  0  0  0  0  0  0
  154.2842  141.1586  160.1331 C   0  0  0  0  0  0  0  0  0  0  0  0
  153.5409  142.1895  161.0027 C   0  0  0  0  0  0  0  0  0  0  0  0
  153.6389  142.1448  162.2304 O   0  0  0  0  0  0  0  0  0  0  0  0
  152.7842  143.1161  160.3796 N   0  0  0  0  0  0  0  0  0  0  0  0
  152.0255  144.1810  161.0352 C   0  0  0  0  0  0  0  0  0  0  0  0
  151.5590  145.1071  159.9115 C   0  0  0  0  0  0  0  0  0  0  0  0
  151.5142  144.2089  158.6832 C   0  0  0  0  0  0  0  0  0  0  0  0
  152.6224  143.1844  158.9287 C   0  0  0  0  0  0  0  0  0  0  0  0
  154.2555  137.6973  162.5643 C   0  0  0  0  0  0  0  0  0  0  0  0
  155.0424  136.8597  163.8732 S   0  0  0  0  0  0  0  0  0  0  0  0
  154.3371  133.2582  163.9547 H   0  0  0  0  0  0  0  0  0  0  0  0
  155.2616  134.0956  165.1996 H   0  0  0  0  0  0  0  0  0  0  0  0
  155.8551  132.5782  164.5309 H   0  0  0  0  0  0  0  0  0  0  0  0
  156.1317  133.6341  162.3189 H   0  0  0  0  0  0  0  0  0  0  0  0
  158.0975  135.0433  162.7421 H   0  0  0  0  0  0  0  0  0  0  0  0
  158.0968  133.6453  163.8120 H   0  0  0  0  0  0  0  0  0  0  0  0
  157.6357  135.2272  164.4327 H   0  0  0  0  0  0  0  0  0  0  0  0
  153.9118  136.6130  159.3166 H   0  0  0  0  0  0  0  0  0  0  0  0
  152.5968  137.4141  160.1404 H   0  0  0  0  0  0  0  0  0  0  0  0
  153.2765  139.6185  161.1798 H   0  0  0  0  0  0  0  0  0  0  0  0
  155.3615  141.2518  160.2801 H   0  0  0  0  0  0  0  0  0  0  0  0
  154.0882  141.3802  159.0841 H   0  0  0  0  0  0  0  0  0  0  0  0
  151.1677  143.7436  161.5481 H   0  0  0  0  0  0  0  0  0  0  0  0
  152.6214  144.7260  161.7685 H   0  0  0  0  0  0  0  0  0  0  0  0
  150.6007  145.5815  160.1250 H   0  0  0  0  0  0  0  0  0  0  0  0
  152.2961  145.8964  159.7584 H   0  0  0  0  0  0  0  0  0  0  0  0
  150.5499  143.7008  158.6389 H   0  0  0  0  0  0  0  0  0  0  0  0
  151.6454  144.7587  157.7509 H   0  0  0  0  0  0  0  0  0  0  0  0
  153.5596  143.5189  158.4815 H   0  0  0  0  0  0  0  0  0  0  0  0
  152.3679  142.2147  158.4979 H   0  0  0  0  0  0  0  0  0  0  0  0
  153.8238  138.6730  162.7304 H   0  0  0  0  0  0  0  0  0  0  0  0
  1  2  1  0  0  0  0
  1 21  1  0  0  0  0
  1 22  1  0  0  0  0
  1 23  1  0  0  0  0
  2  3  1  0  0  0  0
  2  4  1  0  0  0  0
  2 24  1  0  0  0  0
  3 25  1  0  0  0  0
  3 26  1  0  0  0  0
  3 27  1  0  0  0  0
  4 20  1  0  0  0  0
  4  5  2  0  0  0  0
  5  6  1  0  0  0  0
  6  7  1  0  0  0  0
  6 19  2  0  0  0  0
  7  8  1  0  0  0  0
  7 28  1  0  0  0  0
  7 29  1  0  0  0  0
  8  9  2  0  0  0  0
  8 10  1  0  0  0  0
 10 11  1  0  0  0  0
 10 30  1  0  0  0  0
 11 12  1  0  0  0  0
 11 31  1  0  0  0  0
 11 32  1  0  0  0  0
 12 13  2  0  0  0  0
 12 14  1  0  0  0  0
 14 18  1  0  0  0  0
 14 15  1  0  0  0  0
 15 16  1  0  0  0  0
 15 33  1  0  0  0  0
 15 34  1  0  0  0  0
 16 17  1  0  0  0  0
 16 35  1  0  0  0  0
 16 36  1  0  0  0  0
 17 18  1  0  0  0  0
 17 37  1  0  0  0  0
 17 38  1  0  0  0  0
 18 39  1  0  0  0  0
 18 40  1  0  0  0  0
 19 20  1  0  0  0  0
 19 41  1  0  0  0  0
M  END
> <s_m_source_file>
AV-unprocessed.smi

> <i_m_source_file_index>
1309

> <i_lp_mmshare_version>
43012

> <i_f3d_flags>
0

> <s_epik_input>
W0NIM11bQ0hdKFtDSDNdKWMxbmMoW2NIXXMxKVtDSDJdQyg9TylbTkhdW0NIMl1DKD1PKU4yW0NIMl1bQ0gyXVtDSDJdW0NIMl0y

> <s_epik_cmdline>
J2VwaWtfcHl0aG9uJywgJy1waCcsICc3LjAnLCAnLXRuJywgJzgnLCAnLW1hJywgJzIwMCcsICctbWV0YWxfYmluZGluZycsICctaW1hZScsICc8aW5maWxlLm1hZT4nLCAnLW9tYWUnLCAnPG91dGZpbGUubWFlPic=

> <r_lp_tautomer_probability>
1

> <r_epik_Ionization_Penalty>
2.87584e-05

> <r_epik_Ionization_Penalty_Charging>
0

> <r_epik_Ionization_Penalty_Neutral>
2.87584e-05

> <r_epik_State_Penalty>
-0

> <r_epik_Charging_Adjusted_Penalty>
0

> <i_epik_Tot_Q>
0

> <i_epik_Tot_abs_Q>
0

> <r_epik_Metal_State_Penalty>
-0

> <b_epik_Metal_Only>
0

> <s_lp_Force_Field>
OPLS_2005

> <r_lp_Energy>
16.8696

> <b_lp_Chiralities_Consistent>
1

> <s_lp_Variant>
AV-unprocessed.smi:1309-1

> <Gold.Version>
5.8.1

> <Gold.Id.Protein>
6NUR|6NUR_protein|mol2

> <Gold.PLP.Fitness>
49.6025

> <Gold.PLP.PLP>
-46.8189

> <Gold.PLP.part.hbond>
-1.0000

> <Gold.PLP.part.metal>
0.0000

> <Gold.PLP.part.buried>
-5.9951

> <Gold.PLP.part.nonpolar>
-40.0368

> <Gold.PLP.part.repulsive>
0.1020

> <Gold.PLP.ligand.clash>
0.0000

> <Gold.PLP.ligand.torsion>
0.1612

> <Gold.PLP.Chemscore.Hbond>
1.0000

> <Gold.PLP.Chemscore.CHOScore>
0.0000

> <Gold.PLP.Chemscore.Metal>
0.0000

> <Gold.Chemscore.Hbonds>
donor molecule, donor type, donor heavy atom, donor atom, acceptor molecule, acceptor atom, score
      P1  H  7997  8010       L1     9  1.00

> <Gold.PLP.Chemscore.Internal.Correction>
0.1060

> <Gold.Rescore>
     Score         DG    S(hbond)    S(metal)    S(lipo)     H(rot)  DE(clash)    DE(int)     intcor
     16.73     -16.92       0.98        0.00     106.98       1.70       0.03       0.16       ----

> <Gold.Chemscore.Fitness>
16.7265

> <Gold.Chemscore.DG>
-16.9215

> <Gold.Chemscore.ZeroCoef>
-5.4800

> <Gold.Chemscore.Hbond>
0.9804

> <Gold.Chemscore.Metal>
0.0000

> <Gold.Chemscore.Lipo>
106.9797

> <Gold.Chemscore.Internal_Hbond>
0.0000

> <Gold.Chemscore.DEClash>
0.0310

> <Gold.Chemscore.DEInternal>
0.1640

> <Gold.Chemscore.Rot>
1.6991

> <Gold.Chemscore.Internal.Correction>
   9.000000E+99

> <Gold.Chemscore.Hbonds>
donor molecule, donor type, donor heavy atom, donor atom, acceptor molecule, acceptor atom, score
      P1  H  7997  8010       L1     9  1.00

> <Gold.Chemscore.Hbond.Weighted>
-3.2746

> <Gold.Chemscore.Metal.Weighted>
-0.0000

> <Gold.Chemscore.Lipo.Weighted>
-12.5166

> <Gold.Chemscore.Internal_Hbond.Weighted>
0.0000

> <Gold.Chemscore.DEClash.Weighted>
0.0310

> <Gold.Chemscore.DEInternal.Weighted>
0.1640

> <Gold.Chemscore.Rot.Weighted>
4.3497

> <Gold.Chemscore.Internal.Correction.Weighted>
   9.000000E+99

> <Gold.Protein.RotatedTorsions>
[ 6907 6896 6895 6894 ] final  166.49 input  -60.11 | X-H torsion
[ 7974 7965 7964 7962 ] final  177.75 input  175.53 | X-H torsion
[ 8008 7997 7996 7995 ] final    1.83 input   59.86 | X-H torsion
[ 10167 10162 10161 10158 ] final  113.78 input  -65.29 | X-H torsion
[ 10718 10713 10712 10709 ] final  179.95 input   66.30 | X-H torsion
[ 10763 10752 10751 10750 ] final  -43.13 input  -60.55 | X-H torsion
[ 11005 11000 10999 10996 ] final  110.15 input  -57.11 | X-H torsion

> <Gold.Protein.ActiveResidues>
 VAL166  LYS551  ARG553  GLY616  TRP617  ASP618  TYR619  PRO620  LYS621  CYS622 
 ASP623  PHE694  ASN695  SER759  ASP760  ASP761  ALA762  ILE779  LEU786  VAL792 
 PHE793  MET794  SER795  GLU796  ALA797  LYS798  CYS799  TRP800  GLU811  SER814 

> <Gold.Protein.RotatedAtoms>
  151.8781  133.3489  159.3756 H   0  0  0  0  0  0  0  0  0  0  0  0  # atno 6907 bound_to 6896
  150.7135  134.5046  159.5587 H   0  0  0  0  0  0  0  0  0  0  0  0  # atno 6908 bound_to 6896
  152.2592  134.8052  160.0484 H   0  0  0  0  0  0  0  0  0  0  0  0  # atno 6909 bound_to 6896
  144.7165  140.0294  143.6439 H   0  0  0  0  0  0  0  0  0  0  0  0  # atno 7974 bound_to 7965
  154.6844  140.2639  155.6876 H   0  0  0  0  0  0  0  0  0  0  0  0  # atno 8008 bound_to 7997
  156.2709  140.2804  156.1323 H   0  0  0  0  0  0  0  0  0  0  0  0  # atno 8009 bound_to 7997
  155.0985  140.0374  157.2680 H   0  0  0  0  0  0  0  0  0  0  0  0  # atno 8010 bound_to 7997
  139.6436  144.7125  151.2187 H   0  0  0  0  0  0  0  0  0  0  0  0  # atno 10167 bound_to 10162
  156.8682  130.9775  151.3076 H   0  0  0  0  0  0  0  0  0  0  0  0  # atno 10718 bound_to 10713
  153.9905  135.6706  153.4754 H   0  0  0  0  0  0  0  0  0  0  0  0  # atno 10763 bound_to 10752
  153.0707  135.4976  154.8295 H   0  0  0  0  0  0  0  0  0  0  0  0  # atno 10764 bound_to 10752
  154.7112  135.3098  154.9157 H   0  0  0  0  0  0  0  0  0  0  0  0  # atno 10765 bound_to 10752
  139.8876  134.9477  156.6235 H   0  0  0  0  0  0  0  0  0  0  0  0  # atno 11005 bound_to 11000
  146.0115  139.3173  143.0868 LP  0  0  0  0  0  0  0  0  0  0  0  0  # atno 17320 bound_to 7965
  145.8676  140.9438  143.0667 LP  0  0  0  0  0  0  0  0  0  0  0  0  # atno 17321 bound_to 7965
  140.7503  143.6269  150.8460 LP  0  0  0  0  0  0  0  0  0  0  0  0  # atno 17342 bound_to 10162
  139.9909  143.5848  152.2910 LP  0  0  0  0  0  0  0  0  0  0  0  0  # atno 17343 bound_to 10162
  157.6211  130.8656  149.9110 LP  0  0  0  0  0  0  0  0  0  0  0  0  # atno 17370 bound_to 10713
  156.0740  130.3681  150.0715 LP  0  0  0  0  0  0  0  0  0  0  0  0  # atno 17371 bound_to 10713
  140.7721  133.8730  155.8500 LP  0  0  0  0  0  0  0  0  0  0  0  0  # atno 17394 bound_to 11000
  140.9833  134.1376  157.4475 LP  0  0  0  0  0  0  0  0  0  0  0  0  # atno 17395 bound_to 11000

$$$$
