AV-unprocessed.smi:2928|AV-procd|sdf|11233|dock5
  -GOLD-   2272016123D 1   1.00000     0.00000
 Structure written by MMmdl.
 55 58  0  0  0  0  0  0  0  0  2 V2000
  154.4439  135.3337  164.1551 C   0  0  0  0  0  0  0  0  0  0  0  0
  154.4424  136.3540  163.0797 N   0  3  2  0  0  0  0  0  0  0  0  0
  155.0329  135.9062  161.7948 C   0  0  2  0  0  0  0  0  0  0  0  0
  156.5686  135.7314  161.9105 C   0  0  0  0  0  0  0  0  0  0  0  0
  157.2974  136.9582  162.4916 C   0  0  0  0  0  0  0  0  0  0  0  0
  156.5381  137.5894  163.6741 C   0  0  0  0  0  0  0  0  0  0  0  0
  155.0042  137.6708  163.4675 C   0  0  1  0  0  0  0  0  0  0  0  0
  154.5440  138.7324  162.4417 C   0  0  0  0  0  0  0  0  0  0  0  0
  154.8304  138.3637  160.9630 C   0  0  2  0  0  0  0  0  0  0  0  0
  154.0033  139.1704  160.0684 N   0  0  0  0  0  0  0  0  0  0  0  0
  153.7400  140.4761  160.2241 C   0  0  0  0  0  0  0  0  0  0  0  0
  154.1467  141.1420  161.1759 O   0  0  0  0  0  0  0  0  0  0  0  0
  152.9708  140.9376  159.2240 N   0  0  0  0  0  0  0  0  0  0  0  0
  152.4641  142.2544  159.0299 C   0  0  0  0  0  0  0  0  0  0  0  0
  153.0059  143.3723  159.7113 C   0  0  0  0  0  0  0  0  0  0  0  0
  152.5129  144.6579  159.4294 C   0  0  0  0  0  0  0  0  0  0  0  0
  151.5035  144.7851  158.4610 C   0  0  0  0  0  0  0  0  0  0  0  0
  150.9869  143.7343  157.7935 N   0  0  0  0  0  0  0  0  0  0  0  0
  151.4424  142.4864  158.0649 C   0  0  0  0  0  0  0  0  0  0  0  0
  150.8546  141.4201  157.3469 N   0  0  0  0  0  0  0  0  0  0  0  0
  149.5245  140.9789  157.7574 C   0  0  0  0  0  0  0  0  0  0  0  0
  148.7867  140.5715  156.4768 C   0  0  0  0  0  0  0  0  0  0  0  0
  149.9077  140.3370  155.4687 C   0  0  0  0  0  0  0  0  0  0  0  0
  150.9451  141.3724  155.8917 C   0  0  0  0  0  0  0  0  0  0  0  0
  154.5722  136.8655  160.6727 C   0  0  0  0  0  0  0  0  0  0  0  0
  155.4515  135.0552  164.4617 H   0  0  0  0  0  0  0  0  0  0  0  0
  153.9314  134.4308  163.8218 H   0  0  0  0  0  0  0  0  0  0  0  0
  153.9155  135.7066  165.0330 H   0  0  0  0  0  0  0  0  0  0  0  0
  154.6123  134.9279  161.5576 H   0  0  0  0  0  0  0  0  0  0  0  0
  156.7772  134.8732  162.5498 H   0  0  0  0  0  0  0  0  0  0  0  0
  156.9921  135.4764  160.9385 H   0  0  0  0  0  0  0  0  0  0  0  0
  158.2969  136.6666  162.8160 H   0  0  0  0  0  0  0  0  0  0  0  0
  157.4716  137.6984  161.7154 H   0  0  0  0  0  0  0  0  0  0  0  0
  156.7411  136.9989  164.5678 H   0  0  0  0  0  0  0  0  0  0  0  0
  156.9423  138.5800  163.8852 H   0  0  0  0  0  0  0  0  0  0  0  0
  154.5626  137.9534  164.4244 H   0  0  0  0  0  0  0  0  0  0  0  0
  153.4672  138.8619  162.5646 H   0  0  0  0  0  0  0  0  0  0  0  0
  154.9857  139.7005  162.6813 H   0  0  0  0  0  0  0  0  0  0  0  0
  155.8674  138.5897  160.7262 H   0  0  0  0  0  0  0  0  0  0  0  0
  153.6209  138.7053  159.2580 H   0  0  0  0  0  0  0  0  0  0  0  0
  152.6383  140.2499  158.5639 H   0  0  0  0  0  0  0  0  0  0  0  0
  153.8070  143.2709  160.4272 H   0  0  0  0  0  0  0  0  0  0  0  0
  152.9090  145.5268  159.9337 H   0  0  0  0  0  0  0  0  0  0  0  0
  151.1039  145.7567  158.2106 H   0  0  0  0  0  0  0  0  0  0  0  0
  149.6256  140.1173  158.4175 H   0  0  0  0  0  0  0  0  0  0  0  0
  148.9832  141.7572  158.2976 H   0  0  0  0  0  0  0  0  0  0  0  0
  148.1488  139.6982  156.6145 H   0  0  0  0  0  0  0  0  0  0  0  0
  148.1584  141.3963  156.1378 H   0  0  0  0  0  0  0  0  0  0  0  0
  150.3126  139.3311  155.5879 H   0  0  0  0  0  0  0  0  0  0  0  0
  149.5859  140.4546  154.4337 H   0  0  0  0  0  0  0  0  0  0  0  0
  150.6897  142.3389  155.4553 H   0  0  0  0  0  0  0  0  0  0  0  0
  151.9486  141.1010  155.5630 H   0  0  0  0  0  0  0  0  0  0  0  0
  155.0296  136.5844  159.7234 H   0  0  0  0  0  0  0  0  0  0  0  0
  153.4992  136.7173  160.5386 H   0  0  0  0  0  0  0  0  0  0  0  0
  153.4646  136.5201  162.8880 H   0  0  0  0  0  0  0  0  0  0  0  0
  1  2  1  0  0  0  0
  1 26  1  0  0  0  0
  1 27  1  0  0  0  0
  1 28  1  0  0  0  0
  2  7  1  0  0  0  0
  2  3  1  0  0  0  0
  2 55  1  0  0  0  0
  3 25  1  0  0  0  0
  3  4  1  0  0  0  0
  3 29  1  0  0  0  0
  4  5  1  0  0  0  0
  4 30  1  0  0  0  0
  4 31  1  0  0  0  0
  5  6  1  0  0  0  0
  5 32  1  0  0  0  0
  5 33  1  0  0  0  0
  6  7  1  0  0  0  0
  6 34  1  0  0  0  0
  6 35  1  0  0  0  0
  7  8  1  0  0  0  0
  7 36  1  0  0  0  0
  8  9  1  0  0  0  0
  8 37  1  0  0  0  0
  8 38  1  0  0  0  0
  9 10  1  0  0  0  0
  9 25  1  0  0  0  0
  9 39  1  0  0  0  0
 10 11  1  0  0  0  0
 10 40  1  0  0  0  0
 11 12  2  0  0  0  0
 11 13  1  0  0  0  0
 13 14  1  0  0  0  0
 13 41  1  0  0  0  0
 14 19  1  0  0  0  0
 14 15  2  0  0  0  0
 15 16  1  0  0  0  0
 15 42  1  0  0  0  0
 16 17  2  0  0  0  0
 16 43  1  0  0  0  0
 17 18  1  0  0  0  0
 17 44  1  0  0  0  0
 18 19  2  0  0  0  0
 19 20  1  0  0  0  0
 20 24  1  0  0  0  0
 20 21  1  0  0  0  0
 21 22  1  0  0  0  0
 21 45  1  0  0  0  0
 21 46  1  0  0  0  0
 22 23  1  0  0  0  0
 22 47  1  0  0  0  0
 22 48  1  0  0  0  0
 23 24  1  0  0  0  0
 23 49  1  0  0  0  0
 23 50  1  0  0  0  0
 24 51  1  0  0  0  0
 24 52  1  0  0  0  0
 25 53  1  0  0  0  0
 25 54  1  0  0  0  0
M  CHG  1   2   1
M  END
> <s_m_source_file>
AV-unprocessed.smi

> <i_m_source_file_index>
2928

> <i_lp_mmshare_version>
43012

> <i_f3d_flags>
0

> <s_epik_input>
W0NIMl0xW0NIMl1bQ0gyXVtDQEhdKE4oW0NIM10pW0NIXTEyKVtDSDJdW0NASF0oW0NIMl0yKVtOSF1DKD1PKVtOSF1jM1tjSF1bY0hdW2NIXW5jM040W0NIMl1bQ0gyXVtDSDJdW0NIMl00

> <s_epik_cmdline>
J2VwaWtfcHl0aG9uJywgJy1waCcsICc3LjAnLCAnLXRuJywgJzgnLCAnLW1hJywgJzIwMCcsICctbWV0YWxfYmluZGluZycsICctaW1hZScsICc8aW5maWxlLm1hZT4nLCAnLW9tYWUnLCAnPG91dGZpbGUubWFlPic=

> <r_lp_tautomer_probability>
1

> <r_epik_Ionization_Penalty>
0.07954

> <r_epik_Ionization_Penalty_Charging>
0.00089841

> <r_epik_Ionization_Penalty_Neutral>
0.0786416

> <r_epik_State_Penalty>
0.0689917

> <r_epik_Charging_Adjusted_Penalty>
0.0698901

> <i_epik_Tot_Q>
1

> <i_epik_Tot_abs_Q>
1

> <r_epik_Metal_State_Penalty>
0.0608947

> <b_epik_Metal_Only>
0

> <s_lp_Force_Field>
OPLS_2005

> <r_lp_Energy>
63.7088

> <b_lp_Chiralities_Consistent>
1

> <s_lp_Variant>
AV-unprocessed.smi:2928-3

> <Gold.Version>
5.8.1

> <Gold.Id.Protein>
6NUR|6NUR_protein|mol2

> <Gold.PLP.Fitness>
38.1648

> <Gold.PLP.PLP>
-38.8760

> <Gold.PLP.part.hbond>
0.0000

> <Gold.PLP.part.metal>
0.0000

> <Gold.PLP.part.buried>
-7.0309

> <Gold.PLP.part.nonpolar>
-30.8591

> <Gold.PLP.part.repulsive>
0.3616

> <Gold.PLP.ligand.clash>
0.0000

> <Gold.PLP.ligand.torsion>
0.5056

> <Gold.PLP.Chemscore.Hbond>
0.0000

> <Gold.PLP.Chemscore.CHOScore>
0.0000

> <Gold.PLP.Chemscore.Metal>
0.0000

> <Gold.PLP.Chemscore.Internal.Correction>
0.3000

> <Gold.Rescore>
     Score         DG    S(hbond)    S(metal)    S(lipo)     H(rot)  DE(clash)    DE(int)     intcor
     12.86     -15.99       0.00        0.00     115.63       1.18       0.03       3.11       ----

> <Gold.Chemscore.Fitness>
12.8610

> <Gold.Chemscore.DG>
-15.9943

> <Gold.Chemscore.ZeroCoef>
-5.4800

> <Gold.Chemscore.Hbond>
0.0000

> <Gold.Chemscore.Metal>
0.0000

> <Gold.Chemscore.Lipo>
115.6324

> <Gold.Chemscore.Internal_Hbond>
0.0000

> <Gold.Chemscore.DEClash>
0.0253

> <Gold.Chemscore.DEInternal>
3.1079

> <Gold.Chemscore.Rot>
1.1776

> <Gold.Chemscore.Internal.Correction>
   9.000000E+99

> <Gold.Chemscore.Hbond.Weighted>
-0.0000

> <Gold.Chemscore.Metal.Weighted>
-0.0000

> <Gold.Chemscore.Lipo.Weighted>
-13.5290

> <Gold.Chemscore.Internal_Hbond.Weighted>
0.0000

> <Gold.Chemscore.DEClash.Weighted>
0.0253

> <Gold.Chemscore.DEInternal.Weighted>
3.1079

> <Gold.Chemscore.Rot.Weighted>
3.0147

> <Gold.Chemscore.Internal.Correction.Weighted>
   9.000000E+99

> <Gold.Protein.RotatedTorsions>
[ 6907 6896 6895 6894 ] final   69.68 input  -60.11 | X-H torsion
[ 7974 7965 7964 7962 ] final   23.31 input  175.53 | X-H torsion
[ 8008 7997 7996 7995 ] final  159.80 input   59.86 | X-H torsion
[ 10167 10162 10161 10158 ] final -163.36 input  -65.29 | X-H torsion
[ 10718 10713 10712 10709 ] final  -15.20 input   66.30 | X-H torsion
[ 10763 10752 10751 10750 ] final  -56.35 input  -60.55 | X-H torsion
[ 11005 11000 10999 10996 ] final -124.94 input  -57.11 | X-H torsion

> <Gold.Protein.ActiveResidues>
 VAL166  LYS551  ARG553  GLY616  TRP617  ASP618  TYR619  PRO620  LYS621  CYS622 
 ASP623  PHE694  ASN695  SER759  ASP760  ASP761  ALA762  ILE779  LEU786  VAL792 
 PHE793  MET794  SER795  GLU796  ALA797  LYS798  CYS799  TRP800  GLU811  SER814 

> <Gold.Protein.RotatedAtoms>
  152.4701  134.4981  159.9715 H   0  0  0  0  0  0  0  0  0  0  0  0  # atno 6907 bound_to 6896
  151.5009  133.3498  159.2876 H   0  0  0  0  0  0  0  0  0  0  0  0  # atno 6908 bound_to 6896
  150.8706  134.8107  159.7214 H   0  0  0  0  0  0  0  0  0  0  0  0  # atno 6909 bound_to 6896
  146.1990  139.7763  142.8776 H   0  0  0  0  0  0  0  0  0  0  0  0  # atno 7974 bound_to 7965
  156.2215  140.1821  156.7466 H   0  0  0  0  0  0  0  0  0  0  0  0  # atno 8008 bound_to 7997
  154.5872  140.0656  156.9217 H   0  0  0  0  0  0  0  0  0  0  0  0  # atno 8009 bound_to 7997
  155.2398  140.3321  155.4296 H   0  0  0  0  0  0  0  0  0  0  0  0  # atno 8010 bound_to 7997
  139.6326  144.0410  152.2028 H   0  0  0  0  0  0  0  0  0  0  0  0  # atno 10167 bound_to 10162
  156.6051  130.4834  149.6224 H   0  0  0  0  0  0  0  0  0  0  0  0  # atno 10718 bound_to 10713
  154.2053  135.6404  153.5099 H   0  0  0  0  0  0  0  0  0  0  0  0  # atno 10763 bound_to 10752
  153.0002  135.5461  154.6272 H   0  0  0  0  0  0  0  0  0  0  0  0  # atno 10764 bound_to 10752
  154.5695  135.2915  155.0814 H   0  0  0  0  0  0  0  0  0  0  0  0  # atno 10765 bound_to 10752
  140.9802  134.0684  157.3774 H   0  0  0  0  0  0  0  0  0  0  0  0  # atno 11005 bound_to 11000
  145.3547  141.0314  143.3318 LP  0  0  0  0  0  0  0  0  0  0  0  0  # atno 17320 bound_to 7965
  144.8642  139.5132  143.6798 LP  0  0  0  0  0  0  0  0  0  0  0  0  # atno 17321 bound_to 7965
  140.0080  144.6245  150.7672 LP  0  0  0  0  0  0  0  0  0  0  0  0  # atno 17342 bound_to 10162
  140.7447  143.2865  151.3448 LP  0  0  0  0  0  0  0  0  0  0  0  0  # atno 17343 bound_to 10162
  156.2436  130.6866  151.1579 LP  0  0  0  0  0  0  0  0  0  0  0  0  # atno 17370 bound_to 10713
  157.7269  131.0643  150.5889 LP  0  0  0  0  0  0  0  0  0  0  0  0  # atno 17371 bound_to 10713
  139.8947  135.0137  156.6963 LP  0  0  0  0  0  0  0  0  0  0  0  0  # atno 17394 bound_to 11000
  140.7198  133.9150  155.8139 LP  0  0  0  0  0  0  0  0  0  0  0  0  # atno 17395 bound_to 11000

$$$$
