AV-unprocessed.smi:35|AV-procd|sdf|258|dock9
  -GOLD-   2262016 23D 1   1.00000     0.00000
 Structure written by MMmdl.
 29 30  0  0  0  0  0  0  0  0  1 V2000
  148.3542  130.6719  153.8074 O   0  0  0  0  0  0  0  0  0  0  0  0
  147.4113  131.3299  153.3728 C   0  0  0  0  0  0  0  0  0  0  0  0
  147.2567  131.5189  151.9974 N   0  0  0  0  0  0  0  0  0  0  0  0
  146.2335  132.2482  151.3892 C   0  0  0  0  0  0  0  0  0  0  0  0
  146.1810  132.3237  150.1624 O   0  0  0  0  0  0  0  0  0  0  0  0
  145.2873  132.8742  152.2338 N   0  0  0  0  0  0  0  0  0  0  0  0
  144.1522  133.6528  151.5876 C   0  0  1  0  0  0  0  0  0  0  0  0
  143.5084  134.4426  152.5409 O   0  0  0  0  0  0  0  0  0  0  0  0
  144.0833  135.7419  152.5486 C   0  0  2  0  0  0  0  0  0  0  0  0
  143.1110  136.7264  153.2166 C   0  0  0  0  0  0  0  0  0  0  0  0
  143.8068  137.8557  153.7001 O   0  0  0  0  0  0  0  0  0  0  0  0
  144.3504  136.0078  151.0648 C   0  0  1  0  0  0  0  0  0  0  0  0
  145.4575  136.8748  150.9180 O   0  0  0  0  0  0  0  0  0  0  0  0
  144.6723  134.6236  150.4998 C   0  0  2  0  0  0  0  0  0  0  0  0
  144.0040  134.4311  149.2687 O   0  0  0  0  0  0  0  0  0  0  0  0
  145.3799  132.6768  153.6083 C   0  0  0  0  0  0  0  0  0  0  0  0
  146.3747  131.9597  154.1822 C   0  0  0  0  0  0  0  0  0  0  0  0
  146.3273  131.8025  156.1568 Br  0  0  0  0  0  0  0  0  0  0  0  0
  147.9390  131.0862  151.3920 H   0  0  0  0  0  0  0  0  0  0  0  0
  143.4671  132.8851  151.2222 H   0  0  0  0  0  0  0  0  0  0  0  0
  145.0224  135.7026  153.1035 H   0  0  0  0  0  0  0  0  0  0  0  0
  142.3335  137.0445  152.5217 H   0  0  0  0  0  0  0  0  0  0  0  0
  142.6130  136.2450  154.0586 H   0  0  0  0  0  0  0  0  0  0  0  0
  143.6737  138.5715  153.0973 H   0  0  0  0  0  0  0  0  0  0  0  0
  143.4661  136.4344  150.5884 H   0  0  0  0  0  0  0  0  0  0  0  0
  145.1815  137.6291  150.4194 H   0  0  0  0  0  0  0  0  0  0  0  0
  145.7461  134.4934  150.3553 H   0  0  0  0  0  0  0  0  0  0  0  0
  144.6458  134.4294  148.5753 H   0  0  0  0  0  0  0  0  0  0  0  0
  144.6377  133.0939  154.2715 H   0  0  0  0  0  0  0  0  0  0  0  0
  1  2  2  0  0  0  0
  2 17  1  0  0  0  0
  2  3  1  0  0  0  0
  3 19  1  0  0  0  0
  3  4  1  0  0  0  0
  4  5  2  0  0  0  0
  4  6  1  0  0  0  0
  6  7  1  0  0  0  0
  6 16  1  0  0  0  0
  7 14  1  0  0  0  0
  7  8  1  0  0  0  0
  7 20  1  0  0  0  0
  8  9  1  0  0  0  0
  9 10  1  0  0  0  0
  9 12  1  0  0  0  0
  9 21  1  0  0  0  0
 10 11  1  0  0  0  0
 10 22  1  0  0  0  0
 10 23  1  0  0  0  0
 11 24  1  0  0  0  0
 12 13  1  0  0  0  0
 12 14  1  0  0  0  0
 12 25  1  0  0  0  0
 13 26  1  0  0  0  0
 14 15  1  0  0  0  0
 14 27  1  0  0  0  0
 15 28  1  0  0  0  0
 16 17  2  0  0  0  0
 16 29  1  0  0  0  0
 17 18  1  0  0  0  0
M  END
> <s_m_source_file>
AV-unprocessed.smi

> <i_m_source_file_index>
35

> <i_lp_mmshare_version>
43012

> <i_f3d_flags>
0

> <s_epik_input>
Tz1jMVtuSF1jKD1PKW4oW2NIXWMxQnIpW0NAQEhdMk9bQ0BASF0oW0NIMl1bT0hdKVtDQEBIXShbT0hdKVtDQEhdMltPSF0=

> <s_epik_cmdline>
J2VwaWtfcHl0aG9uJywgJy1waCcsICc3LjAnLCAnLXRuJywgJzgnLCAnLW1hJywgJzIwMCcsICctbWV0YWxfYmluZGluZycsICctaW1hZScsICc8aW5maWxlLm1hZT4nLCAnLW9tYWUnLCAnPG91dGZpbGUubWFlPic=

> <r_lp_tautomer_probability>
0.999537

> <r_epik_Ionization_Penalty>
0.10812

> <r_epik_Ionization_Penalty_Charging>
0.108119

> <r_epik_Ionization_Penalty_Neutral>
4.93006e-07

> <r_epik_State_Penalty>
0.0979238

> <r_epik_Charging_Adjusted_Penalty>
0.206043

> <i_epik_Tot_Q>
0

> <i_epik_Tot_abs_Q>
0

> <r_epik_Metal_State_Penalty>
3.07911

> <b_epik_Metal_Only>
0

> <s_epik_Chemistry_Notes>
This compound contains an acetal/aminal-like group ( X-CH(R)-Y where X, Y are N, S, or O) that may be acid/base labile, releasing an aldehyde.

> <s_lp_Force_Field>
OPLS_2005

> <r_lp_Energy>
26.4636

> <b_lp_Chiralities_Consistent>
1

> <s_lp_Variant>
AV-unprocessed.smi:35-12

> <Gold.Version>
5.8.1

> <Gold.Id.Protein>
6NUR|6NUR_protein|mol2

> <Gold.PLP.Fitness>
35.5507

> <Gold.PLP.PLP>
-22.5703

> <Gold.PLP.part.hbond>
-4.7921

> <Gold.PLP.part.metal>
0.0000

> <Gold.PLP.part.buried>
-3.1982

> <Gold.PLP.part.nonpolar>
-16.0661

> <Gold.PLP.part.repulsive>
0.5950

> <Gold.PLP.ligand.clash>
0.0000

> <Gold.PLP.ligand.torsion>
0.6409

> <Gold.PLP.Chemscore.Hbond>
3.9913

> <Gold.PLP.Chemscore.CHOScore>
0.7520

> <Gold.PLP.Chemscore.Metal>
0.0000

> <Gold.Chemscore.Hbonds>
donor molecule, donor type, donor heavy atom, donor atom, acceptor molecule, acceptor atom, score
      L1  H     3    19       P1 10747  1.00
      L1  H    11    24       P1 10175  1.00
      L1  H    13    26       P1 10171  0.98
      L1  H    15    28       P1  7921  1.00
      L1  C    16    29       P1 10957  0.76

> <Gold.PLP.Chemscore.Internal.Correction>
0.0326

> <Gold.Rescore>
     Score         DG    S(hbond)    S(metal)    S(lipo)     H(rot)  DE(clash)    DE(int)     intcor
      9.71     -11.97       3.88        0.00      25.03       3.67       0.86       1.40       ----

> <Gold.Chemscore.Fitness>
9.7114

> <Gold.Chemscore.DG>
-11.9730

> <Gold.Chemscore.ZeroCoef>
-5.4800

> <Gold.Chemscore.Hbond>
3.8801

> <Gold.Chemscore.Metal>
0.0000

> <Gold.Chemscore.Lipo>
25.0326

> <Gold.Chemscore.Internal_Hbond>
0.0000

> <Gold.Chemscore.DEClash>
0.8634

> <Gold.Chemscore.DEInternal>
1.3982

> <Gold.Chemscore.Rot>
3.6701

> <Gold.Chemscore.Internal.Correction>
   9.000000E+99

> <Gold.Chemscore.Hbonds>
donor molecule, donor type, donor heavy atom, donor atom, acceptor molecule, acceptor atom, score
      L1  H     3    19       P1 10747  0.94
      L1  H    11    24       P1 10175  0.97
      L1  H    13    26       P1 10171  0.93
      L1  H    15    28       P1  7921  1.00

> <Gold.Chemscore.Hbond.Weighted>
-12.9597

> <Gold.Chemscore.Metal.Weighted>
-0.0000

> <Gold.Chemscore.Lipo.Weighted>
-2.9288

> <Gold.Chemscore.Internal_Hbond.Weighted>
0.0000

> <Gold.Chemscore.DEClash.Weighted>
0.8634

> <Gold.Chemscore.DEInternal.Weighted>
1.3982

> <Gold.Chemscore.Rot.Weighted>
9.3955

> <Gold.Chemscore.Internal.Correction.Weighted>
   9.000000E+99

> <Gold.Protein.RotatedTorsions>
[ 6907 6896 6895 6894 ] final  120.78 input  -60.11 | X-H torsion
[ 7974 7965 7964 7962 ] final -130.81 input  175.53 | X-H torsion
[ 8008 7997 7996 7995 ] final -123.41 input   59.86 | X-H torsion
[ 10167 10162 10161 10158 ] final  -57.44 input  -65.29 | X-H torsion
[ 10718 10713 10712 10709 ] final   49.34 input   66.30 | X-H torsion
[ 10763 10752 10751 10750 ] final -157.39 input  -60.55 | X-H torsion
[ 11005 11000 10999 10996 ] final  147.30 input  -57.11 | X-H torsion

> <Gold.Protein.ActiveResidues>
 VAL166  LYS551  ARG553  GLY616  TRP617  ASP618  TYR619  PRO620  LYS621  CYS622 
 ASP623  PHE694  ASN695  SER759  ASP760  ASP761  ALA762  ILE779  LEU786  VAL792 
 PHE793  MET794  SER795  GLU796  ALA797  LYS798  CYS799  TRP800  GLU811  SER814 

> <Gold.Protein.RotatedAtoms>
  152.4372  133.7382  159.6625 H   0  0  0  0  0  0  0  0  0  0  0  0  # atno 6907 bound_to 6896
  150.8257  133.8165  159.3126 H   0  0  0  0  0  0  0  0  0  0  0  0  # atno 6908 bound_to 6896
  151.5834  135.1059  160.0074 H   0  0  0  0  0  0  0  0  0  0  0  0  # atno 6909 bound_to 6896
  144.9439  140.7270  143.4829 H   0  0  0  0  0  0  0  0  0  0  0  0  # atno 7974 bound_to 7965
  155.1801  140.0410  157.2880 H   0  0  0  0  0  0  0  0  0  0  0  0  # atno 8008 bound_to 7997
  154.6209  140.2500  155.7522 H   0  0  0  0  0  0  0  0  0  0  0  0  # atno 8009 bound_to 7997
  156.2433  140.2895  156.0517 H   0  0  0  0  0  0  0  0  0  0  0  0  # atno 8010 bound_to 7997
  140.6258  143.2437  151.5368 H   0  0  0  0  0  0  0  0  0  0  0  0  # atno 10167 bound_to 10162
  157.4777  130.8295  149.8057 H   0  0  0  0  0  0  0  0  0  0  0  0  # atno 10718 bound_to 10713
  154.7639  135.3125  154.8324 H   0  0  0  0  0  0  0  0  0  0  0  0  # atno 10763 bound_to 10752
  153.9077  135.6809  153.4756 H   0  0  0  0  0  0  0  0  0  0  0  0  # atno 10764 bound_to 10752
  153.1243  135.4808  154.9179 H   0  0  0  0  0  0  0  0  0  0  0  0  # atno 10765 bound_to 10752
  140.0865  134.9066  157.1583 H   0  0  0  0  0  0  0  0  0  0  0  0  # atno 11005 bound_to 11000
  145.2948  139.1871  143.4721 LP  0  0  0  0  0  0  0  0  0  0  0  0  # atno 17320 bound_to 7965
  146.3296  140.2930  142.8616 LP  0  0  0  0  0  0  0  0  0  0  0  0  # atno 17321 bound_to 7965
  139.5478  144.2474  152.1475 LP  0  0  0  0  0  0  0  0  0  0  0  0  # atno 17342 bound_to 10162
  140.1705  144.4940  150.6582 LP  0  0  0  0  0  0  0  0  0  0  0  0  # atno 17343 bound_to 10162
  156.0105  130.3835  150.2281 LP  0  0  0  0  0  0  0  0  0  0  0  0  # atno 17370 bound_to 10713
  157.0466  131.0050  151.3267 LP  0  0  0  0  0  0  0  0  0  0  0  0  # atno 17371 bound_to 10713
  140.3413  134.2700  155.7211 LP  0  0  0  0  0  0  0  0  0  0  0  0  # atno 17394 bound_to 11000
  141.2064  133.7834  157.0179 LP  0  0  0  0  0  0  0  0  0  0  0  0  # atno 17395 bound_to 11000

$$$$
