AV-unprocessed.smi:3303|AV-procd|sdf|12683|dock4
  -GOLD-   2272019 23D 1   1.00000     0.00000
 Structure written by MMmdl.
 44 45  0  0  0  0  0  0  0  0  2 V2000
  149.5891  138.7131  154.0246 C   0  0  0  0  0  0  0  0  0  0  0  0
  148.5673  139.7646  154.4920 C   0  0  2  0  0  0  0  0  0  0  0  0
  147.2621  139.6258  153.6749 C   0  0  0  0  0  0  0  0  0  0  0  0
  146.2429  140.6402  154.0472 N   0  3  1  0  0  0  0  0  0  0  0  0
  145.5943  140.3558  155.3524 C   0  0  0  0  0  0  0  0  0  0  0  0
  146.7672  142.0256  153.8781 C   0  0  1  0  0  0  0  0  0  0  0  0
  145.7013  143.1054  154.1328 C   0  0  0  0  0  0  0  0  0  0  0  0
  148.0407  142.2456  154.7174 C   0  0  0  0  0  0  0  0  0  0  0  0
  149.1258  141.2038  154.3840 C   0  0  1  0  0  0  0  0  0  0  0  0
  150.2130  141.3786  155.3396 N   0  0  0  0  0  0  0  0  0  0  0  0
  149.7510  141.2020  156.7076 C   0  0  0  0  0  0  0  0  0  0  0  0
  150.9586  141.0593  157.6440 C   0  0  0  0  0  0  0  0  0  0  0  0
  151.3233  142.3705  158.3140 C   0  0  0  0  0  0  0  0  0  0  0  0
  152.4857  142.4757  159.1073 C   0  0  0  0  0  0  0  0  0  0  0  0
  152.7783  143.7157  159.7076 C   0  0  0  0  0  0  0  0  0  0  0  0
  151.9011  144.7963  159.4947 C   0  0  0  0  0  0  0  0  0  0  0  0
  150.7656  144.5884  158.6864 C   0  0  0  0  0  0  0  0  0  0  0  0
  150.4763  143.4038  158.1054 N   0  0  0  0  0  0  0  0  0  0  0  0
  149.8821  138.8790  152.9874 H   0  0  0  0  0  0  0  0  0  0  0  0
  149.1764  137.7064  154.0963 H   0  0  0  0  0  0  0  0  0  0  0  0
  150.4939  138.7344  154.6324 H   0  0  0  0  0  0  0  0  0  0  0  0
  148.3378  139.5568  155.5382 H   0  0  0  0  0  0  0  0  0  0  0  0
  147.4825  139.7385  152.6123 H   0  0  0  0  0  0  0  0  0  0  0  0
  146.8430  138.6255  153.7910 H   0  0  0  0  0  0  0  0  0  0  0  0
  146.2740  140.5069  156.1907 H   0  0  0  0  0  0  0  0  0  0  0  0
  145.2473  139.3227  155.3871 H   0  0  0  0  0  0  0  0  0  0  0  0
  144.7187  140.9859  155.5057 H   0  0  0  0  0  0  0  0  0  0  0  0
  147.0493  142.1163  152.8277 H   0  0  0  0  0  0  0  0  0  0  0  0
  146.0750  144.0892  153.8478 H   0  0  0  0  0  0  0  0  0  0  0  0
  145.4191  143.1625  155.1842 H   0  0  0  0  0  0  0  0  0  0  0  0
  144.7997  142.9163  153.5493 H   0  0  0  0  0  0  0  0  0  0  0  0
  148.4309  143.2476  154.5324 H   0  0  0  0  0  0  0  0  0  0  0  0
  147.7948  142.2104  155.7797 H   0  0  0  0  0  0  0  0  0  0  0  0
  149.4707  141.3725  153.3620 H   0  0  0  0  0  0  0  0  0  0  0  0
  150.9552  140.7221  155.1437 H   0  0  0  0  0  0  0  0  0  0  0  0
  149.1474  142.0609  157.0042 H   0  0  0  0  0  0  0  0  0  0  0  0
  149.1183  140.3157  156.7702 H   0  0  0  0  0  0  0  0  0  0  0  0
  150.7522  140.3113  158.4108 H   0  0  0  0  0  0  0  0  0  0  0  0
  151.8245  140.6970  157.0873 H   0  0  0  0  0  0  0  0  0  0  0  0
  153.1394  141.6283  159.2534 H   0  0  0  0  0  0  0  0  0  0  0  0
  153.6597  143.8355  160.3200 H   0  0  0  0  0  0  0  0  0  0  0  0
  152.0939  145.7612  159.9399 H   0  0  0  0  0  0  0  0  0  0  0  0
  150.0714  145.3947  158.5016 H   0  0  0  0  0  0  0  0  0  0  0  0
  145.5047  140.5417  153.3647 H   0  0  0  0  0  0  0  0  0  0  0  0
  1  2  1  0  0  0  0
  1 19  1  0  0  0  0
  1 20  1  0  0  0  0
  1 21  1  0  0  0  0
  2  9  1  0  0  0  0
  2  3  1  0  0  0  0
  2 22  1  0  0  0  0
  3  4  1  0  0  0  0
  3 23  1  0  0  0  0
  3 24  1  0  0  0  0
  4  5  1  0  0  0  0
  4  6  1  0  0  0  0
  4 44  1  0  0  0  0
  5 25  1  0  0  0  0
  5 26  1  0  0  0  0
  5 27  1  0  0  0  0
  6  7  1  0  0  0  0
  6  8  1  0  0  0  0
  6 28  1  0  0  0  0
  7 29  1  0  0  0  0
  7 30  1  0  0  0  0
  7 31  1  0  0  0  0
  8  9  1  0  0  0  0
  8 32  1  0  0  0  0
  8 33  1  0  0  0  0
  9 10  1  0  0  0  0
  9 34  1  0  0  0  0
 10 11  1  0  0  0  0
 10 35  1  0  0  0  0
 11 12  1  0  0  0  0
 11 36  1  0  0  0  0
 11 37  1  0  0  0  0
 12 13  1  0  0  0  0
 12 38  1  0  0  0  0
 12 39  1  0  0  0  0
 13 18  1  0  0  0  0
 13 14  2  0  0  0  0
 14 15  1  0  0  0  0
 14 40  1  0  0  0  0
 15 16  2  0  0  0  0
 15 41  1  0  0  0  0
 16 17  1  0  0  0  0
 16 42  1  0  0  0  0
 17 18  2  0  0  0  0
 17 43  1  0  0  0  0
M  CHG  1   4   1
M  END
> <s_m_source_file>
AV-unprocessed.smi

> <i_m_source_file_index>
3303

> <i_lp_mmshare_version>
43012

> <i_f3d_flags>
0

> <s_epik_input>
W0NIM11bQ0BASF0xW0NIMl1OKFtDSDNdKVtDQEBIXShbQ0gzXSlbQ0gyXVtDQEhdMVtOSF1bQ0gyXVtDSDJdYzJbY0hdW2NIXVtjSF1bY0hdbjI=

> <s_epik_cmdline>
J2VwaWtfcHl0aG9uJywgJy1waCcsICc3LjAnLCAnLXRuJywgJzgnLCAnLW1hJywgJzIwMCcsICctbWV0YWxfYmluZGluZycsICctaW1hZScsICc8aW5maWxlLm1hZT4nLCAnLW9tYWUnLCAnPG91dGZpbGUubWFlPic=

> <r_epik_Ionization_Penalty>
2.31085

> <r_epik_Ionization_Penalty_Charging>
0.000313057

> <r_epik_Ionization_Penalty_Neutral>
2.31054

> <r_epik_State_Penalty>
2.4087

> <r_epik_Charging_Adjusted_Penalty>
2.40902

> <i_epik_Tot_Q>
1

> <i_epik_Tot_abs_Q>
1

> <r_epik_Metal_State_Penalty>
2.30979

> <b_epik_Metal_Only>
0

> <s_lp_Force_Field>
OPLS_2005

> <r_lp_Energy>
25.8109

> <b_lp_Chiralities_Consistent>
1

> <s_lp_Variant>
AV-unprocessed.smi:3303-27

> <Gold.Version>
5.8.1

> <Gold.Id.Protein>
6NUR|6NUR_protein|mol2

> <Gold.PLP.Fitness>
47.4401

> <Gold.PLP.PLP>
-39.0839

> <Gold.PLP.part.hbond>
-1.8735

> <Gold.PLP.part.metal>
0.0000

> <Gold.PLP.part.buried>
-1.7441

> <Gold.PLP.part.nonpolar>
-36.2172

> <Gold.PLP.part.repulsive>
0.2822

> <Gold.PLP.ligand.clash>
0.0000

> <Gold.PLP.ligand.torsion>
0.3415

> <Gold.PLP.Chemscore.Hbond>
2.0000

> <Gold.PLP.Chemscore.CHOScore>
1.0000

> <Gold.PLP.Chemscore.Metal>
0.0000

> <Gold.Chemscore.Hbonds>
donor molecule, donor type, donor heavy atom, donor atom, acceptor molecule, acceptor atom, score
      L1  H     4    44       P1 10175  2.00
      L1  C    17    43       P1  8029  0.97

> <Gold.PLP.Chemscore.Internal.Correction>
0.0391

> <Gold.Rescore>
     Score         DG    S(hbond)    S(metal)    S(lipo)     H(rot)  DE(clash)    DE(int)     intcor
     17.99     -18.93       0.98        0.00     115.96       1.33       0.59       0.36       ----

> <Gold.Chemscore.Fitness>
17.9897

> <Gold.Chemscore.DG>
-18.9342

> <Gold.Chemscore.ZeroCoef>
-5.4800

> <Gold.Chemscore.Hbond>
0.9834

> <Gold.Chemscore.Metal>
0.0000

> <Gold.Chemscore.Lipo>
115.9599

> <Gold.Chemscore.Internal_Hbond>
0.0000

> <Gold.Chemscore.DEClash>
0.5893

> <Gold.Chemscore.DEInternal>
0.3553

> <Gold.Chemscore.Rot>
1.3272

> <Gold.Chemscore.Internal.Correction>
   9.000000E+99

> <Gold.Chemscore.Hbonds>
donor molecule, donor type, donor heavy atom, donor atom, acceptor molecule, acceptor atom, score
      L1  H     4    44       P1 10175  0.88

> <Gold.Chemscore.Hbond.Weighted>
-3.2845

> <Gold.Chemscore.Metal.Weighted>
-0.0000

> <Gold.Chemscore.Lipo.Weighted>
-13.5673

> <Gold.Chemscore.Internal_Hbond.Weighted>
0.0000

> <Gold.Chemscore.DEClash.Weighted>
0.5893

> <Gold.Chemscore.DEInternal.Weighted>
0.3553

> <Gold.Chemscore.Rot.Weighted>
3.3976

> <Gold.Chemscore.Internal.Correction.Weighted>
   9.000000E+99

> <Gold.Protein.RotatedTorsions>
[ 6907 6896 6895 6894 ] final  108.61 input  -60.11 | X-H torsion
[ 7974 7965 7964 7962 ] final  -22.00 input  175.53 | X-H torsion
[ 8008 7997 7996 7995 ] final   94.03 input   59.86 | X-H torsion
[ 10167 10162 10161 10158 ] final  -40.26 input  -65.29 | X-H torsion
[ 10718 10713 10712 10709 ] final  -81.57 input   66.30 | X-H torsion
[ 10763 10752 10751 10750 ] final -156.26 input  -60.55 | X-H torsion
[ 11005 11000 10999 10996 ] final -132.56 input  -57.11 | X-H torsion

> <Gold.Protein.ActiveResidues>
 VAL166  LYS551  ARG553  GLY616  TRP617  ASP618  TYR619  PRO620  LYS621  CYS622 
 ASP623  PHE694  ASN695  SER759  ASP760  ASP761  ALA762  ILE779  LEU786  VAL792 
 PHE793  MET794  SER795  GLU796  ALA797  LYS798  CYS799  TRP800  GLU811  SER814 

> <Gold.Protein.RotatedAtoms>
  152.5105  133.9064  159.7466 H   0  0  0  0  0  0  0  0  0  0  0  0  # atno 6907 bound_to 6896
  150.9468  133.6585  159.2786 H   0  0  0  0  0  0  0  0  0  0  0  0  # atno 6908 bound_to 6896
  151.3878  135.0956  159.9569 H   0  0  0  0  0  0  0  0  0  0  0  0  # atno 6909 bound_to 6896
  146.1701  140.4418  142.8536 H   0  0  0  0  0  0  0  0  0  0  0  0  # atno 7974 bound_to 7965
  156.0534  140.3305  155.7377 H   0  0  0  0  0  0  0  0  0  0  0  0  # atno 8008 bound_to 7997
  155.5566  140.0615  157.2856 H   0  0  0  0  0  0  0  0  0  0  0  0  # atno 8009 bound_to 7997
  154.4446  140.1885  156.0728 H   0  0  0  0  0  0  0  0  0  0  0  0  # atno 8010 bound_to 7997
  140.7039  143.3164  151.2899 H   0  0  0  0  0  0  0  0  0  0  0  0  # atno 10167 bound_to 10162
  156.0048  130.4608  150.3973 H   0  0  0  0  0  0  0  0  0  0  0  0  # atno 10718 bound_to 10713
  154.7726  135.3150  154.8158 H   0  0  0  0  0  0  0  0  0  0  0  0  # atno 10763 bound_to 10752
  153.8890  135.6827  153.4766 H   0  0  0  0  0  0  0  0  0  0  0  0  # atno 10764 bound_to 10752
  153.1343  135.4766  154.9333 H   0  0  0  0  0  0  0  0  0  0  0  0  # atno 10765 bound_to 10752
  140.9160  134.1507  157.4352 H   0  0  0  0  0  0  0  0  0  0  0  0  # atno 11005 bound_to 11000
  144.8150  140.6452  143.6390 LP  0  0  0  0  0  0  0  0  0  0  0  0  # atno 17320 bound_to 7965
  145.4363  139.1542  143.3995 LP  0  0  0  0  0  0  0  0  0  0  0  0  # atno 17321 bound_to 7965
  139.6604  144.0200  152.2688 LP  0  0  0  0  0  0  0  0  0  0  0  0  # atno 17342 bound_to 10162
  139.9765  144.6458  150.7940 LP  0  0  0  0  0  0  0  0  0  0  0  0  # atno 17343 bound_to 10162
  157.2044  131.0445  151.2633 LP  0  0  0  0  0  0  0  0  0  0  0  0  # atno 17370 bound_to 10713
  157.3946  130.7300  149.6722 LP  0  0  0  0  0  0  0  0  0  0  0  0  # atno 17371 bound_to 10713
  139.8766  134.9953  156.5739 LP  0  0  0  0  0  0  0  0  0  0  0  0  # atno 17394 bound_to 11000
  140.8050  133.8475  155.8759 LP  0  0  0  0  0  0  0  0  0  0  0  0  # atno 17395 bound_to 11000

$$$$
