AV-unprocessed.smi:503|AV-procd|sdf|2746|dock9
  -GOLD-   2262023213D 1   1.00000     0.00000
 Structure written by MMmdl.
 44 45  0  0  0  0  0  0  0  0  1 V2000
  152.8104  138.3391  159.8067 O   0  0  0  0  0  0  0  0  0  0  0  0
  153.2589  139.2006  159.0489 C   0  0  0  0  0  0  0  0  0  0  0  0
  154.3377  140.1852  159.5228 C   0  0  0  0  0  0  0  0  0  0  0  0
  153.8018  141.3065  160.3129 N   0  0  0  0  0  0  0  0  0  0  0  0
  153.0903  142.3009  159.6130 C   0  0  0  0  0  0  0  0  0  0  0  0
  152.5563  143.3812  160.2148 C   0  0  0  0  0  0  0  0  0  0  0  0
  151.7402  144.4065  159.4429 C   0  0  0  0  0  0  0  0  0  0  0  0
  152.4204  144.8690  158.3935 F   0  0  0  0  0  0  0  0  0  0  0  0
  150.6172  143.8463  158.9956 F   0  0  0  0  0  0  0  0  0  0  0  0
  151.4079  145.4413  160.2158 F   0  0  0  0  0  0  0  0  0  0  0  0
  152.7203  143.4651  161.6528 C   0  0  0  0  0  0  0  0  0  0  0  0
  153.3864  142.5160  162.3394 C   0  0  0  0  0  0  0  0  0  0  0  0
  153.9770  141.3561  161.6676 C   0  0  0  0  0  0  0  0  0  0  0  0
  154.5893  140.4836  162.2839 O   0  0  0  0  0  0  0  0  0  0  0  0
  152.8388  139.3588  157.7845 N   0  0  0  0  0  0  0  0  0  0  0  0
  151.8201  138.5509  157.1169 C   0  0  0  0  0  0  0  0  0  0  0  0
  152.1511  138.4649  155.6113 C   0  0  0  0  0  0  0  0  0  0  0  0
  151.0550  137.8424  154.7228 C   0  0  0  0  0  0  0  0  0  0  0  0
  150.2332  138.8639  153.9098 C   0  0  0  0  0  0  0  0  0  0  0  0
  149.2779  139.7800  154.7022 C   0  0  0  0  0  0  0  0  0  0  0  0
  149.9769  140.8266  155.5942 C   0  0  0  0  0  0  0  0  0  0  0  0
  150.0284  140.4892  157.0971 C   0  0  0  0  0  0  0  0  0  0  0  0
  150.3969  139.0408  157.4752 C   0  0  0  0  0  0  0  0  0  0  0  0
  155.0899  139.6435  160.0996 H   0  0  0  0  0  0  0  0  0  0  0  0
  154.8674  140.5576  158.6448 H   0  0  0  0  0  0  0  0  0  0  0  0
  152.9971  142.1220  158.5516 H   0  0  0  0  0  0  0  0  0  0  0  0
  152.3042  144.3053  162.1890 H   0  0  0  0  0  0  0  0  0  0  0  0
  153.4894  142.6119  163.4105 H   0  0  0  0  0  0  0  0  0  0  0  0
  153.2585  140.0971  157.2380 H   0  0  0  0  0  0  0  0  0  0  0  0
  151.8973  137.5305  157.4980 H   0  0  0  0  0  0  0  0  0  0  0  0
  152.4497  139.4352  155.2169 H   0  0  0  0  0  0  0  0  0  0  0  0
  153.0486  137.8518  155.5160 H   0  0  0  0  0  0  0  0  0  0  0  0
  151.5505  137.1917  154.0013 H   0  0  0  0  0  0  0  0  0  0  0  0
  150.4050  137.1796  155.2938 H   0  0  0  0  0  0  0  0  0  0  0  0
  150.9067  139.4752  153.3080 H   0  0  0  0  0  0  0  0  0  0  0  0
  149.6328  138.3058  153.1906 H   0  0  0  0  0  0  0  0  0  0  0  0
  148.6831  140.3235  153.9673 H   0  0  0  0  0  0  0  0  0  0  0  0
  148.5533  139.1948  155.2684 H   0  0  0  0  0  0  0  0  0  0  0  0
  150.9727  141.0491  155.2142 H   0  0  0  0  0  0  0  0  0  0  0  0
  149.4377  141.7697  155.4985 H   0  0  0  0  0  0  0  0  0  0  0  0
  150.7021  141.1855  157.5975 H   0  0  0  0  0  0  0  0  0  0  0  0
  149.0420  140.6915  157.5161 H   0  0  0  0  0  0  0  0  0  0  0  0
  149.6541  138.3522  157.0766 H   0  0  0  0  0  0  0  0  0  0  0  0
  150.2777  138.9515  158.5559 H   0  0  0  0  0  0  0  0  0  0  0  0
  1  2  2  0  0  0  0
  2  3  1  0  0  0  0
  2 15  1  0  0  0  0
  3  4  1  0  0  0  0
  3 24  1  0  0  0  0
  3 25  1  0  0  0  0
  4 13  1  0  0  0  0
  4  5  1  0  0  0  0
  5  6  2  0  0  0  0
  5 26  1  0  0  0  0
  6  7  1  0  0  0  0
  6 11  1  0  0  0  0
  7  8  1  0  0  0  0
  7  9  1  0  0  0  0
  7 10  1  0  0  0  0
 11 12  2  0  0  0  0
 11 27  1  0  0  0  0
 12 13  1  0  0  0  0
 12 28  1  0  0  0  0
 13 14  2  0  0  0  0
 15 16  1  0  0  0  0
 15 29  1  0  0  0  0
 16 23  1  0  0  0  0
 16 17  1  0  0  0  0
 16 30  1  0  0  0  0
 17 18  1  0  0  0  0
 17 31  1  0  0  0  0
 17 32  1  0  0  0  0
 18 19  1  0  0  0  0
 18 33  1  0  0  0  0
 18 34  1  0  0  0  0
 19 20  1  0  0  0  0
 19 35  1  0  0  0  0
 19 36  1  0  0  0  0
 20 21  1  0  0  0  0
 20 37  1  0  0  0  0
 20 38  1  0  0  0  0
 21 22  1  0  0  0  0
 21 39  1  0  0  0  0
 21 40  1  0  0  0  0
 22 23  1  0  0  0  0
 22 41  1  0  0  0  0
 22 42  1  0  0  0  0
 23 43  1  0  0  0  0
 23 44  1  0  0  0  0
M  END
> <s_m_source_file>
AV-unprocessed.smi

> <i_m_source_file_index>
503

> <i_lp_mmshare_version>
43012

> <i_f3d_flags>
0

> <s_epik_input>
Tz1jMVtjSF1bY0hdYyhDKEYpKEYpRilbY0hdbjFbQ0gyXUMoPU8pW05IXVtDSF0yW0NIMl1bQ0gyXVtDSDJdW0NIMl1bQ0gyXVtDSDJdW0NIMl0y

> <s_epik_cmdline>
J2VwaWtfcHl0aG9uJywgJy1waCcsICc3LjAnLCAnLXRuJywgJzgnLCAnLW1hJywgJzIwMCcsICctbWV0YWxfYmluZGluZycsICctaW1hZScsICc8aW5maWxlLm1hZT4nLCAnLW9tYWUnLCAnPG91dGZpbGUubWFlPic=

> <r_lp_tautomer_probability>
1

> <r_epik_Ionization_Penalty>
3.93819e-08

> <r_epik_Ionization_Penalty_Charging>
1.9167e-08

> <r_epik_Ionization_Penalty_Neutral>
2.02148e-08

> <r_epik_State_Penalty>
-0

> <r_epik_Charging_Adjusted_Penalty>
1.9167e-08

> <i_epik_Tot_Q>
0

> <i_epik_Tot_abs_Q>
0

> <r_epik_Metal_State_Penalty>
-0

> <b_epik_Metal_Only>
0

> <s_lp_Force_Field>
OPLS_2005

> <r_lp_Energy>
31.4462

> <b_lp_Chiralities_Consistent>
1

> <s_lp_Variant>
AV-unprocessed.smi:503-1

> <Gold.Version>
5.8.1

> <Gold.Id.Protein>
6NUR|6NUR_protein|mol2

> <Gold.PLP.Fitness>
53.5704

> <Gold.PLP.PLP>
-55.4422

> <Gold.PLP.part.hbond>
0.0000

> <Gold.PLP.part.metal>
0.0000

> <Gold.PLP.part.buried>
-5.3119

> <Gold.PLP.part.nonpolar>
-48.6339

> <Gold.PLP.part.repulsive>
1.1537

> <Gold.PLP.ligand.clash>
0.0000

> <Gold.PLP.ligand.torsion>
0.9801

> <Gold.PLP.Chemscore.Hbond>
0.0000

> <Gold.PLP.Chemscore.CHOScore>
0.0000

> <Gold.PLP.Chemscore.Metal>
0.0000

> <Gold.PLP.Chemscore.Internal.Correction>
0.0886

> <Gold.Rescore>
     Score         DG    S(hbond)    S(metal)    S(lipo)     H(rot)  DE(clash)    DE(int)     intcor
     13.68     -14.52       0.00        0.00     110.41       1.51       0.07       0.78       ----

> <Gold.Chemscore.Fitness>
13.6783

> <Gold.Chemscore.DG>
-14.5240

> <Gold.Chemscore.ZeroCoef>
-5.4800

> <Gold.Chemscore.Hbond>
0.0000

> <Gold.Chemscore.Metal>
0.0000

> <Gold.Chemscore.Lipo>
110.4055

> <Gold.Chemscore.Internal_Hbond>
0.0000

> <Gold.Chemscore.DEClash>
0.0685

> <Gold.Chemscore.DEInternal>
0.7773

> <Gold.Chemscore.Rot>
1.5131

> <Gold.Chemscore.Internal.Correction>
   9.000000E+99

> <Gold.Chemscore.Hbond.Weighted>
-0.0000

> <Gold.Chemscore.Metal.Weighted>
-0.0000

> <Gold.Chemscore.Lipo.Weighted>
-12.9174

> <Gold.Chemscore.Internal_Hbond.Weighted>
0.0000

> <Gold.Chemscore.DEClash.Weighted>
0.0685

> <Gold.Chemscore.DEInternal.Weighted>
0.7773

> <Gold.Chemscore.Rot.Weighted>
3.8734

> <Gold.Chemscore.Internal.Correction.Weighted>
   9.000000E+99

> <Gold.Protein.RotatedTorsions>
[ 6907 6896 6895 6894 ] final  173.16 input  -60.11 | X-H torsion
[ 7974 7965 7964 7962 ] final  122.67 input  175.53 | X-H torsion
[ 8008 7997 7996 7995 ] final   15.24 input   59.86 | X-H torsion
[ 10167 10162 10161 10158 ] final  -90.14 input  -65.29 | X-H torsion
[ 10718 10713 10712 10709 ] final   79.76 input   66.30 | X-H torsion
[ 10763 10752 10751 10750 ] final  113.52 input  -60.55 | X-H torsion
[ 11005 11000 10999 10996 ] final -149.47 input  -57.11 | X-H torsion

> <Gold.Protein.ActiveResidues>
 VAL166  LYS551  ARG553  GLY616  TRP617  ASP618  TYR619  PRO620  LYS621  CYS622 
 ASP623  PHE694  ASN695  SER759  ASP760  ASP761  ALA762  ILE779  LEU786  VAL792 
 PHE793  MET794  SER795  GLU796  ALA797  LYS798  CYS799  TRP800  GLU811  SER814 

> <Gold.Protein.RotatedAtoms>
  151.7728  133.3342  159.3448 H   0  0  0  0  0  0  0  0  0  0  0  0  # atno 6907 bound_to 6896
  150.7455  134.6003  159.6042 H   0  0  0  0  0  0  0  0  0  0  0  0  # atno 6908 bound_to 6896
  152.3329  134.7237  160.0336 H   0  0  0  0  0  0  0  0  0  0  0  0  # atno 6909 bound_to 6896
  145.1049  139.3493  143.4793 H   0  0  0  0  0  0  0  0  0  0  0  0  # atno 7974 bound_to 7965
  154.8598  140.2942  155.5546 H   0  0  0  0  0  0  0  0  0  0  0  0  # atno 8008 bound_to 7997
  156.3019  140.2480  156.3502 H   0  0  0  0  0  0  0  0  0  0  0  0  # atno 8009 bound_to 7997
  154.8931  140.0394  157.1839 H   0  0  0  0  0  0  0  0  0  0  0  0  # atno 8010 bound_to 7997
  140.3579  143.2857  151.9650 H   0  0  0  0  0  0  0  0  0  0  0  0  # atno 10167 bound_to 10162
  157.6786  130.9929  150.1980 H   0  0  0  0  0  0  0  0  0  0  0  0  # atno 10718 bound_to 10713
  153.4938  135.3653  155.2505 H   0  0  0  0  0  0  0  0  0  0  0  0  # atno 10763 bound_to 10752
  154.8751  135.3983  154.3558 H   0  0  0  0  0  0  0  0  0  0  0  0  # atno 10764 bound_to 10752
  153.4182  135.7079  153.6378 H   0  0  0  0  0  0  0  0  0  0  0  0  # atno 10765 bound_to 10752
  140.7505  134.3412  157.5127 H   0  0  0  0  0  0  0  0  0  0  0  0  # atno 11005 bound_to 11000
  146.3528  140.0942  142.8611 LP  0  0  0  0  0  0  0  0  0  0  0  0  # atno 17320 bound_to 7965
  145.0913  140.9286  143.4767 LP  0  0  0  0  0  0  0  0  0  0  0  0  # atno 17321 bound_to 7965
  139.4818  144.6019  151.7590 LP  0  0  0  0  0  0  0  0  0  0  0  0  # atno 17342 bound_to 10162
  140.5156  144.0958  150.6007 LP  0  0  0  0  0  0  0  0  0  0  0  0  # atno 17343 bound_to 10162
  156.2677  130.3718  149.8064 LP  0  0  0  0  0  0  0  0  0  0  0  0  # atno 17370 bound_to 10713
  156.5790  130.8457  151.3378 LP  0  0  0  0  0  0  0  0  0  0  0  0  # atno 17371 bound_to 10713
  139.8788  134.9138  156.3093 LP  0  0  0  0  0  0  0  0  0  0  0  0  # atno 17394 bound_to 11000
  140.9755  133.7300  156.0596 LP  0  0  0  0  0  0  0  0  0  0  0  0  # atno 17395 bound_to 11000

$$$$
