AV-unprocessed.smi:1725|AV-procd|sdf|6954|dock10
  -GOLD-   22720 8163D 1   1.00000     0.00000
 Structure written by MMmdl.
 36 37  0  0  0  0  0  0  0  0  1 V2000
  149.5167  134.2876  154.8020 C   0  0  0  0  0  0  0  0  0  0  0  0
  148.4686  135.2828  155.3217 C   0  0  1  0  0  0  0  0  0  0  0  0
  149.0051  136.5922  155.1573 O   0  0  0  0  0  0  0  0  0  0  0  0
  150.3088  136.7936  155.6943 C   0  0  0  0  0  0  0  0  0  0  0  0
  150.8288  138.1797  155.3598 C   0  0  0  0  0  0  0  0  0  0  0  0
  150.5386  138.8156  154.0159 C   0  0  0  0  0  0  0  0  0  0  0  0
  151.9389  138.3753  154.3472 C   0  0  0  0  0  0  0  0  0  0  0  0
  147.1403  135.1509  154.5585 C   0  0  0  0  0  0  0  0  0  0  0  0
  146.0882  135.0512  155.1891 O   0  0  0  0  0  0  0  0  0  0  0  0
  147.2439  135.1584  153.2145 N   0  0  0  0  0  0  0  0  0  0  0  0
  146.2434  135.0240  152.2365 C   0  0  0  0  0  0  0  0  0  0  0  0
  145.8913  133.8574  151.6347 C   0  0  0  0  0  0  0  0  0  0  0  0
  144.8487  133.7939  150.6243 C   0  0  0  0  0  0  0  0  0  0  0  0
  144.5034  132.4905  149.9206 C   0  0  0  0  0  0  0  0  0  0  0  0
  145.5944  131.9816  149.3503 F   0  0  0  0  0  0  0  0  0  0  0  0
  144.0223  131.5882  150.7768 F   0  0  0  0  0  0  0  0  0  0  0  0
  143.5926  132.6900  148.9677 F   0  0  0  0  0  0  0  0  0  0  0  0
  144.2648  134.9595  150.2899 C   0  0  0  0  0  0  0  0  0  0  0  0
  144.6198  136.1627  150.9036 N   0  0  0  0  0  0  0  0  0  0  0  0
  145.5740  136.2785  151.8542 C   0  0  0  0  0  0  0  0  0  0  0  0
  145.8349  137.3783  152.3411 O   0  0  0  0  0  0  0  0  0  0  0  0
  144.1281  136.9927  150.6051 H   0  0  0  0  0  0  0  0  0  0  0  0
  149.1606  133.2598  154.8803 H   0  0  0  0  0  0  0  0  0  0  0  0
  150.4380  134.3614  155.3801 H   0  0  0  0  0  0  0  0  0  0  0  0
  149.7695  134.4776  153.7581 H   0  0  0  0  0  0  0  0  0  0  0  0
  148.3097  135.0867  156.3840 H   0  0  0  0  0  0  0  0  0  0  0  0
  150.3097  136.6804  156.7787 H   0  0  0  0  0  0  0  0  0  0  0  0
  150.9994  136.0555  155.2845 H   0  0  0  0  0  0  0  0  0  0  0  0
  150.8398  138.8568  156.2117 H   0  0  0  0  0  0  0  0  0  0  0  0
  149.9899  138.2312  153.2796 H   0  0  0  0  0  0  0  0  0  0  0  0
  150.3395  139.8851  154.0002 H   0  0  0  0  0  0  0  0  0  0  0  0
  152.6729  139.1517  154.5525 H   0  0  0  0  0  0  0  0  0  0  0  0
  152.3243  137.4979  153.8315 H   0  0  0  0  0  0  0  0  0  0  0  0
  148.1714  135.3077  152.8440 H   0  0  0  0  0  0  0  0  0  0  0  0
  146.3849  132.9318  151.8800 H   0  0  0  0  0  0  0  0  0  0  0  0
  143.4973  135.0623  149.5371 H   0  0  0  0  0  0  0  0  0  0  0  0
  1  2  1  0  0  0  0
  1 23  1  0  0  0  0
  1 24  1  0  0  0  0
  1 25  1  0  0  0  0
  2  3  1  0  0  0  0
  2  8  1  0  0  0  0
  2 26  1  0  0  0  0
  3  4  1  0  0  0  0
  4  5  1  0  0  0  0
  4 27  1  0  0  0  0
  4 28  1  0  0  0  0
  5  7  1  0  0  0  0
  5  6  1  0  0  0  0
  5 29  1  0  0  0  0
  6  7  1  0  0  0  0
  6 30  1  0  0  0  0
  6 31  1  0  0  0  0
  7 32  1  0  0  0  0
  7 33  1  0  0  0  0
  8  9  2  0  0  0  0
  8 10  1  0  0  0  0
 10 11  1  0  0  0  0
 10 34  1  0  0  0  0
 11 20  1  0  0  0  0
 11 12  2  0  0  0  0
 12 13  1  0  0  0  0
 12 35  1  0  0  0  0
 13 14  1  0  0  0  0
 13 18  2  0  0  0  0
 14 15  1  0  0  0  0
 14 16  1  0  0  0  0
 14 17  1  0  0  0  0
 18 19  1  0  0  0  0
 18 36  1  0  0  0  0
 19 22  1  0  0  0  0
 19 20  1  0  0  0  0
 20 21  2  0  0  0  0
M  END
> <s_m_source_file>
AV-unprocessed.smi

> <i_m_source_file_index>
1725

> <i_lp_mmshare_version>
43012

> <i_f3d_flags>
0

> <s_epik_input>
W0NIMl0xW0NIMl1bQ0hdMVtDSDJdT1tDQEBIXShbQ0gzXSlDKD1PKVtOSF1jMltjSF1jKEMoRikoRilGKVtjSF1bbkhdYzI9Tw==

> <s_epik_cmdline>
J2VwaWtfcHl0aG9uJywgJy1waCcsICc3LjAnLCAnLXRuJywgJzgnLCAnLW1hJywgJzIwMCcsICctbWV0YWxfYmluZGluZycsICctaW1hZScsICc8aW5maWxlLm1hZT4nLCAnLW9tYWUnLCAnPG91dGZpbGUubWFlPic=

> <r_lp_tautomer_probability>
0.999

> <r_epik_Ionization_Penalty>
0.00763408

> <r_epik_Ionization_Penalty_Charging>
0.00763398

> <r_epik_Ionization_Penalty_Neutral>
9.25705e-08

> <r_epik_State_Penalty>
0.00571302

> <r_epik_Charging_Adjusted_Penalty>
0.013347

> <i_epik_Tot_Q>
0

> <i_epik_Tot_abs_Q>
0

> <r_epik_Metal_State_Penalty>
0.392814

> <b_epik_Metal_Only>
0

> <s_lp_Force_Field>
OPLS_2005

> <r_lp_Energy>
26.7151

> <b_lp_Chiralities_Consistent>
1

> <s_lp_Variant>
AV-unprocessed.smi:1725-2

> <Gold.Version>
5.8.1

> <Gold.Id.Protein>
6NUR|6NUR_protein|mol2

> <Gold.PLP.Fitness>
42.6909

> <Gold.PLP.PLP>
-37.7537

> <Gold.PLP.part.hbond>
-1.6555

> <Gold.PLP.part.metal>
0.0000

> <Gold.PLP.part.buried>
-4.1543

> <Gold.PLP.part.nonpolar>
-32.4106

> <Gold.PLP.part.repulsive>
0.4338

> <Gold.PLP.ligand.clash>
1.3971

> <Gold.PLP.ligand.torsion>
1.4523

> <Gold.PLP.Chemscore.Hbond>
1.8800

> <Gold.PLP.Chemscore.CHOScore>
1.0000

> <Gold.PLP.Chemscore.Metal>
0.0000

> <Gold.Chemscore.Hbonds>
donor molecule, donor type, donor heavy atom, donor atom, acceptor molecule, acceptor atom, score
      L1  H    10    34       P1  7948  0.85
      L1  H    19    22       P1 10171  1.00
      L1  C    18    36       P1 10186  0.94

> <Gold.PLP.Chemscore.Internal.Correction>
0.5989

> <Gold.Rescore>
     Score         DG    S(hbond)    S(metal)    S(lipo)     H(rot)  DE(clash)    DE(int)     intcor
     13.39     -15.06       1.83        0.00      68.87       1.79       0.40       1.26       ----

> <Gold.Chemscore.Fitness>
13.3946

> <Gold.Chemscore.DG>
-15.0624

> <Gold.Chemscore.ZeroCoef>
-5.4800

> <Gold.Chemscore.Hbond>
1.8314

> <Gold.Chemscore.Metal>
0.0000

> <Gold.Chemscore.Lipo>
68.8693

> <Gold.Chemscore.Internal_Hbond>
0.0000

> <Gold.Chemscore.DEClash>
0.4047

> <Gold.Chemscore.DEInternal>
1.2632

> <Gold.Chemscore.Rot>
1.7938

> <Gold.Chemscore.Internal.Correction>
   9.000000E+99

> <Gold.Chemscore.Hbonds>
donor molecule, donor type, donor heavy atom, donor atom, acceptor molecule, acceptor atom, score
      L1  H    10    34       P1  7948  0.77
      L1  H    19    22       P1 10171  0.99

> <Gold.Chemscore.Hbond.Weighted>
-6.1170

> <Gold.Chemscore.Metal.Weighted>
-0.0000

> <Gold.Chemscore.Lipo.Weighted>
-8.0577

> <Gold.Chemscore.Internal_Hbond.Weighted>
0.0000

> <Gold.Chemscore.DEClash.Weighted>
0.4047

> <Gold.Chemscore.DEInternal.Weighted>
1.2632

> <Gold.Chemscore.Rot.Weighted>
4.5922

> <Gold.Chemscore.Internal.Correction.Weighted>
   9.000000E+99

> <Gold.Protein.RotatedTorsions>
[ 6907 6896 6895 6894 ] final   42.58 input  -60.11 | X-H torsion
[ 7974 7965 7964 7962 ] final  -42.27 input  175.53 | X-H torsion
[ 8008 7997 7996 7995 ] final  -93.15 input   59.86 | X-H torsion
[ 10167 10162 10161 10158 ] final  -94.65 input  -65.29 | X-H torsion
[ 10718 10713 10712 10709 ] final  -40.28 input   66.30 | X-H torsion
[ 10763 10752 10751 10750 ] final   81.87 input  -60.55 | X-H torsion
[ 11005 11000 10999 10996 ] final -169.20 input  -57.11 | X-H torsion

> <Gold.Protein.ActiveResidues>
 VAL166  LYS551  ARG553  GLY616  TRP617  ASP618  TYR619  PRO620  LYS621  CYS622 
 ASP623  PHE694  ASN695  SER759  ASP760  ASP761  ALA762  ILE779  LEU786  VAL792 
 PHE793  MET794  SER795  GLU796  ALA797  LYS798  CYS799  TRP800  GLU811  SER814 

> <Gold.Protein.RotatedAtoms>
  152.2097  134.8513  160.0498 H   0  0  0  0  0  0  0  0  0  0  0  0  # atno 6907 bound_to 6896
  151.9336  133.3613  159.3948 H   0  0  0  0  0  0  0  0  0  0  0  0  # atno 6908 bound_to 6896
  150.6973  134.4436  159.5348 H   0  0  0  0  0  0  0  0  0  0  0  0  # atno 6909 bound_to 6896
  146.0131  140.6940  142.9214 H   0  0  0  0  0  0  0  0  0  0  0  0  # atno 7974 bound_to 7965
  154.7321  140.0502  157.0735 H   0  0  0  0  0  0  0  0  0  0  0  0  # atno 8008 bound_to 7997
  155.0288  140.3155  155.4746 H   0  0  0  0  0  0  0  0  0  0  0  0  # atno 8009 bound_to 7997
  156.2844  140.2153  156.5409 H   0  0  0  0  0  0  0  0  0  0  0  0  # atno 8010 bound_to 7997
  140.3123  143.3098  152.0135 H   0  0  0  0  0  0  0  0  0  0  0  0  # atno 10167 bound_to 10162
  156.2831  130.4219  149.8316 H   0  0  0  0  0  0  0  0  0  0  0  0  # atno 10718 bound_to 10713
  153.1154  135.4749  154.9106 H   0  0  0  0  0  0  0  0  0  0  0  0  # atno 10763 bound_to 10752
  154.7523  135.3109  154.8537 H   0  0  0  0  0  0  0  0  0  0  0  0  # atno 10764 bound_to 10752
  153.9115  135.6864  153.4804 H   0  0  0  0  0  0  0  0  0  0  0  0  # atno 10765 bound_to 10752
  140.5335  134.5593  157.5081 H   0  0  0  0  0  0  0  0  0  0  0  0  # atno 11005 bound_to 11000
  144.6960  140.3434  143.7195 LP  0  0  0  0  0  0  0  0  0  0  0  0  # atno 17320 bound_to 7965
  145.7311  139.1736  143.2430 LP  0  0  0  0  0  0  0  0  0  0  0  0  # atno 17321 bound_to 7965
  139.4891  144.6375  151.6945 LP  0  0  0  0  0  0  0  0  0  0  0  0  # atno 17342 bound_to 10162
  140.5557  144.0351  150.6147 LP  0  0  0  0  0  0  0  0  0  0  0  0  # atno 17343 bound_to 10162
  156.5756  130.8443  151.3369 LP  0  0  0  0  0  0  0  0  0  0  0  0  # atno 17370 bound_to 10713
  157.7320  130.9709  150.1909 LP  0  0  0  0  0  0  0  0  0  0  0  0  # atno 17371 bound_to 10713
  139.9542  134.7564  156.0380 LP  0  0  0  0  0  0  0  0  0  0  0  0  # atno 17394 bound_to 11000
  141.1268  133.6597  156.3358 LP  0  0  0  0  0  0  0  0  0  0  0  0  # atno 17395 bound_to 11000

$$$$
