AV-unprocessed.smi:2105|AV-procd|sdf|8591|dock2
  -GOLD-   2272011323D 1   1.00000     0.00000
 Structure written by MMmdl.
 42 43  0  0  0  0  0  0  0  0  1 V2000
  142.0105  145.8583  153.5742 C   0  0  0  0  0  0  0  0  0  0  0  0
  143.5345  145.8232  153.5532 C   0  0  0  0  0  0  0  0  0  0  0  0
  144.1785  146.8183  153.8843 O   0  0  0  0  0  0  0  0  0  0  0  0
  144.0968  144.6693  153.1623 N   0  0  0  0  0  0  0  0  0  0  0  0
  145.5327  144.4246  153.0852 C   0  0  0  0  0  0  0  0  0  0  0  0
  145.8940  142.9766  153.4743 C   0  0  0  0  0  0  0  0  0  0  0  0
  147.1697  142.9051  154.1781 N   0  0  0  0  0  0  0  0  0  0  0  0
  147.9914  141.8470  154.1921 C   0  0  0  0  0  0  0  0  0  0  0  0
  147.7878  140.8175  153.5484 O   0  0  0  0  0  0  0  0  0  0  0  0
  149.0303  142.0572  155.0164 N   0  0  0  0  0  0  0  0  0  0  0  0
  150.0669  141.1516  155.3786 C   0  0  0  0  0  0  0  0  0  0  0  0
  150.2086  139.8720  154.7897 C   0  0  0  0  0  0  0  0  0  0  0  0
  151.2772  139.0490  155.1896 C   0  0  0  0  0  0  0  0  0  0  0  0
  152.1728  139.5385  156.1574 C   0  0  0  0  0  0  0  0  0  0  0  0
  152.0605  140.7606  156.7168 N   0  0  0  0  0  0  0  0  0  0  0  0
  151.0291  141.5547  156.3397 C   0  0  0  0  0  0  0  0  0  0  0  0
  150.9445  142.8317  156.9229 N   0  0  0  0  0  0  0  0  0  0  0  0
  150.8355  142.8903  158.3761 C   0  0  0  0  0  0  0  0  0  0  0  0
  151.4311  144.2385  158.7724 C   0  0  0  0  0  0  0  0  0  0  0  0
  152.5416  144.4215  157.7441 C   0  0  0  0  0  0  0  0  0  0  0  0
  151.9703  143.7702  156.4809 C   0  0  0  0  0  0  0  0  0  0  0  0
  141.6070  145.5709  152.6031 H   0  0  0  0  0  0  0  0  0  0  0  0
  141.6496  146.8598  153.8102 H   0  0  0  0  0  0  0  0  0  0  0  0
  141.6258  145.1704  154.3274 H   0  0  0  0  0  0  0  0  0  0  0  0
  143.4882  143.9040  152.9104 H   0  0  0  0  0  0  0  0  0  0  0  0
  145.9306  144.7030  152.1078 H   0  0  0  0  0  0  0  0  0  0  0  0
  145.9980  145.1035  153.8002 H   0  0  0  0  0  0  0  0  0  0  0  0
  145.1165  142.5690  154.1224 H   0  0  0  0  0  0  0  0  0  0  0  0
  145.9242  142.3291  152.5972 H   0  0  0  0  0  0  0  0  0  0  0  0
  147.4189  143.7036  154.7434 H   0  0  0  0  0  0  0  0  0  0  0  0
  149.0102  142.9189  155.5420 H   0  0  0  0  0  0  0  0  0  0  0  0
  149.5292  139.5156  154.0309 H   0  0  0  0  0  0  0  0  0  0  0  0
  151.4104  138.0676  154.7591 H   0  0  0  0  0  0  0  0  0  0  0  0
  153.0069  138.9360  156.4855 H   0  0  0  0  0  0  0  0  0  0  0  0
  149.7949  142.8069  158.6902 H   0  0  0  0  0  0  0  0  0  0  0  0
  151.3935  142.0831  158.8517 H   0  0  0  0  0  0  0  0  0  0  0  0
  150.6838  145.0253  158.6570 H   0  0  0  0  0  0  0  0  0  0  0  0
  151.7910  144.2581  159.8012 H   0  0  0  0  0  0  0  0  0  0  0  0
  152.8182  145.4657  157.5948 H   0  0  0  0  0  0  0  0  0  0  0  0
  153.4315  143.8791  158.0666 H   0  0  0  0  0  0  0  0  0  0  0  0
  152.7543  143.2936  155.8904 H   0  0  0  0  0  0  0  0  0  0  0  0
  151.4926  144.5208  155.8504 H   0  0  0  0  0  0  0  0  0  0  0  0
  1  2  1  0  0  0  0
  1 22  1  0  0  0  0
  1 23  1  0  0  0  0
  1 24  1  0  0  0  0
  2  3  2  0  0  0  0
  2  4  1  0  0  0  0
  4  5  1  0  0  0  0
  4 25  1  0  0  0  0
  5  6  1  0  0  0  0
  5 26  1  0  0  0  0
  5 27  1  0  0  0  0
  6  7  1  0  0  0  0
  6 28  1  0  0  0  0
  6 29  1  0  0  0  0
  7  8  1  0  0  0  0
  7 30  1  0  0  0  0
  8  9  2  0  0  0  0
  8 10  1  0  0  0  0
 10 11  1  0  0  0  0
 10 31  1  0  0  0  0
 11 16  1  0  0  0  0
 11 12  2  0  0  0  0
 12 13  1  0  0  0  0
 12 32  1  0  0  0  0
 13 14  2  0  0  0  0
 13 33  1  0  0  0  0
 14 15  1  0  0  0  0
 14 34  1  0  0  0  0
 15 16  2  0  0  0  0
 16 17  1  0  0  0  0
 17 21  1  0  0  0  0
 17 18  1  0  0  0  0
 18 19  1  0  0  0  0
 18 35  1  0  0  0  0
 18 36  1  0  0  0  0
 19 20  1  0  0  0  0
 19 37  1  0  0  0  0
 19 38  1  0  0  0  0
 20 21  1  0  0  0  0
 20 39  1  0  0  0  0
 20 40  1  0  0  0  0
 21 41  1  0  0  0  0
 21 42  1  0  0  0  0
M  END
> <s_m_source_file>
AV-unprocessed.smi

> <i_m_source_file_index>
2105

> <i_lp_mmshare_version>
43012

> <i_f3d_flags>
0

> <s_epik_input>
W0NIM11DKD1PKVtOSF1bQ0gyXVtDSDJdW05IXUMoPU8pW05IXWMxW2NIXVtjSF1bY0hdbmMxTjJbQ0gyXVtDSDJdW0NIMl1bQ0gyXTI=

> <s_epik_cmdline>
J2VwaWtfcHl0aG9uJywgJy1waCcsICc3LjAnLCAnLXRuJywgJzgnLCAnLW1hJywgJzIwMCcsICctbWV0YWxfYmluZGluZycsICctaW1hZScsICc8aW5maWxlLm1hZT4nLCAnLW9tYWUnLCAnPG91dGZpbGUubWFlPic=

> <r_lp_tautomer_probability>
1

> <r_epik_Ionization_Penalty>
0.0963551

> <r_epik_Ionization_Penalty_Charging>
0

> <r_epik_Ionization_Penalty_Neutral>
0.0963551

> <r_epik_State_Penalty>
0.0859578

> <r_epik_Charging_Adjusted_Penalty>
0.0859578

> <i_epik_Tot_Q>
0

> <i_epik_Tot_abs_Q>
0

> <r_epik_Metal_State_Penalty>
0.0739032

> <b_epik_Metal_Only>
0

> <s_lp_Force_Field>
OPLS_2005

> <r_lp_Energy>
32.5144

> <b_lp_Chiralities_Consistent>
1

> <s_lp_Variant>
AV-unprocessed.smi:2105-1

> <Gold.Version>
5.8.1

> <Gold.Id.Protein>
6NUR|6NUR_protein|mol2

> <Gold.PLP.Fitness>
47.5877

> <Gold.PLP.PLP>
-42.6741

> <Gold.PLP.part.hbond>
-4.1595

> <Gold.PLP.part.metal>
0.0000

> <Gold.PLP.part.buried>
-3.2472

> <Gold.PLP.part.nonpolar>
-35.5694

> <Gold.PLP.part.repulsive>
0.7745

> <Gold.PLP.ligand.clash>
0.0000

> <Gold.PLP.ligand.torsion>
0.7151

> <Gold.PLP.Chemscore.Hbond>
2.0752

> <Gold.PLP.Chemscore.CHOScore>
0.0000

> <Gold.PLP.Chemscore.Metal>
0.0000

> <Gold.Chemscore.Hbonds>
donor molecule, donor type, donor heavy atom, donor atom, acceptor molecule, acceptor atom, score
      L1  H     4    25       P1 10174  1.00
      L1  H     7    30       P1  8028  0.62
      L1  H    10    31       P1  8028  1.00

> <Gold.PLP.Chemscore.Internal.Correction>
0.1181

> <Gold.Rescore>
     Score         DG    S(hbond)    S(metal)    S(lipo)     H(rot)  DE(clash)    DE(int)     intcor
     14.10     -16.92       1.67        0.00      92.58       1.94       1.00       1.82       ----

> <Gold.Chemscore.Fitness>
14.1017

> <Gold.Chemscore.DG>
-16.9242

> <Gold.Chemscore.ZeroCoef>
-5.4800

> <Gold.Chemscore.Hbond>
1.6732

> <Gold.Chemscore.Metal>
0.0000

> <Gold.Chemscore.Lipo>
92.5777

> <Gold.Chemscore.Internal_Hbond>
0.0000

> <Gold.Chemscore.DEClash>
0.9982

> <Gold.Chemscore.DEInternal>
1.8243

> <Gold.Chemscore.Rot>
1.9437

> <Gold.Chemscore.Internal.Correction>
   9.000000E+99

> <Gold.Chemscore.Hbonds>
donor molecule, donor type, donor heavy atom, donor atom, acceptor molecule, acceptor atom, score
      L1  H     4    25       P1 10174  0.98
      L1  H     7    30       P1  8028  0.05
      L1  H    10    31       P1  8028  0.96

> <Gold.Chemscore.Hbond.Weighted>
-5.5885

> <Gold.Chemscore.Metal.Weighted>
-0.0000

> <Gold.Chemscore.Lipo.Weighted>
-10.8316

> <Gold.Chemscore.Internal_Hbond.Weighted>
0.0000

> <Gold.Chemscore.DEClash.Weighted>
0.9982

> <Gold.Chemscore.DEInternal.Weighted>
1.8243

> <Gold.Chemscore.Rot.Weighted>
4.9759

> <Gold.Chemscore.Internal.Correction.Weighted>
   9.000000E+99

> <Gold.Protein.RotatedTorsions>
[ 6907 6896 6895 6894 ] final  134.58 input  -60.11 | X-H torsion
[ 7974 7965 7964 7962 ] final   28.15 input  175.53 | X-H torsion
[ 8008 7997 7996 7995 ] final   47.69 input   59.86 | X-H torsion
[ 10167 10162 10161 10158 ] final   63.79 input  -65.29 | X-H torsion
[ 10718 10713 10712 10709 ] final  -11.43 input   66.30 | X-H torsion
[ 10763 10752 10751 10750 ] final  124.49 input  -60.55 | X-H torsion
[ 11005 11000 10999 10996 ] final -165.15 input  -57.11 | X-H torsion

> <Gold.Protein.ActiveResidues>
 VAL166  LYS551  ARG553  GLY616  TRP617  ASP618  TYR619  PRO620  LYS621  CYS622 
 ASP623  PHE694  ASN695  SER759  ASP760  ASP761  ALA762  ILE779  LEU786  VAL792 
 PHE793  MET794  SER795  GLU796  ALA797  LYS798  CYS799  TRP800  GLU811  SER814 

> <Gold.Protein.RotatedAtoms>
  152.3097  133.5740  159.5672 H   0  0  0  0  0  0  0  0  0  0  0  0  # atno 6907 bound_to 6896
  150.7317  134.0170  159.3697 H   0  0  0  0  0  0  0  0  0  0  0  0  # atno 6908 bound_to 6896
  151.8064  135.0694  160.0458 H   0  0  0  0  0  0  0  0  0  0  0  0  # atno 6909 bound_to 6896
  146.1745  139.7095  142.8944 H   0  0  0  0  0  0  0  0  0  0  0  0  # atno 7974 bound_to 7965
  155.3732  140.3425  155.4244 H   0  0  0  0  0  0  0  0  0  0  0  0  # atno 8008 bound_to 7997
  156.1651  140.1613  156.8579 H   0  0  0  0  0  0  0  0  0  0  0  0  # atno 8009 bound_to 7997
  154.5177  140.0774  156.8095 H   0  0  0  0  0  0  0  0  0  0  0  0  # atno 8010 bound_to 7997
  140.1292  144.4659  150.6875 H   0  0  0  0  0  0  0  0  0  0  0  0  # atno 10167 bound_to 10162
  156.6591  130.4977  149.6036 H   0  0  0  0  0  0  0  0  0  0  0  0  # atno 10718 bound_to 10713
  153.6623  135.3344  155.3130 H   0  0  0  0  0  0  0  0  0  0  0  0  # atno 10763 bound_to 10752
  154.8512  135.4366  154.1791 H   0  0  0  0  0  0  0  0  0  0  0  0  # atno 10764 bound_to 10752
  153.2761  135.7005  153.7507 H   0  0  0  0  0  0  0  0  0  0  0  0  # atno 10765 bound_to 10752
  140.5790  134.5161  157.5175 H   0  0  0  0  0  0  0  0  0  0  0  0  # atno 11005 bound_to 11000
  145.4249  141.0410  143.2943 LP  0  0  0  0  0  0  0  0  0  0  0  0  # atno 17320 bound_to 7965
  144.8214  139.5784  143.6985 LP  0  0  0  0  0  0  0  0  0  0  0  0  # atno 17321 bound_to 7965
  140.6827  143.2334  151.5342 LP  0  0  0  0  0  0  0  0  0  0  0  0  # atno 17342 bound_to 10162
  139.5528  144.2351  152.1561 LP  0  0  0  0  0  0  0  0  0  0  0  0  # atno 17343 bound_to 10162
  156.2024  130.6628  151.1182 LP  0  0  0  0  0  0  0  0  0  0  0  0  # atno 17370 bound_to 10713
  157.7115  131.0731  150.6482 LP  0  0  0  0  0  0  0  0  0  0  0  0  # atno 17371 bound_to 10713
  139.9326  134.7935  156.0889 LP  0  0  0  0  0  0  0  0  0  0  0  0  # atno 17394 bound_to 11000
  141.1008  133.6678  156.2751 LP  0  0  0  0  0  0  0  0  0  0  0  0  # atno 17395 bound_to 11000

$$$$
