AV-unprocessed.smi:37|AV-procd|sdf|333|dock1
  -GOLD-   2262016163D 1   1.00000     0.00000
 Structure written by MMmdl.
 43 44  0  0  0  0  0  0  0  0  2 V2000
  147.1545  135.0525  162.4464 C   0  0  0  0  0  0  0  0  0  0  0  0
  147.1459  135.1775  160.9151 C   0  0  0  0  0  0  0  0  0  0  0  0
  147.6469  136.5318  160.4086 C   0  0  0  0  0  0  0  0  0  0  0  0
  147.2425  137.5989  160.8731 O   0  0  0  0  0  0  0  0  0  0  0  0
  148.5506  136.3949  159.4213 O   0  0  0  0  0  0  0  0  0  0  0  0
  149.1451  137.5378  158.8205 C   0  0  0  0  0  0  0  0  0  0  0  0
  150.4403  137.1520  158.0792 C   0  0  2  0  0  0  0  0  0  0  0  0
  151.4582  136.9036  159.0514 O   0  0  0  0  0  0  0  0  0  0  0  0
  152.6456  137.4949  158.6334 C   0  0  2  0  0  0  0  0  0  0  0  0
  153.5508  137.7515  159.8161 N   0  0  0  0  0  0  0  0  0  0  0  0
  153.2563  137.2501  161.0735 C   0  0  0  0  0  0  0  0  0  0  0  0
  154.0653  137.4859  162.1262 C   0  0  0  0  0  0  0  0  0  0  0  0
  153.7507  136.9914  163.3358 F   0  0  0  0  0  0  0  0  0  0  0  0
  155.2781  138.2814  161.9427 C   0  0  0  0  0  0  0  0  0  0  0  0
  156.0136  138.4915  162.9060 O   0  0  0  0  0  0  0  0  0  0  0  0
  155.5430  138.7618  160.6930 N   0  5  0  0  0  0  0  0  0  0  0  0
  154.7254  138.5275  159.6251 C   0  0  0  0  0  0  0  0  0  0  0  0
  154.9528  138.9581  158.4941 O   0  0  0  0  0  0  0  0  0  0  0  0
  152.2216  138.7750  157.9203 C   0  0  2  0  0  0  0  0  0  0  0  0
  151.6704  140.1908  159.2221 Br  0  0  0  0  0  0  0  0  0  0  0  0
  151.0133  138.2516  157.1563 C   0  0  2  0  0  0  0  0  0  0  0  0
  150.0829  139.2756  156.8180 O   0  0  0  0  0  0  0  0  0  0  0  0
  150.4003  140.2108  155.9055 C   0  0  0  0  0  0  0  0  0  0  0  0
  151.4236  140.2274  155.2192 O   0  0  0  0  0  0  0  0  0  0  0  0
  149.3278  141.2976  155.8071 C   0  0  0  0  0  0  0  0  0  0  0  0
  148.7653  141.4805  154.3894 C   0  0  0  0  0  0  0  0  0  0  0  0
  146.7999  134.0684  162.7528 H   0  0  0  0  0  0  0  0  0  0  0  0
  146.5062  135.7960  162.9115 H   0  0  0  0  0  0  0  0  0  0  0  0
  148.1597  135.1806  162.8500 H   0  0  0  0  0  0  0  0  0  0  0  0
  147.7690  134.3952  160.4814 H   0  0  0  0  0  0  0  0  0  0  0  0
  146.1348  135.0198  160.5391 H   0  0  0  0  0  0  0  0  0  0  0  0
  148.4173  137.9217  158.1059 H   0  0  0  0  0  0  0  0  0  0  0  0
  149.3224  138.3373  159.5412 H   0  0  0  0  0  0  0  0  0  0  0  0
  150.2711  136.2505  157.4891 H   0  0  0  0  0  0  0  0  0  0  0  0
  153.1788  136.7946  157.9869 H   0  0  0  0  0  0  0  0  0  0  0  0
  152.3625  136.6673  161.2315 H   0  0  0  0  0  0  0  0  0  0  0  0
  153.0134  139.1684  157.2824 H   0  0  0  0  0  0  0  0  0  0  0  0
  151.3656  137.7552  156.2503 H   0  0  0  0  0  0  0  0  0  0  0  0
  148.5187  141.0485  156.4941 H   0  0  0  0  0  0  0  0  0  0  0  0
  149.7575  142.2377  156.1540 H   0  0  0  0  0  0  0  0  0  0  0  0
  148.0135  142.2695  154.3739 H   0  0  0  0  0  0  0  0  0  0  0  0
  148.2916  140.5670  154.0282 H   0  0  0  0  0  0  0  0  0  0  0  0
  149.5486  141.7585  153.6834 H   0  0  0  0  0  0  0  0  0  0  0  0
  1  2  1  0  0  0  0
  1 27  1  0  0  0  0
  1 28  1  0  0  0  0
  1 29  1  0  0  0  0
  2  3  1  0  0  0  0
  2 30  1  0  0  0  0
  2 31  1  0  0  0  0
  3  4  2  0  0  0  0
  3  5  1  0  0  0  0
  5  6  1  0  0  0  0
  6  7  1  0  0  0  0
  6 32  1  0  0  0  0
  6 33  1  0  0  0  0
  7 21  1  0  0  0  0
  7  8  1  0  0  0  0
  7 34  1  0  0  0  0
  8  9  1  0  0  0  0
  9 10  1  0  0  0  0
  9 19  1  0  0  0  0
  9 35  1  0  0  0  0
 10 17  1  0  0  0  0
 10 11  1  0  0  0  0
 11 12  2  0  0  0  0
 11 36  1  0  0  0  0
 12 13  1  0  0  0  0
 12 14  1  0  0  0  0
 14 15  2  0  0  0  0
 14 16  1  0  0  0  0
 16 17  1  0  0  0  0
 17 18  2  0  0  0  0
 19 20  1  0  0  0  0
 19 21  1  0  0  0  0
 19 37  1  0  0  0  0
 21 22  1  0  0  0  0
 21 38  1  0  0  0  0
 22 23  1  0  0  0  0
 23 24  2  0  0  0  0
 23 25  1  0  0  0  0
 25 26  1  0  0  0  0
 25 39  1  0  0  0  0
 25 40  1  0  0  0  0
 26 41  1  0  0  0  0
 26 42  1  0  0  0  0
 26 43  1  0  0  0  0
M  CHG  1  16  -1
M  END
> <s_m_source_file>
AV-unprocessed.smi

> <i_m_source_file_index>
37

> <i_lp_mmshare_version>
43012

> <i_f3d_flags>
0

> <s_epik_input>
W0NIM11bQ0gyXUMoPU8pT1tDSDJdW0NAQEhdMU9bQ0BASF0objJbY0hdYyhGKWMoPU8pW25IXWMyPU8pW0NAQEhdKEJyKVtDQEhdMU9DKD1PKVtDSDJdW0NIM10=

> <s_epik_cmdline>
J2VwaWtfcHl0aG9uJywgJy1waCcsICc3LjAnLCAnLXRuJywgJzgnLCAnLW1hJywgJzIwMCcsICctbWV0YWxfYmluZGluZycsICctaW1hZScsICc8aW5maWxlLm1hZT4nLCAnLW9tYWUnLCAnPG91dGZpbGUubWFlPic=

> <r_epik_Ionization_Penalty>
1.08158

> <r_epik_Ionization_Penalty_Charging>
9.05154e-09

> <r_epik_Ionization_Penalty_Neutral>
1.08158

> <r_epik_State_Penalty>
1.13706

> <r_epik_Charging_Adjusted_Penalty>
1.13706

> <i_epik_Tot_Q>
-1

> <i_epik_Tot_abs_Q>
1

> <r_epik_Metal_State_Penalty>
0.00343535

> <b_epik_Metal_Only>
0

> <s_epik_Chemistry_Notes>
This compound has an ester and may undergo hydrolysis at high or low pH. This compound contains an acetal/aminal-like group ( X-CH(R)-Y where X, Y are N, S, or O) that may be acid/base labile, releasing an aldehyde.

> <s_lp_Force_Field>
OPLS_2005

> <r_lp_Energy>
37.8596

> <b_lp_Chiralities_Consistent>
1

> <s_lp_Variant>
AV-unprocessed.smi:37-31

> <Gold.Version>
5.8.1

> <Gold.Id.Protein>
6NUR|6NUR_protein|mol2

> <Gold.PLP.Fitness>
53.0805

> <Gold.PLP.PLP>
-39.6823

> <Gold.PLP.part.hbond>
-4.8293

> <Gold.PLP.part.metal>
0.0000

> <Gold.PLP.part.buried>
-5.1445

> <Gold.PLP.part.nonpolar>
-29.3311

> <Gold.PLP.part.repulsive>
0.0245

> <Gold.PLP.ligand.clash>
0.0000

> <Gold.PLP.ligand.torsion>
0.4993

> <Gold.PLP.Chemscore.Hbond>
4.6800

> <Gold.PLP.Chemscore.CHOScore>
0.0000

> <Gold.PLP.Chemscore.Metal>
0.0000

> <Gold.Chemscore.Hbonds>
donor molecule, donor type, donor heavy atom, donor atom, acceptor molecule, acceptor atom, score
      P1  H  6896  6908       L1     8  0.99
      P1  H  6931  6943       L1     4  0.41
      P1  H  6934  6947       L1     4  0.73
      P1  H  7989  7998       L1    24  1.00
      P1  H  7997  8008       L1    18  1.00

> <Gold.PLP.Chemscore.Internal.Correction>
0.3567

> <Gold.Rescore>
     Score         DG    S(hbond)    S(metal)    S(lipo)     H(rot)  DE(clash)    DE(int)     intcor
     18.22     -19.69       4.59        0.00      62.02       3.27       0.00       1.47       ----

> <Gold.Chemscore.Fitness>
18.2172

> <Gold.Chemscore.DG>
-19.6911

> <Gold.Chemscore.ZeroCoef>
-5.4800

> <Gold.Chemscore.Hbond>
4.5864

> <Gold.Chemscore.Metal>
0.0000

> <Gold.Chemscore.Lipo>
62.0154

> <Gold.Chemscore.Internal_Hbond>
0.0000

> <Gold.Chemscore.DEClash>
0.0009

> <Gold.Chemscore.DEInternal>
1.4730

> <Gold.Chemscore.Rot>
3.2669

> <Gold.Chemscore.Internal.Correction>
   9.000000E+99

> <Gold.Chemscore.Hbonds>
donor molecule, donor type, donor heavy atom, donor atom, acceptor molecule, acceptor atom, score
      P1  H  6896  6908       L1     8  0.87
      P1  H  6931  6943       L1     4  0.11
      P1  H  6934  6947       L1     4  0.72
      P1  H  7989  7998       L1    24  0.95
      P1  H  7997  8008       L1    18  0.97

> <Gold.Chemscore.Hbond.Weighted>
-15.3187

> <Gold.Chemscore.Metal.Weighted>
-0.0000

> <Gold.Chemscore.Lipo.Weighted>
-7.2558

> <Gold.Chemscore.Internal_Hbond.Weighted>
0.0000

> <Gold.Chemscore.DEClash.Weighted>
0.0009

> <Gold.Chemscore.DEInternal.Weighted>
1.4730

> <Gold.Chemscore.Rot.Weighted>
8.3634

> <Gold.Chemscore.Internal.Correction.Weighted>
   9.000000E+99

> <Gold.Protein.RotatedTorsions>
[ 6907 6896 6895 6894 ] final -119.58 input  -60.11 | X-H torsion
[ 7974 7965 7964 7962 ] final   78.77 input  175.53 | X-H torsion
[ 8008 7997 7996 7995 ] final -128.37 input   59.86 | X-H torsion
[ 10167 10162 10161 10158 ] final  -50.84 input  -65.29 | X-H torsion
[ 10718 10713 10712 10709 ] final  170.58 input   66.30 | X-H torsion
[ 10763 10752 10751 10750 ] final -178.58 input  -60.55 | X-H torsion
[ 11005 11000 10999 10996 ] final -137.96 input  -57.11 | X-H torsion

> <Gold.Protein.ActiveResidues>
 VAL166  LYS551  ARG553  GLY616  TRP617  ASP618  TYR619  PRO620  LYS621  CYS622 
 ASP623  PHE694  ASN695  SER759  ASP760  ASP761  ALA762  ILE779  LEU786  VAL792 
 PHE793  MET794  SER795  GLU796  ALA797  LYS798  CYS799  TRP800  GLU811  SER814 

> <Gold.Protein.RotatedAtoms>
  150.8318  133.8079  159.3095 H   0  0  0  0  0  0  0  0  0  0  0  0  # atno 6907 bound_to 6896
  151.5807  135.1057  160.0026 H   0  0  0  0  0  0  0  0  0  0  0  0  # atno 6908 bound_to 6896
  152.4396  133.7382  159.6682 H   0  0  0  0  0  0  0  0  0  0  0  0  # atno 6909 bound_to 6896
  145.6729  139.2502  143.1858 H   0  0  0  0  0  0  0  0  0  0  0  0  # atno 7974 bound_to 7965
  155.2615  140.0436  157.2998 H   0  0  0  0  0  0  0  0  0  0  0  0  # atno 8008 bound_to 7997
  154.5708  140.2373  155.8164 H   0  0  0  0  0  0  0  0  0  0  0  0  # atno 8009 bound_to 7997
  156.2121  140.2996  155.9763 H   0  0  0  0  0  0  0  0  0  0  0  0  # atno 8010 bound_to 7997
  140.6618  143.2642  151.4417 H   0  0  0  0  0  0  0  0  0  0  0  0  # atno 10167 bound_to 10162
  157.0060  131.0190  151.2817 H   0  0  0  0  0  0  0  0  0  0  0  0  # atno 10718 bound_to 10713
  154.5459  135.2809  155.1053 H   0  0  0  0  0  0  0  0  0  0  0  0  # atno 10763 bound_to 10752
  154.2518  135.6338  153.5247 H   0  0  0  0  0  0  0  0  0  0  0  0  # atno 10764 bound_to 10752
  152.9990  135.5584  154.6011 H   0  0  0  0  0  0  0  0  0  0  0  0  # atno 10765 bound_to 10752
  140.8662  134.2108  157.4678 H   0  0  0  0  0  0  0  0  0  0  0  0  # atno 11005 bound_to 11000
  146.1030  140.7521  142.9540 LP  0  0  0  0  0  0  0  0  0  0  0  0  # atno 17320 bound_to 7965
  144.7051  140.3818  143.7125 LP  0  0  0  0  0  0  0  0  0  0  0  0  # atno 17321 bound_to 7965
  139.5854  144.1616  152.2022 LP  0  0  0  0  0  0  0  0  0  0  0  0  # atno 17342 bound_to 10162
  140.0954  144.5585  150.7025 LP  0  0  0  0  0  0  0  0  0  0  0  0  # atno 17343 bound_to 10162
  157.5355  130.8086  149.7967 LP  0  0  0  0  0  0  0  0  0  0  0  0  # atno 17370 bound_to 10713
  156.0153  130.3816  150.2130 LP  0  0  0  0  0  0  0  0  0  0  0  0  # atno 17371 bound_to 10713
  139.8709  134.9753  156.4877 LP  0  0  0  0  0  0  0  0  0  0  0  0  # atno 17394 bound_to 11000
  140.8626  133.8048  155.9281 LP  0  0  0  0  0  0  0  0  0  0  0  0  # atno 17395 bound_to 11000

$$$$
