AV-unprocessed.smi:3141|AV-procd|sdf|11964|dock1
  -GOLD-   2272017363D 1   1.00000     0.00000
 Structure written by MMmdl.
 36 38  0  0  0  0  0  0  0  0  2 V2000
  151.7470  141.6075  158.0871 O   0  0  0  0  0  0  0  0  0  0  0  0
  150.9561  142.2014  157.3542 C   0  0  0  0  0  0  0  0  0  0  0  0
  150.8861  143.5338  157.2416 N   0  0  0  0  0  0  0  0  0  0  0  0
  151.7017  144.4670  157.9486 C   0  0  0  0  0  0  0  0  0  0  0  0
  151.9877  144.1826  159.4073 C   0  0  0  0  0  0  0  0  0  0  0  0
  151.0455  145.2933  159.0334 C   0  0  0  0  0  0  0  0  0  0  0  0
  150.0451  141.5904  156.5831 N   0  0  0  0  0  0  0  0  0  0  0  0
  149.8739  140.1417  156.4510 C   0  0  2  0  0  0  0  0  0  0  0  0
  151.2572  139.4604  156.4273 C   0  0  0  0  0  0  0  0  0  0  0  0
  151.4994  138.9746  154.9875 C   0  0  0  0  0  0  0  0  0  0  0  0
  150.3943  139.6025  154.1367 C   0  0  0  0  0  0  0  0  0  0  0  0
  149.2224  139.7218  155.1163 C   0  0  2  0  0  0  0  0  0  0  0  0
  148.0786  140.5418  154.6729 N   0  0  0  0  0  0  0  0  0  0  0  0
  148.1326  141.8634  154.3081 C   0  0  0  0  0  0  0  0  0  0  0  0
  146.8668  142.2208  153.9232 C   0  0  0  0  0  0  0  0  0  0  0  0
  146.0918  141.1017  154.0590 N   0  3  0  0  0  0  0  0  0  0  0  0
  146.8288  140.0811  154.5083 C   0  0  0  0  0  0  0  0  0  0  0  0
  150.2026  143.9216  156.6077 H   0  0  0  0  0  0  0  0  0  0  0  0
  152.5000  144.9562  157.3920 H   0  0  0  0  0  0  0  0  0  0  0  0
  151.5559  143.2850  159.8460 H   0  0  0  0  0  0  0  0  0  0  0  0
  152.9669  144.4625  159.7903 H   0  0  0  0  0  0  0  0  0  0  0  0
  151.3960  146.3149  159.1666 H   0  0  0  0  0  0  0  0  0  0  0  0
  149.9849  145.1377  159.2219 H   0  0  0  0  0  0  0  0  0  0  0  0
  149.4398  142.1691  156.0191 H   0  0  0  0  0  0  0  0  0  0  0  0
  149.2897  139.7666  157.2935 H   0  0  0  0  0  0  0  0  0  0  0  0
  152.0500  140.1377  156.7489 H   0  0  0  0  0  0  0  0  0  0  0  0
  151.2767  138.6112  157.1114 H   0  0  0  0  0  0  0  0  0  0  0  0
  152.4935  139.2363  154.6241 H   0  0  0  0  0  0  0  0  0  0  0  0
  151.4151  137.8876  154.9517 H   0  0  0  0  0  0  0  0  0  0  0  0
  150.7289  140.5822  153.7961 H   0  0  0  0  0  0  0  0  0  0  0  0
  150.1519  139.0039  153.2581 H   0  0  0  0  0  0  0  0  0  0  0  0
  148.8249  138.7143  155.2535 H   0  0  0  0  0  0  0  0  0  0  0  0
  149.0479  142.4366  154.3429 H   0  0  0  0  0  0  0  0  0  0  0  0
  146.4721  143.1609  153.5658 H   0  0  0  0  0  0  0  0  0  0  0  0
  146.4752  139.0824  154.6884 H   0  0  0  0  0  0  0  0  0  0  0  0
  145.1043  141.0492  153.8422 H   0  0  0  0  0  0  0  0  0  0  0  0
  1  2  2  0  0  0  0
  2  3  1  0  0  0  0
  2  7  1  0  0  0  0
  3  4  1  0  0  0  0
  3 18  1  0  0  0  0
  4  6  1  0  0  0  0
  4  5  1  0  0  0  0
  4 19  1  0  0  0  0
  5  6  1  0  0  0  0
  5 20  1  0  0  0  0
  5 21  1  0  0  0  0
  6 22  1  0  0  0  0
  6 23  1  0  0  0  0
  7  8  1  0  0  0  0
  7 24  1  0  0  0  0
  8 12  1  0  0  0  0
  8  9  1  0  0  0  0
  8 25  1  0  0  0  0
  9 10  1  0  0  0  0
  9 26  1  0  0  0  0
  9 27  1  0  0  0  0
 10 11  1  0  0  0  0
 10 28  1  0  0  0  0
 10 29  1  0  0  0  0
 11 12  1  0  0  0  0
 11 30  1  0  0  0  0
 11 31  1  0  0  0  0
 12 13  1  0  0  0  0
 12 32  1  0  0  0  0
 13 17  1  0  0  0  0
 13 14  1  0  0  0  0
 14 15  2  0  0  0  0
 14 33  1  0  0  0  0
 15 16  1  0  0  0  0
 15 34  1  0  0  0  0
 16 17  2  0  0  0  0
 16 36  1  0  0  0  0
 17 35  1  0  0  0  0
M  CHG  1  16   1
M  END
> <s_m_source_file>
AV-unprocessed.smi

> <i_m_source_file_index>
3141

> <i_lp_mmshare_version>
43012

> <i_f3d_flags>
0

> <s_epik_input>
W0NIMl0xW0NIMl1bQ0hdMVtOSF1DKD1PKVtOSF1bQ0BASF0yW0NIMl1bQ0gyXVtDSDJdW0NASF0ybjNbY0hdW2NIXW5bY0hdMw==

> <s_epik_cmdline>
J2VwaWtfcHl0aG9uJywgJy1waCcsICc3LjAnLCAnLXRuJywgJzgnLCAnLW1hJywgJzIwMCcsICctbWV0YWxfYmluZGluZycsICctaW1hZScsICc8aW5maWxlLm1hZT4nLCAnLW9tYWUnLCAnPG91dGZpbGUubWFlPic=

> <r_lp_tautomer_probability>
1

> <r_epik_Ionization_Penalty>
0.205063

> <r_epik_Ionization_Penalty_Charging>
0

> <r_epik_Ionization_Penalty_Neutral>
0.205063

> <r_epik_State_Penalty>
0.194948

> <r_epik_Charging_Adjusted_Penalty>
0.194948

> <i_epik_Tot_Q>
1

> <i_epik_Tot_abs_Q>
1

> <r_epik_Metal_State_Penalty>
0.500882

> <b_epik_Metal_Only>
0

> <s_lp_Force_Field>
OPLS_2005

> <r_lp_Energy>
37.736

> <b_lp_Chiralities_Consistent>
1

> <s_lp_Variant>
AV-unprocessed.smi:3141-3

> <Gold.Version>
5.8.1

> <Gold.Id.Protein>
6NUR|6NUR_protein|mol2

> <Gold.PLP.Fitness>
42.9536

> <Gold.PLP.PLP>
-34.0598

> <Gold.PLP.part.hbond>
-2.0000

> <Gold.PLP.part.metal>
0.0000

> <Gold.PLP.part.buried>
-1.7652

> <Gold.PLP.part.nonpolar>
-30.4880

> <Gold.PLP.part.repulsive>
0.0501

> <Gold.PLP.ligand.clash>
0.5098

> <Gold.PLP.ligand.torsion>
0.5264

> <Gold.PLP.Chemscore.Hbond>
2.9200

> <Gold.PLP.Chemscore.CHOScore>
0.5385

> <Gold.PLP.Chemscore.Metal>
0.0000

> <Gold.Chemscore.Hbonds>
donor molecule, donor type, donor heavy atom, donor atom, acceptor molecule, acceptor atom, score
      L1  H     3    18       P1  8028  1.00
      L1  H    16    36       P1 10175  1.84
      L1  C    14    33       P1  8028  0.54

> <Gold.PLP.Chemscore.Internal.Correction>
0.0810

> <Gold.Rescore>
     Score         DG    S(hbond)    S(metal)    S(lipo)     H(rot)  DE(clash)    DE(int)     intcor
     12.51     -17.56       1.95        0.00      82.86       1.61       0.66       4.39       ----

> <Gold.Chemscore.Fitness>
12.5102

> <Gold.Chemscore.DG>
-17.5595

> <Gold.Chemscore.ZeroCoef>
-5.4800

> <Gold.Chemscore.Hbond>
1.9470

> <Gold.Chemscore.Metal>
0.0000

> <Gold.Chemscore.Lipo>
82.8646

> <Gold.Chemscore.Internal_Hbond>
0.0000

> <Gold.Chemscore.DEClash>
0.6619

> <Gold.Chemscore.DEInternal>
4.3874

> <Gold.Chemscore.Rot>
1.6088

> <Gold.Chemscore.Internal.Correction>
   9.000000E+99

> <Gold.Chemscore.Hbonds>
donor molecule, donor type, donor heavy atom, donor atom, acceptor molecule, acceptor atom, score
      L1  H     3    18       P1  8028  1.00
      L1  H    16    36       P1 10175  0.65

> <Gold.Chemscore.Hbond.Weighted>
-6.5029

> <Gold.Chemscore.Metal.Weighted>
-0.0000

> <Gold.Chemscore.Lipo.Weighted>
-9.6952

> <Gold.Chemscore.Internal_Hbond.Weighted>
0.0000

> <Gold.Chemscore.DEClash.Weighted>
0.6619

> <Gold.Chemscore.DEInternal.Weighted>
4.3874

> <Gold.Chemscore.Rot.Weighted>
4.1186

> <Gold.Chemscore.Internal.Correction.Weighted>
   9.000000E+99

> <Gold.Protein.RotatedTorsions>
[ 6907 6896 6895 6894 ] final   97.18 input  -60.11 | X-H torsion
[ 7974 7965 7964 7962 ] final  153.72 input  175.53 | X-H torsion
[ 8008 7997 7996 7995 ] final   41.55 input   59.86 | X-H torsion
[ 10167 10162 10161 10158 ] final  -93.19 input  -65.29 | X-H torsion
[ 10718 10713 10712 10709 ] final -149.45 input   66.30 | X-H torsion
[ 10763 10752 10751 10750 ] final  -86.19 input  -60.55 | X-H torsion
[ 11005 11000 10999 10996 ] final  -71.23 input  -57.11 | X-H torsion

> <Gold.Protein.ActiveResidues>
 VAL166  LYS551  ARG553  GLY616  TRP617  ASP618  TYR619  PRO620  LYS621  CYS622 
 ASP623  PHE694  ASN695  SER759  ASP760  ASP761  ALA762  ILE779  LEU786  VAL792 
 PHE793  MET794  SER795  GLU796  ALA797  LYS798  CYS799  TRP800  GLU811  SER814 

> <Gold.Protein.RotatedAtoms>
  152.5426  134.0772  159.8219 H   0  0  0  0  0  0  0  0  0  0  0  0  # atno 6907 bound_to 6896
  151.0879  133.5331  159.2624 H   0  0  0  0  0  0  0  0  0  0  0  0  # atno 6908 bound_to 6896
  151.2134  135.0499  159.8974 H   0  0  0  0  0  0  0  0  0  0  0  0  # atno 6909 bound_to 6896
  144.8136  139.6837  143.6131 H   0  0  0  0  0  0  0  0  0  0  0  0  # atno 7974 bound_to 7965
  155.2714  140.3366  155.4265 H   0  0  0  0  0  0  0  0  0  0  0  0  # atno 8008 bound_to 7997
  156.2131  140.1778  156.7692 H   0  0  0  0  0  0  0  0  0  0  0  0  # atno 8009 bound_to 7997
  154.5714  140.0669  156.8954 H   0  0  0  0  0  0  0  0  0  0  0  0  # atno 8010 bound_to 7997
  140.3271  143.3016  151.9982 H   0  0  0  0  0  0  0  0  0  0  0  0  # atno 10167 bound_to 10162
  156.4333  130.8086  151.2314 H   0  0  0  0  0  0  0  0  0  0  0  0  # atno 10718 bound_to 10713
  154.6196  135.5458  153.7561 H   0  0  0  0  0  0  0  0  0  0  0  0  # atno 10763 bound_to 10752
  153.0232  135.6409  154.1460 H   0  0  0  0  0  0  0  0  0  0  0  0  # atno 10764 bound_to 10752
  154.1394  135.2909  155.3144 H   0  0  0  0  0  0  0  0  0  0  0  0  # atno 10765 bound_to 10752
  141.1588  133.6811  156.6874 H   0  0  0  0  0  0  0  0  0  0  0  0  # atno 11005 bound_to 11000
  146.2437  139.6054  142.9474 LP  0  0  0  0  0  0  0  0  0  0  0  0  # atno 17320 bound_to 7965
  145.5266  141.0429  143.2406 LP  0  0  0  0  0  0  0  0  0  0  0  0  # atno 17321 bound_to 7965
  139.4863  144.6265  151.7155 LP  0  0  0  0  0  0  0  0  0  0  0  0  # atno 17342 bound_to 10162
  140.5431  144.0547  150.6096 LP  0  0  0  0  0  0  0  0  0  0  0  0  # atno 17343 bound_to 10162
  157.7508  131.0191  150.3654 LP  0  0  0  0  0  0  0  0  0  0  0  0  # atno 17370 bound_to 10713
  156.3996  130.3913  149.6969 LP  0  0  0  0  0  0  0  0  0  0  0  0  # atno 17371 bound_to 10713
  140.3056  134.8128  157.4134 LP  0  0  0  0  0  0  0  0  0  0  0  0  # atno 17394 bound_to 11000
  140.1223  134.5203  155.8173 LP  0  0  0  0  0  0  0  0  0  0  0  0  # atno 17395 bound_to 11000

$$$$
