AV-unprocessed.smi:2061|AV-procd|sdf|8361|dock8
  -GOLD-   2272011 33D 1   1.00000     0.00000
 Structure written by MMmdl.
 45 46  0  0  0  0  0  0  0  0  1 V2000
  143.8777  132.7231  148.8055 C   0  0  0  0  0  0  0  0  0  0  0  0
  144.6845  132.8948  150.0467 C   0  0  0  0  0  0  0  0  0  0  0  0
  145.5341  133.8761  150.4746 C   0  0  0  0  0  0  0  0  0  0  0  0
  145.9520  133.4045  151.7473 C   0  0  0  0  0  0  0  0  0  0  0  0
  146.8553  134.1561  152.5415 N   0  0  0  0  0  0  0  0  0  0  0  0
  146.9530  134.1673  153.8819 C   0  0  0  0  0  0  0  0  0  0  0  0
  146.2703  133.4860  154.6470 O   0  0  0  0  0  0  0  0  0  0  0  0
  147.8952  135.0294  154.2922 N   0  0  0  0  0  0  0  0  0  0  0  0
  148.2531  135.2995  155.6832 C   0  0  0  0  0  0  0  0  0  0  0  0
  149.7599  135.6377  155.8686 C   0  0  1  0  0  0  0  0  0  0  0  0
  150.5986  134.3490  155.6691 C   0  0  0  0  0  0  0  0  0  0  0  0
  150.2171  136.7554  155.0090 N   0  0  0  0  0  0  0  0  0  0  0  0
  149.3902  137.9589  155.1509 C   0  0  0  0  0  0  0  0  0  0  0  0
  149.8765  139.1296  154.2752 C   0  0  1  0  0  0  0  0  0  0  0  0
  149.0516  140.4016  154.4984 C   0  0  0  0  0  0  0  0  0  0  0  0
  151.2319  139.4185  154.5918 O   0  0  0  0  0  0  0  0  0  0  0  0
  152.0903  138.3033  154.3906 C   0  0  1  0  0  0  0  0  0  0  0  0
  153.5220  138.7327  154.7276 C   0  0  0  0  0  0  0  0  0  0  0  0
  151.6107  137.1330  155.2696 C   0  0  0  0  0  0  0  0  0  0  0  0
  145.4084  132.2400  152.0667 N   0  0  0  0  0  0  0  0  0  0  0  0
  144.5930  131.9076  150.9786 O   0  0  0  0  0  0  0  0  0  0  0  0
  144.3765  133.1812  147.9515 H   0  0  0  0  0  0  0  0  0  0  0  0
  142.8982  133.1883  148.9162 H   0  0  0  0  0  0  0  0  0  0  0  0
  143.7273  131.6669  148.5805 H   0  0  0  0  0  0  0  0  0  0  0  0
  145.8079  134.7846  149.9589 H   0  0  0  0  0  0  0  0  0  0  0  0
  147.4841  134.7618  152.0355 H   0  0  0  0  0  0  0  0  0  0  0  0
  148.4023  135.5459  153.5891 H   0  0  0  0  0  0  0  0  0  0  0  0
  147.6368  136.0924  156.1105 H   0  0  0  0  0  0  0  0  0  0  0  0
  147.9861  134.3869  156.2123 H   0  0  0  0  0  0  0  0  0  0  0  0
  149.8900  135.9412  156.9086 H   0  0  0  0  0  0  0  0  0  0  0  0
  150.2446  133.5234  156.2847 H   0  0  0  0  0  0  0  0  0  0  0  0
  151.6405  134.4810  155.9560 H   0  0  0  0  0  0  0  0  0  0  0  0
  150.5725  134.0182  154.6304 H   0  0  0  0  0  0  0  0  0  0  0  0
  148.3624  137.7543  154.8580 H   0  0  0  0  0  0  0  0  0  0  0  0
  149.3680  138.2688  156.1968 H   0  0  0  0  0  0  0  0  0  0  0  0
  149.8097  138.8505  153.2221 H   0  0  0  0  0  0  0  0  0  0  0  0
  148.0014  140.2363  154.2564 H   0  0  0  0  0  0  0  0  0  0  0  0
  149.4135  141.2154  153.8695 H   0  0  0  0  0  0  0  0  0  0  0  0
  149.1091  140.7317  155.5359 H   0  0  0  0  0  0  0  0  0  0  0  0
  152.0521  138.0100  153.3401 H   0  0  0  0  0  0  0  0  0  0  0  0
  154.2237  137.9124  154.5752 H   0  0  0  0  0  0  0  0  0  0  0  0
  153.6036  139.0557  155.7658 H   0  0  0  0  0  0  0  0  0  0  0  0
  153.8381  139.5622  154.0949 H   0  0  0  0  0  0  0  0  0  0  0  0
  151.7307  137.3934  156.3226 H   0  0  0  0  0  0  0  0  0  0  0  0
  152.2774  136.2957  155.0725 H   0  0  0  0  0  0  0  0  0  0  0  0
  1  2  1  0  0  0  0
  1 22  1  0  0  0  0
  1 23  1  0  0  0  0
  1 24  1  0  0  0  0
  2 21  1  0  0  0  0
  2  3  2  0  0  0  0
  3  4  1  0  0  0  0
  3 25  1  0  0  0  0
  4  5  1  0  0  0  0
  4 20  2  0  0  0  0
  5  6  1  0  0  0  0
  5 26  1  0  0  0  0
  6  7  2  0  0  0  0
  6  8  1  0  0  0  0
  8  9  1  0  0  0  0
  8 27  1  0  0  0  0
  9 10  1  0  0  0  0
  9 28  1  0  0  0  0
  9 29  1  0  0  0  0
 10 11  1  0  0  0  0
 10 12  1  0  0  0  0
 10 30  1  0  0  0  0
 11 31  1  0  0  0  0
 11 32  1  0  0  0  0
 11 33  1  0  0  0  0
 12 19  1  0  0  0  0
 12 13  1  0  0  0  0
 13 14  1  0  0  0  0
 13 34  1  0  0  0  0
 13 35  1  0  0  0  0
 14 15  1  0  0  0  0
 14 16  1  0  0  0  0
 14 36  1  0  0  0  0
 15 37  1  0  0  0  0
 15 38  1  0  0  0  0
 15 39  1  0  0  0  0
 16 17  1  0  0  0  0
 17 18  1  0  0  0  0
 17 19  1  0  0  0  0
 17 40  1  0  0  0  0
 18 41  1  0  0  0  0
 18 42  1  0  0  0  0
 18 43  1  0  0  0  0
 19 44  1  0  0  0  0
 19 45  1  0  0  0  0
 20 21  1  0  0  0  0
M  END
> <s_m_source_file>
AV-unprocessed.smi

> <i_m_source_file_index>
2061

> <i_lp_mmshare_version>
43012

> <i_f3d_flags>
0

> <s_epik_input>
W0NIM11jMVtjSF1jKG5vMSlbTkhdQyg9TylbTkhdW0NIMl1bQ0BIXShbQ0gzXSlOMltDSDJdW0NAQEhdKFtDSDNdKU9bQ0BASF0oW0NIM10pW0NIMl0y

> <s_epik_cmdline>
J2VwaWtfcHl0aG9uJywgJy1waCcsICc3LjAnLCAnLXRuJywgJzgnLCAnLW1hJywgJzIwMCcsICctbWV0YWxfYmluZGluZycsICctaW1hZScsICc8aW5maWxlLm1hZT4nLCAnLW9tYWUnLCAnPG91dGZpbGUubWFlPic=

> <r_epik_Ionization_Penalty>
0.214073

> <r_epik_Ionization_Penalty_Charging>
0

> <r_epik_Ionization_Penalty_Neutral>
0.214073

> <r_epik_State_Penalty>
0.204211

> <r_epik_Charging_Adjusted_Penalty>
0.204211

> <i_epik_Tot_Q>
0

> <i_epik_Tot_abs_Q>
0

> <r_epik_Metal_State_Penalty>
0.217067

> <b_epik_Metal_Only>
0

> <s_lp_Force_Field>
OPLS_2005

> <r_lp_Energy>
26.0702

> <b_lp_Chiralities_Consistent>
1

> <s_lp_Variant>
AV-unprocessed.smi:2061-2

> <Gold.Version>
5.8.1

> <Gold.Id.Protein>
6NUR|6NUR_protein|mol2

> <Gold.PLP.Fitness>
39.5594

> <Gold.PLP.PLP>
-31.3471

> <Gold.PLP.part.hbond>
-3.0000

> <Gold.PLP.part.metal>
0.0000

> <Gold.PLP.part.buried>
-3.1256

> <Gold.PLP.part.nonpolar>
-25.8154

> <Gold.PLP.part.repulsive>
0.5844

> <Gold.PLP.ligand.clash>
0.0000

> <Gold.PLP.ligand.torsion>
0.4110

> <Gold.PLP.Chemscore.Hbond>
3.0000

> <Gold.PLP.Chemscore.CHOScore>
0.0000

> <Gold.PLP.Chemscore.Metal>
0.0000

> <Gold.Chemscore.Hbonds>
donor molecule, donor type, donor heavy atom, donor atom, acceptor molecule, acceptor atom, score
      L1  H     5    26       P1  7948  0.98
      L1  H     8    27       P1  7948  1.00
      P1  H  7989  7998       L1    16  1.00

> <Gold.PLP.Chemscore.Internal.Correction>
0.0343

> <Gold.Rescore>
     Score         DG    S(hbond)    S(metal)    S(lipo)     H(rot)  DE(clash)    DE(int)     intcor
     16.90     -18.62       2.28        0.00      81.12       1.55       0.24       1.49       ----

> <Gold.Chemscore.Fitness>
16.8985

> <Gold.Chemscore.DG>
-18.6198

> <Gold.Chemscore.ZeroCoef>
-5.4800

> <Gold.Chemscore.Hbond>
2.2783

> <Gold.Chemscore.Metal>
0.0000

> <Gold.Chemscore.Lipo>
81.1247

> <Gold.Chemscore.Internal_Hbond>
0.0000

> <Gold.Chemscore.DEClash>
0.2358

> <Gold.Chemscore.DEInternal>
1.4855

> <Gold.Chemscore.Rot>
1.5474

> <Gold.Chemscore.Internal.Correction>
   9.000000E+99

> <Gold.Chemscore.Hbonds>
donor molecule, donor type, donor heavy atom, donor atom, acceptor molecule, acceptor atom, score
      L1  H     5    26       P1  7948  0.70
      L1  H     8    27       P1  7948  0.99
      P1  H  7989  7998       L1    16  0.38

> <Gold.Chemscore.Hbond.Weighted>
-7.6095

> <Gold.Chemscore.Metal.Weighted>
-0.0000

> <Gold.Chemscore.Lipo.Weighted>
-9.4916

> <Gold.Chemscore.Internal_Hbond.Weighted>
0.0000

> <Gold.Chemscore.DEClash.Weighted>
0.2358

> <Gold.Chemscore.DEInternal.Weighted>
1.4855

> <Gold.Chemscore.Rot.Weighted>
3.9612

> <Gold.Chemscore.Internal.Correction.Weighted>
   9.000000E+99

> <Gold.Protein.RotatedTorsions>
[ 6907 6896 6895 6894 ] final  162.74 input  -60.11 | X-H torsion
[ 7974 7965 7964 7962 ] final -148.65 input  175.53 | X-H torsion
[ 8008 7997 7996 7995 ] final   58.96 input   59.86 | X-H torsion
[ 10167 10162 10161 10158 ] final   21.83 input  -65.29 | X-H torsion
[ 10718 10713 10712 10709 ] final  -18.96 input   66.30 | X-H torsion
[ 10763 10752 10751 10750 ] final  116.82 input  -60.55 | X-H torsion
[ 11005 11000 10999 10996 ] final  -71.55 input  -57.11 | X-H torsion

> <Gold.Protein.ActiveResidues>
 VAL166  LYS551  ARG553  GLY616  TRP617  ASP618  TYR619  PRO620  LYS621  CYS622 
 ASP623  PHE694  ASN695  SER759  ASP760  ASP761  ALA762  ILE779  LEU786  VAL792 
 PHE793  MET794  SER795  GLU796  ALA797  LYS798  CYS799  TRP800  GLU811  SER814 

> <Gold.Protein.RotatedAtoms>
  151.9359  133.3624  159.3947 H   0  0  0  0  0  0  0  0  0  0  0  0  # atno 6907 bound_to 6896
  150.7008  134.4490  159.5336 H   0  0  0  0  0  0  0  0  0  0  0  0  # atno 6908 bound_to 6896
  152.2138  134.8477  160.0545 H   0  0  0  0  0  0  0  0  0  0  0  0  # atno 6909 bound_to 6896
  144.8016  140.5169  143.5703 H   0  0  0  0  0  0  0  0  0  0  0  0  # atno 7974 bound_to 7965
  155.5585  140.3488  155.4485 H   0  0  0  0  0  0  0  0  0  0  0  0  # atno 8008 bound_to 7997
  156.0532  140.1322  157.0052 H   0  0  0  0  0  0  0  0  0  0  0  0  # atno 8009 bound_to 7997
  154.4444  140.1000  156.6391 H   0  0  0  0  0  0  0  0  0  0  0  0  # atno 8010 bound_to 7997
  140.5396  143.9701  150.6511 H   0  0  0  0  0  0  0  0  0  0  0  0  # atno 10167 bound_to 10162
  156.5523  130.4704  149.6446 H   0  0  0  0  0  0  0  0  0  0  0  0  # atno 10718 bound_to 10713
  153.5431  135.3555  155.2727 H   0  0  0  0  0  0  0  0  0  0  0  0  # atno 10763 bound_to 10752
  154.8715  135.4096  154.3021 H   0  0  0  0  0  0  0  0  0  0  0  0  # atno 10764 bound_to 10752
  153.3733  135.7065  153.6689 H   0  0  0  0  0  0  0  0  0  0  0  0  # atno 10765 bound_to 10752
  141.1594  133.6821  156.6923 H   0  0  0  0  0  0  0  0  0  0  0  0  # atno 11005 bound_to 11000
  145.5538  139.1477  143.3379 LP  0  0  0  0  0  0  0  0  0  0  0  0  # atno 17320 bound_to 7965
  146.2299  140.5676  142.8980 LP  0  0  0  0  0  0  0  0  0  0  0  0  # atno 17321 bound_to 7965
  140.3098  143.3206  152.0890 LP  0  0  0  0  0  0  0  0  0  0  0  0  # atno 17342 bound_to 10162
  139.4983  144.6644  151.6391 LP  0  0  0  0  0  0  0  0  0  0  0  0  # atno 17343 bound_to 10162
  156.2874  130.7105  151.1945 LP  0  0  0  0  0  0  0  0  0  0  0  0  # atno 17370 bound_to 10713
  157.7385  131.0540  150.5290 LP  0  0  0  0  0  0  0  0  0  0  0  0  # atno 17371 bound_to 10713
  140.3021  134.8155  157.4106 LP  0  0  0  0  0  0  0  0  0  0  0  0  # atno 17394 bound_to 11000
  140.1253  134.5166  155.8150 LP  0  0  0  0  0  0  0  0  0  0  0  0  # atno 17395 bound_to 11000

$$$$
