#       Name:                AV-unprocessed.smi:284
#       Creating user name   scv26
#       Creation time:       Thu Mar 26 21:52:04 2020


#       File generated by GOLD software.
#

@<TRIPOS>MOLECULE
AV-unprocessed.smi:284
    72    74     1
SMALL
NO_CHARGES


@<TRIPOS>ATOM
      1 ****        -1.3010   5.1677   1.6877 C.3            1 S1                 0.0000
      2 ****        -0.6276   3.8122   1.8327 C.2            1 S1                 0.0000
      3 ****         0.6843   3.6897   2.1390 C.2            1 S1                 0.0000
      4 ****         1.3267   2.4742   2.2755 N.am           1 S1                 0.0000
      5 ****         2.7971   2.4166   2.6115 C.3            1 S1                 0.0000
      6 ****         3.0400   2.6874   4.0929 C.3            1 S1                 0.0000
      7 ****         4.4709   3.1812   4.0442 C.3            1 S1                 0.0000
      8 ****         4.8172   3.9417   5.1849 O.3            1 S1                 0.0000
      9 ****         4.5265   3.9364   2.6998 C.3            1 S1                 0.0000
     10 ****         4.4092   5.4763   2.7249 C.3            1 S1                 0.0000
     11 ****         3.3221   5.9308   3.5051 O.3            1 S1                 0.0000
     12 ****         3.4673   3.4110   1.8981 O.3            1 S1                 0.0000
     13 ****         0.6009   1.2772   2.1132 C.2            1 S1                 0.0000
     14 ****         1.1475   0.1797   2.2459 O.2            1 S1                 0.0000
     15 ****        -0.7738   1.3698   1.7985 N.am           1 S1                 0.0000
     16 ****        -1.5385   0.1171   1.6074 C.3            1 S1                 0.0000
     17 ****        -1.4745  -0.4296   0.1724 C.2            1 S1                 0.0000
     18 ****        -1.1124   0.2956  -0.7544 O.2            1 S1                 0.0000
     19 ****        -1.8705  -1.7083   0.0343 N.am           1 S1                 0.0000
     20 ****        -1.9289  -2.5117  -1.1375 C.ar           1 S1                 0.0000
     21 ****        -1.2066  -2.2394  -2.3225 C.ar           1 S1                 0.0000
     22 ****        -1.3103  -3.0978  -3.4344 C.ar           1 S1                 0.0000
     23 ****        -2.1287  -4.2534  -3.3902 C.ar           1 S1                 0.0000
     24 ****        -2.2639  -5.2166  -4.5852 C.3            1 S1                 0.0000
     25 ****        -1.7205  -6.6047  -4.1895 C.3            1 S1                 0.0000
     26 ****        -1.4835  -4.7436  -5.8323 C.3            1 S1                 0.0000
     27 ****        -3.7484  -5.3460  -4.9881 C.3            1 S1                 0.0000
     28 ****        -2.8318  -4.5246  -2.1934 C.ar           1 S1                 0.0000
     29 ****        -2.7315  -3.6673  -1.0820 C.ar           1 S1                 0.0000
     30 ****        -1.4401   2.6095   1.6344 C.2            1 S1                 0.0000
     31 ****        -2.6359   2.6458   1.3373 O.2            1 S1                 0.0000
     32 ****        -0.5990   5.9879   1.8410 H              1 S1                 0.0000
     33 ****        -2.1039   5.2743   2.4180 H              1 S1                 0.0000
     34 ****        -1.7278   5.2770   0.6901 H              1 S1                 0.0000
     35 ****         1.2597   4.5915   2.2856 H              1 S1                 0.0000
     36 ****         3.1863   1.4517   2.2841 H              1 S1                 0.0000
     37 ****         2.3627   3.4681   4.4424 H              1 S1                 0.0000
     38 ****         2.8969   1.7879   4.6922 H              1 S1                 0.0000
     39 ****         5.1359   2.3177   3.9938 H              1 S1                 0.0000
     40 ****         5.7115   4.2330   5.0932 H              1 S1                 0.0000
     41 ****         5.4644   3.6869   2.2021 H              1 S1                 0.0000
     42 ****         5.3203   5.9072   3.1407 H              1 S1                 0.0000
     43 ****         4.3116   5.8660   1.7115 H              1 S1                 0.0000
     44 ****         3.3131   6.8754   3.4871 H              1 S1                 0.0000
     45 ****        -1.1886  -0.6540   2.2962 H              1 S1                 0.0000
     46 ****        -2.5882   0.2472   1.8743 H              1 S1                 0.0000
     47 ****        -2.2196  -2.1486   0.8731 H              1 S1                 0.0000
     48 ****        -0.5533  -1.3851  -2.4035 H              1 S1                 0.0000
     49 ****        -0.7402  -2.8422  -4.3135 H              1 S1                 0.0000
     50 ****        -1.7912  -7.3094  -5.0187 H              1 S1                 0.0000
     51 ****        -2.2710  -7.0372  -3.3540 H              1 S1                 0.0000
     52 ****        -0.6714  -6.5484  -3.8969 H              1 S1                 0.0000
     53 ****        -0.4122  -4.6779  -5.6386 H              1 S1                 0.0000
     54 ****        -1.8273  -3.7672  -6.1763 H              1 S1                 0.0000
     55 ****        -1.6116  -5.4376  -6.6639 H              1 S1                 0.0000
     56 ****        -3.8691  -6.0018  -5.8511 H              1 S1                 0.0000
     57 ****        -4.1706  -4.3760  -5.2532 H              1 S1                 0.0000
     58 ****        -4.3593  -5.7625  -4.1875 H              1 S1                 0.0000
     59 ****        -3.4580  -5.4005  -2.1145 H              1 S1                 0.0000
     60 ****        -3.2807  -3.9023  -0.1820 H              1 S1                 0.0000
     61 ****         4.7293   3.3771   6.0055 LP             1 S1                 0.0000
     62 ****         4.2109   4.7335   5.2586 LP             1 S1                 0.0000
     63 ****         3.4271   5.6126   4.4473 LP             1 S1                 0.0000
     64 ****         2.4657   5.5783   3.1277 LP             1 S1                 0.0000
     65 ****         2.8281   4.1445   1.6670 LP             1 S1                 0.0000
     66 ****         3.8457   3.0219   1.0582 LP             1 S1                 0.0000
     67 ****         2.1203   0.1297   2.4721 LP             1 S1                 0.0000
     68 ****         0.6179  -0.6602   2.1273 LP             1 S1                 0.0000
     69 ****        -0.8579   1.2460  -0.5756 LP             1 S1                 0.0000
     70 ****        -1.0728  -0.0658  -1.6860 LP             1 S1                 0.0000
     71 ****        -3.0956   3.5262   1.2205 LP             1 S1                 0.0000
     72 ****        -3.1463   1.7949   1.2130 LP             1 S1                 0.0000
@<TRIPOS>BOND
    1    1    2 1     
    2    1   32 1     
    3    1   33 1     
    4    1   34 1     
    5    2   30 1     
    6    2    3 2     
    7    3    4 1     
    8    3   35 1     
    9    4    5 1     
   10    4   13 am    
   11    5   12 1     
   12    5    6 1     
   13    5   36 1     
   14    6    7 1     
   15    6   37 1     
   16    6   38 1     
   17    7    8 1     
   18    7    9 1     
   19    7   39 1     
   20    8   40 1     
   21    9   10 1     
   22    9   12 1     
   23    9   41 1     
   24   10   11 1     
   25   10   42 1     
   26   10   43 1     
   27   11   44 1     
   28   13   14 2     
   29   13   15 am    
   30   15   16 1     
   31   15   30 am    
   32   16   17 1     
   33   16   45 1     
   34   16   46 1     
   35   17   18 2     
   36   17   19 am    
   37   19   20 1     
   38   19   47 1     
   39   20   29 ar    
   40   20   21 ar    
   41   21   22 ar    
   42   21   48 1     
   43   22   23 ar    
   44   22   49 1     
   45   23   24 1     
   46   23   28 ar    
   47   24   25 1     
   48   24   26 1     
   49   24   27 1     
   50   25   50 1     
   51   25   51 1     
   52   25   52 1     
   53   26   53 1     
   54   26   54 1     
   55   26   55 1     
   56   27   56 1     
   57   27   57 1     
   58   27   58 1     
   59   28   29 ar    
   60   28   59 1     
   61   29   60 1     
   62   30   31 2     
   63    8   61 1     
   64    8   62 1     
   65   11   63 1     
   66   11   64 1     
   67   12   65 1     
   68   12   66 1     
   69   14   67 1     
   70   14   68 1     
   71   18   69 1     
   72   18   70 1     
   73   31   71 1     
   74   31   72 1     
@<TRIPOS>SUBSTRUCTURE
      1 S1             1
@<TRIPOS>SET
LONE_PAIRS      STATIC     ATOMS    <user>   **** ""
12 61 62 63 64 65 66 67 68 69 70 71 72
DONOR_HYDROGENS      STATIC     ATOMS    <user>   **** ""
3 40 44 47
ATOM$BLUE        STATIC     ATOMS    COLORGROUP SYSTEM
12 61 62 63 64 65 66 67 68 69 70 71 72
ATOM$RED        STATIC     ATOMS    COLORGROUP SYSTEM
3 40 44 47
