#       Name:                AV-unprocessed.smi:610
#       Creating user name   scv26
#       Creation time:       Thu Mar 26 23:58:35 2020


#       File generated by GOLD software.
#

@<TRIPOS>MOLECULE
AV-unprocessed.smi:610
    41    42     1
SMALL
NO_CHARGES


@<TRIPOS>ATOM
      1 ****        -2.6920  -0.9897  -1.6765 C.3            1 S1                 0.0000
      2 ****        -2.1725  -0.3382  -0.3852 C.3            1 S1                 0.0000
      3 ****        -2.8673  -0.9216   0.8598 C.3            1 S1                 0.0000
      4 ****        -2.4680  -0.2445   2.0799 N.pl3          1 S1                 0.0000
      5 ****        -2.8812   1.0070   2.5172 C.2            1 S1                 0.0000
      6 ****        -2.2403   1.2363   3.7137 C.2            1 S1                 0.0000
      7 ****        -1.4353   0.1449   4.0314 N.2            1 S1                 0.0000
      8 ****        -1.6238  -0.6923   3.0197 C.2            1 S1                 0.0000
      9 ****        -0.7264  -0.5160  -0.2772 N.am           1 S1                 0.0000
     10 ****         0.2080   0.2598  -0.8537 C.2            1 S1                 0.0000
     11 ****        -0.0837   1.1985  -1.5961 O.2            1 S1                 0.0000
     12 ****         1.6961  -0.0614  -0.5632 C.3            1 S1                 0.0000
     13 ****         1.8428  -0.9451   0.5867 N.3            1 S1                 0.0000
     14 ****         2.3739  -0.7103  -1.7994 C.3            1 S1                 0.0000
     15 ****         3.5359   0.2034  -2.2071 C.3            1 S1                 0.0000
     16 ****         3.1969   1.5674  -1.6164 C.3            1 S1                 0.0000
     17 ****         2.5100   1.2283  -0.2943 C.3            1 S1                 0.0000
     18 ****        -3.7684  -0.8500  -1.7784 H              1 S1                 0.0000
     19 ****        -2.4924  -2.0618  -1.6887 H              1 S1                 0.0000
     20 ****        -2.2216  -0.5526  -2.5580 H              1 S1                 0.0000
     21 ****        -2.3976   0.7292  -0.4286 H              1 S1                 0.0000
     22 ****        -3.9499  -0.8303   0.7646 H              1 S1                 0.0000
     23 ****        -2.6503  -1.9864   0.9590 H              1 S1                 0.0000
     24 ****        -3.5739   1.6151   1.9543 H              1 S1                 0.0000
     25 ****        -2.2960   2.0959   4.3652 H              1 S1                 0.0000
     26 ****        -1.1314  -1.6519   2.9586 H              1 S1                 0.0000
     27 ****        -0.4013  -1.2720   0.3084 H              1 S1                 0.0000
     28 ****         2.8178  -1.1836   0.6976 H              1 S1                 0.0000
     29 ****         1.5790  -0.4440   1.4230 H              1 S1                 0.0000
     30 ****         2.7337  -1.7221  -1.6051 H              1 S1                 0.0000
     31 ****         1.6780  -0.7948  -2.6363 H              1 S1                 0.0000
     32 ****         4.4612  -0.1640  -1.7612 H              1 S1                 0.0000
     33 ****         3.6811   0.2395  -3.2872 H              1 S1                 0.0000
     34 ****         4.0758   2.1987  -1.4836 H              1 S1                 0.0000
     35 ****         2.5034   2.0940  -2.2733 H              1 S1                 0.0000
     36 ****         1.9015   2.0592   0.0668 H              1 S1                 0.0000
     37 ****         3.2777   1.0556   0.4622 H              1 S1                 0.0000
     38 ****        -0.8519   0.0213   4.8342 LP             1 S1                 0.0000
     39 ****        -1.0432   1.4050  -1.7876 LP             1 S1                 0.0000
     40 ****         0.6390   1.7540  -2.0072 LP             1 S1                 0.0000
     41 ****         1.2767  -1.7575   0.4470 LP             1 S1                 0.0000
@<TRIPOS>BOND
    1    1    2 1     
    2    1   18 1     
    3    1   19 1     
    4    1   20 1     
    5    2    3 1     
    6    2    9 1     
    7    2   21 1     
    8    3    4 1     
    9    3   22 1     
   10    3   23 1     
   11    4    8 1     
   12    4    5 1     
   13    5    6 2     
   14    5   24 1     
   15    6    7 1     
   16    6   25 1     
   17    7    8 2     
   18    8   26 1     
   19    9   10 am    
   20    9   27 1     
   21   10   11 2     
   22   10   12 1     
   23   12   17 1     
   24   12   13 1     
   25   12   14 1     
   26   13   28 1     
   27   13   29 1     
   28   14   15 1     
   29   14   30 1     
   30   14   31 1     
   31   15   16 1     
   32   15   32 1     
   33   15   33 1     
   34   16   17 1     
   35   16   34 1     
   36   16   35 1     
   37   17   36 1     
   38   17   37 1     
   39    7   38 1     
   40   11   39 1     
   41   11   40 1     
   42   13   41 1     
@<TRIPOS>SUBSTRUCTURE
      1 S1             1
@<TRIPOS>SET
LONE_PAIRS      STATIC     ATOMS    <user>   **** ""
4 38 39 40 41
DONOR_HYDROGENS      STATIC     ATOMS    <user>   **** ""
3 27 28 29
ATOM$BLUE        STATIC     ATOMS    COLORGROUP SYSTEM
4 38 39 40 41
ATOM$RED        STATIC     ATOMS    COLORGROUP SYSTEM
3 27 28 29
