AV-unprocessed.smi:497|AV-procd|sdf|2724|dock4
  -GOLD-   2262023173D 1   1.00000     0.00000
 Structure written by MMmdl.
 39 41  0  0  0  0  0  0  0  0  1 V2000
  148.2159  141.4949  154.0992 C   0  0  0  0  0  0  0  0  0  0  0  0
  147.8347  141.5741  155.4614 O   0  0  0  0  0  0  0  0  0  0  0  0
  148.5206  140.6346  156.2707 C   0  0  0  0  0  0  0  0  0  0  0  0
  150.0304  140.8428  156.1005 C   0  0  0  0  0  0  0  0  0  0  0  0
  150.7204  140.8310  157.3811 N   0  0  0  0  0  0  0  0  0  0  0  0
  150.9227  139.7812  158.2177 C   0  0  0  0  0  0  0  0  0  0  0  0
  150.4070  138.4046  157.8760 C   0  0  0  0  0  0  0  0  0  0  0  0
  149.6302  137.8385  158.9769 N   0  0  0  0  0  0  0  0  0  0  0  0
  149.2765  136.5483  159.0901 C   0  0  0  0  0  0  0  0  0  0  0  0
  149.5953  135.6833  158.2745 O   0  0  0  0  0  0  0  0  0  0  0  0
  148.4540  136.2080  160.2661 C   0  0  0  0  0  0  0  0  0  0  0  0
  147.9628  135.0019  160.6887 C   0  0  0  0  0  0  0  0  0  0  0  0
  147.2307  135.2554  161.8815 C   0  0  0  0  0  0  0  0  0  0  0  0
  147.3273  136.5991  162.1032 C   0  0  0  0  0  0  0  0  0  0  0  0
  148.0687  137.1942  161.1296 O   0  0  0  0  0  0  0  0  0  0  0  0
  151.6149  140.0603  159.3270 N   0  0  0  0  0  0  0  0  0  0  0  0
  151.8741  141.4099  159.1999 C   0  0  0  0  0  0  0  0  0  0  0  0
  152.5689  142.2961  160.0537 C   0  0  0  0  0  0  0  0  0  0  0  0
  152.7154  143.6549  159.7051 C   0  0  0  0  0  0  0  0  0  0  0  0
  152.1711  144.1452  158.5003 C   0  0  0  0  0  0  0  0  0  0  0  0
  151.4752  143.2783  157.6357 C   0  0  0  0  0  0  0  0  0  0  0  0
  151.3301  141.9234  157.9898 C   0  0  0  0  0  0  0  0  0  0  0  0
  147.6638  142.2353  153.5203 H   0  0  0  0  0  0  0  0  0  0  0  0
  147.9952  140.5104  153.6843 H   0  0  0  0  0  0  0  0  0  0  0  0
  149.2809  141.6962  153.9753 H   0  0  0  0  0  0  0  0  0  0  0  0
  148.2357  140.7651  157.3158 H   0  0  0  0  0  0  0  0  0  0  0  0
  148.2462  139.6198  155.9779 H   0  0  0  0  0  0  0  0  0  0  0  0
  150.4470  140.0533  155.4742 H   0  0  0  0  0  0  0  0  0  0  0  0
  150.2333  141.7790  155.5817 H   0  0  0  0  0  0  0  0  0  0  0  0
  149.8011  138.4455  156.9700 H   0  0  0  0  0  0  0  0  0  0  0  0
  151.2530  137.7486  157.6716 H   0  0  0  0  0  0  0  0  0  0  0  0
  149.3138  138.4790  159.6903 H   0  0  0  0  0  0  0  0  0  0  0  0
  148.1115  134.0518  160.1968 H   0  0  0  0  0  0  0  0  0  0  0  0
  146.7008  134.5450  162.4984 H   0  0  0  0  0  0  0  0  0  0  0  0
  146.9488  137.2628  162.8667 H   0  0  0  0  0  0  0  0  0  0  0  0
  152.9906  141.9291  160.9777 H   0  0  0  0  0  0  0  0  0  0  0  0
  153.2493  144.3234  160.3646 H   0  0  0  0  0  0  0  0  0  0  0  0
  152.2884  145.1869  158.2399 H   0  0  0  0  0  0  0  0  0  0  0  0
  151.0588  143.6508  156.7116 H   0  0  0  0  0  0  0  0  0  0  0  0
  1  2  1  0  0  0  0
  1 23  1  0  0  0  0
  1 24  1  0  0  0  0
  1 25  1  0  0  0  0
  2  3  1  0  0  0  0
  3  4  1  0  0  0  0
  3 26  1  0  0  0  0
  3 27  1  0  0  0  0
  4  5  1  0  0  0  0
  4 28  1  0  0  0  0
  4 29  1  0  0  0  0
  5 22  1  0  0  0  0
  5  6  1  0  0  0  0
  6  7  1  0  0  0  0
  6 16  2  0  0  0  0
  7  8  1  0  0  0  0
  7 30  1  0  0  0  0
  7 31  1  0  0  0  0
  8  9  1  0  0  0  0
  8 32  1  0  0  0  0
  9 10  2  0  0  0  0
  9 11  1  0  0  0  0
 11 15  1  0  0  0  0
 11 12  2  0  0  0  0
 12 13  1  0  0  0  0
 12 33  1  0  0  0  0
 13 14  2  0  0  0  0
 13 34  1  0  0  0  0
 14 15  1  0  0  0  0
 14 35  1  0  0  0  0
 16 17  1  0  0  0  0
 17 22  2  0  0  0  0
 17 18  1  0  0  0  0
 18 19  2  0  0  0  0
 18 36  1  0  0  0  0
 19 20  1  0  0  0  0
 19 37  1  0  0  0  0
 20 21  2  0  0  0  0
 20 38  1  0  0  0  0
 21 22  1  0  0  0  0
 21 39  1  0  0  0  0
M  END
> <s_m_source_file>
AV-unprocessed.smi

> <i_m_source_file_index>
497

> <i_lp_mmshare_version>
43012

> <i_f3d_flags>
0

> <s_epik_input>
W2NIXTFbY0hdW2NIXVtjSF1jKGMxMiluKFtDSDJdW0NIMl1PW0NIM10pYyhuMilbQ0gyXVtOSF1DKD1PKWMzW2NIXVtjSF1bY0hdbzM=

> <s_epik_cmdline>
J2VwaWtfcHl0aG9uJywgJy1waCcsICc3LjAnLCAnLXRuJywgJzgnLCAnLW1hJywgJzIwMCcsICctbWV0YWxfYmluZGluZycsICctaW1hZScsICc8aW5maWxlLm1hZT4nLCAnLW9tYWUnLCAnPG91dGZpbGUubWFlPic=

> <r_epik_Ionization_Penalty>
0.0745911

> <r_epik_Ionization_Penalty_Charging>
0

> <r_epik_Ionization_Penalty_Neutral>
0.0745911

> <r_epik_State_Penalty>
0.0656752

> <r_epik_Charging_Adjusted_Penalty>
0.0656752

> <i_epik_Tot_Q>
0

> <i_epik_Tot_abs_Q>
0

> <r_epik_Metal_State_Penalty>
0.069874

> <b_epik_Metal_Only>
0

> <s_lp_Force_Field>
OPLS_2005

> <r_lp_Energy>
10.4941

> <b_lp_Chiralities_Consistent>
1

> <s_lp_Variant>
AV-unprocessed.smi:497-1

> <Gold.Version>
5.8.1

> <Gold.Id.Protein>
6NUR|6NUR_protein|mol2

> <Gold.PLP.Fitness>
50.7167

> <Gold.PLP.PLP>
-43.7066

> <Gold.PLP.part.hbond>
-3.0000

> <Gold.PLP.part.metal>
0.0000

> <Gold.PLP.part.buried>
-5.4544

> <Gold.PLP.part.nonpolar>
-36.9678

> <Gold.PLP.part.repulsive>
0.3263

> <Gold.PLP.ligand.clash>
0.0000

> <Gold.PLP.ligand.torsion>
0.5584

> <Gold.PLP.Chemscore.Hbond>
2.6880

> <Gold.PLP.Chemscore.CHOScore>
0.0000

> <Gold.PLP.Chemscore.Metal>
0.0000

> <Gold.Chemscore.Hbonds>
donor molecule, donor type, donor heavy atom, donor atom, acceptor molecule, acceptor atom, score
      P1  H  6896  6908       L1    10  1.00
      P1  H  6931  6943       L1    15  1.00
      P1  H  6934  6947       L1    15  0.68

> <Gold.PLP.Chemscore.Internal.Correction>
0.0629

> <Gold.Rescore>
     Score         DG    S(hbond)    S(metal)    S(lipo)     H(rot)  DE(clash)    DE(int)     intcor
     19.99     -21.02       2.15        0.00     113.04       1.90       0.48       0.55       ----

> <Gold.Chemscore.Fitness>
19.9914

> <Gold.Chemscore.DG>
-21.0196

> <Gold.Chemscore.ZeroCoef>
-5.4800

> <Gold.Chemscore.Hbond>
2.1520

> <Gold.Chemscore.Metal>
0.0000

> <Gold.Chemscore.Lipo>
113.0431

> <Gold.Chemscore.Internal_Hbond>
0.0000

> <Gold.Chemscore.DEClash>
0.4819

> <Gold.Chemscore.DEInternal>
0.5462

> <Gold.Chemscore.Rot>
1.9039

> <Gold.Chemscore.Internal.Correction>
   9.000000E+99

> <Gold.Chemscore.Hbonds>
donor molecule, donor type, donor heavy atom, donor atom, acceptor molecule, acceptor atom, score
      P1  H  6896  6908       L1    10  0.23
      P1  H  6931  6943       L1    15  0.52
      P1  H  6934  6947       L1    15  0.25

> <Gold.Chemscore.Hbond.Weighted>
-7.1876

> <Gold.Chemscore.Metal.Weighted>
-0.0000

> <Gold.Chemscore.Lipo.Weighted>
-13.2260

> <Gold.Chemscore.Internal_Hbond.Weighted>
0.0000

> <Gold.Chemscore.DEClash.Weighted>
0.4819

> <Gold.Chemscore.DEInternal.Weighted>
0.5462

> <Gold.Chemscore.Rot.Weighted>
4.8740

> <Gold.Chemscore.Internal.Correction.Weighted>
   9.000000E+99

> <Gold.Protein.RotatedTorsions>
[ 6907 6896 6895 6894 ] final  158.75 input  -60.11 | X-H torsion
[ 7974 7965 7964 7962 ] final -170.44 input  175.53 | X-H torsion
[ 8008 7997 7996 7995 ] final  118.02 input   59.86 | X-H torsion
[ 10167 10162 10161 10158 ] final   -4.05 input  -65.29 | X-H torsion
[ 10718 10713 10712 10709 ] final   50.07 input   66.30 | X-H torsion
[ 10763 10752 10751 10750 ] final  -87.98 input  -60.55 | X-H torsion
[ 11005 11000 10999 10996 ] final  150.29 input  -57.11 | X-H torsion

> <Gold.Protein.ActiveResidues>
 VAL166  LYS551  ARG553  GLY616  TRP617  ASP618  TYR619  PRO620  LYS621  CYS622 
 ASP623  PHE694  ASN695  SER759  ASP760  ASP761  ALA762  ILE779  LEU786  VAL792 
 PHE793  MET794  SER795  GLU796  ALA797  LYS798  CYS799  TRP800  GLU811  SER814 

> <Gold.Protein.RotatedAtoms>
  151.9958  133.3807  159.4161 H   0  0  0  0  0  0  0  0  0  0  0  0  # atno 6907 bound_to 6896
  150.6916  134.3887  159.5076 H   0  0  0  0  0  0  0  0  0  0  0  0  # atno 6908 bound_to 6896
  152.1627  134.8898  160.0591 H   0  0  0  0  0  0  0  0  0  0  0  0  # atno 6909 bound_to 6896
  144.7170  140.2071  143.6331 H   0  0  0  0  0  0  0  0  0  0  0  0  # atno 7974 bound_to 7965
  156.2525  140.2883  156.0770 H   0  0  0  0  0  0  0  0  0  0  0  0  # atno 8008 bound_to 7997
  155.1608  140.0399  157.2859 H   0  0  0  0  0  0  0  0  0  0  0  0  # atno 8009 bound_to 7997
  154.6394  140.2518  155.7347 H   0  0  0  0  0  0  0  0  0  0  0  0  # atno 8010 bound_to 7997
  140.6913  143.6469  150.8385 H   0  0  0  0  0  0  0  0  0  0  0  0  # atno 10167 bound_to 10162
  157.4848  130.8338  149.8135 H   0  0  0  0  0  0  0  0  0  0  0  0  # atno 10718 bound_to 10713
  154.6396  135.5393  153.7774 H   0  0  0  0  0  0  0  0  0  0  0  0  # atno 10763 bound_to 10752
  153.0327  135.6456  154.1180 H   0  0  0  0  0  0  0  0  0  0  0  0  # atno 10764 bound_to 10752
  154.1105  135.2927  155.3211 H   0  0  0  0  0  0  0  0  0  0  0  0  # atno 10765 bound_to 10752
  140.1118  134.8919  157.1947 H   0  0  0  0  0  0  0  0  0  0  0  0  # atno 11005 bound_to 11000
  145.8625  139.2230  143.1708 LP  0  0  0  0  0  0  0  0  0  0  0  0  # atno 17320 bound_to 7965
  146.0160  140.8392  142.9947 LP  0  0  0  0  0  0  0  0  0  0  0  0  # atno 17321 bound_to 7965
  140.0182  143.5570  152.2811 LP  0  0  0  0  0  0  0  0  0  0  0  0  # atno 17342 bound_to 10162
  139.6319  144.7645  151.2519 LP  0  0  0  0  0  0  0  0  0  0  0  0  # atno 17343 bound_to 10162
  156.0141  130.3821  150.2168 LP  0  0  0  0  0  0  0  0  0  0  0  0  # atno 17370 bound_to 10713
  157.0355  131.0020  151.3299 LP  0  0  0  0  0  0  0  0  0  0  0  0  # atno 17371 bound_to 10713
  140.3081  134.3055  155.7273 LP  0  0  0  0  0  0  0  0  0  0  0  0  # atno 17394 bound_to 11000
  141.2132  133.7633  156.9737 LP  0  0  0  0  0  0  0  0  0  0  0  0  # atno 17395 bound_to 11000

$$$$
