AV-unprocessed.smi:2032|AV-procd|sdf|8234|dock7
  -GOLD-   2272010503D 1   1.00000     0.00000
 Structure written by MMmdl.
 42 43  0  0  0  0  0  0  0  0  1 V2000
  142.4608  134.6113  163.1019 C   0  0  0  0  0  0  0  0  0  0  0  0
  143.6097  133.8902  162.3888 C   0  0  1  0  0  0  0  0  0  0  0  0
  143.2916  133.6148  160.9067 C   0  0  0  0  0  0  0  0  0  0  0  0
  144.4082  132.9936  160.1856 N   0  0  0  0  0  0  0  0  0  0  0  0
  144.1063  132.7633  158.7531 C   0  0  1  0  0  0  0  0  0  0  0  0
  142.9628  131.7390  158.5393 C   0  0  0  0  0  0  0  0  0  0  0  0
  143.7593  134.0668  157.9765 C   0  0  0  0  0  0  0  0  0  0  0  0
  143.6260  133.8667  156.5358 N   0  0  0  0  0  0  0  0  0  0  0  0
  144.1631  134.6599  155.5972 C   0  0  0  0  0  0  0  0  0  0  0  0
  144.8442  135.6525  155.8566 O   0  0  0  0  0  0  0  0  0  0  0  0
  143.8582  134.2272  154.3612 N   0  0  0  0  0  0  0  0  0  0  0  0
  144.2208  134.8032  153.1153 C   0  0  0  0  0  0  0  0  0  0  0  0
  144.8136  135.9951  152.9781 N   0  0  0  0  0  0  0  0  0  0  0  0
  145.0512  136.3114  151.6380 C   0  0  0  0  0  0  0  0  0  0  0  0
  144.6298  135.3423  150.7620 C   0  0  0  0  0  0  0  0  0  0  0  0
  143.9156  133.9846  151.5904 S   0  0  0  0  0  0  0  0  0  0  0  0
  145.5924  133.8385  160.3772 C   0  0  0  0  0  0  0  0  0  0  0  0
  145.9053  134.1126  161.8605 C   0  0  1  0  0  0  0  0  0  0  0  0
  147.0956  135.0619  162.0334 C   0  0  0  0  0  0  0  0  0  0  0  0
  144.7694  134.7079  162.4741 O   0  0  0  0  0  0  0  0  0  0  0  0
  141.5488  134.0143  163.0798 H   0  0  0  0  0  0  0  0  0  0  0  0
  142.2448  135.5709  162.6315 H   0  0  0  0  0  0  0  0  0  0  0  0
  142.7088  134.8003  164.1467 H   0  0  0  0  0  0  0  0  0  0  0  0
  143.8019  132.9467  162.9025 H   0  0  0  0  0  0  0  0  0  0  0  0
  142.4172  132.9680  160.8905 H   0  0  0  0  0  0  0  0  0  0  0  0
  143.0079  134.5463  160.4141 H   0  0  0  0  0  0  0  0  0  0  0  0
  144.9997  132.3417  158.2901 H   0  0  0  0  0  0  0  0  0  0  0  0
  142.7057  131.6151  157.4880 H   0  0  0  0  0  0  0  0  0  0  0  0
  142.0569  132.0451  159.0634 H   0  0  0  0  0  0  0  0  0  0  0  0
  143.2311  130.7414  158.8840 H   0  0  0  0  0  0  0  0  0  0  0  0
  142.8232  134.4831  158.3499 H   0  0  0  0  0  0  0  0  0  0  0  0
  144.5139  134.8400  158.1122 H   0  0  0  0  0  0  0  0  0  0  0  0
  143.0827  133.0708  156.2357 H   0  0  0  0  0  0  0  0  0  0  0  0
  143.2898  133.3952  154.3046 H   0  0  0  0  0  0  0  0  0  0  0  0
  145.5256  137.2511  151.3964 H   0  0  0  0  0  0  0  0  0  0  0  0
  144.6962  135.3448  149.6843 H   0  0  0  0  0  0  0  0  0  0  0  0
  146.4730  133.3628  159.9494 H   0  0  0  0  0  0  0  0  0  0  0  0
  145.4570  134.7856  159.8528 H   0  0  0  0  0  0  0  0  0  0  0  0
  146.1313  133.1726  162.3668 H   0  0  0  0  0  0  0  0  0  0  0  0
  147.9977  134.6457  161.5842 H   0  0  0  0  0  0  0  0  0  0  0  0
  147.3018  135.2400  163.0889 H   0  0  0  0  0  0  0  0  0  0  0  0
  146.9022  136.0271  161.5644 H   0  0  0  0  0  0  0  0  0  0  0  0
  1  2  1  0  0  0  0
  1 21  1  0  0  0  0
  1 22  1  0  0  0  0
  1 23  1  0  0  0  0
  2 20  1  0  0  0  0
  2  3  1  0  0  0  0
  2 24  1  0  0  0  0
  3  4  1  0  0  0  0
  3 25  1  0  0  0  0
  3 26  1  0  0  0  0
  4  5  1  0  0  0  0
  4 17  1  0  0  0  0
  5  6  1  0  0  0  0
  5  7  1  0  0  0  0
  5 27  1  0  0  0  0
  6 28  1  0  0  0  0
  6 29  1  0  0  0  0
  6 30  1  0  0  0  0
  7  8  1  0  0  0  0
  7 31  1  0  0  0  0
  7 32  1  0  0  0  0
  8  9  1  0  0  0  0
  8 33  1  0  0  0  0
  9 10  2  0  0  0  0
  9 11  1  0  0  0  0
 11 12  1  0  0  0  0
 11 34  1  0  0  0  0
 12 16  1  0  0  0  0
 12 13  2  0  0  0  0
 13 14  1  0  0  0  0
 14 15  2  0  0  0  0
 14 35  1  0  0  0  0
 15 16  1  0  0  0  0
 15 36  1  0  0  0  0
 17 18  1  0  0  0  0
 17 37  1  0  0  0  0
 17 38  1  0  0  0  0
 18 19  1  0  0  0  0
 18 20  1  0  0  0  0
 18 39  1  0  0  0  0
 19 40  1  0  0  0  0
 19 41  1  0  0  0  0
 19 42  1  0  0  0  0
M  END
> <s_m_source_file>
AV-unprocessed.smi

> <i_m_source_file_index>
2032

> <i_lp_mmshare_version>
43012

> <i_f3d_flags>
0

> <s_epik_input>
W0NIM11bQ0BASF0xW0NIMl1OKFtDSDJdW0NASF0oTzEpW0NIM10pW0NASF0oW0NIM10pW0NIMl1bTkhdQyg9TylbTkhdYzJuW2NIXVtjSF1zMg==

> <s_epik_cmdline>
J2VwaWtfcHl0aG9uJywgJy1waCcsICc3LjAnLCAnLXRuJywgJzgnLCAnLW1hJywgJzIwMCcsICctbWV0YWxfYmluZGluZycsICctaW1hZScsICc8aW5maWxlLm1hZT4nLCAnLW9tYWUnLCAnPG91dGZpbGUubWFlPic=

> <r_lp_tautomer_probability>
0.999

> <r_epik_Ionization_Penalty>
0.219202

> <r_epik_Ionization_Penalty_Charging>
0

> <r_epik_Ionization_Penalty_Neutral>
0.219202

> <r_epik_State_Penalty>
0.209349

> <r_epik_Charging_Adjusted_Penalty>
0.209349

> <i_epik_Tot_Q>
0

> <i_epik_Tot_abs_Q>
0

> <r_epik_Metal_State_Penalty>
0.247737

> <b_epik_Metal_Only>
0

> <s_lp_Force_Field>
OPLS_2005

> <r_lp_Energy>
24.906

> <b_lp_Chiralities_Consistent>
1

> <s_lp_Variant>
AV-unprocessed.smi:2032-4

> <Gold.Version>
5.8.1

> <Gold.Id.Protein>
6NUR|6NUR_protein|mol2

> <Gold.PLP.Fitness>
37.1090

> <Gold.PLP.PLP>
-27.4295

> <Gold.PLP.part.hbond>
-2.2162

> <Gold.PLP.part.metal>
0.0000

> <Gold.PLP.part.buried>
-4.0678

> <Gold.PLP.part.nonpolar>
-20.2692

> <Gold.PLP.part.repulsive>
0.1556

> <Gold.PLP.ligand.clash>
0.0000

> <Gold.PLP.ligand.torsion>
0.1390

> <Gold.PLP.Chemscore.Hbond>
1.9920

> <Gold.PLP.Chemscore.CHOScore>
1.3180

> <Gold.PLP.Chemscore.Metal>
0.0000

> <Gold.Chemscore.Hbonds>
donor molecule, donor type, donor heavy atom, donor atom, acceptor molecule, acceptor atom, score
      L1  H     8    33       P1 10957  0.99
      L1  H    11    34       P1 10957  1.00
      L1  C    14    35       P1 10171  0.38
      L1  C    15    36       P1  7921  0.94

> <Gold.PLP.Chemscore.Internal.Correction>
0.0275

> <Gold.Rescore>
     Score         DG    S(hbond)    S(metal)    S(lipo)     H(rot)  DE(clash)    DE(int)     intcor
     13.82     -15.18       1.98        0.00      61.00       1.57       0.00       1.36       ----

> <Gold.Chemscore.Fitness>
13.8180

> <Gold.Chemscore.DG>
-15.1823

> <Gold.Chemscore.ZeroCoef>
-5.4800

> <Gold.Chemscore.Hbond>
1.9752

> <Gold.Chemscore.Metal>
0.0000

> <Gold.Chemscore.Lipo>
61.0013

> <Gold.Chemscore.Internal_Hbond>
0.0000

> <Gold.Chemscore.DEClash>
0.0029

> <Gold.Chemscore.DEInternal>
1.3614

> <Gold.Chemscore.Rot>
1.5750

> <Gold.Chemscore.Internal.Correction>
   9.000000E+99

> <Gold.Chemscore.Hbonds>
donor molecule, donor type, donor heavy atom, donor atom, acceptor molecule, acceptor atom, score
      L1  H     8    33       P1 10957  0.92
      L1  H    11    34       P1 10957  0.99

> <Gold.Chemscore.Hbond.Weighted>
-6.5971

> <Gold.Chemscore.Metal.Weighted>
-0.0000

> <Gold.Chemscore.Lipo.Weighted>
-7.1372

> <Gold.Chemscore.Internal_Hbond.Weighted>
0.0000

> <Gold.Chemscore.DEClash.Weighted>
0.0029

> <Gold.Chemscore.DEInternal.Weighted>
1.3614

> <Gold.Chemscore.Rot.Weighted>
4.0319

> <Gold.Chemscore.Internal.Correction.Weighted>
   9.000000E+99

> <Gold.Protein.RotatedTorsions>
[ 6907 6896 6895 6894 ] final  116.76 input  -60.11 | X-H torsion
[ 7974 7965 7964 7962 ] final   18.40 input  175.53 | X-H torsion
[ 8008 7997 7996 7995 ] final  112.19 input   59.86 | X-H torsion
[ 10167 10162 10161 10158 ] final -176.45 input  -65.29 | X-H torsion
[ 10718 10713 10712 10709 ] final   95.65 input   66.30 | X-H torsion
[ 10763 10752 10751 10750 ] final  -39.87 input  -60.55 | X-H torsion
[ 11005 11000 10999 10996 ] final  175.55 input  -57.11 | X-H torsion

> <Gold.Protein.ActiveResidues>
 VAL166  LYS551  ARG553  GLY616  TRP617  ASP618  TYR619  PRO620  LYS621  CYS622 
 ASP623  PHE694  ASN695  SER759  ASP760  ASP761  ALA762  ILE779  LEU786  VAL792 
 PHE793  MET794  SER795  GLU796  ALA797  LYS798  CYS799  TRP800  GLU811  SER814 

> <Gold.Protein.RotatedAtoms>
  152.4657  133.7918  159.6905 H   0  0  0  0  0  0  0  0  0  0  0  0  # atno 6907 bound_to 6896
  150.8621  133.7619  159.2995 H   0  0  0  0  0  0  0  0  0  0  0  0  # atno 6908 bound_to 6896
  151.5181  135.1069  159.9923 H   0  0  0  0  0  0  0  0  0  0  0  0  # atno 6909 bound_to 6896
  146.2186  139.8463  142.8631 H   0  0  0  0  0  0  0  0  0  0  0  0  # atno 7974 bound_to 7965
  156.2175  140.3004  155.9875 H   0  0  0  0  0  0  0  0  0  0  0  0  # atno 8008 bound_to 7997
  155.2566  140.0428  157.3010 H   0  0  0  0  0  0  0  0  0  0  0  0  # atno 8009 bound_to 7997
  154.5790  140.2370  155.8088 H   0  0  0  0  0  0  0  0  0  0  0  0  # atno 8010 bound_to 7997
  139.5529  144.2063  152.1109 H   0  0  0  0  0  0  0  0  0  0  0  0  # atno 10167 bound_to 10162
  157.6936  131.0552  150.4371 H   0  0  0  0  0  0  0  0  0  0  0  0  # atno 10718 bound_to 10713
  153.9366  135.6766  153.4745 H   0  0  0  0  0  0  0  0  0  0  0  0  # atno 10763 bound_to 10752
  153.0953  135.4854  154.8763 H   0  0  0  0  0  0  0  0  0  0  0  0  # atno 10764 bound_to 10752
  154.7400  135.3158  154.8703 H   0  0  0  0  0  0  0  0  0  0  0  0  # atno 10765 bound_to 10752
  140.3634  134.7093  157.4346 H   0  0  0  0  0  0  0  0  0  0  0  0  # atno 11005 bound_to 11000
  145.2847  141.0149  143.3697 LP  0  0  0  0  0  0  0  0  0  0  0  0  # atno 17320 bound_to 7965
  144.9123  139.4513  143.6581 LP  0  0  0  0  0  0  0  0  0  0  0  0  # atno 17321 bound_to 7965
  140.1561  144.5069  150.6659 LP  0  0  0  0  0  0  0  0  0  0  0  0  # atno 17342 bound_to 10162
  140.6796  143.2320  151.5419 LP  0  0  0  0  0  0  0  0  0  0  0  0  # atno 17343 bound_to 10162
  156.4733  130.4057  149.6505 LP  0  0  0  0  0  0  0  0  0  0  0  0  # atno 17370 bound_to 10713
  156.3577  130.7465  151.2433 LP  0  0  0  0  0  0  0  0  0  0  0  0  # atno 17371 bound_to 10713
  140.0609  134.5997  155.8750 LP  0  0  0  0  0  0  0  0  0  0  0  0  # atno 17394 bound_to 11000
  141.1977  133.6598  156.5755 LP  0  0  0  0  0  0  0  0  0  0  0  0  # atno 17395 bound_to 11000

$$$$
