AV-unprocessed.smi:3249|AV-procd|sdf|12423|dock4
  -GOLD-   2272018313D 1   1.00000     0.00000
 Structure written by MMmdl.
 44 45  0  0  0  0  0  0  0  0  2 V2000
  152.1118  145.3940  159.1364 C   0  0  0  0  0  0  0  0  0  0  0  0
  151.9766  143.9314  158.8253 C   0  0  0  0  0  0  0  0  0  0  0  0
  152.7616  142.8543  159.3251 C   0  0  0  0  0  0  0  0  0  0  0  0
  152.3739  141.6779  158.8605 N   0  0  0  0  0  0  0  0  0  0  0  0
  151.3424  141.9594  158.0354 N   0  0  0  0  0  0  0  0  0  0  0  0
  150.6389  140.8720  157.3635 C   0  0  2  0  0  0  0  0  0  0  0  0
  151.2724  139.5230  157.7527 C   0  0  0  0  0  0  0  0  0  0  0  0
  150.5903  141.1160  155.8325 C   0  0  1  0  0  0  0  0  0  0  0  0
  150.6845  139.8109  155.0198 C   0  0  0  0  0  0  0  0  0  0  0  0
  149.3452  141.8386  155.4803 N   0  3  0  0  0  0  0  0  0  0  0  0
  148.0967  141.2471  156.0044 C   0  0  0  0  0  0  0  0  0  0  0  0
  146.9220  142.2208  155.8403 C   0  0  1  0  0  0  0  0  0  0  0  0
  146.5371  142.4142  154.3607 C   0  0  0  0  0  0  0  0  0  0  0  0
  145.3072  143.3209  154.2380 C   0  0  0  0  0  0  0  0  0  0  0  0
  144.1746  142.7769  155.1147 C   0  0  0  0  0  0  0  0  0  0  0  0
  144.6716  142.5518  156.5515 C   0  0  0  0  0  0  0  0  0  0  0  0
  145.8028  141.6858  156.5441 O   0  0  0  0  0  0  0  0  0  0  0  0
  151.0762  143.3140  158.0044 C   0  0  0  0  0  0  0  0  0  0  0  0
  153.0228  145.6071  159.6960 H   0  0  0  0  0  0  0  0  0  0  0  0
  151.2755  145.7564  159.7345 H   0  0  0  0  0  0  0  0  0  0  0  0
  152.1449  145.9972  158.2290 H   0  0  0  0  0  0  0  0  0  0  0  0
  153.5930  142.8917  160.0137 H   0  0  0  0  0  0  0  0  0  0  0  0
  149.6134  140.8632  157.7387 H   0  0  0  0  0  0  0  0  0  0  0  0
  150.6677  138.6817  157.4153 H   0  0  0  0  0  0  0  0  0  0  0  0
  151.3618  139.4329  158.8359 H   0  0  0  0  0  0  0  0  0  0  0  0
  152.2696  139.4096  157.3268 H   0  0  0  0  0  0  0  0  0  0  0  0
  151.4387  141.7500  155.5688 H   0  0  0  0  0  0  0  0  0  0  0  0
  151.6318  139.2997  155.1874 H   0  0  0  0  0  0  0  0  0  0  0  0
  150.6202  139.9987  153.9483 H   0  0  0  0  0  0  0  0  0  0  0  0
  149.8820  139.1212  155.2834 H   0  0  0  0  0  0  0  0  0  0  0  0
  149.4193  142.7971  155.7908 H   0  0  0  0  0  0  0  0  0  0  0  0
  147.8876  140.3297  155.4523 H   0  0  0  0  0  0  0  0  0  0  0  0
  148.2160  140.9722  157.0526 H   0  0  0  0  0  0  0  0  0  0  0  0
  147.1963  143.1856  156.2716 H   0  0  0  0  0  0  0  0  0  0  0  0
  147.3713  142.8426  153.8039 H   0  0  0  0  0  0  0  0  0  0  0  0
  146.3229  141.4458  153.9062 H   0  0  0  0  0  0  0  0  0  0  0  0
  145.5632  144.3330  154.5540 H   0  0  0  0  0  0  0  0  0  0  0  0
  144.9853  143.3887  153.1985 H   0  0  0  0  0  0  0  0  0  0  0  0
  143.3288  143.4650  155.1101 H   0  0  0  0  0  0  0  0  0  0  0  0
  143.8132  141.8336  154.7033 H   0  0  0  0  0  0  0  0  0  0  0  0
  144.9283  143.4992  157.0280 H   0  0  0  0  0  0  0  0  0  0  0  0
  143.8843  142.0969  157.1525 H   0  0  0  0  0  0  0  0  0  0  0  0
  150.2732  143.7239  157.4095 H   0  0  0  0  0  0  0  0  0  0  0  0
  149.2737  141.8383  154.4722 H   0  0  0  0  0  0  0  0  0  0  0  0
  1  2  1  0  0  0  0
  1 19  1  0  0  0  0
  1 20  1  0  0  0  0
  1 21  1  0  0  0  0
  2 18  2  0  0  0  0
  2  3  1  0  0  0  0
  3  4  2  0  0  0  0
  3 22  1  0  0  0  0
  4  5  1  0  0  0  0
  5  6  1  0  0  0  0
  5 18  1  0  0  0  0
  6  7  1  0  0  0  0
  6  8  1  0  0  0  0
  6 23  1  0  0  0  0
  7 24  1  0  0  0  0
  7 25  1  0  0  0  0
  7 26  1  0  0  0  0
  8  9  1  0  0  0  0
  8 10  1  0  0  0  0
  8 27  1  0  0  0  0
  9 28  1  0  0  0  0
  9 29  1  0  0  0  0
  9 30  1  0  0  0  0
 10 11  1  0  0  0  0
 10 31  1  0  0  0  0
 10 44  1  0  0  0  0
 11 12  1  0  0  0  0
 11 32  1  0  0  0  0
 11 33  1  0  0  0  0
 12 17  1  0  0  0  0
 12 13  1  0  0  0  0
 12 34  1  0  0  0  0
 13 14  1  0  0  0  0
 13 35  1  0  0  0  0
 13 36  1  0  0  0  0
 14 15  1  0  0  0  0
 14 37  1  0  0  0  0
 14 38  1  0  0  0  0
 15 16  1  0  0  0  0
 15 39  1  0  0  0  0
 15 40  1  0  0  0  0
 16 17  1  0  0  0  0
 16 41  1  0  0  0  0
 16 42  1  0  0  0  0
 18 43  1  0  0  0  0
M  CHG  1  10   1
M  END
> <s_m_source_file>
AV-unprocessed.smi

> <i_m_source_file_index>
3249

> <i_lp_mmshare_version>
43012

> <i_f3d_flags>
0

> <s_epik_input>
W0NIM11jMVtjSF1ubihbY0hdMSlbQ0BIXShbQ0gzXSlbQ0BIXShbQ0gzXSlbTkhdW0NIMl1bQ0BASF0yW0NIMl1bQ0gyXVtDSDJdW0NIMl1PMg==

> <s_epik_cmdline>
J2VwaWtfcHl0aG9uJywgJy1waCcsICc3LjAnLCAnLXRuJywgJzgnLCAnLW1hJywgJzIwMCcsICctbWV0YWxfYmluZGluZycsICctaW1hZScsICc8aW5maWxlLm1hZT4nLCAnLW9tYWUnLCAnPG91dGZpbGUubWFlPic=

> <r_lp_tautomer_probability>
1

> <r_epik_Ionization_Penalty>
0.00659207

> <r_epik_Ionization_Penalty_Charging>
0.00656881

> <r_epik_Ionization_Penalty_Neutral>
2.32662e-05

> <r_epik_State_Penalty>
0.0048654

> <r_epik_Charging_Adjusted_Penalty>
0.0114342

> <i_epik_Tot_Q>
1

> <i_epik_Tot_abs_Q>
1

> <r_epik_Metal_State_Penalty>
-0

> <b_epik_Metal_Only>
0

> <s_lp_Force_Field>
OPLS_2005

> <r_lp_Energy>
17.4327

> <b_lp_Chiralities_Consistent>
1

> <s_lp_Variant>
AV-unprocessed.smi:3249-7

> <Gold.Version>
5.8.1

> <Gold.Id.Protein>
6NUR|6NUR_protein|mol2

> <Gold.PLP.Fitness>
44.5084

> <Gold.PLP.PLP>
-37.6932

> <Gold.PLP.part.hbond>
-1.0000

> <Gold.PLP.part.metal>
0.0000

> <Gold.PLP.part.buried>
-3.4621

> <Gold.PLP.part.nonpolar>
-33.9464

> <Gold.PLP.part.repulsive>
0.2224

> <Gold.PLP.ligand.clash>
0.0000

> <Gold.PLP.ligand.torsion>
1.1230

> <Gold.PLP.Chemscore.Hbond>
1.9840

> <Gold.PLP.Chemscore.CHOScore>
1.0000

> <Gold.PLP.Chemscore.Metal>
0.0000

> <Gold.Chemscore.Hbonds>
donor molecule, donor type, donor heavy atom, donor atom, acceptor molecule, acceptor atom, score
      L1  H    10    31       P1  8028  2.00
      L1  C    18    43       P1  8028  1.00

> <Gold.PLP.Chemscore.Internal.Correction>
0.1091

> <Gold.Rescore>
     Score         DG    S(hbond)    S(metal)    S(lipo)     H(rot)  DE(clash)    DE(int)     intcor
     14.89     -16.06       0.98        0.00      95.97       1.53       0.02       1.15       ----

> <Gold.Chemscore.Fitness>
14.8910

> <Gold.Chemscore.DG>
-16.0588

> <Gold.Chemscore.ZeroCoef>
-5.4800

> <Gold.Chemscore.Hbond>
0.9806

> <Gold.Chemscore.Metal>
0.0000

> <Gold.Chemscore.Lipo>
95.9719

> <Gold.Chemscore.Internal_Hbond>
0.0000

> <Gold.Chemscore.DEClash>
0.0158

> <Gold.Chemscore.DEInternal>
1.1520

> <Gold.Chemscore.Rot>
1.5333

> <Gold.Chemscore.Internal.Correction>
   9.000000E+99

> <Gold.Chemscore.Hbonds>
donor molecule, donor type, donor heavy atom, donor atom, acceptor molecule, acceptor atom, score
      L1  H    10    31       P1  8028  0.91

> <Gold.Chemscore.Hbond.Weighted>
-3.2753

> <Gold.Chemscore.Metal.Weighted>
-0.0000

> <Gold.Chemscore.Lipo.Weighted>
-11.2287

> <Gold.Chemscore.Internal_Hbond.Weighted>
0.0000

> <Gold.Chemscore.DEClash.Weighted>
0.0158

> <Gold.Chemscore.DEInternal.Weighted>
1.1520

> <Gold.Chemscore.Rot.Weighted>
3.9252

> <Gold.Chemscore.Internal.Correction.Weighted>
   9.000000E+99

> <Gold.Protein.RotatedTorsions>
[ 6907 6896 6895 6894 ] final   -2.37 input  -60.11 | X-H torsion
[ 7974 7965 7964 7962 ] final   64.02 input  175.53 | X-H torsion
[ 8008 7997 7996 7995 ] final   25.36 input   59.86 | X-H torsion
[ 10167 10162 10161 10158 ] final  -39.97 input  -65.29 | X-H torsion
[ 10718 10713 10712 10709 ] final   -2.26 input   66.30 | X-H torsion
[ 10763 10752 10751 10750 ] final -102.59 input  -60.55 | X-H torsion
[ 11005 11000 10999 10996 ] final  154.27 input  -57.11 | X-H torsion

> <Gold.Protein.ActiveResidues>
 VAL166  LYS551  ARG553  GLY616  TRP617  ASP618  TYR619  PRO620  LYS621  CYS622 
 ASP623  PHE694  ASN695  SER759  ASP760  ASP761  ALA762  ILE779  LEU786  VAL792 
 PHE793  MET794  SER795  GLU796  ALA797  LYS798  CYS799  TRP800  GLU811  SER814 

> <Gold.Protein.RotatedAtoms>
  151.5310  135.1068  159.9902 H   0  0  0  0  0  0  0  0  0  0  0  0  # atno 6907 bound_to 6896
  152.4578  133.7756  159.6833 H   0  0  0  0  0  0  0  0  0  0  0  0  # atno 6908 bound_to 6896
  150.8529  133.7694  159.3044 H   0  0  0  0  0  0  0  0  0  0  0  0  # atno 6909 bound_to 6896
  145.8551  139.3278  143.0852 H   0  0  0  0  0  0  0  0  0  0  0  0  # atno 7974 bound_to 7965
  155.0105  140.3136  155.4832 H   0  0  0  0  0  0  0  0  0  0  0  0  # atno 8008 bound_to 7997
  156.2910  140.2215  156.5160 H   0  0  0  0  0  0  0  0  0  0  0  0  # atno 8009 bound_to 7997
  154.7539  140.0464  157.0905 H   0  0  0  0  0  0  0  0  0  0  0  0  # atno 8010 bound_to 7997
  140.7048  143.3182  151.2857 H   0  0  0  0  0  0  0  0  0  0  0  0  # atno 10167 bound_to 10162
  156.7934  130.5369  149.5732 H   0  0  0  0  0  0  0  0  0  0  0  0  # atno 10718 bound_to 10713
  154.7745  135.4855  153.9716 H   0  0  0  0  0  0  0  0  0  0  0  0  # atno 10763 bound_to 10752
  153.1411  135.6772  153.9034 H   0  0  0  0  0  0  0  0  0  0  0  0  # atno 10764 bound_to 10752
  153.8708  135.3144  155.3420 H   0  0  0  0  0  0  0  0  0  0  0  0  # atno 10765 bound_to 10752
  140.1473  134.8698  157.2409 H   0  0  0  0  0  0  0  0  0  0  0  0  # atno 11005 bound_to 11000
  145.9313  140.9046  143.0355 LP  0  0  0  0  0  0  0  0  0  0  0  0  # atno 17320 bound_to 7965
  144.6728  140.1422  143.7436 LP  0  0  0  0  0  0  0  0  0  0  0  0  # atno 17321 bound_to 7965
  139.6627  144.0160  152.2703 LP  0  0  0  0  0  0  0  0  0  0  0  0  # atno 17342 bound_to 10162
  139.9733  144.6479  150.7969 LP  0  0  0  0  0  0  0  0  0  0  0  0  # atno 17343 bound_to 10162
  156.1145  130.6065  151.0099 LP  0  0  0  0  0  0  0  0  0  0  0  0  # atno 17370 bound_to 10713
  157.6589  131.0884  150.7883 LP  0  0  0  0  0  0  0  0  0  0  0  0  # atno 17371 bound_to 10713
  140.2647  134.3530  155.7394 LP  0  0  0  0  0  0  0  0  0  0  0  0  # atno 17394 bound_to 11000
  141.2194  133.7389  156.9133 LP  0  0  0  0  0  0  0  0  0  0  0  0  # atno 17395 bound_to 11000

$$$$
