AV-unprocessed.smi:1952|AV-procd|sdf|7885|dock9
  -GOLD-   2272010 33D 1   1.00000     0.00000
 Structure written by MMmdl.
 40 41  0  0  0  0  0  0  0  0  2 V2000
  137.5330  137.3204  153.9173 C   0  0  0  0  0  0  0  0  0  0  0  0
  139.0174  137.2168  153.8357 C   0  0  0  0  0  0  0  0  0  0  0  0
  139.9784  138.0296  153.3029 C   0  0  0  0  0  0  0  0  0  0  0  0
  141.1805  137.3259  153.5792 C   0  0  0  0  0  0  0  0  0  0  0  0
  142.4374  137.8466  153.1781 N   0  0  0  0  0  0  0  0  0  0  0  0
  143.5685  137.1610  152.9416 C   0  0  0  0  0  0  0  0  0  0  0  0
  143.6959  135.9418  153.0569 O   0  0  0  0  0  0  0  0  0  0  0  0
  144.5600  137.9745  152.5481 N   0  0  0  0  0  0  0  0  0  0  0  0
  145.9351  137.5732  152.2461 C   0  0  2  0  0  0  0  0  0  0  0  0
  146.7244  138.8091  151.7924 C   0  0  0  0  0  0  0  0  0  0  0  0
  145.9804  136.4580  151.1751 C   0  0  0  0  0  0  0  0  0  0  0  0
  146.6097  135.2038  151.6610 N   0  3  0  0  0  0  0  0  0  0  0  0
  146.2292  134.8642  153.0519 C   0  0  0  0  0  0  0  0  0  0  0  0
  146.9740  133.6002  153.5147 C   0  0  0  0  0  0  0  0  0  0  0  0
  146.7001  132.5273  152.6218 O   0  0  0  0  0  0  0  0  0  0  0  0
  147.1352  132.8109  151.2976 C   0  0  0  0  0  0  0  0  0  0  0  0
  146.3857  134.0431  150.7649 C   0  0  0  0  0  0  0  0  0  0  0  0
  140.9725  136.1845  154.2176 N   0  0  0  0  0  0  0  0  0  0  0  0
  139.5849  136.1097  154.3871 O   0  0  0  0  0  0  0  0  0  0  0  0
  137.1624  138.1179  153.2730 H   0  0  0  0  0  0  0  0  0  0  0  0
  137.2167  137.5357  154.9380 H   0  0  0  0  0  0  0  0  0  0  0  0
  137.0613  136.3884  153.6056 H   0  0  0  0  0  0  0  0  0  0  0  0
  139.8398  138.9750  152.7996 H   0  0  0  0  0  0  0  0  0  0  0  0
  142.4771  138.8481  153.0576 H   0  0  0  0  0  0  0  0  0  0  0  0
  144.3575  138.9617  152.4824 H   0  0  0  0  0  0  0  0  0  0  0  0
  146.4100  137.2166  153.1609 H   0  0  0  0  0  0  0  0  0  0  0  0
  147.7659  138.5566  151.5902 H   0  0  0  0  0  0  0  0  0  0  0  0
  146.7188  139.5828  152.5608 H   0  0  0  0  0  0  0  0  0  0  0  0
  146.3043  139.2394  150.8826 H   0  0  0  0  0  0  0  0  0  0  0  0
  144.9562  136.2467  150.8635 H   0  0  0  0  0  0  0  0  0  0  0  0
  146.5025  136.8019  150.2807 H   0  0  0  0  0  0  0  0  0  0  0  0
  146.4713  135.6941  153.7168 H   0  0  0  0  0  0  0  0  0  0  0  0
  145.1508  134.7082  153.1093 H   0  0  0  0  0  0  0  0  0  0  0  0
  148.0492  133.7791  153.5680 H   0  0  0  0  0  0  0  0  0  0  0  0
  146.6481  133.3179  154.5159 H   0  0  0  0  0  0  0  0  0  0  0  0
  148.2144  132.9729  151.2808 H   0  0  0  0  0  0  0  0  0  0  0  0
  146.9330  131.9458  150.6660 H   0  0  0  0  0  0  0  0  0  0  0  0
  145.3178  133.8299  150.6966 H   0  0  0  0  0  0  0  0  0  0  0  0
  146.7308  134.2673  149.7562 H   0  0  0  0  0  0  0  0  0  0  0  0
  147.6060  135.3725  151.6745 H   0  0  0  0  0  0  0  0  0  0  0  0
  1  2  1  0  0  0  0
  1 20  1  0  0  0  0
  1 21  1  0  0  0  0
  1 22  1  0  0  0  0
  2 19  1  0  0  0  0
  2  3  2  0  0  0  0
  3  4  1  0  0  0  0
  3 23  1  0  0  0  0
  4  5  1  0  0  0  0
  4 18  2  0  0  0  0
  5  6  1  0  0  0  0
  5 24  1  0  0  0  0
  6  7  2  0  0  0  0
  6  8  1  0  0  0  0
  8  9  1  0  0  0  0
  8 25  1  0  0  0  0
  9 10  1  0  0  0  0
  9 11  1  0  0  0  0
  9 26  1  0  0  0  0
 10 27  1  0  0  0  0
 10 28  1  0  0  0  0
 10 29  1  0  0  0  0
 11 12  1  0  0  0  0
 11 30  1  0  0  0  0
 11 31  1  0  0  0  0
 12 17  1  0  0  0  0
 12 13  1  0  0  0  0
 12 40  1  0  0  0  0
 13 14  1  0  0  0  0
 13 32  1  0  0  0  0
 13 33  1  0  0  0  0
 14 15  1  0  0  0  0
 14 34  1  0  0  0  0
 14 35  1  0  0  0  0
 15 16  1  0  0  0  0
 16 17  1  0  0  0  0
 16 36  1  0  0  0  0
 16 37  1  0  0  0  0
 17 38  1  0  0  0  0
 17 39  1  0  0  0  0
 18 19  1  0  0  0  0
M  CHG  1  12   1
M  END
> <s_m_source_file>
AV-unprocessed.smi

> <i_m_source_file_index>
1952

> <i_lp_mmshare_version>
43012

> <i_f3d_flags>
0

> <s_epik_input>
W0NIM11jMVtjSF1jKG5vMSlbTkhdQyg9TylbTkhdW0NASF0oW0NIM10pW0NIMl1OMltDSDJdW0NIMl1PW0NIMl1bQ0gyXTI=

> <s_epik_cmdline>
J2VwaWtfcHl0aG9uJywgJy1waCcsICc3LjAnLCAnLXRuJywgJzgnLCAnLW1hJywgJzIwMCcsICctbWV0YWxfYmluZGluZycsICctaW1hZScsICc8aW5maWxlLm1hZT4nLCAnLW9tYWUnLCAnPG91dGZpbGUubWFlPic=

> <r_epik_Ionization_Penalty>
0.707079

> <r_epik_Ionization_Penalty_Charging>
0.707039

> <r_epik_Ionization_Penalty_Neutral>
4.01892e-05

> <r_epik_State_Penalty>
0.730276

> <r_epik_Charging_Adjusted_Penalty>
1.43732

> <i_epik_Tot_Q>
1

> <i_epik_Tot_abs_Q>
1

> <r_epik_Metal_State_Penalty>
0.744847

> <b_epik_Metal_Only>
0

> <s_lp_Force_Field>
OPLS_2005

> <r_lp_Energy>
19.2222

> <b_lp_Chiralities_Consistent>
1

> <s_lp_Variant>
AV-unprocessed.smi:1952-3

> <Gold.Version>
5.8.1

> <Gold.Id.Protein>
6NUR|6NUR_protein|mol2

> <Gold.PLP.Fitness>
44.6939

> <Gold.PLP.PLP>
-33.5152

> <Gold.PLP.part.hbond>
-5.5259

> <Gold.PLP.part.metal>
0.0000

> <Gold.PLP.part.buried>
-1.8447

> <Gold.PLP.part.nonpolar>
-27.3566

> <Gold.PLP.part.repulsive>
0.4677

> <Gold.PLP.ligand.clash>
0.0000

> <Gold.PLP.ligand.torsion>
1.0275

> <Gold.PLP.Chemscore.Hbond>
4.3988

> <Gold.PLP.Chemscore.CHOScore>
0.0000

> <Gold.PLP.Chemscore.Metal>
0.0000

> <Gold.Chemscore.Hbonds>
donor molecule, donor type, donor heavy atom, donor atom, acceptor molecule, acceptor atom, score
      L1  H     5    24       P1 10175  0.92
      L1  H     8    25       P1 10175  1.00
      L1  H    12    40       P1  7948  2.00
      P1  H 11000 11005       L1    19  0.25

> <Gold.PLP.Chemscore.Internal.Correction>
0.0374

> <Gold.Rescore>
     Score         DG    S(hbond)    S(metal)    S(lipo)     H(rot)  DE(clash)    DE(int)     intcor
     13.95     -18.41       2.83        0.00      64.75       1.61       0.03       4.43       ----

> <Gold.Chemscore.Fitness>
13.9531

> <Gold.Chemscore.DG>
-18.4077

> <Gold.Chemscore.ZeroCoef>
-5.4800

> <Gold.Chemscore.Hbond>
2.8347

> <Gold.Chemscore.Metal>
0.0000

> <Gold.Chemscore.Lipo>
64.7484

> <Gold.Chemscore.Internal_Hbond>
0.0000

> <Gold.Chemscore.DEClash>
0.0275

> <Gold.Chemscore.DEInternal>
4.4271

> <Gold.Chemscore.Rot>
1.6078

> <Gold.Chemscore.Internal.Correction>
   9.000000E+99

> <Gold.Chemscore.Hbonds>
donor molecule, donor type, donor heavy atom, donor atom, acceptor molecule, acceptor atom, score
      L1  H     5    24       P1 10175  0.84
      L1  H     8    25       P1 10175  1.00
      L1  H    12    40       P1  7948  0.86
      P1  H 11000 11005       L1    19  0.01

> <Gold.Chemscore.Hbond.Weighted>
-9.4680

> <Gold.Chemscore.Metal.Weighted>
-0.0000

> <Gold.Chemscore.Lipo.Weighted>
-7.5756

> <Gold.Chemscore.Internal_Hbond.Weighted>
0.0000

> <Gold.Chemscore.DEClash.Weighted>
0.0275

> <Gold.Chemscore.DEInternal.Weighted>
4.4271

> <Gold.Chemscore.Rot.Weighted>
4.1158

> <Gold.Chemscore.Internal.Correction.Weighted>
   9.000000E+99

> <Gold.Protein.RotatedTorsions>
[ 6907 6896 6895 6894 ] final  166.30 input  -60.11 | X-H torsion
[ 7974 7965 7964 7962 ] final  -79.01 input  175.53 | X-H torsion
[ 8008 7997 7996 7995 ] final  116.82 input   59.86 | X-H torsion
[ 10167 10162 10161 10158 ] final   55.90 input  -65.29 | X-H torsion
[ 10718 10713 10712 10709 ] final -113.62 input   66.30 | X-H torsion
[ 10763 10752 10751 10750 ] final  -23.42 input  -60.55 | X-H torsion
[ 11005 11000 10999 10996 ] final   68.05 input  -57.11 | X-H torsion

> <Gold.Protein.ActiveResidues>
 VAL166  LYS551  ARG553  GLY616  TRP617  ASP618  TYR619  PRO620  LYS621  CYS622 
 ASP623  PHE694  ASN695  SER759  ASP760  ASP761  ALA762  ILE779  LEU786  VAL792 
 PHE793  MET794  SER795  GLU796  ALA797  LYS798  CYS799  TRP800  GLU811  SER814 

> <Gold.Protein.RotatedAtoms>
  151.8810  133.3495  159.3765 H   0  0  0  0  0  0  0  0  0  0  0  0  # atno 6907 bound_to 6896
  150.7127  134.5019  159.5574 H   0  0  0  0  0  0  0  0  0  0  0  0  # atno 6908 bound_to 6896
  152.2570  134.8074  160.0488 H   0  0  0  0  0  0  0  0  0  0  0  0  # atno 6909 bound_to 6896
  145.5789  140.9452  143.1355 H   0  0  0  0  0  0  0  0  0  0  0  0  # atno 7974 bound_to 7965
  156.2460  140.2909  156.0583 H   0  0  0  0  0  0  0  0  0  0  0  0  # atno 8008 bound_to 7997
  155.1804  140.0404  157.2898 H   0  0  0  0  0  0  0  0  0  0  0  0  # atno 8009 bound_to 7997
  154.6263  140.2488  155.7494 H   0  0  0  0  0  0  0  0  0  0  0  0  # atno 8010 bound_to 7997
  140.2144  144.3854  150.6475 H   0  0  0  0  0  0  0  0  0  0  0  0  # atno 10167 bound_to 10162
  156.0778  130.5983  150.8666 H   0  0  0  0  0  0  0  0  0  0  0  0  # atno 10718 bound_to 10713
  153.6676  135.6973  153.5157 H   0  0  0  0  0  0  0  0  0  0  0  0  # atno 10763 bound_to 10752
  153.2583  135.4253  155.0867 H   0  0  0  0  0  0  0  0  0  0  0  0  # atno 10764 bound_to 10752
  154.8435  135.3548  154.6220 H   0  0  0  0  0  0  0  0  0  0  0  0  # atno 10765 bound_to 10752
  139.9734  134.6862  156.0401 H   0  0  0  0  0  0  0  0  0  0  0  0  # atno 11005 bound_to 11000
  144.7403  139.7468  143.7313 LP  0  0  0  0  0  0  0  0  0  0  0  0  # atno 17320 bound_to 7965
  146.1730  139.4889  142.9915 LP  0  0  0  0  0  0  0  0  0  0  0  0  # atno 17321 bound_to 7965
  140.6300  143.2186  151.6516 LP  0  0  0  0  0  0  0  0  0  0  0  0  # atno 17342 bound_to 10162
  139.5167  144.3337  152.0803 LP  0  0  0  0  0  0  0  0  0  0  0  0  # atno 17343 bound_to 10162
  157.5881  131.0945  150.9163 LP  0  0  0  0  0  0  0  0  0  0  0  0  # atno 17370 bound_to 10713
  156.9344  130.5361  149.5279 LP  0  0  0  0  0  0  0  0  0  0  0  0  # atno 17371 bound_to 10713
  141.1413  133.6564  156.3738 LP  0  0  0  0  0  0  0  0  0  0  0  0  # atno 17394 bound_to 11000
  140.5244  134.6273  157.5329 LP  0  0  0  0  0  0  0  0  0  0  0  0  # atno 17395 bound_to 11000

$$$$
