AV-unprocessed.smi:72|AV-procd|sdf|679|dock6
  -GOLD-   2262016593D 1   1.00000     0.00000
 Structure written by MMmdl.
 29 30  0  0  0  0  0  0  0  0  1 V2000
  152.8126  140.1207  158.0327 N   0  0  0  0  0  0  0  0  0  0  0  0
  151.9459  140.2680  157.0960 C   0  0  0  0  0  0  0  0  0  0  0  0
  151.1012  141.3771  156.9386 N   0  0  0  0  0  0  0  0  0  0  0  0
  150.2809  141.3952  155.9333 C   0  0  0  0  0  0  0  0  0  0  0  0
  150.2181  140.3117  154.9643 N   0  0  0  0  0  0  0  0  0  0  0  0
  149.2484  140.3494  153.8050 C   0  0  2  0  0  0  0  0  0  0  0  0
  148.5660  141.5709  153.8166 O   0  0  0  0  0  0  0  0  0  0  0  0
  147.1677  141.3334  153.7134 C   0  0  2  0  0  0  0  0  0  0  0  0
  146.3644  142.5105  154.2955 C   0  0  0  0  0  0  0  0  0  0  0  0
  145.0526  142.1336  154.6611 O   0  0  0  0  0  0  0  0  0  0  0  0
  146.9585  139.9602  154.3549 C   0  0  1  0  0  0  0  0  0  0  0  0
  145.7604  139.3318  153.9393 O   0  0  0  0  0  0  0  0  0  0  0  0
  148.2176  139.2111  153.9269 C   0  0  1  0  0  0  0  0  0  0  0  0
  148.0642  138.5385  152.6904 O   0  0  0  0  0  0  0  0  0  0  0  0
  151.0392  139.1697  155.1290 C   0  0  0  0  0  0  0  0  0  0  0  0
  150.9915  138.2047  154.3667 O   0  0  0  0  0  0  0  0  0  0  0  0
  151.8776  139.2038  156.1874 N   0  0  0  0  0  0  0  0  0  0  0  0
  149.8526  140.3009  152.8974 H   0  0  0  0  0  0  0  0  0  0  0  0
  146.9517  141.2614  152.6457 H   0  0  0  0  0  0  0  0  0  0  0  0
  146.9563  140.0407  155.4422 H   0  0  0  0  0  0  0  0  0  0  0  0
  148.5247  138.4796  154.6759 H   0  0  0  0  0  0  0  0  0  0  0  0
  152.8019  140.9249  158.6439 H   0  0  0  0  0  0  0  0  0  0  0  0
  149.5878  142.2176  155.7542 H   0  0  0  0  0  0  0  0  0  0  0  0
  146.8772  142.9344  155.1591 H   0  0  0  0  0  0  0  0  0  0  0  0
  146.2862  143.3027  153.5505 H   0  0  0  0  0  0  0  0  0  0  0  0
  144.6979  141.5830  153.9797 H   0  0  0  0  0  0  0  0  0  0  0  0
  145.2341  139.9665  153.4779 H   0  0  0  0  0  0  0  0  0  0  0  0
  148.6619  138.9199  152.0654 H   0  0  0  0  0  0  0  0  0  0  0  0
  152.4834  138.4090  156.3316 H   0  0  0  0  0  0  0  0  0  0  0  0
  1  2  2  0  0  0  0
  1 22  1  0  0  0  0
  2 17  1  0  0  0  0
  2  3  1  0  0  0  0
  3  4  2  0  0  0  0
  4  5  1  0  0  0  0
  4 23  1  0  0  0  0
  5  6  1  0  0  0  0
  5 15  1  0  0  0  0
  6 18  1  0  0  0  0
  6 13  1  0  0  0  0
  6  7  1  0  0  0  0
  7  8  1  0  0  0  0
  8 19  1  0  0  0  0
  8  9  1  0  0  0  0
  8 11  1  0  0  0  0
  9 10  1  0  0  0  0
  9 24  1  0  0  0  0
  9 25  1  0  0  0  0
 10 26  1  0  0  0  0
 11 20  1  0  0  0  0
 11 12  1  0  0  0  0
 11 13  1  0  0  0  0
 12 27  1  0  0  0  0
 13 21  1  0  0  0  0
 13 14  1  0  0  0  0
 14 28  1  0  0  0  0
 15 16  2  0  0  0  0
 15 17  1  0  0  0  0
 17 29  1  0  0  0  0
M  END
> <s_m_source_file>
AV-unprocessed.smi

> <i_m_source_file_index>
72

> <i_lp_mmshare_version>
43012

> <i_f3d_flags>
0

> <s_epik_input>
W05IMl1jMW5bY0hdbihjKD1PKW4xKVtDQEBIXTJPW0NASF0oW0NIMl1bT0hdKVtDQEBIXShbT0hdKVtDQEhdMltPSF0=

> <s_epik_cmdline>
J2VwaWtfcHl0aG9uJywgJy1waCcsICc3LjAnLCAnLXRuJywgJzgnLCAnLW1hJywgJzIwMCcsICctbWV0YWxfYmluZGluZycsICctaW1hZScsICc8aW5maWxlLm1hZT4nLCAnLW9tYWUnLCAnPG91dGZpbGUubWFlPic=

> <r_lp_tautomer_probability>
7.17554e-07

> <r_epik_Ionization_Penalty>
0.0066451

> <r_epik_Ionization_Penalty_Charging>
0.00663793

> <r_epik_Ionization_Penalty_Neutral>
7.17052e-06

> <r_epik_State_Penalty>
0.419231

> <r_epik_Charging_Adjusted_Penalty>
0.425868

> <i_epik_Tot_Q>
0

> <i_epik_Tot_abs_Q>
0

> <r_epik_Metal_State_Penalty>
1.44144

> <b_epik_Metal_Only>
0

> <s_epik_Chemistry_Notes>
This compound contains an acetal/aminal-like group ( X-CH(R)-Y where X, Y are N, S, or O) that may be acid/base labile, releasing an aldehyde.

> <s_lp_Force_Field>
OPLS_2005

> <r_lp_Energy>
43.5106

> <b_lp_Chiralities_Consistent>
1

> <s_lp_Variant>
AV-unprocessed.smi:72-17

> <Gold.Version>
5.8.1

> <Gold.Id.Protein>
6NUR|6NUR_protein|mol2

> <Gold.PLP.Fitness>
41.5270

> <Gold.PLP.PLP>
-26.2446

> <Gold.PLP.part.hbond>
-6.0000

> <Gold.PLP.part.metal>
0.0000

> <Gold.PLP.part.buried>
1.1363

> <Gold.PLP.part.nonpolar>
-21.3469

> <Gold.PLP.part.repulsive>
0.5335

> <Gold.PLP.ligand.clash>
0.0000

> <Gold.PLP.ligand.torsion>
0.2377

> <Gold.PLP.Chemscore.Hbond>
4.2502

> <Gold.PLP.Chemscore.CHOScore>
1.0000

> <Gold.PLP.Chemscore.Metal>
0.0000

> <Gold.Chemscore.Hbonds>
donor molecule, donor type, donor heavy atom, donor atom, acceptor molecule, acceptor atom, score
      L1  H    10    26       P1 10175  0.76
      L1  H    12    27       P1 10175  1.00
      L1  H    14    28       P1  7957  1.00
      P1  H  7997  8008       L1     1  0.92
      P1  H  8011  8017       L1     7  0.38
      L1  C     4    23       P1  8028  0.83

> <Gold.PLP.Chemscore.Internal.Correction>
0.0071

> <Gold.Rescore>
     Score         DG    S(hbond)    S(metal)    S(lipo)     H(rot)  DE(clash)    DE(int)     intcor
      5.48      -6.89       2.88        0.00      18.72       4.06       0.02       1.39       ----

> <Gold.Chemscore.Fitness>
5.4828

> <Gold.Chemscore.DG>
-6.8926

> <Gold.Chemscore.ZeroCoef>
-5.4800

> <Gold.Chemscore.Hbond>
2.8792

> <Gold.Chemscore.Metal>
0.0000

> <Gold.Chemscore.Lipo>
18.7162

> <Gold.Chemscore.Internal_Hbond>
0.0000

> <Gold.Chemscore.DEClash>
0.0234

> <Gold.Chemscore.DEInternal>
1.3864

> <Gold.Chemscore.Rot>
4.0600

> <Gold.Chemscore.Internal.Correction>
   9.000000E+99

> <Gold.Chemscore.Hbonds>
donor molecule, donor type, donor heavy atom, donor atom, acceptor molecule, acceptor atom, score
      L1  H    10    26       P1 10175  0.15
      L1  H    12    27       P1 10175  0.96
      L1  H    14    28       P1  7957  0.94
      P1  H  7997  8008       L1     1  0.26
      P1  H  8011  8017       L1     7  0.04

> <Gold.Chemscore.Hbond.Weighted>
-9.6164

> <Gold.Chemscore.Metal.Weighted>
-0.0000

> <Gold.Chemscore.Lipo.Weighted>
-2.1898

> <Gold.Chemscore.Internal_Hbond.Weighted>
0.0000

> <Gold.Chemscore.DEClash.Weighted>
0.0234

> <Gold.Chemscore.DEInternal.Weighted>
1.3864

> <Gold.Chemscore.Rot.Weighted>
10.3936

> <Gold.Chemscore.Internal.Correction.Weighted>
   9.000000E+99

> <Gold.Protein.RotatedTorsions>
[ 6907 6896 6895 6894 ] final  163.08 input  -60.11 | X-H torsion
[ 7974 7965 7964 7962 ] final   38.13 input  175.53 | X-H torsion
[ 8008 7997 7996 7995 ] final  -87.14 input   59.86 | X-H torsion
[ 10167 10162 10161 10158 ] final  -49.78 input  -65.29 | X-H torsion
[ 10718 10713 10712 10709 ] final -140.53 input   66.30 | X-H torsion
[ 10763 10752 10751 10750 ] final   -7.27 input  -60.55 | X-H torsion
[ 11005 11000 10999 10996 ] final  -46.20 input  -57.11 | X-H torsion

> <Gold.Protein.ActiveResidues>
 VAL166  LYS551  ARG553  GLY616  TRP617  ASP618  TYR619  PRO620  LYS621  CYS622 
 ASP623  PHE694  ASN695  SER759  ASP760  ASP761  ALA762  ILE779  LEU786  VAL792 
 PHE793  MET794  SER795  GLU796  ALA797  LYS798  CYS799  TRP800  GLU811  SER814 

> <Gold.Protein.RotatedAtoms>
  151.9307  133.3610  159.3929 H   0  0  0  0  0  0  0  0  0  0  0  0  # atno 6907 bound_to 6896
  150.7018  134.4540  159.5359 H   0  0  0  0  0  0  0  0  0  0  0  0  # atno 6908 bound_to 6896
  152.2180  134.8439  160.0540 H   0  0  0  0  0  0  0  0  0  0  0  0  # atno 6909 bound_to 6896
  146.1085  139.5809  142.9368 H   0  0  0  0  0  0  0  0  0  0  0  0  # atno 7974 bound_to 7965
  154.6598  140.0569  157.0050 H   0  0  0  0  0  0  0  0  0  0  0  0  # atno 8008 bound_to 7997
  155.1245  140.3250  155.4470 H   0  0  0  0  0  0  0  0  0  0  0  0  # atno 8009 bound_to 7997
  156.2613  140.1991  156.6366 H   0  0  0  0  0  0  0  0  0  0  0  0  # atno 8010 bound_to 7997
  140.6669  143.2684  151.4265 H   0  0  0  0  0  0  0  0  0  0  0  0  # atno 10167 bound_to 10162
  156.3234  130.7547  151.1649 H   0  0  0  0  0  0  0  0  0  0  0  0  # atno 10718 bound_to 10713
  153.4240  135.7010  153.6275 H   0  0  0  0  0  0  0  0  0  0  0  0  # atno 10763 bound_to 10752
  153.4718  135.3713  155.2395 H   0  0  0  0  0  0  0  0  0  0  0  0  # atno 10764 bound_to 10752
  154.8723  135.4045  154.3613 H   0  0  0  0  0  0  0  0  0  0  0  0  # atno 10765 bound_to 10752
  141.0564  133.6724  156.3122 H   0  0  0  0  0  0  0  0  0  0  0  0  # atno 11005 bound_to 11000
  145.5712  141.0394  143.2173 LP  0  0  0  0  0  0  0  0  0  0  0  0  # atno 17320 bound_to 7965
  144.7491  139.7240  143.7280 LP  0  0  0  0  0  0  0  0  0  0  0  0  # atno 17321 bound_to 7965
  139.5921  144.1477  152.2100 LP  0  0  0  0  0  0  0  0  0  0  0  0  # atno 17342 bound_to 10162
  140.0835  144.5681  150.7105 LP  0  0  0  0  0  0  0  0  0  0  0  0  # atno 17343 bound_to 10162
  157.7416  131.0501  150.5083 LP  0  0  0  0  0  0  0  0  0  0  0  0  # atno 17370 bound_to 10713
  156.5238  130.4168  149.6236 LP  0  0  0  0  0  0  0  0  0  0  0  0  # atno 17371 bound_to 10713
  140.5955  134.5607  157.5508 LP  0  0  0  0  0  0  0  0  0  0  0  0  # atno 17394 bound_to 11000
  139.9394  134.7815  156.0718 LP  0  0  0  0  0  0  0  0  0  0  0  0  # atno 17395 bound_to 11000

$$$$
