#       Name:                AV-unprocessed.smi:1198
#       Creating user name   scv26
#       Creation time:       Fri Mar 27 04:02:53 2020


#       File generated by GOLD software.
#

@<TRIPOS>MOLECULE
AV-unprocessed.smi:1198
    45    46     1
SMALL
NO_CHARGES


@<TRIPOS>ATOM
      1 ****        -7.3286  -0.4905   0.4314 C.3            1 S1                 0.0000
      2 ****        -6.6187  -1.7168   0.5666 O.3            1 S1                 0.0000
      3 ****        -5.2410  -1.6733   0.6268 C.ar           1 S1                 0.0000
      4 ****        -4.5335  -2.8850   0.7518 C.ar           1 S1                 0.0000
      5 ****        -3.1280  -2.8459   0.8116 C.ar           1 S1                 0.0000
      6 ****        -2.4696  -1.6012   0.7527 C.ar           1 S1                 0.0000
      7 ****        -1.0489  -1.6025   0.7993 N.am           1 S1                 0.0000
      8 ****        -0.2113  -0.5826   1.0535 C.2            1 S1                 0.0000
      9 ****        -0.5469   0.5719   1.3157 O.2            1 S1                 0.0000
     10 ****         1.0667  -0.9831   0.9985 N.am           1 S1                 0.0000
     11 ****         2.2242  -0.1253   1.2290 C.3            1 S1                 0.0000
     12 ****         2.5409   0.7628   0.0101 C.3            1 S1                 0.0000
     13 ****         2.8473   0.0025  -1.2792 C.3            1 S1                 0.0000
     14 ****         3.5750   1.0515  -2.1158 C.3            1 S1                 0.0000
     15 ****         4.3691   1.8436  -1.1516 N.4            1 S1                 1.0000
     16 ****         4.5567   3.2571  -1.5405 C.3            1 S1                 0.0000
     17 ****         3.7778   1.6527   0.1942 C.3            1 S1                 0.0000
     18 ****        -3.2696  -0.4399   0.6177 C.ar           1 S1                 0.0000
     19 ****        -4.6182  -0.4709   0.5584 N.ar           1 S1                 0.0000
     20 ****        -8.3981  -0.6958   0.3893 H              1 S1                 0.0000
     21 ****        -7.0560   0.0296  -0.4880 H              1 S1                 0.0000
     22 ****        -7.1514   0.1685   1.2826 H              1 S1                 0.0000
     23 ****        -5.0592  -3.8272   0.7990 H              1 S1                 0.0000
     24 ****        -2.5649  -3.7632   0.9044 H              1 S1                 0.0000
     25 ****        -0.6171  -2.5051   0.6664 H              1 S1                 0.0000
     26 ****         1.2527  -1.9522   0.7845 H              1 S1                 0.0000
     27 ****         2.0575   0.4920   2.1135 H              1 S1                 0.0000
     28 ****         3.0762  -0.7660   1.4574 H              1 S1                 0.0000
     29 ****         1.6896   1.4178  -0.1846 H              1 S1                 0.0000
     30 ****         3.5101  -0.8400  -1.0763 H              1 S1                 0.0000
     31 ****         1.9522  -0.3804  -1.7708 H              1 S1                 0.0000
     32 ****         4.2065   0.6099  -2.8873 H              1 S1                 0.0000
     33 ****         2.8413   1.6916  -2.6092 H              1 S1                 0.0000
     34 ****         3.6032   3.7864  -1.5689 H              1 S1                 0.0000
     35 ****         5.0172   3.3241  -2.5269 H              1 S1                 0.0000
     36 ****         5.2093   3.7639  -0.8290 H              1 S1                 0.0000
     37 ****         3.5202   2.5950   0.6804 H              1 S1                 0.0000
     38 ****         4.5236   1.1576   0.8173 H              1 S1                 0.0000
     39 ****        -2.8421   0.5466   0.5334 H              1 S1                 0.0000
     40 ****         5.2858   1.4204  -1.1168 H              1 S1                 0.0000
     41 ****        -6.8627  -2.2878  -0.2173 LP             1 S1                 0.0000
     42 ****        -6.9380  -2.1521   1.4083 LP             1 S1                 0.0000
     43 ****        -1.5163   0.8146   1.3529 LP             1 S1                 0.0000
     44 ****         0.1498   1.2674   1.4915 LP             1 S1                 0.0000
     45 ****        -5.1456   0.3737   0.4661 LP             1 S1                 0.0000
@<TRIPOS>BOND
    1    1    2 1     
    2    1   20 1     
    3    1   21 1     
    4    1   22 1     
    5    2    3 1     
    6    3   19 ar    
    7    3    4 ar    
    8    4    5 ar    
    9    4   23 1     
   10    5    6 ar    
   11    5   24 1     
   12    6    7 1     
   13    6   18 ar    
   14    7    8 am    
   15    7   25 1     
   16    8    9 2     
   17    8   10 am    
   18   10   11 1     
   19   10   26 1     
   20   11   12 1     
   21   11   27 1     
   22   11   28 1     
   23   12   17 1     
   24   12   13 1     
   25   12   29 1     
   26   13   14 1     
   27   13   30 1     
   28   13   31 1     
   29   14   15 1     
   30   14   32 1     
   31   14   33 1     
   32   15   16 1     
   33   15   17 1     
   34   15   40 1     
   35   16   34 1     
   36   16   35 1     
   37   16   36 1     
   38   17   37 1     
   39   17   38 1     
   40   18   19 ar    
   41   18   39 1     
   42    2   41 1     
   43    2   42 1     
   44    9   43 1     
   45    9   44 1     
   46   19   45 1     
@<TRIPOS>SUBSTRUCTURE
      1 S1             1
@<TRIPOS>SET
LONE_PAIRS      STATIC     ATOMS    <user>   **** ""
5 41 42 43 44 45
DONOR_HYDROGENS      STATIC     ATOMS    <user>   **** ""
3 25 26 40
ATOM$BLUE        STATIC     ATOMS    COLORGROUP SYSTEM
5 41 42 43 44 45
ATOM$RED        STATIC     ATOMS    COLORGROUP SYSTEM
3 25 26 40
