AV-unprocessed.smi:3074|AV-procd|sdf|11721|dock5
  -GOLD-   2272017123D 1   1.00000     0.00000
 Structure written by MMmdl.
 19 20  0  0  0  0  0  0  0  0  2 V2000
  152.7497  142.8682  162.1995 C   0  0  0  0  0  0  0  0  0  0  0  0
  152.3176  143.6162  161.1276 C   0  0  0  0  0  0  0  0  0  0  0  0
  152.6982  142.9247  159.9850 N   0  0  0  0  0  0  0  0  0  0  0  0
  152.5073  143.3526  158.6319 C   0  0  0  0  0  0  0  0  0  0  0  0
  151.8804  144.7104  158.3192 C   0  0  0  0  0  0  0  0  0  0  0  0
  151.2800  144.0943  157.1426 N   0  3  0  0  0  0  0  0  0  0  0  0
  151.3719  142.7866  157.7802 C   0  0  0  0  0  0  0  0  0  0  0  0
  153.3696  141.8499  160.4207 C   0  0  0  0  0  0  0  0  0  0  0  0
  153.4256  141.7395  161.7414 N   0  0  0  0  0  0  0  0  0  0  0  0
  152.6411  143.0620  163.2566 H   0  0  0  0  0  0  0  0  0  0  0  0
  151.7815  144.5531  161.0879 H   0  0  0  0  0  0  0  0  0  0  0  0
  153.4703  143.2387  158.1288 H   0  0  0  0  0  0  0  0  0  0  0  0
  151.1290  145.0241  159.0468 H   0  0  0  0  0  0  0  0  0  0  0  0
  152.5912  145.5055  158.0926 H   0  0  0  0  0  0  0  0  0  0  0  0
  150.3342  144.3968  156.9570 H   0  0  0  0  0  0  0  0  0  0  0  0
  151.6598  141.9812  157.1039 H   0  0  0  0  0  0  0  0  0  0  0  0
  150.4737  142.5444  158.3517 H   0  0  0  0  0  0  0  0  0  0  0  0
  153.8259  141.1304  159.7562 H   0  0  0  0  0  0  0  0  0  0  0  0
  151.8906  144.1586  156.3404 H   0  0  0  0  0  0  0  0  0  0  0  0
  1  9  1  0  0  0  0
  1  2  2  0  0  0  0
  1 10  1  0  0  0  0
  2  3  1  0  0  0  0
  2 11  1  0  0  0  0
  3  4  1  0  0  0  0
  3  8  1  0  0  0  0
  4  7  1  0  0  0  0
  4  5  1  0  0  0  0
  4 12  1  0  0  0  0
  5  6  1  0  0  0  0
  5 13  1  0  0  0  0
  5 14  1  0  0  0  0
  6  7  1  0  0  0  0
  6 15  1  0  0  0  0
  6 19  1  0  0  0  0
  7 16  1  0  0  0  0
  7 17  1  0  0  0  0
  8  9  2  0  0  0  0
  8 18  1  0  0  0  0
M  CHG  1   6   1
M  END
> <s_m_source_file>
AV-unprocessed.smi

> <i_m_source_file_index>
3074

> <i_lp_mmshare_version>
43012

> <i_f3d_flags>
0

> <s_epik_input>
W2NIXTFuW2NIXVtjSF1uMVtDSF0yW0NIMl1bTkhdW0NIMl0y

> <s_epik_cmdline>
J2VwaWtfcHl0aG9uJywgJy1waCcsICc3LjAnLCAnLXRuJywgJzgnLCAnLW1hJywgJzIwMCcsICctbWV0YWxfYmluZGluZycsICctaW1hZScsICc8aW5maWxlLm1hZT4nLCAnLW9tYWUnLCAnPG91dGZpbGUubWFlPic=

> <r_lp_tautomer_probability>
1

> <r_epik_Ionization_Penalty>
0.0670812

> <r_epik_Ionization_Penalty_Charging>
0.0670812

> <r_epik_Ionization_Penalty_Neutral>
0

> <r_epik_State_Penalty>
0.102677

> <r_epik_Charging_Adjusted_Penalty>
0.169758

> <i_epik_Tot_Q>
1

> <i_epik_Tot_abs_Q>
1

> <r_epik_Metal_State_Penalty>
0.000102988

> <b_epik_Metal_Only>
0

> <s_lp_Force_Field>
OPLS_2005

> <r_lp_Energy>
18.1517

> <b_lp_Chiralities_Consistent>
1

> <s_lp_Variant>
AV-unprocessed.smi:3074-1

> <Gold.Version>
5.8.1

> <Gold.Id.Protein>
6NUR|6NUR_protein|mol2

> <Gold.PLP.Fitness>
36.2468

> <Gold.PLP.PLP>
-30.7038

> <Gold.PLP.part.hbond>
-1.0000

> <Gold.PLP.part.metal>
0.0000

> <Gold.PLP.part.buried>
-4.4399

> <Gold.PLP.part.nonpolar>
-25.2416

> <Gold.PLP.part.repulsive>
0.0386

> <Gold.PLP.ligand.clash>
0.0000

> <Gold.PLP.ligand.torsion>
0.3451

> <Gold.PLP.Chemscore.Hbond>
1.9840

> <Gold.PLP.Chemscore.CHOScore>
0.0000

> <Gold.PLP.Chemscore.Metal>
0.0000

> <Gold.Chemscore.Hbonds>
donor molecule, donor type, donor heavy atom, donor atom, acceptor molecule, acceptor atom, score
      L1  H     6    15       P1  8028  1.98

> <Gold.PLP.Chemscore.Internal.Correction>
0.2811

> <Gold.Rescore>
     Score         DG    S(hbond)    S(metal)    S(lipo)     H(rot)  DE(clash)    DE(int)     intcor
     13.22     -13.39       1.00        0.00      61.04       1.00       0.04       0.14       ----

> <Gold.Chemscore.Fitness>
13.2151

> <Gold.Chemscore.DG>
-13.3925

> <Gold.Chemscore.ZeroCoef>
-5.4800

> <Gold.Chemscore.Hbond>
0.9974

> <Gold.Chemscore.Metal>
0.0000

> <Gold.Chemscore.Lipo>
61.0351

> <Gold.Chemscore.Internal_Hbond>
0.0000

> <Gold.Chemscore.DEClash>
0.0355

> <Gold.Chemscore.DEInternal>
0.1419

> <Gold.Chemscore.Rot>
1.0000

> <Gold.Chemscore.Internal.Correction>
   9.000000E+99

> <Gold.Chemscore.Hbonds>
donor molecule, donor type, donor heavy atom, donor atom, acceptor molecule, acceptor atom, score
      L1  H     6    15       P1  8028  0.83

> <Gold.Chemscore.Hbond.Weighted>
-3.3314

> <Gold.Chemscore.Metal.Weighted>
-0.0000

> <Gold.Chemscore.Lipo.Weighted>
-7.1411

> <Gold.Chemscore.Internal_Hbond.Weighted>
0.0000

> <Gold.Chemscore.DEClash.Weighted>
0.0355

> <Gold.Chemscore.DEInternal.Weighted>
0.1419

> <Gold.Chemscore.Rot.Weighted>
2.5600

> <Gold.Chemscore.Internal.Correction.Weighted>
   9.000000E+99

> <Gold.Protein.RotatedTorsions>
[ 6907 6896 6895 6894 ] final   77.87 input  -60.11 | X-H torsion
[ 7974 7965 7964 7962 ] final  111.74 input  175.53 | X-H torsion
[ 8008 7997 7996 7995 ] final  145.35 input   59.86 | X-H torsion
[ 10167 10162 10161 10158 ] final   94.76 input  -65.29 | X-H torsion
[ 10718 10713 10712 10709 ] final  178.73 input   66.30 | X-H torsion
[ 10763 10752 10751 10750 ] final  173.91 input  -60.55 | X-H torsion
[ 11005 11000 10999 10996 ] final   13.72 input  -57.11 | X-H torsion

> <Gold.Protein.ActiveResidues>
 VAL166  LYS551  ARG553  GLY616  TRP617  ASP618  TYR619  PRO620  LYS621  CYS622 
 ASP623  PHE694  ASN695  SER759  ASP760  ASP761  ALA762  ILE779  LEU786  VAL792 
 PHE793  MET794  SER795  GLU796  ALA797  LYS798  CYS799  TRP800  GLU811  SER814 

> <Gold.Protein.RotatedAtoms>
  152.5136  134.3750  159.9331 H   0  0  0  0  0  0  0  0  0  0  0  0  # atno 6907 bound_to 6896
  151.3706  133.3850  159.2707 H   0  0  0  0  0  0  0  0  0  0  0  0  # atno 6908 bound_to 6896
  150.9581  134.8992  159.7772 H   0  0  0  0  0  0  0  0  0  0  0  0  # atno 6909 bound_to 6896
  145.2384  139.2789  143.4131 H   0  0  0  0  0  0  0  0  0  0  0  0  # atno 7974 bound_to 7965
  156.2885  140.2211  156.5202 H   0  0  0  0  0  0  0  0  0  0  0  0  # atno 8008 bound_to 7997
  154.7535  140.0478  157.0935 H   0  0  0  0  0  0  0  0  0  0  0  0  # atno 8009 bound_to 7997
  155.0080  140.3109  155.4844 H   0  0  0  0  0  0  0  0  0  0  0  0  # atno 8010 bound_to 7997
  139.8053  144.6796  150.9711 H   0  0  0  0  0  0  0  0  0  0  0  0  # atno 10167 bound_to 10162
  156.8863  130.9832  151.3055 H   0  0  0  0  0  0  0  0  0  0  0  0  # atno 10718 bound_to 10713
  154.4467  135.2763  155.1810 H   0  0  0  0  0  0  0  0  0  0  0  0  # atno 10763 bound_to 10752
  154.3654  135.6120  153.5716 H   0  0  0  0  0  0  0  0  0  0  0  0  # atno 10764 bound_to 10752
  152.9844  135.5844  154.4804 H   0  0  0  0  0  0  0  0  0  0  0  0  # atno 10765 bound_to 10752
  140.4775  134.0968  155.7744 H   0  0  0  0  0  0  0  0  0  0  0  0  # atno 11005 bound_to 11000
  146.3335  140.2740  142.8607 LP  0  0  0  0  0  0  0  0  0  0  0  0  # atno 17320 bound_to 7965
  144.9611  140.8276  143.5513 LP  0  0  0  0  0  0  0  0  0  0  0  0  # atno 17321 bound_to 7965
  140.7819  143.4240  151.0798 LP  0  0  0  0  0  0  0  0  0  0  0  0  # atno 17342 bound_to 10162
  139.7909  143.8220  152.3151 LP  0  0  0  0  0  0  0  0  0  0  0  0  # atno 17343 bound_to 10162
  157.6111  130.8583  149.8952 LP  0  0  0  0  0  0  0  0  0  0  0  0  # atno 17370 bound_to 10713
  156.0652  130.3693  150.0895 LP  0  0  0  0  0  0  0  0  0  0  0  0  # atno 17371 bound_to 10713
  141.1547  133.8904  157.2008 LP  0  0  0  0  0  0  0  0  0  0  0  0  # atno 17394 bound_to 11000
  139.9847  135.0086  156.9833 LP  0  0  0  0  0  0  0  0  0  0  0  0  # atno 17395 bound_to 11000

$$$$
