AV-unprocessed.smi:933|AV-procd|sdf|4201|dock4
  -GOLD-   22720 2103D 1   1.00000     0.00000
 Structure written by MMmdl.
 42 43  0  0  0  0  0  0  0  0  1 V2000
  145.7945  142.5144  154.3471 C   0  0  0  0  0  0  0  0  0  0  0  0
  147.3163  142.3515  154.2718 C   0  0  0  0  0  0  0  0  0  0  0  0
  147.7424  140.9220  154.3109 C   0  0  0  0  0  0  0  0  0  0  0  0
  148.4700  140.3970  155.3004 N   0  0  0  0  0  0  0  0  0  0  0  0
  148.7135  139.0312  155.1247 C   0  0  0  0  0  0  0  0  0  0  0  0
  149.5184  138.2787  156.1404 C   0  0  0  0  0  0  0  0  0  0  0  0
  150.9155  138.8829  156.3356 C   0  0  0  0  0  0  0  0  0  0  0  0
  150.8807  139.9489  157.3336 N   0  0  0  0  0  0  0  0  0  0  0  0
  151.9314  140.5867  157.8771 C   0  0  0  0  0  0  0  0  0  0  0  0
  153.0896  140.3128  157.5680 O   0  0  0  0  0  0  0  0  0  0  0  0
  151.6067  141.5310  158.7759 N   0  0  0  0  0  0  0  0  0  0  0  0
  152.5597  142.3712  159.4957 C   0  0  2  0  0  0  0  0  0  0  0  0
  153.3006  141.5789  160.5936 C   0  0  0  0  0  0  0  0  0  0  0  0
  152.8541  142.1760  161.9291 C   0  0  0  0  0  0  0  0  0  0  0  0
  152.4937  143.6194  161.5943 C   0  0  0  0  0  0  0  0  0  0  0  0
  151.8324  143.5261  160.2165 C   0  0  1  0  0  0  0  0  0  0  0  0
  151.8437  144.8482  159.4371 C   0  0  0  0  0  0  0  0  0  0  0  0
  148.1431  138.5224  153.9845 C   0  0  0  0  0  0  0  0  0  0  0  0
  147.2770  139.7418  153.0911 S   0  0  0  0  0  0  0  0  0  0  0  0
  145.5149  143.5676  154.3157 H   0  0  0  0  0  0  0  0  0  0  0  0
  145.3992  142.0917  155.2714 H   0  0  0  0  0  0  0  0  0  0  0  0
  145.3038  142.0137  153.5121 H   0  0  0  0  0  0  0  0  0  0  0  0
  147.6930  142.8029  153.3535 H   0  0  0  0  0  0  0  0  0  0  0  0
  147.7895  142.8835  155.0981 H   0  0  0  0  0  0  0  0  0  0  0  0
  148.9912  138.2664  157.0952 H   0  0  0  0  0  0  0  0  0  0  0  0
  149.6122  137.2348  155.8375 H   0  0  0  0  0  0  0  0  0  0  0  0
  151.6136  138.1075  156.6553 H   0  0  0  0  0  0  0  0  0  0  0  0
  151.2820  139.2825  155.3887 H   0  0  0  0  0  0  0  0  0  0  0  0
  149.9644  140.2279  157.6532 H   0  0  0  0  0  0  0  0  0  0  0  0
  150.6277  141.6845  158.9690 H   0  0  0  0  0  0  0  0  0  0  0  0
  153.2929  142.7755  158.7947 H   0  0  0  0  0  0  0  0  0  0  0  0
  153.1167  140.5044  160.5534 H   0  0  0  0  0  0  0  0  0  0  0  0
  154.3754  141.7220  160.4743 H   0  0  0  0  0  0  0  0  0  0  0  0
  151.9679  141.6511  162.2883 H   0  0  0  0  0  0  0  0  0  0  0  0
  153.6216  142.1015  162.6999 H   0  0  0  0  0  0  0  0  0  0  0  0
  151.8423  144.0723  162.3424 H   0  0  0  0  0  0  0  0  0  0  0  0
  153.4039  144.2186  161.5374 H   0  0  0  0  0  0  0  0  0  0  0  0
  150.7923  143.2387  160.3836 H   0  0  0  0  0  0  0  0  0  0  0  0
  152.8615  145.1962  159.2576 H   0  0  0  0  0  0  0  0  0  0  0  0
  151.3159  145.6291  159.9850 H   0  0  0  0  0  0  0  0  0  0  0  0
  151.3553  144.7335  158.4688 H   0  0  0  0  0  0  0  0  0  0  0  0
  148.1749  137.5063  153.6201 H   0  0  0  0  0  0  0  0  0  0  0  0
  1  2  1  0  0  0  0
  1 20  1  0  0  0  0
  1 21  1  0  0  0  0
  1 22  1  0  0  0  0
  2  3  1  0  0  0  0
  2 23  1  0  0  0  0
  2 24  1  0  0  0  0
  3 19  1  0  0  0  0
  3  4  2  0  0  0  0
  4  5  1  0  0  0  0
  5  6  1  0  0  0  0
  5 18  2  0  0  0  0
  6  7  1  0  0  0  0
  6 25  1  0  0  0  0
  6 26  1  0  0  0  0
  7  8  1  0  0  0  0
  7 27  1  0  0  0  0
  7 28  1  0  0  0  0
  8  9  1  0  0  0  0
  8 29  1  0  0  0  0
  9 10  2  0  0  0  0
  9 11  1  0  0  0  0
 11 12  1  0  0  0  0
 11 30  1  0  0  0  0
 12 16  1  0  0  0  0
 12 13  1  0  0  0  0
 12 31  1  0  0  0  0
 13 14  1  0  0  0  0
 13 32  1  0  0  0  0
 13 33  1  0  0  0  0
 14 15  1  0  0  0  0
 14 34  1  0  0  0  0
 14 35  1  0  0  0  0
 15 16  1  0  0  0  0
 15 36  1  0  0  0  0
 15 37  1  0  0  0  0
 16 17  1  0  0  0  0
 16 38  1  0  0  0  0
 17 39  1  0  0  0  0
 17 40  1  0  0  0  0
 17 41  1  0  0  0  0
 18 19  1  0  0  0  0
 18 42  1  0  0  0  0
M  END
> <s_m_source_file>
AV-unprocessed.smi

> <i_m_source_file_index>
933

> <i_lp_mmshare_version>
43012

> <i_f3d_flags>
0

> <s_epik_input>
W0NIM11bQ0gyXWMxbmMoW2NIXXMxKVtDSDJdW0NIMl1bTkhdQyg9TylbTkhdW0NAQEhdMltDSDJdW0NIMl1bQ0gyXVtDQEhdMltDSDNd

> <s_epik_cmdline>
J2VwaWtfcHl0aG9uJywgJy1waCcsICc3LjAnLCAnLXRuJywgJzgnLCAnLW1hJywgJzIwMCcsICctbWV0YWxfYmluZGluZycsICctaW1hZScsICc8aW5maWxlLm1hZT4nLCAnLW9tYWUnLCAnPG91dGZpbGUubWFlPic=

> <r_epik_Ionization_Penalty>
0.00203408

> <r_epik_Ionization_Penalty_Charging>
0

> <r_epik_Ionization_Penalty_Neutral>
0.00203408

> <r_epik_State_Penalty>
0.0013452

> <r_epik_Charging_Adjusted_Penalty>
0.0013452

> <i_epik_Tot_Q>
0

> <i_epik_Tot_abs_Q>
0

> <r_epik_Metal_State_Penalty>
-0

> <b_epik_Metal_Only>
0

> <s_lp_Force_Field>
OPLS_2005

> <r_lp_Energy>
18.2024

> <b_lp_Chiralities_Consistent>
1

> <s_lp_Variant>
AV-unprocessed.smi:933-1

> <Gold.Version>
5.8.1

> <Gold.Id.Protein>
6NUR|6NUR_protein|mol2

> <Gold.PLP.Fitness>
43.4106

> <Gold.PLP.PLP>
-38.0571

> <Gold.PLP.part.hbond>
-1.0000

> <Gold.PLP.part.metal>
0.0000

> <Gold.PLP.part.buried>
-2.1617

> <Gold.PLP.part.nonpolar>
-34.2046

> <Gold.PLP.part.repulsive>
0.2249

> <Gold.PLP.ligand.clash>
0.0000

> <Gold.PLP.ligand.torsion>
0.3540

> <Gold.PLP.Chemscore.Hbond>
1.0000

> <Gold.PLP.Chemscore.CHOScore>
1.0000

> <Gold.PLP.Chemscore.Metal>
0.0000

> <Gold.Chemscore.Hbonds>
donor molecule, donor type, donor heavy atom, donor atom, acceptor molecule, acceptor atom, score
      P1  H  7997  8009       L1    10  0.91
      L1  C    18    42       P1  7948  1.00

> <Gold.PLP.Chemscore.Internal.Correction>
0.0615

> <Gold.Rescore>
     Score         DG    S(hbond)    S(metal)    S(lipo)     H(rot)  DE(clash)    DE(int)     intcor
     16.90     -17.27       0.98        0.00     106.59       1.55       0.08       0.29       ----

> <Gold.Chemscore.Fitness>
16.9011

> <Gold.Chemscore.DG>
-17.2747

> <Gold.Chemscore.ZeroCoef>
-5.4800

> <Gold.Chemscore.Hbond>
0.9843

> <Gold.Chemscore.Metal>
0.0000

> <Gold.Chemscore.Lipo>
106.5868

> <Gold.Chemscore.Internal_Hbond>
0.0000

> <Gold.Chemscore.DEClash>
0.0807

> <Gold.Chemscore.DEInternal>
0.2929

> <Gold.Chemscore.Rot>
1.5482

> <Gold.Chemscore.Internal.Correction>
   9.000000E+99

> <Gold.Chemscore.Hbonds>
donor molecule, donor type, donor heavy atom, donor atom, acceptor molecule, acceptor atom, score
      P1  H  7997  8009       L1    10  0.86

> <Gold.Chemscore.Hbond.Weighted>
-3.2875

> <Gold.Chemscore.Metal.Weighted>
-0.0000

> <Gold.Chemscore.Lipo.Weighted>
-12.4707

> <Gold.Chemscore.Internal_Hbond.Weighted>
0.0000

> <Gold.Chemscore.DEClash.Weighted>
0.0807

> <Gold.Chemscore.DEInternal.Weighted>
0.2929

> <Gold.Chemscore.Rot.Weighted>
3.9635

> <Gold.Chemscore.Internal.Correction.Weighted>
   9.000000E+99

> <Gold.Protein.RotatedTorsions>
[ 6907 6896 6895 6894 ] final   54.95 input  -60.11 | X-H torsion
[ 7974 7965 7964 7962 ] final   19.99 input  175.53 | X-H torsion
[ 8008 7997 7996 7995 ] final  168.96 input   59.86 | X-H torsion
[ 10167 10162 10161 10158 ] final  -91.11 input  -65.29 | X-H torsion
[ 10718 10713 10712 10709 ] final   41.14 input   66.30 | X-H torsion
[ 10763 10752 10751 10750 ] final  107.22 input  -60.55 | X-H torsion
[ 11005 11000 10999 10996 ] final   84.00 input  -57.11 | X-H torsion

> <Gold.Protein.ActiveResidues>
 VAL166  LYS551  ARG553  GLY616  TRP617  ASP618  TYR619  PRO620  LYS621  CYS622 
 ASP623  PHE694  ASN695  SER759  ASP760  ASP761  ALA762  ILE779  LEU786  VAL792 
 PHE793  MET794  SER795  GLU796  ALA797  LYS798  CYS799  TRP800  GLU811  SER814 

> <Gold.Protein.RotatedAtoms>
  152.3490  134.7032  160.0241 H   0  0  0  0  0  0  0  0  0  0  0  0  # atno 6907 bound_to 6896
  151.7392  133.3316  159.3369 H   0  0  0  0  0  0  0  0  0  0  0  0  # atno 6908 bound_to 6896
  150.7528  134.6227  159.6189 H   0  0  0  0  0  0  0  0  0  0  0  0  # atno 6909 bound_to 6896
  146.2128  139.8233  142.8675 H   0  0  0  0  0  0  0  0  0  0  0  0  # atno 7974 bound_to 7965
  156.1500  140.1576  156.8785 H   0  0  0  0  0  0  0  0  0  0  0  0  # atno 8008 bound_to 7997
  154.5062  140.0812  156.7936 H   0  0  0  0  0  0  0  0  0  0  0  0  # atno 8009 bound_to 7997
  155.3915  140.3410  155.4254 H   0  0  0  0  0  0  0  0  0  0  0  0  # atno 8010 bound_to 7997
  140.3481  143.2906  151.9757 H   0  0  0  0  0  0  0  0  0  0  0  0  # atno 10167 bound_to 10162
  157.3902  130.7802  149.7263 H   0  0  0  0  0  0  0  0  0  0  0  0  # atno 10718 bound_to 10713
  153.4037  135.3851  155.2005 H   0  0  0  0  0  0  0  0  0  0  0  0  # atno 10763 bound_to 10752
  154.8731  135.3777  154.4587 H   0  0  0  0  0  0  0  0  0  0  0  0  # atno 10764 bound_to 10752
  153.5087  135.7087  153.5854 H   0  0  0  0  0  0  0  0  0  0  0  0  # atno 10765 bound_to 10752
  139.9013  134.8185  156.2386 H   0  0  0  0  0  0  0  0  0  0  0  0  # atno 11005 bound_to 11000
  145.3073  141.0210  143.3574 LP  0  0  0  0  0  0  0  0  0  0  0  0  # atno 17320 bound_to 7965
  144.8961  139.4710  143.6654 LP  0  0  0  0  0  0  0  0  0  0  0  0  # atno 17321 bound_to 7965
  139.4830  144.6099  151.7452 LP  0  0  0  0  0  0  0  0  0  0  0  0  # atno 17342 bound_to 10162
  140.5245  144.0827  150.6033 LP  0  0  0  0  0  0  0  0  0  0  0  0  # atno 17343 bound_to 10162
  155.9796  130.4038  150.3575 LP  0  0  0  0  0  0  0  0  0  0  0  0  # atno 17370 bound_to 10713
  157.1690  131.0364  151.2804 LP  0  0  0  0  0  0  0  0  0  0  0  0  # atno 17371 bound_to 10713
  141.0300  133.6994  156.1413 LP  0  0  0  0  0  0  0  0  0  0  0  0  # atno 17394 bound_to 11000
  140.7111  134.4461  157.5581 LP  0  0  0  0  0  0  0  0  0  0  0  0  # atno 17395 bound_to 11000

$$$$
