#       Name:                AV-unprocessed.smi:247
#       Creating user name   scv26
#       Creation time:       Thu Mar 26 20:54:55 2020


#       File generated by GOLD software.
#

@<TRIPOS>MOLECULE
AV-unprocessed.smi:247
    73    77     1
SMALL
NO_CHARGES


@<TRIPOS>ATOM
      1 ****        -3.8279   2.9090   0.0092 O.3            1 S1                 0.0000
      2 ****        -3.3910   1.5904  -0.2557 C.3            1 S1                 0.0000
      3 ****        -4.0379   0.5257   0.6740 C.3            1 S1                 0.0000
      4 ****        -3.5610  -0.8900   0.2188 C.3            1 S1                 0.0000
      5 ****        -2.1202  -1.0987   0.2547 N.pl3          1 S1                 0.0000
      6 ****        -1.3763  -1.5438   1.3247 C.2            1 S1                 0.0000
      7 ****        -0.0943  -1.6514   1.1064 N.2            1 S1                 0.0000
      8 ****         0.0565  -1.2739  -0.2222 C.ar           1 S1                 0.0000
      9 ****         1.1720  -1.1536  -1.0968 C.ar           1 S1                 0.0000
     10 ****         2.4369  -1.4424  -0.7010 N.3            1 S1                 0.0000
     11 ****         2.6625  -2.8259  -0.3155 C.3            1 S1                 0.0000
     12 ****         4.1758  -2.9579  -0.1940 C.3            1 S1                 0.0000
     13 ****         4.6928  -2.0194  -1.2822 C.3            1 S1                 0.0000
     14 ****         3.6076  -0.9339  -1.4262 C.3            1 S1                 0.0000
     15 ****         4.0661   0.4695  -0.9346 C.3            1 S1                 0.0000
     16 ****         4.3440   0.5136   0.5879 C.3            1 S1                 0.0000
     17 ****         4.8316   1.7932   0.9761 O.3            1 S1                 0.0000
     18 ****         3.8971   2.8392   0.7419 C.3            1 S1                 0.0000
     19 ****         3.6210   2.9507  -0.7634 C.3            1 S1                 0.0000
     20 ****         3.0992   1.6155  -1.3107 C.3            1 S1                 0.0000
     21 ****         2.9725   1.7276  -2.7143 O.3            1 S1                 0.0000
     22 ****         0.9285  -0.7356  -2.3670 N.ar           1 S1                 0.0000
     23 ****        -0.3170  -0.4527  -2.7582 C.ar           1 S1                 0.0000
     24 ****        -1.4470  -0.5162  -2.0522 N.ar           1 S1                 0.0000
     25 ****        -1.2095  -0.9309  -0.7748 C.ar           1 S1                 0.0000
     26 ****        -3.6608   0.8188   2.1495 C.3            1 S1                 0.0000
     27 ****        -4.4524  -0.0529   3.1408 C.3            1 S1                 0.0000
     28 ****        -5.8482   0.1387   2.9447 O.3            1 S1                 0.0000
     29 ****        -6.2886  -0.2520   1.6497 C.3            1 S1                 0.0000
     30 ****        -5.5837   0.5924   0.5706 C.3            1 S1                 0.0000
     31 ****        -3.3957   3.4952  -0.5931 H              1 S1                 0.0000
     32 ****        -3.6116   1.3664  -1.2997 H              1 S1                 0.0000
     33 ****        -2.3058   1.5865  -0.1534 H              1 S1                 0.0000
     34 ****        -4.0135  -1.6764   0.8204 H              1 S1                 0.0000
     35 ****        -3.8986  -1.0799  -0.8009 H              1 S1                 0.0000
     36 ****        -1.8159  -1.7796   2.2829 H              1 S1                 0.0000
     37 ****         2.1693  -3.0749   0.6241 H              1 S1                 0.0000
     38 ****         2.2795  -3.4908  -1.0914 H              1 S1                 0.0000
     39 ****         4.4995  -2.6053   0.7858 H              1 S1                 0.0000
     40 ****         4.5227  -3.9843  -0.3139 H              1 S1                 0.0000
     41 ****         5.6830  -1.6229  -1.0557 H              1 S1                 0.0000
     42 ****         4.7752  -2.5701  -2.2200 H              1 S1                 0.0000
     43 ****         3.3925  -0.8637  -2.4923 H              1 S1                 0.0000
     44 ****         5.0127   0.6834  -1.4343 H              1 S1                 0.0000
     45 ****         3.4473   0.2759   1.1628 H              1 S1                 0.0000
     46 ****         5.0976  -0.2240   0.8619 H              1 S1                 0.0000
     47 ****         2.9757   2.6540   1.2965 H              1 S1                 0.0000
     48 ****         4.3132   3.7741   1.1176 H              1 S1                 0.0000
     49 ****         2.8999   3.7464  -0.9540 H              1 S1                 0.0000
     50 ****         4.5416   3.2317  -1.2773 H              1 S1                 0.0000
     51 ****         2.1119   1.4301  -0.8876 H              1 S1                 0.0000
     52 ****         2.5940   0.9268  -3.0444 H              1 S1                 0.0000
     53 ****        -0.4227  -0.1263  -3.7823 H              1 S1                 0.0000
     54 ****        -2.5901   0.7042   2.3141 H              1 S1                 0.0000
     55 ****        -3.8795   1.8604   2.3864 H              1 S1                 0.0000
     56 ****        -4.1976  -1.1084   3.0434 H              1 S1                 0.0000
     57 ****        -4.2049   0.2327   4.1631 H              1 S1                 0.0000
     58 ****        -6.1233  -1.3193   1.5019 H              1 S1                 0.0000
     59 ****        -7.3662  -0.0979   1.5914 H              1 S1                 0.0000
     60 ****        -5.9260   1.6205   0.6905 H              1 S1                 0.0000
     61 ****        -5.9140   0.2815  -0.4211 H              1 S1                 0.0000
     62 ****        -3.5948   3.1591   0.9489 LP             1 S1                 0.0000
     63 ****        -4.8184   2.9675  -0.1155 LP             1 S1                 0.0000
     64 ****         0.6165  -1.9394   1.7481 LP             1 S1                 0.0000
     65 ****         2.4060  -0.8408   0.0972 LP             1 S1                 0.0000
     66 ****         5.6641   1.9877   0.4572 LP             1 S1                 0.0000
     67 ****         5.0454   1.7698   1.9527 LP             1 S1                 0.0000
     68 ****         3.8734   1.8696  -3.1245 LP             1 S1                 0.0000
     69 ****         2.3784   2.4999  -2.9392 LP             1 S1                 0.0000
     70 ****         1.6862  -0.6393  -3.0125 LP             1 S1                 0.0000
     71 ****        -2.3515  -0.2890  -2.4130 LP             1 S1                 0.0000
     72 ****        -6.0575   1.1081   3.0730 LP             1 S1                 0.0000
     73 ****        -6.3424  -0.4019   3.6255 LP             1 S1                 0.0000
@<TRIPOS>BOND
    1    1    2 1     
    2    1   31 1     
    3    2    3 1     
    4    2   32 1     
    5    2   33 1     
    6    3   30 1     
    7    3    4 1     
    8    3   26 1     
    9    4    5 1     
   10    4   34 1     
   11    4   35 1     
   12    5   25 1     
   13    5    6 1     
   14    6    7 2     
   15    6   36 1     
   16    7    8 1     
   17    8   25 ar    
   18    8    9 ar    
   19    9   10 1     
   20    9   22 ar    
   21   10   14 1     
   22   10   11 1     
   23   11   12 1     
   24   11   37 1     
   25   11   38 1     
   26   12   13 1     
   27   12   39 1     
   28   12   40 1     
   29   13   14 1     
   30   13   41 1     
   31   13   42 1     
   32   14   15 1     
   33   14   43 1     
   34   15   20 1     
   35   15   16 1     
   36   15   44 1     
   37   16   17 1     
   38   16   45 1     
   39   16   46 1     
   40   17   18 1     
   41   18   19 1     
   42   18   47 1     
   43   18   48 1     
   44   19   20 1     
   45   19   49 1     
   46   19   50 1     
   47   20   21 1     
   48   20   51 1     
   49   21   52 1     
   50   22   23 ar    
   51   23   24 ar    
   52   23   53 1     
   53   24   25 ar    
   54   26   27 1     
   55   26   54 1     
   56   26   55 1     
   57   27   28 1     
   58   27   56 1     
   59   27   57 1     
   60   28   29 1     
   61   29   30 1     
   62   29   58 1     
   63   29   59 1     
   64   30   60 1     
   65   30   61 1     
   66    1   62 1     
   67    1   63 1     
   68    7   64 1     
   69   10   65 1     
   70   17   66 1     
   71   17   67 1     
   72   21   68 1     
   73   21   69 1     
   74   22   70 1     
   75   24   71 1     
   76   28   72 1     
   77   28   73 1     
@<TRIPOS>SUBSTRUCTURE
      1 S1             1
@<TRIPOS>SET
LONE_PAIRS      STATIC     ATOMS    <user>   **** ""
12 62 63 64 65 66 67 68 69 70 71 72 73
DONOR_HYDROGENS      STATIC     ATOMS    <user>   **** ""
2 31 52
ATOM$BLUE        STATIC     ATOMS    COLORGROUP SYSTEM
12 62 63 64 65 66 67 68 69 70 71 72 73
ATOM$RED        STATIC     ATOMS    COLORGROUP SYSTEM
2 31 52
