AV-unprocessed.smi:49|AV-procd|sdf|476|dock10
  -GOLD-   2262016343D 1   1.00000     0.00000
 Structure written by MMmdl.
 27 28  0  0  0  0  0  0  0  0  1 V2000
  152.2781  143.8063  161.4701 C   0  0  0  0  0  0  0  0  0  0  0  0
  152.9356  143.0864  160.2873 C   0  0  0  0  0  0  0  0  0  0  0  0
  151.9783  142.8481  159.1668 C   0  0  0  0  0  0  0  0  0  0  0  0
  151.6586  141.5958  158.7219 N   0  0  0  0  0  0  0  0  0  0  0  0
  150.8324  141.9024  157.7253 C   0  0  0  0  0  0  0  0  0  0  0  0
  150.1439  140.9230  156.8259 C   0  0  1  0  0  0  0  0  0  0  0  0
  149.3142  141.6032  155.7272 C   0  0  0  0  0  0  0  0  0  0  0  0
  149.3725  140.5951  154.5887 C   0  0  1  0  0  0  0  0  0  0  0  0
  149.1249  141.1740  153.3253 O   0  0  0  0  0  0  0  0  0  0  0  0
  150.7957  140.0609  154.7141 C   0  0  0  0  0  0  0  0  0  0  0  0
  151.0685  140.0060  156.1477 N   0  0  0  0  0  0  0  0  0  0  0  0
  150.6864  143.2206  157.5749 N   0  0  0  0  0  0  0  0  0  0  0  0
  151.4302  143.8628  158.5000 N   0  0  0  0  0  0  0  0  0  0  0  0
  149.4672  140.3250  157.4377 H   0  0  0  0  0  0  0  0  0  0  0  0
  148.6562  139.7912  154.7652 H   0  0  0  0  0  0  0  0  0  0  0  0
  150.1248  143.7022  156.8875 H   0  0  0  0  0  0  0  0  0  0  0  0
  152.9950  143.9642  162.2758 H   0  0  0  0  0  0  0  0  0  0  0  0
  151.4476  143.2251  161.8719 H   0  0  0  0  0  0  0  0  0  0  0  0
  151.8921  144.7812  161.1711 H   0  0  0  0  0  0  0  0  0  0  0  0
  153.7762  143.6745  159.9174 H   0  0  0  0  0  0  0  0  0  0  0  0
  153.3476  142.1319  160.6169 H   0  0  0  0  0  0  0  0  0  0  0  0
  148.3001  141.8458  156.0455 H   0  0  0  0  0  0  0  0  0  0  0  0
  149.7976  142.5306  155.4128 H   0  0  0  0  0  0  0  0  0  0  0  0
  149.2189  140.5055  152.6642 H   0  0  0  0  0  0  0  0  0  0  0  0
  150.9249  139.0899  154.2356 H   0  0  0  0  0  0  0  0  0  0  0  0
  151.4916  140.7567  154.2434 H   0  0  0  0  0  0  0  0  0  0  0  0
  150.8835  139.0636  156.4754 H   0  0  0  0  0  0  0  0  0  0  0  0
  1  2  1  0  0  0  0
  1 17  1  0  0  0  0
  1 18  1  0  0  0  0
  1 19  1  0  0  0  0
  2 20  1  0  0  0  0
  2 21  1  0  0  0  0
  2  3  1  0  0  0  0
  3  4  1  0  0  0  0
  3 13  2  0  0  0  0
  4  5  2  0  0  0  0
  5  6  1  0  0  0  0
  5 12  1  0  0  0  0
  6 14  1  0  0  0  0
  6 11  1  0  0  0  0
  6  7  1  0  0  0  0
  7  8  1  0  0  0  0
  7 22  1  0  0  0  0
  7 23  1  0  0  0  0
  8 15  1  0  0  0  0
  8  9  1  0  0  0  0
  8 10  1  0  0  0  0
  9 24  1  0  0  0  0
 10 11  1  0  0  0  0
 10 25  1  0  0  0  0
 10 26  1  0  0  0  0
 11 27  1  0  0  0  0
 12 13  1  0  0  0  0
 12 16  1  0  0  0  0
M  END
> <s_m_source_file>
AV-unprocessed.smi

> <i_m_source_file_index>
49

> <i_lp_mmshare_version>
43012

> <i_f3d_flags>
0

> <s_epik_input>
W0NIM11bQ0gyXWMxbmMobltuSF0xKVtDQEBIXTJbQ0gyXVtDQEBIXShbT0hdKVtDSDJdW05IXTI=

> <s_epik_cmdline>
J2VwaWtfcHl0aG9uJywgJy1waCcsICc3LjAnLCAnLXRuJywgJzgnLCAnLW1hJywgJzIwMCcsICctbWV0YWxfYmluZGluZycsICctaW1hZScsICc8aW5maWxlLm1hZT4nLCAnLW9tYWUnLCAnPG91dGZpbGUubWFlPic=

> <r_epik_Ionization_Penalty>
1.31544

> <r_epik_Ionization_Penalty_Charging>
0

> <r_epik_Ionization_Penalty_Neutral>
1.31544

> <r_epik_State_Penalty>
2.06074

> <r_epik_Charging_Adjusted_Penalty>
2.06074

> <i_epik_Tot_Q>
0

> <i_epik_Tot_abs_Q>
0

> <r_epik_Metal_State_Penalty>
2.32913

> <b_epik_Metal_Only>
0

> <s_lp_Force_Field>
OPLS_2005

> <r_lp_Energy>
18.1426

> <b_lp_Chiralities_Consistent>
1

> <s_lp_Variant>
AV-unprocessed.smi:49-14

> <Gold.Version>
5.8.1

> <Gold.Id.Protein>
6NUR|6NUR_protein|mol2

> <Gold.PLP.Fitness>
34.8578

> <Gold.PLP.PLP>
-26.3177

> <Gold.PLP.part.hbond>
-3.6356

> <Gold.PLP.part.metal>
0.0000

> <Gold.PLP.part.buried>
-2.0870

> <Gold.PLP.part.nonpolar>
-21.0360

> <Gold.PLP.part.repulsive>
0.0992

> <Gold.PLP.ligand.clash>
0.0000

> <Gold.PLP.ligand.torsion>
0.0304

> <Gold.PLP.Chemscore.Hbond>
2.8640

> <Gold.PLP.Chemscore.CHOScore>
0.0000

> <Gold.PLP.Chemscore.Metal>
0.0000

> <Gold.Chemscore.Hbonds>
donor molecule, donor type, donor heavy atom, donor atom, acceptor molecule, acceptor atom, score
      L1  H     9    24       P1  7957  1.00
      L1  H    12    16       P1  8028  1.00
      P1  H  8011  8017       L1     9  0.70

> <Gold.PLP.Chemscore.Internal.Correction>
0.0090

> <Gold.Rescore>
     Score         DG    S(hbond)    S(metal)    S(lipo)     H(rot)  DE(clash)    DE(int)     intcor
     14.32     -14.46       2.33        0.00      50.73       1.86       0.03       0.11       ----

> <Gold.Chemscore.Fitness>
14.3157

> <Gold.Chemscore.DG>
-14.4611

> <Gold.Chemscore.ZeroCoef>
-5.4800

> <Gold.Chemscore.Hbond>
2.3341

> <Gold.Chemscore.Metal>
0.0000

> <Gold.Chemscore.Lipo>
50.7336

> <Gold.Chemscore.Internal_Hbond>
0.0000

> <Gold.Chemscore.DEClash>
0.0314

> <Gold.Chemscore.DEInternal>
0.1140

> <Gold.Chemscore.Rot>
1.8558

> <Gold.Chemscore.Internal.Correction>
   9.000000E+99

> <Gold.Chemscore.Hbonds>
donor molecule, donor type, donor heavy atom, donor atom, acceptor molecule, acceptor atom, score
      L1  H     9    24       P1  7957  0.94
      L1  H    12    16       P1  8028  0.95
      P1  H  8011  8017       L1     9  0.07

> <Gold.Chemscore.Hbond.Weighted>
-7.7960

> <Gold.Chemscore.Metal.Weighted>
-0.0000

> <Gold.Chemscore.Lipo.Weighted>
-5.9358

> <Gold.Chemscore.Internal_Hbond.Weighted>
0.0000

> <Gold.Chemscore.DEClash.Weighted>
0.0314

> <Gold.Chemscore.DEInternal.Weighted>
0.1140

> <Gold.Chemscore.Rot.Weighted>
4.7507

> <Gold.Chemscore.Internal.Correction.Weighted>
   9.000000E+99

> <Gold.Protein.RotatedTorsions>
[ 6907 6896 6895 6894 ] final -110.37 input  -60.11 | X-H torsion
[ 7974 7965 7964 7962 ] final  -11.15 input  175.53 | X-H torsion
[ 8008 7997 7996 7995 ] final  -84.63 input   59.86 | X-H torsion
[ 10167 10162 10161 10158 ] final  107.00 input  -65.29 | X-H torsion
[ 10718 10713 10712 10709 ] final  128.89 input   66.30 | X-H torsion
[ 10763 10752 10751 10750 ] final  -99.25 input  -60.55 | X-H torsion
[ 11005 11000 10999 10996 ] final -110.86 input  -57.11 | X-H torsion

> <Gold.Protein.ActiveResidues>
 VAL166  LYS551  ARG553  GLY616  TRP617  ASP618  TYR619  PRO620  LYS621  CYS622 
 ASP623  PHE694  ASN695  SER759  ASP760  ASP761  ALA762  ILE779  LEU786  VAL792 
 PHE793  MET794  SER795  GLU796  ALA797  LYS798  CYS799  TRP800  GLU811  SER814 

> <Gold.Protein.RotatedAtoms>
  150.7620  133.9392  159.3450 H   0  0  0  0  0  0  0  0  0  0  0  0  # atno 6907 bound_to 6896
  151.7298  135.0875  160.0307 H   0  0  0  0  0  0  0  0  0  0  0  0  # atno 6908 bound_to 6896
  152.3597  133.6243  159.6041 H   0  0  0  0  0  0  0  0  0  0  0  0  # atno 6909 bound_to 6896
  146.2197  140.2869  142.8366 H   0  0  0  0  0  0  0  0  0  0  0  0  # atno 7974 bound_to 7965
  154.6319  140.0602  156.9742 H   0  0  0  0  0  0  0  0  0  0  0  0  # atno 8008 bound_to 7997
  155.1652  140.3286  155.4385 H   0  0  0  0  0  0  0  0  0  0  0  0  # atno 8009 bound_to 7997
  156.2487  140.1923  156.6757 H   0  0  0  0  0  0  0  0  0  0  0  0  # atno 8010 bound_to 7997
  139.6963  144.7101  151.1262 H   0  0  0  0  0  0  0  0  0  0  0  0  # atno 10167 bound_to 10162
  157.5204  131.1098  150.9162 H   0  0  0  0  0  0  0  0  0  0  0  0  # atno 10718 bound_to 10713
  154.7483  135.4979  153.9243 H   0  0  0  0  0  0  0  0  0  0  0  0  # atno 10763 bound_to 10752
  153.1115  135.6710  153.9500 H   0  0  0  0  0  0  0  0  0  0  0  0  # atno 10764 bound_to 10752
  153.9258  135.3083  155.3426 H   0  0  0  0  0  0  0  0  0  0  0  0  # atno 10765 bound_to 10752
  141.0768  133.9288  157.2373 H   0  0  0  0  0  0  0  0  0  0  0  0  # atno 11005 bound_to 11000
  144.9155  140.7808  143.5780 LP  0  0  0  0  0  0  0  0  0  0  0  0  # atno 17320 bound_to 7965
  145.2803  139.1921  143.4795 LP  0  0  0  0  0  0  0  0  0  0  0  0  # atno 17321 bound_to 7965
  140.7697  143.5487  150.9229 LP  0  0  0  0  0  0  0  0  0  0  0  0  # atno 17342 bound_to 10162
  139.9167  143.6655  152.3105 LP  0  0  0  0  0  0  0  0  0  0  0  0  # atno 17343 bound_to 10162
  156.9774  130.5514  149.5294 LP  0  0  0  0  0  0  0  0  0  0  0  0  # atno 17370 bound_to 10713
  156.0349  130.5438  150.8629 LP  0  0  0  0  0  0  0  0  0  0  0  0  # atno 17371 bound_to 10713
  139.9580  135.0161  156.9182 LP  0  0  0  0  0  0  0  0  0  0  0  0  # atno 17394 bound_to 11000
  140.5556  134.0584  155.7383 LP  0  0  0  0  0  0  0  0  0  0  0  0  # atno 17395 bound_to 11000

$$$$
