AV-unprocessed.smi:866|AV-procd|sdf|3992|dock1
  -GOLD-   22720 1473D 1   1.00000     0.00000
 Structure written by MMmdl.
 34 34  0  0  0  0  0  0  0  0  2 V2000
  152.0729  145.7824  160.5860 C   0  0  0  0  0  0  0  0  0  0  0  0
  151.9824  144.5925  159.6745 C   0  0  0  0  0  0  0  0  0  0  0  0
  152.8915  143.5019  159.5665 C   0  0  0  0  0  0  0  0  0  0  0  0
  152.5208  142.6117  158.6606 N   0  0  0  0  0  0  0  0  0  0  0  0
  151.3680  143.1015  158.1584 N   0  0  0  0  0  0  0  0  0  0  0  0
  150.6677  142.3688  157.1214 C   0  0  0  0  0  0  0  0  0  0  0  0
  149.2363  142.0111  157.5460 C   0  0  0  0  0  0  0  0  0  0  0  0
  148.3357  141.9644  156.3761 N   0  3  0  0  0  0  0  0  0  0  0  0
  148.8775  141.2648  155.1861 C   0  0  2  0  0  0  0  0  0  0  0  0
  147.9994  141.5222  153.9495 C   0  0  0  0  0  0  0  0  0  0  0  0
  149.0055  139.7469  155.4548 C   0  0  0  0  0  0  0  0  0  0  0  0
  149.5848  138.9306  154.2904 C   0  0  0  0  0  0  0  0  0  0  0  0
  148.7650  138.0493  153.7131 N   0  0  0  0  0  0  0  0  0  0  0  0
  150.7453  139.0853  153.9137 O   0  0  0  0  0  0  0  0  0  0  0  0
  151.0172  144.2940  158.7549 C   0  0  0  0  0  0  0  0  0  0  0  0
  152.9399  145.7243  161.2444 H   0  0  0  0  0  0  0  0  0  0  0  0
  151.1923  145.8694  161.2226 H   0  0  0  0  0  0  0  0  0  0  0  0
  152.1584  146.7130  160.0246 H   0  0  0  0  0  0  0  0  0  0  0  0
  153.8054  143.3324  160.1166 H   0  0  0  0  0  0  0  0  0  0  0  0
  150.6587  142.9759  156.2148 H   0  0  0  0  0  0  0  0  0  0  0  0
  151.2338  141.4650  156.8929 H   0  0  0  0  0  0  0  0  0  0  0  0
  149.2350  141.0471  158.0548 H   0  0  0  0  0  0  0  0  0  0  0  0
  148.8621  142.7517  158.2543 H   0  0  0  0  0  0  0  0  0  0  0  0
  147.5056  141.4655  156.6641 H   0  0  0  0  0  0  0  0  0  0  0  0
  149.8751  141.6574  154.9811 H   0  0  0  0  0  0  0  0  0  0  0  0
  148.3882  140.9932  153.0788 H   0  0  0  0  0  0  0  0  0  0  0  0
  147.9644  142.5799  153.6888 H   0  0  0  0  0  0  0  0  0  0  0  0
  146.9755  141.1836  154.1115 H   0  0  0  0  0  0  0  0  0  0  0  0
  149.6211  139.5798  156.3401 H   0  0  0  0  0  0  0  0  0  0  0  0
  148.0216  139.3349  155.6834 H   0  0  0  0  0  0  0  0  0  0  0  0
  149.0921  137.4770  152.9479 H   0  0  0  0  0  0  0  0  0  0  0  0
  147.8180  137.9505  154.0506 H   0  0  0  0  0  0  0  0  0  0  0  0
  150.1202  144.8280  158.4780 H   0  0  0  0  0  0  0  0  0  0  0  0
  148.0714  142.9038  156.1165 H   0  0  0  0  0  0  0  0  0  0  0  0
  1  2  1  0  0  0  0
  1 16  1  0  0  0  0
  1 17  1  0  0  0  0
  1 18  1  0  0  0  0
  2 15  2  0  0  0  0
  2  3  1  0  0  0  0
  3  4  2  0  0  0  0
  3 19  1  0  0  0  0
  4  5  1  0  0  0  0
  5  6  1  0  0  0  0
  5 15  1  0  0  0  0
  6  7  1  0  0  0  0
  6 20  1  0  0  0  0
  6 21  1  0  0  0  0
  7  8  1  0  0  0  0
  7 22  1  0  0  0  0
  7 23  1  0  0  0  0
  8  9  1  0  0  0  0
  8 24  1  0  0  0  0
  8 34  1  0  0  0  0
  9 10  1  0  0  0  0
  9 11  1  0  0  0  0
  9 25  1  0  0  0  0
 10 26  1  0  0  0  0
 10 27  1  0  0  0  0
 10 28  1  0  0  0  0
 11 12  1  0  0  0  0
 11 29  1  0  0  0  0
 11 30  1  0  0  0  0
 12 13  1  0  0  0  0
 12 14  2  0  0  0  0
 13 31  1  0  0  0  0
 13 32  1  0  0  0  0
 15 33  1  0  0  0  0
M  CHG  1   8   1
M  END
> <s_m_source_file>
AV-unprocessed.smi

> <i_m_source_file_index>
866

> <i_lp_mmshare_version>
43012

> <i_f3d_flags>
0

> <s_epik_input>
W0NIM11jMVtjSF1ubihbY0hdMSlbQ0gyXVtDSDJdW05IXVtDQEhdKFtDSDNdKVtDSDJdQyg9TylbTkgyXQ==

> <s_epik_cmdline>
J2VwaWtfcHl0aG9uJywgJy1waCcsICc3LjAnLCAnLXRuJywgJzgnLCAnLW1hJywgJzIwMCcsICctbWV0YWxfYmluZGluZycsICctaW1hZScsICc8aW5maWxlLm1hZT4nLCAnLW9tYWUnLCAnPG91dGZpbGUubWFlPic=

> <r_lp_tautomer_probability>
1

> <r_epik_Ionization_Penalty>
0.0061413

> <r_epik_Ionization_Penalty_Charging>
0.00613574

> <r_epik_Ionization_Penalty_Neutral>
5.56035e-06

> <r_epik_State_Penalty>
0.00452343

> <r_epik_Charging_Adjusted_Penalty>
0.0106592

> <i_epik_Tot_Q>
1

> <i_epik_Tot_abs_Q>
1

> <r_epik_Metal_State_Penalty>
-0

> <b_epik_Metal_Only>
0

> <s_lp_Force_Field>
OPLS_2005

> <r_lp_Energy>
1.4749

> <b_lp_Chiralities_Consistent>
1

> <s_lp_Variant>
AV-unprocessed.smi:866-1

> <Gold.Version>
5.8.1

> <Gold.Id.Protein>
6NUR|6NUR_protein|mol2

> <Gold.PLP.Fitness>
44.3544

> <Gold.PLP.PLP>
-30.7761

> <Gold.PLP.part.hbond>
-3.0000

> <Gold.PLP.part.metal>
0.0000

> <Gold.PLP.part.buried>
0.2252

> <Gold.PLP.part.nonpolar>
-28.2372

> <Gold.PLP.part.repulsive>
0.2522

> <Gold.PLP.ligand.clash>
0.0000

> <Gold.PLP.ligand.torsion>
0.3466

> <Gold.PLP.Chemscore.Hbond>
3.6080

> <Gold.PLP.Chemscore.CHOScore>
1.0231

> <Gold.PLP.Chemscore.Metal>
0.0000

> <Gold.Chemscore.Hbonds>
donor molecule, donor type, donor heavy atom, donor atom, acceptor molecule, acceptor atom, score
      L1  H     8    34       P1  8028  1.70
      L1  H    13    31       P1  7948  1.00
      P1  H  7989  7998       L1    14  1.00
      L1  C    15    33       P1  8029  0.44

> <Gold.PLP.Chemscore.Internal.Correction>
0.3780

> <Gold.Rescore>
     Score         DG    S(hbond)    S(metal)    S(lipo)     H(rot)  DE(clash)    DE(int)     intcor
     14.63     -16.23       2.53        0.00      80.46       2.77       1.22       0.39       ----

> <Gold.Chemscore.Fitness>
14.6261

> <Gold.Chemscore.DG>
-16.2311

> <Gold.Chemscore.ZeroCoef>
-5.4800

> <Gold.Chemscore.Hbond>
2.5266

> <Gold.Chemscore.Metal>
0.0000

> <Gold.Chemscore.Lipo>
80.4601

> <Gold.Chemscore.Internal_Hbond>
0.0000

> <Gold.Chemscore.DEClash>
1.2155

> <Gold.Chemscore.DEInternal>
0.3895

> <Gold.Chemscore.Rot>
2.7740

> <Gold.Chemscore.Internal.Correction>
   9.000000E+99

> <Gold.Chemscore.Hbonds>
donor molecule, donor type, donor heavy atom, donor atom, acceptor molecule, acceptor atom, score
      L1  H     8    34       P1  8028  0.52
      L1  H    13    31       P1  7948  0.97
      P1  H  7989  7998       L1    14  0.91

> <Gold.Chemscore.Hbond.Weighted>
-8.4387

> <Gold.Chemscore.Metal.Weighted>
-0.0000

> <Gold.Chemscore.Lipo.Weighted>
-9.4138

> <Gold.Chemscore.Internal_Hbond.Weighted>
0.0000

> <Gold.Chemscore.DEClash.Weighted>
1.2155

> <Gold.Chemscore.DEInternal.Weighted>
0.3895

> <Gold.Chemscore.Rot.Weighted>
7.1014

> <Gold.Chemscore.Internal.Correction.Weighted>
   9.000000E+99

> <Gold.Protein.RotatedTorsions>
[ 6907 6896 6895 6894 ] final   49.77 input  -60.11 | X-H torsion
[ 7974 7965 7964 7962 ] final  174.51 input  175.53 | X-H torsion
[ 8008 7997 7996 7995 ] final -100.85 input   59.86 | X-H torsion
[ 10167 10162 10161 10158 ] final  -28.09 input  -65.29 | X-H torsion
[ 10718 10713 10712 10709 ] final  166.33 input   66.30 | X-H torsion
[ 10763 10752 10751 10750 ] final -162.05 input  -60.55 | X-H torsion
[ 11005 11000 10999 10996 ] final  101.13 input  -57.11 | X-H torsion

> <Gold.Protein.ActiveResidues>
 VAL166  LYS551  ARG553  GLY616  TRP617  ASP618  TYR619  PRO620  LYS621  CYS622 
 ASP623  PHE694  ASN695  SER759  ASP760  ASP761  ALA762  ILE779  LEU786  VAL792 
 PHE793  MET794  SER795  GLU796  ALA797  LYS798  CYS799  TRP800  GLU811  SER814 

> <Gold.Protein.RotatedAtoms>
  152.2944  134.7683  160.0370 H   0  0  0  0  0  0  0  0  0  0  0  0  # atno 6907 bound_to 6896
  151.8218  133.3390  159.3594 H   0  0  0  0  0  0  0  0  0  0  0  0  # atno 6908 bound_to 6896
  150.7245  134.5495  159.5832 H   0  0  0  0  0  0  0  0  0  0  0  0  # atno 6909 bound_to 6896
  144.7220  139.9807  143.6438 H   0  0  0  0  0  0  0  0  0  0  0  0  # atno 7974 bound_to 7965
  154.8344  140.0438  157.1499 H   0  0  0  0  0  0  0  0  0  0  0  0  # atno 8008 bound_to 7997
  154.9116  140.3014  155.5243 H   0  0  0  0  0  0  0  0  0  0  0  0  # atno 8009 bound_to 7997
  156.2989  140.2357  156.4156 H   0  0  0  0  0  0  0  0  0  0  0  0  # atno 8010 bound_to 7997
  140.7272  143.4039  151.1219 H   0  0  0  0  0  0  0  0  0  0  0  0  # atno 10167 bound_to 10162
  157.0674  131.0357  151.2624 H   0  0  0  0  0  0  0  0  0  0  0  0  # atno 10718 bound_to 10713
  154.7249  135.3033  154.8987 H   0  0  0  0  0  0  0  0  0  0  0  0  # atno 10763 bound_to 10752
  153.9848  135.6726  153.4755 H   0  0  0  0  0  0  0  0  0  0  0  0  # atno 10764 bound_to 10752
  153.0866  135.4981  154.8527 H   0  0  0  0  0  0  0  0  0  0  0  0  # atno 10765 bound_to 10752
  139.8772  134.9170  156.4860 H   0  0  0  0  0  0  0  0  0  0  0  0  # atno 11005 bound_to 11000
  146.0490  139.3493  143.0651 LP  0  0  0  0  0  0  0  0  0  0  0  0  # atno 17320 bound_to 7965
  145.8239  140.9665  143.0884 LP  0  0  0  0  0  0  0  0  0  0  0  0  # atno 17321 bound_to 7965
  139.7662  143.8561  152.3111 LP  0  0  0  0  0  0  0  0  0  0  0  0  # atno 17342 bound_to 10162
  139.8464  144.7185  150.9267 LP  0  0  0  0  0  0  0  0  0  0  0  0  # atno 17343 bound_to 10162
  157.4906  130.7820  149.7504 LP  0  0  0  0  0  0  0  0  0  0  0  0  # atno 17370 bound_to 10713
  155.9960  130.3908  150.2795 LP  0  0  0  0  0  0  0  0  0  0  0  0  # atno 17371 bound_to 10713
  140.8693  133.8000  155.9347 LP  0  0  0  0  0  0  0  0  0  0  0  0  # atno 17394 bound_to 11000
  140.8969  134.2426  157.5063 LP  0  0  0  0  0  0  0  0  0  0  0  0  # atno 17395 bound_to 11000

$$$$
