AV-unprocessed.smi:573|AV-procd|sdf|2971|dock3
  -GOLD-   2262023473D 1   1.00000     0.00000
 Structure written by MMmdl.
 44 46  0  0  0  0  0  0  0  0  1 V2000
  147.6438  140.2749  154.7091 C   0  0  0  0  0  0  0  0  0  0  0  0
  149.0555  140.8548  154.5283 C   0  0  2  0  0  0  0  0  0  0  0  0
  149.2291  141.3154  153.2042 O   0  0  0  0  0  0  0  0  0  0  0  0
  150.2039  139.8946  154.8946 C   0  0  0  0  0  0  0  0  0  0  0  0
  150.6630  140.0515  156.2641 N   0  0  0  0  0  0  0  0  0  0  0  0
  151.0304  141.1688  157.0046 C   0  0  0  0  0  0  0  0  0  0  0  0
  151.0175  142.4134  156.5305 N   0  0  0  0  0  0  0  0  0  0  0  0
  151.4565  143.1450  157.6179 C   0  0  0  0  0  0  0  0  0  0  0  0
  151.6639  144.5354  157.7639 C   0  0  0  0  0  0  0  0  0  0  0  0
  152.1262  145.0637  158.9872 C   0  0  0  0  0  0  0  0  0  0  0  0
  152.3890  144.2117  160.0794 C   0  0  0  0  0  0  0  0  0  0  0  0
  152.1886  142.8232  159.9565 C   0  0  0  0  0  0  0  0  0  0  0  0
  151.7242  142.3001  158.7346 C   0  0  0  0  0  0  0  0  0  0  0  0
  151.4265  141.0153  158.2897 N   0  0  0  0  0  0  0  0  0  0  0  0
  151.5283  139.7822  159.0576 C   0  0  0  0  0  0  0  0  0  0  0  0
  152.9865  139.4346  159.3989 C   0  0  2  0  0  0  0  0  0  0  0  0
  153.1108  138.0501  160.0626 C   0  0  0  0  0  0  0  0  0  0  0  0
  154.5677  137.7671  160.4460 C   0  0  0  0  0  0  0  0  0  0  0  0
  155.1146  138.9234  161.2901 C   0  0  0  0  0  0  0  0  0  0  0  0
  154.8859  140.2642  160.5740 C   0  0  0  0  0  0  0  0  0  0  0  0
  153.5019  140.4289  160.2824 O   0  0  0  0  0  0  0  0  0  0  0  0
  147.4986  139.9115  155.7267 H   0  0  0  0  0  0  0  0  0  0  0  0
  147.4571  139.4442  154.0279 H   0  0  0  0  0  0  0  0  0  0  0  0
  146.8834  141.0323  154.5173 H   0  0  0  0  0  0  0  0  0  0  0  0
  149.1426  141.7318  155.1702 H   0  0  0  0  0  0  0  0  0  0  0  0
  149.3324  140.5662  152.6378 H   0  0  0  0  0  0  0  0  0  0  0  0
  149.9015  138.8590  154.7363 H   0  0  0  0  0  0  0  0  0  0  0  0
  151.0507  140.0728  154.2307 H   0  0  0  0  0  0  0  0  0  0  0  0
  150.6553  139.1892  156.7891 H   0  0  0  0  0  0  0  0  0  0  0  0
  151.4680  145.1965  156.9328 H   0  0  0  0  0  0  0  0  0  0  0  0
  152.2809  146.1280  159.0874 H   0  0  0  0  0  0  0  0  0  0  0  0
  152.7454  144.6247  161.0117 H   0  0  0  0  0  0  0  0  0  0  0  0
  152.3917  142.1683  160.7906 H   0  0  0  0  0  0  0  0  0  0  0  0
  150.9436  139.8923  159.9714 H   0  0  0  0  0  0  0  0  0  0  0  0
  151.0625  138.9738  158.4929 H   0  0  0  0  0  0  0  0  0  0  0  0
  153.5722  139.4450  158.4778 H   0  0  0  0  0  0  0  0  0  0  0  0
  152.4852  138.0121  160.9555 H   0  0  0  0  0  0  0  0  0  0  0  0
  152.7448  137.2734  159.3905 H   0  0  0  0  0  0  0  0  0  0  0  0
  154.6424  136.8271  160.9931 H   0  0  0  0  0  0  0  0  0  0  0  0
  155.1695  137.6545  159.5434 H   0  0  0  0  0  0  0  0  0  0  0  0
  154.6137  138.9389  162.2587 H   0  0  0  0  0  0  0  0  0  0  0  0
  156.1765  138.7771  161.4888 H   0  0  0  0  0  0  0  0  0  0  0  0
  155.2115  141.0885  161.2087 H   0  0  0  0  0  0  0  0  0  0  0  0
  155.4710  140.3207  159.6549 H   0  0  0  0  0  0  0  0  0  0  0  0
  1  2  1  0  0  0  0
  1 22  1  0  0  0  0
  1 23  1  0  0  0  0
  1 24  1  0  0  0  0
  2  3  1  0  0  0  0
  2  4  1  0  0  0  0
  2 25  1  0  0  0  0
  3 26  1  0  0  0  0
  4  5  1  0  0  0  0
  4 27  1  0  0  0  0
  4 28  1  0  0  0  0
  5  6  1  0  0  0  0
  5 29  1  0  0  0  0
  6 14  1  0  0  0  0
  6  7  2  0  0  0  0
  7  8  1  0  0  0  0
  8 13  2  0  0  0  0
  8  9  1  0  0  0  0
  9 10  2  0  0  0  0
  9 30  1  0  0  0  0
 10 11  1  0  0  0  0
 10 31  1  0  0  0  0
 11 12  2  0  0  0  0
 11 32  1  0  0  0  0
 12 13  1  0  0  0  0
 12 33  1  0  0  0  0
 13 14  1  0  0  0  0
 14 15  1  0  0  0  0
 15 16  1  0  0  0  0
 15 34  1  0  0  0  0
 15 35  1  0  0  0  0
 16 21  1  0  0  0  0
 16 17  1  0  0  0  0
 16 36  1  0  0  0  0
 17 18  1  0  0  0  0
 17 37  1  0  0  0  0
 17 38  1  0  0  0  0
 18 19  1  0  0  0  0
 18 39  1  0  0  0  0
 18 40  1  0  0  0  0
 19 20  1  0  0  0  0
 19 41  1  0  0  0  0
 19 42  1  0  0  0  0
 20 21  1  0  0  0  0
 20 43  1  0  0  0  0
 20 44  1  0  0  0  0
M  END
> <s_m_source_file>
AV-unprocessed.smi

> <i_m_source_file_index>
573

> <i_lp_mmshare_version>
43012

> <i_f3d_flags>
0

> <s_epik_input>
W0NIM11bQ0BIXShbT0hdKVtDSDJdW05IXWMobjEpbihjKGMxMilbY0hdW2NIXVtjSF1bY0hdMilbQ0gyXVtDQEBIXTNbQ0gyXVtDSDJdW0NIMl1bQ0gyXU8z

> <s_epik_cmdline>
J2VwaWtfcHl0aG9uJywgJy1waCcsICc3LjAnLCAnLXRuJywgJzgnLCAnLW1hJywgJzIwMCcsICctbWV0YWxfYmluZGluZycsICctaW1hZScsICc8aW5maWxlLm1hZT4nLCAnLW9tYWUnLCAnPG91dGZpbGUubWFlPic=

> <r_epik_Ionization_Penalty>
1.30635

> <r_epik_Ionization_Penalty_Charging>
0

> <r_epik_Ionization_Penalty_Neutral>
1.30635

> <r_epik_State_Penalty>
1.38073

> <r_epik_Charging_Adjusted_Penalty>
1.38073

> <i_epik_Tot_Q>
0

> <i_epik_Tot_abs_Q>
0

> <r_epik_Metal_State_Penalty>
0.00547412

> <b_epik_Metal_Only>
0

> <s_lp_Force_Field>
OPLS_2005

> <r_lp_Energy>
12.415

> <b_lp_Chiralities_Consistent>
1

> <s_lp_Variant>
AV-unprocessed.smi:573-5

> <Gold.Version>
5.8.1

> <Gold.Id.Protein>
6NUR|6NUR_protein|mol2

> <Gold.PLP.Fitness>
48.8847

> <Gold.PLP.PLP>
-44.3544

> <Gold.PLP.part.hbond>
-2.5530

> <Gold.PLP.part.metal>
0.0000

> <Gold.PLP.part.buried>
-5.3120

> <Gold.PLP.part.nonpolar>
-35.9051

> <Gold.PLP.part.repulsive>
0.1741

> <Gold.PLP.ligand.clash>
0.0000

> <Gold.PLP.ligand.torsion>
0.6133

> <Gold.PLP.Chemscore.Hbond>
1.9120

> <Gold.PLP.Chemscore.CHOScore>
0.0000

> <Gold.PLP.Chemscore.Metal>
0.0000

> <Gold.Chemscore.Hbonds>
donor molecule, donor type, donor heavy atom, donor atom, acceptor molecule, acceptor atom, score
      L1  H     3    26       P1  7957  0.93
      P1  H  8011  8017       L1     3  0.96

> <Gold.PLP.Chemscore.Internal.Correction>
0.0208

> <Gold.Rescore>
     Score         DG    S(hbond)    S(metal)    S(lipo)     H(rot)  DE(clash)    DE(int)     intcor
     17.74     -19.75       1.46        0.00     124.70       2.02       0.03       1.98       ----

> <Gold.Chemscore.Fitness>
17.7414

> <Gold.Chemscore.DG>
-19.7534

> <Gold.Chemscore.ZeroCoef>
-5.4800

> <Gold.Chemscore.Hbond>
1.4553

> <Gold.Chemscore.Metal>
0.0000

> <Gold.Chemscore.Lipo>
124.7006

> <Gold.Chemscore.Internal_Hbond>
0.0000

> <Gold.Chemscore.DEClash>
0.0313

> <Gold.Chemscore.DEInternal>
1.9807

> <Gold.Chemscore.Rot>
2.0224

> <Gold.Chemscore.Internal.Correction>
   9.000000E+99

> <Gold.Chemscore.Hbonds>
donor molecule, donor type, donor heavy atom, donor atom, acceptor molecule, acceptor atom, score
      L1  H     3    26       P1  7957  0.88
      P1  H  8011  8017       L1     3  0.26

> <Gold.Chemscore.Hbond.Weighted>
-4.8608

> <Gold.Chemscore.Metal.Weighted>
-0.0000

> <Gold.Chemscore.Lipo.Weighted>
-14.5900

> <Gold.Chemscore.Internal_Hbond.Weighted>
0.0000

> <Gold.Chemscore.DEClash.Weighted>
0.0313

> <Gold.Chemscore.DEInternal.Weighted>
1.9807

> <Gold.Chemscore.Rot.Weighted>
5.1773

> <Gold.Chemscore.Internal.Correction.Weighted>
   9.000000E+99

> <Gold.Protein.RotatedTorsions>
[ 6907 6896 6895 6894 ] final   65.65 input  -60.11 | X-H torsion
[ 7974 7965 7964 7962 ] final   47.41 input  175.53 | X-H torsion
[ 8008 7997 7996 7995 ] final -161.93 input   59.86 | X-H torsion
[ 10167 10162 10161 10158 ] final  108.11 input  -65.29 | X-H torsion
[ 10718 10713 10712 10709 ] final  -21.59 input   66.30 | X-H torsion
[ 10763 10752 10751 10750 ] final  -43.71 input  -60.55 | X-H torsion
[ 11005 11000 10999 10996 ] final   90.24 input  -57.11 | X-H torsion

> <Gold.Protein.ActiveResidues>
 VAL166  LYS551  ARG553  GLY616  TRP617  ASP618  TYR619  PRO620  LYS621  CYS622 
 ASP623  PHE694  ASN695  SER759  ASP760  ASP761  ALA762  ILE779  LEU786  VAL792 
 PHE793  MET794  SER795  GLU796  ALA797  LYS798  CYS799  TRP800  GLU811  SER814 

> <Gold.Protein.RotatedAtoms>
  152.4423  134.5565  159.9881 H   0  0  0  0  0  0  0  0  0  0  0  0  # atno 6907 bound_to 6896
  151.5659  133.3391  159.2988 H   0  0  0  0  0  0  0  0  0  0  0  0  # atno 6908 bound_to 6896
  150.8332  134.7627  159.6935 H   0  0  0  0  0  0  0  0  0  0  0  0  # atno 6909 bound_to 6896
  146.0301  139.4753  142.9843 H   0  0  0  0  0  0  0  0  0  0  0  0  # atno 7974 bound_to 7965
  155.7994  140.0889  157.1966 H   0  0  0  0  0  0  0  0  0  0  0  0  # atno 8008 bound_to 7997
  154.3982  140.1475  156.3315 H   0  0  0  0  0  0  0  0  0  0  0  0  # atno 8009 bound_to 7997
  155.8478  140.3436  155.5676 H   0  0  0  0  0  0  0  0  0  0  0  0  # atno 8010 bound_to 7997
  139.6873  144.7112  151.1410 H   0  0  0  0  0  0  0  0  0  0  0  0  # atno 10167 bound_to 10162
  156.5160  130.4621  149.6622 H   0  0  0  0  0  0  0  0  0  0  0  0  # atno 10718 bound_to 10713
  154.0001  135.6694  153.4758 H   0  0  0  0  0  0  0  0  0  0  0  0  # atno 10763 bound_to 10752
  153.0666  135.4997  154.8210 H   0  0  0  0  0  0  0  0  0  0  0  0  # atno 10764 bound_to 10752
  154.7058  135.3087  154.9235 H   0  0  0  0  0  0  0  0  0  0  0  0  # atno 10765 bound_to 10752
  139.8860  134.8601  156.3256 H   0  0  0  0  0  0  0  0  0  0  0  0  # atno 11005 bound_to 11000
  145.7055  141.0123  143.1481 LP  0  0  0  0  0  0  0  0  0  0  0  0  # atno 17320 bound_to 7965
  144.7026  139.8695  143.7439 LP  0  0  0  0  0  0  0  0  0  0  0  0  # atno 17321 bound_to 7965
  140.7671  143.5611  150.9098 LP  0  0  0  0  0  0  0  0  0  0  0  0  # atno 17342 bound_to 10162
  139.9286  143.6520  152.3081 LP  0  0  0  0  0  0  0  0  0  0  0  0  # atno 17343 bound_to 10162
  156.3194  130.7272  151.2181 LP  0  0  0  0  0  0  0  0  0  0  0  0  # atno 17370 bound_to 10713
  157.7444  131.0459  150.4869 LP  0  0  0  0  0  0  0  0  0  0  0  0  # atno 17371 bound_to 10713
  140.9757  133.7299  156.0599 LP  0  0  0  0  0  0  0  0  0  0  0  0  # atno 17394 bound_to 11000
  140.7813  134.3722  157.5486 LP  0  0  0  0  0  0  0  0  0  0  0  0  # atno 17395 bound_to 11000

$$$$
