AV-unprocessed.smi:3333|AV-procd|sdf|12831|dock4
  -GOLD-   2272019213D 1   1.00000     0.00000
 Structure written by MMmdl.
 41 43  0  0  0  0  0  0  0  0  1 V2000
  147.5503  134.1692  162.4162 C   0  0  0  0  0  0  0  0  0  0  0  0
  148.6647  135.1565  162.0536 C   0  0  0  0  0  0  0  0  0  0  0  0
  148.6268  135.5609  160.6178 C   0  0  0  0  0  0  0  0  0  0  0  0
  148.6252  136.8329  160.2110 N   0  0  0  0  0  0  0  0  0  0  0  0
  148.5562  136.9552  158.8193 C   0  0  0  0  0  0  0  0  0  0  0  0
  148.5532  138.3178  158.1862 C   0  0  0  0  0  0  0  0  0  0  0  0
  149.9690  138.8998  158.1290 C   0  0  0  0  0  0  0  0  0  0  0  0
  150.9106  138.2099  157.7364 O   0  0  0  0  0  0  0  0  0  0  0  0
  150.1083  140.1724  158.5324 N   0  0  0  0  0  0  0  0  0  0  0  0
  151.3685  140.9070  158.5705 C   0  0  0  0  0  0  0  0  0  0  0  0
  151.2033  142.3084  159.1957 C   0  0  2  0  0  0  0  0  0  0  0  0
  151.0800  143.4482  158.1572 C   0  0  0  0  0  0  0  0  0  0  0  0
  152.1948  144.4230  158.5777 C   0  0  1  0  0  0  0  0  0  0  0  0
  151.8232  145.0854  159.9176 C   0  0  0  0  0  0  0  0  0  0  0  0
  152.0130  143.9374  160.9273 C   0  0  0  0  0  0  0  0  0  0  0  0
  152.4268  142.7584  160.0260 C   0  0  2  0  0  0  0  0  0  0  0  0
  153.3018  143.4629  158.9934 C   0  0  0  0  0  0  0  0  0  0  0  0
  148.4823  135.7446  158.1749 C   0  0  0  0  0  0  0  0  0  0  0  0
  148.5080  134.4091  159.2931 S   0  0  0  0  0  0  0  0  0  0  0  0
  147.6050  133.8910  163.4686 H   0  0  0  0  0  0  0  0  0  0  0  0
  147.6265  133.2563  161.8251 H   0  0  0  0  0  0  0  0  0  0  0  0
  146.5663  134.6037  162.2368 H   0  0  0  0  0  0  0  0  0  0  0  0
  148.5875  136.0499  162.6744 H   0  0  0  0  0  0  0  0  0  0  0  0
  149.6375  134.7120  162.2652 H   0  0  0  0  0  0  0  0  0  0  0  0
  148.1298  138.2637  157.1821 H   0  0  0  0  0  0  0  0  0  0  0  0
  147.9221  139.0069  158.7485 H   0  0  0  0  0  0  0  0  0  0  0  0
  149.2834  140.6658  158.8415 H   0  0  0  0  0  0  0  0  0  0  0  0
  152.1119  140.3320  159.1253 H   0  0  0  0  0  0  0  0  0  0  0  0
  151.7435  140.9858  157.5499 H   0  0  0  0  0  0  0  0  0  0  0  0
  150.3207  142.2945  159.8369 H   0  0  0  0  0  0  0  0  0  0  0  0
  151.2621  143.0859  157.1445 H   0  0  0  0  0  0  0  0  0  0  0  0
  150.0940  143.9139  158.1685 H   0  0  0  0  0  0  0  0  0  0  0  0
  152.4699  145.1348  157.7989 H   0  0  0  0  0  0  0  0  0  0  0  0
  152.4974  145.9119  160.1455 H   0  0  0  0  0  0  0  0  0  0  0  0
  150.8042  145.4740  159.9163 H   0  0  0  0  0  0  0  0  0  0  0  0
  152.8062  144.1788  161.6359 H   0  0  0  0  0  0  0  0  0  0  0  0
  151.1081  143.7300  161.4997 H   0  0  0  0  0  0  0  0  0  0  0  0
  152.9150  141.9498  160.5710 H   0  0  0  0  0  0  0  0  0  0  0  0
  153.6375  142.8122  158.1847 H   0  0  0  0  0  0  0  0  0  0  0  0
  154.1678  143.9641  159.4297 H   0  0  0  0  0  0  0  0  0  0  0  0
  148.4164  135.5587  157.1132 H   0  0  0  0  0  0  0  0  0  0  0  0
  1  2  1  0  0  0  0
  1 20  1  0  0  0  0
  1 21  1  0  0  0  0
  1 22  1  0  0  0  0
  2  3  1  0  0  0  0
  2 23  1  0  0  0  0
  2 24  1  0  0  0  0
  3 19  1  0  0  0  0
  3  4  2  0  0  0  0
  4  5  1  0  0  0  0
  5  6  1  0  0  0  0
  5 18  2  0  0  0  0
  6  7  1  0  0  0  0
  6 25  1  0  0  0  0
  6 26  1  0  0  0  0
  7  8  2  0  0  0  0
  7  9  1  0  0  0  0
  9 10  1  0  0  0  0
  9 27  1  0  0  0  0
 10 11  1  0  0  0  0
 10 28  1  0  0  0  0
 10 29  1  0  0  0  0
 11 16  1  0  0  0  0
 11 12  1  0  0  0  0
 11 30  1  0  0  0  0
 12 13  1  0  0  0  0
 12 31  1  0  0  0  0
 12 32  1  0  0  0  0
 13 17  1  0  0  0  0
 13 14  1  0  0  0  0
 13 33  1  0  0  0  0
 14 15  1  0  0  0  0
 14 34  1  0  0  0  0
 14 35  1  0  0  0  0
 15 16  1  0  0  0  0
 15 36  1  0  0  0  0
 15 37  1  0  0  0  0
 16 17  1  0  0  0  0
 16 38  1  0  0  0  0
 17 39  1  0  0  0  0
 17 40  1  0  0  0  0
 18 19  1  0  0  0  0
 18 41  1  0  0  0  0
M  END
> <s_m_source_file>
AV-unprocessed.smi

> <i_m_source_file_index>
3333

> <i_lp_mmshare_version>
43012

> <i_f3d_flags>
0

> <s_epik_input>
W0NIM11bQ0gyXWMxbmMoW2NIXXMxKVtDSDJdQyg9TylbTkhdW0NIMl1bQ0BIXShbQ0gyXVtDQEBIXTIzKVtDQEBIXShbQ0gyXTMpW0NIMl1bQ0gyXTI=

> <s_epik_cmdline>
J2VwaWtfcHl0aG9uJywgJy1waCcsICc3LjAnLCAnLXRuJywgJzgnLCAnLW1hJywgJzIwMCcsICctbWV0YWxfYmluZGluZycsICctaW1hZScsICc8aW5maWxlLm1hZT4nLCAnLW9tYWUnLCAnPG91dGZpbGUubWFlPic=

> <r_lp_tautomer_probability>
1

> <r_epik_Ionization_Penalty>
6.68371e-05

> <r_epik_Ionization_Penalty_Charging>
0

> <r_epik_Ionization_Penalty_Neutral>
6.68371e-05

> <r_epik_State_Penalty>
-0

> <r_epik_Charging_Adjusted_Penalty>
0

> <i_epik_Tot_Q>
0

> <i_epik_Tot_abs_Q>
0

> <r_epik_Metal_State_Penalty>
-0

> <b_epik_Metal_Only>
0

> <s_lp_Force_Field>
OPLS_2005

> <r_lp_Energy>
44.1536

> <b_lp_Chiralities_Consistent>
1

> <s_lp_Variant>
AV-unprocessed.smi:3333-1

> <Gold.Version>
5.8.1

> <Gold.Id.Protein>
6NUR|6NUR_protein|mol2

> <Gold.PLP.Fitness>
46.0333

> <Gold.PLP.PLP>
-44.1883

> <Gold.PLP.part.hbond>
-2.0000

> <Gold.PLP.part.metal>
0.0000

> <Gold.PLP.part.buried>
-5.3999

> <Gold.PLP.part.nonpolar>
-37.9668

> <Gold.PLP.part.repulsive>
0.2122

> <Gold.PLP.ligand.clash>
0.0000

> <Gold.PLP.ligand.torsion>
1.0219

> <Gold.PLP.Chemscore.Hbond>
1.2868

> <Gold.PLP.Chemscore.CHOScore>
0.0000

> <Gold.PLP.Chemscore.Metal>
0.0000

> <Gold.Chemscore.Hbonds>
donor molecule, donor type, donor heavy atom, donor atom, acceptor molecule, acceptor atom, score
      P1  H  6931  6943       L1     4  0.36

> <Gold.PLP.Chemscore.Internal.Correction>
0.0286

> <Gold.Rescore>
     Score         DG    S(hbond)    S(metal)    S(lipo)     H(rot)  DE(clash)    DE(int)     intcor
     18.46     -19.33       0.82        0.00     126.19       1.42       0.01       0.86       ----

> <Gold.Chemscore.Fitness>
18.4583

> <Gold.Chemscore.DG>
-19.3306

> <Gold.Chemscore.ZeroCoef>
-5.4800

> <Gold.Chemscore.Hbond>
0.8170

> <Gold.Chemscore.Metal>
0.0000

> <Gold.Chemscore.Lipo>
126.1880

> <Gold.Chemscore.Internal_Hbond>
0.0000

> <Gold.Chemscore.DEClash>
0.0126

> <Gold.Chemscore.DEInternal>
0.8597

> <Gold.Chemscore.Rot>
1.4227

> <Gold.Chemscore.Internal.Correction>
   9.000000E+99

> <Gold.Chemscore.Hbonds>
donor molecule, donor type, donor heavy atom, donor atom, acceptor molecule, acceptor atom, score
      P1  H  6931  6943       L1     4  0.30

> <Gold.Chemscore.Hbond.Weighted>
-2.7287

> <Gold.Chemscore.Metal.Weighted>
-0.0000

> <Gold.Chemscore.Lipo.Weighted>
-14.7640

> <Gold.Chemscore.Internal_Hbond.Weighted>
0.0000

> <Gold.Chemscore.DEClash.Weighted>
0.0126

> <Gold.Chemscore.DEInternal.Weighted>
0.8597

> <Gold.Chemscore.Rot.Weighted>
3.6421

> <Gold.Chemscore.Internal.Correction.Weighted>
   9.000000E+99

> <Gold.Protein.RotatedTorsions>
[ 6907 6896 6895 6894 ] final  -16.06 input  -60.11 | X-H torsion
[ 7974 7965 7964 7962 ] final   51.79 input  175.53 | X-H torsion
[ 8008 7997 7996 7995 ] final  -66.13 input   59.86 | X-H torsion
[ 10167 10162 10161 10158 ] final -148.57 input  -65.29 | X-H torsion
[ 10718 10713 10712 10709 ] final  -74.05 input   66.30 | X-H torsion
[ 10763 10752 10751 10750 ] final -128.90 input  -60.55 | X-H torsion
[ 11005 11000 10999 10996 ] final  -22.01 input  -57.11 | X-H torsion

> <Gold.Protein.ActiveResidues>
 VAL166  LYS551  ARG553  GLY616  TRP617  ASP618  TYR619  PRO620  LYS621  CYS622 
 ASP623  PHE694  ASN695  SER759  ASP760  ASP761  ALA762  ILE779  LEU786  VAL792 
 PHE793  MET794  SER795  GLU796  ALA797  LYS798  CYS799  TRP800  GLU811  SER814 

> <Gold.Protein.RotatedAtoms>
  151.3143  135.0802  159.9283 H   0  0  0  0  0  0  0  0  0  0  0  0  # atno 6907 bound_to 6896
  152.5271  133.9704  159.7769 H   0  0  0  0  0  0  0  0  0  0  0  0  # atno 6908 bound_to 6896
  151.0013  133.6001  159.2725 H   0  0  0  0  0  0  0  0  0  0  0  0  # atno 6909 bound_to 6896
  145.9878  139.4307  143.0092 H   0  0  0  0  0  0  0  0  0  0  0  0  # atno 7974 bound_to 7965
  154.4715  140.0919  156.7156 H   0  0  0  0  0  0  0  0  0  0  0  0  # atno 8008 bound_to 7997
  155.4711  140.3464  155.4307 H   0  0  0  0  0  0  0  0  0  0  0  0  # atno 8009 bound_to 7997
  156.1047  140.1431  156.9409 H   0  0  0  0  0  0  0  0  0  0  0  0  # atno 8010 bound_to 7997
  139.7520  143.8504  152.2588 H   0  0  0  0  0  0  0  0  0  0  0  0  # atno 10167 bound_to 10162
  156.0257  130.4408  150.2834 H   0  0  0  0  0  0  0  0  0  0  0  0  # atno 10718 bound_to 10713
  154.8757  135.3913  154.3832 H   0  0  0  0  0  0  0  0  0  0  0  0  # atno 10763 bound_to 10752
  153.4577  135.7029  153.6075 H   0  0  0  0  0  0  0  0  0  0  0  0  # atno 10764 bound_to 10752
  153.4587  135.3817  155.2294 H   0  0  0  0  0  0  0  0  0  0  0  0  # atno 10765 bound_to 10752
  140.8616  133.7784  156.0081 H   0  0  0  0  0  0  0  0  0  0  0  0  # atno 11005 bound_to 11000
  145.7675  140.9910  143.1167 LP  0  0  0  0  0  0  0  0  0  0  0  0  # atno 17320 bound_to 7965
  144.6880  139.9406  143.7475 LP  0  0  0  0  0  0  0  0  0  0  0  0  # atno 17321 bound_to 7965
  139.8485  144.7176  150.9243 LP  0  0  0  0  0  0  0  0  0  0  0  0  # atno 17342 bound_to 10162
  140.7799  143.3920  151.1294 LP  0  0  0  0  0  0  0  0  0  0  0  0  # atno 17343 bound_to 10162
  157.0938  131.0177  151.3112 LP  0  0  0  0  0  0  0  0  0  0  0  0  # atno 17370 bound_to 10713
  157.4834  130.7778  149.7436 LP  0  0  0  0  0  0  0  0  0  0  0  0  # atno 17371 bound_to 10713
  140.8676  134.2765  157.5206 LP  0  0  0  0  0  0  0  0  0  0  0  0  # atno 17394 bound_to 11000
  139.8707  134.9551  156.4195 LP  0  0  0  0  0  0  0  0  0  0  0  0  # atno 17395 bound_to 11000

$$$$
