AV-unprocessed.smi:2895|AV-procd|sdf|11133|dock10
  -GOLD-   2272016 03D 1   1.00000     0.00000
 Structure written by MMmdl.
 54 57  0  0  0  0  0  0  0  0  3 V2000
  150.2787  136.6395  159.0186 O   0  0  0  0  0  0  0  0  0  0  0  0
  149.5589  137.6223  158.8330 C   0  0  0  0  0  0  0  0  0  0  0  0
  148.2554  137.6147  159.1663 N   0  0  0  0  0  0  0  0  0  0  0  0
  147.5472  136.4920  159.7700 C   0  0  0  0  0  0  0  0  0  0  0  0
  147.1761  136.7794  161.2335 C   0  0  0  0  0  0  0  0  0  0  0  0
  145.8182  136.2118  161.5998 C   0  0  0  0  0  0  0  0  0  0  0  0
  145.6377  134.8176  161.7368 C   0  0  0  0  0  0  0  0  0  0  0  0
  144.3640  134.3195  162.0799 C   0  0  0  0  0  0  0  0  0  0  0  0
  143.3367  135.1754  162.2745 N   0  3  0  0  0  0  0  0  0  0  0  0
  143.4676  136.5150  162.1558 C   0  0  0  0  0  0  0  0  0  0  0  0
  144.7175  137.0706  161.8140 C   0  0  0  0  0  0  0  0  0  0  0  0
  150.0144  138.7919  158.3083 N   0  0  0  0  0  0  0  0  0  0  0  0
  149.1144  139.8900  157.8828 C   0  0  0  0  0  0  0  0  0  0  0  0
  149.7363  140.8707  156.8741 C   0  0  0  0  0  0  0  0  0  0  0  0
  151.0945  141.3047  157.2734 N   0  3  0  0  0  0  0  0  0  0  0  0
  151.1672  142.1583  158.5017 C   0  0  1  0  0  0  0  0  0  0  0  0
  152.5981  142.2073  159.1003 C   0  0  0  0  0  0  0  0  0  0  0  0
  152.8942  143.7120  159.2090 C   0  0  2  0  0  0  0  0  0  0  0  0
  152.0052  144.3391  160.2965 C   0  0  0  0  0  0  0  0  0  0  0  0
  150.6163  144.3361  159.6346 C   0  0  0  0  0  0  0  0  0  0  0  0
  150.8852  143.6695  158.2709 C   0  0  1  0  0  0  0  0  0  0  0  0
  152.2593  144.2337  157.9277 C   0  0  0  0  0  0  0  0  0  0  0  0
  151.9682  140.1090  157.3230 C   0  0  0  0  0  0  0  0  0  0  0  0
  151.4705  139.0502  158.3264 C   0  0  0  0  0  0  0  0  0  0  0  0
  147.7195  138.4543  159.0006 H   0  0  0  0  0  0  0  0  0  0  0  0
  146.6548  136.2544  159.1883 H   0  0  0  0  0  0  0  0  0  0  0  0
  148.1944  135.6162  159.7149 H   0  0  0  0  0  0  0  0  0  0  0  0
  147.9283  136.3566  161.9008 H   0  0  0  0  0  0  0  0  0  0  0  0
  147.1717  137.8545  161.4191 H   0  0  0  0  0  0  0  0  0  0  0  0
  146.4633  134.1375  161.5825 H   0  0  0  0  0  0  0  0  0  0  0  0
  144.1378  133.2705  162.2038 H   0  0  0  0  0  0  0  0  0  0  0  0
  142.5758  137.0973  162.3365 H   0  0  0  0  0  0  0  0  0  0  0  0
  144.8286  138.1411  161.7193 H   0  0  0  0  0  0  0  0  0  0  0  0
  148.2039  139.5052  157.4208 H   0  0  0  0  0  0  0  0  0  0  0  0
  148.7998  140.4329  158.7751 H   0  0  0  0  0  0  0  0  0  0  0  0
  149.8153  140.3725  155.9065 H   0  0  0  0  0  0  0  0  0  0  0  0
  149.0717  141.7119  156.6917 H   0  0  0  0  0  0  0  0  0  0  0  0
  150.4656  141.7701  159.2408 H   0  0  0  0  0  0  0  0  0  0  0  0
  152.6631  141.6993  160.0634 H   0  0  0  0  0  0  0  0  0  0  0  0
  153.3348  141.7527  158.4370 H   0  0  0  0  0  0  0  0  0  0  0  0
  153.9540  143.9413  159.3240 H   0  0  0  0  0  0  0  0  0  0  0  0
  152.0260  143.7697  161.2267 H   0  0  0  0  0  0  0  0  0  0  0  0
  152.3218  145.3590  160.5199 H   0  0  0  0  0  0  0  0  0  0  0  0
  149.8726  143.8004  160.2256 H   0  0  0  0  0  0  0  0  0  0  0  0
  150.2574  145.3574  159.4999 H   0  0  0  0  0  0  0  0  0  0  0  0
  150.1037  143.9093  157.5536 H   0  0  0  0  0  0  0  0  0  0  0  0
  152.2735  145.3223  157.8503 H   0  0  0  0  0  0  0  0  0  0  0  0
  152.6909  143.8047  157.0218 H   0  0  0  0  0  0  0  0  0  0  0  0
  151.9936  139.6673  156.3258 H   0  0  0  0  0  0  0  0  0  0  0  0
  153.0010  140.3752  157.5447 H   0  0  0  0  0  0  0  0  0  0  0  0
  151.7360  139.3604  159.3380 H   0  0  0  0  0  0  0  0  0  0  0  0
  152.0359  138.1358  158.1371 H   0  0  0  0  0  0  0  0  0  0  0  0
  151.4397  141.8815  156.5194 H   0  0  0  0  0  0  0  0  0  0  0  0
  142.4234  134.7936  162.5218 H   0  0  0  0  0  0  0  0  0  0  0  0
  1  2  2  0  0  0  0
  2  3  1  0  0  0  0
  2 12  1  0  0  0  0
  3  4  1  0  0  0  0
  3 25  1  0  0  0  0
  4  5  1  0  0  0  0
  4 26  1  0  0  0  0
  4 27  1  0  0  0  0
  5  6  1  0  0  0  0
  5 28  1  0  0  0  0
  5 29  1  0  0  0  0
  6 11  1  0  0  0  0
  6  7  2  0  0  0  0
  7  8  1  0  0  0  0
  7 30  1  0  0  0  0
  8  9  2  0  0  0  0
  8 31  1  0  0  0  0
  9 10  1  0  0  0  0
  9 54  1  0  0  0  0
 10 11  2  0  0  0  0
 10 32  1  0  0  0  0
 11 33  1  0  0  0  0
 12 24  1  0  0  0  0
 12 13  1  0  0  0  0
 13 14  1  0  0  0  0
 13 34  1  0  0  0  0
 13 35  1  0  0  0  0
 14 15  1  0  0  0  0
 14 36  1  0  0  0  0
 14 37  1  0  0  0  0
 15 16  1  0  0  0  0
 15 23  1  0  0  0  0
 15 53  1  0  0  0  0
 16 21  1  0  0  0  0
 16 17  1  0  0  0  0
 16 38  1  0  0  0  0
 17 18  1  0  0  0  0
 17 39  1  0  0  0  0
 17 40  1  0  0  0  0
 18 22  1  0  0  0  0
 18 19  1  0  0  0  0
 18 41  1  0  0  0  0
 19 20  1  0  0  0  0
 19 42  1  0  0  0  0
 19 43  1  0  0  0  0
 20 21  1  0  0  0  0
 20 44  1  0  0  0  0
 20 45  1  0  0  0  0
 21 22  1  0  0  0  0
 21 46  1  0  0  0  0
 22 47  1  0  0  0  0
 22 48  1  0  0  0  0
 23 24  1  0  0  0  0
 23 49  1  0  0  0  0
 23 50  1  0  0  0  0
 24 51  1  0  0  0  0
 24 52  1  0  0  0  0
M  CHG  1   9   1
M  CHG  1  15   1
M  END
> <s_m_source_file>
AV-unprocessed.smi

> <i_m_source_file_index>
2895

> <i_lp_mmshare_version>
43012

> <i_f3d_flags>
0

> <s_epik_input>
W0NIMl0xW0NIMl1bQ0BASF0oW0NIMl0yKVtDQEBIXShbQ0gyXVtDQEhdMTIpTihbQ0gyXVtDSDJdMylbQ0gyXVtDSDJdTjNDKD1PKVtOSF1bQ0gyXVtDSDJdYzRbY0hdW2NIXW5bY0hdW2NIXTQ=

> <s_epik_cmdline>
J2VwaWtfcHl0aG9uJywgJy1waCcsICc3LjAnLCAnLXRuJywgJzgnLCAnLW1hJywgJzIwMCcsICctbWV0YWxfYmluZGluZycsICctaW1hZScsICc8aW5maWxlLm1hZT4nLCAnLW9tYWUnLCAnPG91dGZpbGUubWFlPic=

> <r_epik_Ionization_Penalty>
1.44916

> <r_epik_Ionization_Penalty_Charging>
1.44913

> <r_epik_Ionization_Penalty_Neutral>
2.64641e-05

> <r_epik_State_Penalty>
1.53218

> <r_epik_Charging_Adjusted_Penalty>
2.98131

> <i_epik_Tot_Q>
2

> <i_epik_Tot_abs_Q>
2

> <r_epik_Metal_State_Penalty>
1.58241

> <b_epik_Metal_Only>
0

> <s_lp_Force_Field>
OPLS_2005

> <r_lp_Energy>
108.8

> <b_lp_Chiralities_Consistent>
1

> <s_lp_Variant>
AV-unprocessed.smi:2895-6

> <Gold.Version>
5.8.1

> <Gold.Id.Protein>
6NUR|6NUR_protein|mol2

> <Gold.PLP.Fitness>
51.5034

> <Gold.PLP.PLP>
-50.4177

> <Gold.PLP.part.hbond>
-1.0000

> <Gold.PLP.part.metal>
0.0000

> <Gold.PLP.part.buried>
-6.5992

> <Gold.PLP.part.nonpolar>
-43.1188

> <Gold.PLP.part.repulsive>
0.3631

> <Gold.PLP.ligand.clash>
0.0030

> <Gold.PLP.ligand.torsion>
1.0293

> <Gold.PLP.Chemscore.Hbond>
1.0000

> <Gold.PLP.Chemscore.CHOScore>
0.0000

> <Gold.PLP.Chemscore.Metal>
0.0000

> <Gold.Chemscore.Hbonds>
donor molecule, donor type, donor heavy atom, donor atom, acceptor molecule, acceptor atom, score
      P1  H  6896  6907       L1     1  1.00

> <Gold.PLP.Chemscore.Internal.Correction>
0.1473

> <Gold.Rescore>
     Score         DG    S(hbond)    S(metal)    S(lipo)     H(rot)  DE(clash)    DE(int)     intcor
     20.40     -21.63       0.98        0.00     142.10       1.46       0.10       1.13       ----

> <Gold.Chemscore.Fitness>
20.4049

> <Gold.Chemscore.DG>
-21.6327

> <Gold.Chemscore.ZeroCoef>
-5.4800

> <Gold.Chemscore.Hbond>
0.9753

> <Gold.Chemscore.Metal>
0.0000

> <Gold.Chemscore.Lipo>
142.0999

> <Gold.Chemscore.Internal_Hbond>
0.0000

> <Gold.Chemscore.DEClash>
0.0951

> <Gold.Chemscore.DEInternal>
1.1327

> <Gold.Chemscore.Rot>
1.4572

> <Gold.Chemscore.Internal.Correction>
   9.000000E+99

> <Gold.Chemscore.Hbonds>
donor molecule, donor type, donor heavy atom, donor atom, acceptor molecule, acceptor atom, score
      P1  H  6896  6907       L1     1  0.95

> <Gold.Chemscore.Hbond.Weighted>
-3.2576

> <Gold.Chemscore.Metal.Weighted>
-0.0000

> <Gold.Chemscore.Lipo.Weighted>
-16.6257

> <Gold.Chemscore.Internal_Hbond.Weighted>
0.0000

> <Gold.Chemscore.DEClash.Weighted>
0.0951

> <Gold.Chemscore.DEInternal.Weighted>
1.1327

> <Gold.Chemscore.Rot.Weighted>
3.7305

> <Gold.Chemscore.Internal.Correction.Weighted>
   9.000000E+99

> <Gold.Protein.RotatedTorsions>
[ 6907 6896 6895 6894 ] final  -20.38 input  -60.11 | X-H torsion
[ 7974 7965 7964 7962 ] final    5.05 input  175.53 | X-H torsion
[ 8008 7997 7996 7995 ] final  -55.62 input   59.86 | X-H torsion
[ 10167 10162 10161 10158 ] final  133.14 input  -65.29 | X-H torsion
[ 10718 10713 10712 10709 ] final  -45.67 input   66.30 | X-H torsion
[ 10763 10752 10751 10750 ] final  -63.95 input  -60.55 | X-H torsion
[ 11005 11000 10999 10996 ] final  115.93 input  -57.11 | X-H torsion

> <Gold.Protein.ActiveResidues>
 VAL166  LYS551  ARG553  GLY616  TRP617  ASP618  TYR619  PRO620  LYS621  CYS622 
 ASP623  PHE694  ASN695  SER759  ASP760  ASP761  ALA762  ILE779  LEU786  VAL792 
 PHE793  MET794  SER795  GLU796  ALA797  LYS798  CYS799  TRP800  GLU811  SER814 

> <Gold.Protein.RotatedAtoms>
  151.2490  135.0615  159.9054 H   0  0  0  0  0  0  0  0  0  0  0  0  # atno 6907 bound_to 6896
  152.5383  134.0353  159.8053 H   0  0  0  0  0  0  0  0  0  0  0  0  # atno 6908 bound_to 6896
  151.0558  133.5536  159.2669 H   0  0  0  0  0  0  0  0  0  0  0  0  # atno 6909 bound_to 6896
  146.2442  140.0442  142.8380 H   0  0  0  0  0  0  0  0  0  0  0  0  # atno 7974 bound_to 7965
  154.4201  140.1148  156.5506 H   0  0  0  0  0  0  0  0  0  0  0  0  # atno 8008 bound_to 7997
  155.6414  140.3496  155.4697 H   0  0  0  0  0  0  0  0  0  0  0  0  # atno 8009 bound_to 7997
  155.9868  140.1171  157.0665 H   0  0  0  0  0  0  0  0  0  0  0  0  # atno 8010 bound_to 7997
  139.5310  144.6630  151.4952 H   0  0  0  0  0  0  0  0  0  0  0  0  # atno 10167 bound_to 10162
  156.2259  130.4169  149.8934 H   0  0  0  0  0  0  0  0  0  0  0  0  # atno 10718 bound_to 10713
  154.3228  135.6193  153.5515 H   0  0  0  0  0  0  0  0  0  0  0  0  # atno 10763 bound_to 10752
  152.9818  135.5728  154.5051 H   0  0  0  0  0  0  0  0  0  0  0  0  # atno 10764 bound_to 10752
  154.4722  135.2860  155.1611 H   0  0  0  0  0  0  0  0  0  0  0  0  # atno 10765 bound_to 10752
  139.9025  134.9591  156.7120 H   0  0  0  0  0  0  0  0  0  0  0  0  # atno 11005 bound_to 11000
  145.1042  140.9365  143.4694 LP  0  0  0  0  0  0  0  0  0  0  0  0  # atno 17320 bound_to 7965
  145.0641  139.3082  143.5865 LP  0  0  0  0  0  0  0  0  0  0  0  0  # atno 17321 bound_to 7965
  140.6487  143.8741  150.6763 LP  0  0  0  0  0  0  0  0  0  0  0  0  # atno 17342 bound_to 10162
  140.2099  143.3892  152.1726 LP  0  0  0  0  0  0  0  0  0  0  0  0  # atno 17343 bound_to 10162
  156.6565  130.8764  151.3540 LP  0  0  0  0  0  0  0  0  0  0  0  0  # atno 17370 bound_to 10713
  157.7110  130.9441  150.1090 LP  0  0  0  0  0  0  0  0  0  0  0  0  # atno 17371 bound_to 10713
  140.7068  133.9258  155.8059 LP  0  0  0  0  0  0  0  0  0  0  0  0  # atno 17394 bound_to 11000
  141.0330  134.0729  157.3992 LP  0  0  0  0  0  0  0  0  0  0  0  0  # atno 17395 bound_to 11000

$$$$
