AV-unprocessed.smi:20|AV-procd|sdf|120|dock7
  -GOLD-   2262015293D 1   1.00000     0.00000
 Structure written by MMmdl.
 57 61  0  0  0  0  0  0  0  0  1 V2000
  152.2644  130.4629  156.1710 O   0  0  0  0  0  0  0  0  0  0  0  0
  151.5294  131.2354  155.5604 C   0  0  0  0  0  0  0  0  0  0  0  0
  151.2841  132.6749  155.9782 C   0  0  0  0  0  0  0  0  0  0  0  0
  150.0400  133.0816  155.1517 C   0  0  1  0  0  0  0  0  0  0  0  0
  148.7260  132.8771  155.9531 C   0  0  0  0  0  0  0  0  0  0  0  0
  148.5492  133.9328  157.0591 C   0  0  0  0  0  0  0  0  0  0  0  0
  148.6838  135.3535  156.4941 C   0  0  0  0  0  0  0  0  0  0  0  0
  149.9325  135.4953  155.7491 N   0  0  0  0  0  0  0  0  0  0  0  0
  150.3308  136.7758  155.5458 C   0  0  0  0  0  0  0  0  0  0  0  0
  150.4035  137.2729  154.2819 N   0  0  0  0  0  0  0  0  0  0  0  0
  150.7933  138.5340  154.0738 C   0  0  0  0  0  0  0  0  0  0  0  0
  151.1545  139.4541  154.9699 N   0  0  0  0  0  0  0  0  0  0  0  0
  151.0875  138.9602  156.2391 C   0  0  0  0  0  0  0  0  0  0  0  0
  150.6889  137.6461  156.6134 C   0  0  0  0  0  0  0  0  0  0  0  0
  150.7603  137.5059  157.9947 N   0  0  0  0  0  0  0  0  0  0  0  0
  151.1721  138.6715  158.4134 C   0  0  0  0  0  0  0  0  0  0  0  0
  151.4022  139.6005  157.4246 N   0  0  0  0  0  0  0  0  0  0  0  0
  151.8742  140.9614  157.6083 C   0  0  0  0  0  0  0  0  0  0  0  0
  152.1252  141.3453  159.0908 C   0  0  1  0  0  0  0  0  0  0  0  0
  153.2429  140.4915  159.7437 C   0  0  0  0  0  0  0  0  0  0  0  0
  154.4811  140.6415  159.0801 O   0  0  0  0  0  0  0  0  0  0  0  0
  152.4468  142.8579  159.2104 C   0  0  1  0  0  0  0  0  0  0  0  0
  151.6294  143.7643  158.3048 C   0  0  0  0  0  0  0  0  0  0  0  0
  151.8127  145.1248  158.9641 C   0  0  0  0  0  0  0  0  0  0  0  0
  151.8587  144.8574  160.3592 O   0  0  0  0  0  0  0  0  0  0  0  0
  152.1342  143.4773  160.5805 C   0  0  0  0  0  0  0  0  0  0  0  0
  150.1115  134.5424  154.6525 C   0  0  0  0  0  0  0  0  0  0  0  0
  150.0857  132.0890  153.9656 C   0  0  0  0  0  0  0  0  0  0  0  0
  150.8401  130.9529  154.4578 N   0  0  0  0  0  0  0  0  0  0  0  0
  151.1428  132.7559  157.0553 H   0  0  0  0  0  0  0  0  0  0  0  0
  152.1596  133.2663  155.7073 H   0  0  0  0  0  0  0  0  0  0  0  0
  147.8742  132.9478  155.2755 H   0  0  0  0  0  0  0  0  0  0  0  0
  148.6865  131.8762  156.3850 H   0  0  0  0  0  0  0  0  0  0  0  0
  147.5743  133.8148  157.5328 H   0  0  0  0  0  0  0  0  0  0  0  0
  149.2878  133.7841  157.8467 H   0  0  0  0  0  0  0  0  0  0  0  0
  147.8516  135.5651  155.8214 H   0  0  0  0  0  0  0  0  0  0  0  0
  148.6169  136.0742  157.3086 H   0  0  0  0  0  0  0  0  0  0  0  0
  150.8206  138.8505  153.0416 H   0  0  0  0  0  0  0  0  0  0  0  0
  151.3308  138.8847  159.4607 H   0  0  0  0  0  0  0  0  0  0  0  0
  152.7880  141.0935  157.0277 H   0  0  0  0  0  0  0  0  0  0  0  0
  151.1304  141.6209  157.1611 H   0  0  0  0  0  0  0  0  0  0  0  0
  151.2016  141.1687  159.6447 H   0  0  0  0  0  0  0  0  0  0  0  0
  153.3580  140.7439  160.7983 H   0  0  0  0  0  0  0  0  0  0  0  0
  153.0055  139.4297  159.7025 H   0  0  0  0  0  0  0  0  0  0  0  0
  155.1745  140.4475  159.6922 H   0  0  0  0  0  0  0  0  0  0  0  0
  153.5033  143.0203  158.9900 H   0  0  0  0  0  0  0  0  0  0  0  0
  151.9691  143.7604  157.2688 H   0  0  0  0  0  0  0  0  0  0  0  0
  150.5769  143.4780  158.3232 H   0  0  0  0  0  0  0  0  0  0  0  0
  152.7619  145.5690  158.6614 H   0  0  0  0  0  0  0  0  0  0  0  0
  151.0144  145.8241  158.7155 H   0  0  0  0  0  0  0  0  0  0  0  0
  151.2467  143.0216  161.0210 H   0  0  0  0  0  0  0  0  0  0  0  0
  152.9570  143.3604  161.2858 H   0  0  0  0  0  0  0  0  0  0  0  0
  151.0687  134.7146  154.1576 H   0  0  0  0  0  0  0  0  0  0  0  0
  149.3340  134.7173  153.9072 H   0  0  0  0  0  0  0  0  0  0  0  0
  149.0960  131.7871  153.6209 H   0  0  0  0  0  0  0  0  0  0  0  0
  150.6201  132.5094  153.1123 H   0  0  0  0  0  0  0  0  0  0  0  0
  150.8463  130.0553  153.9950 H   0  0  0  0  0  0  0  0  0  0  0  0
  1  2  2  0  0  0  0
  2 29  1  0  0  0  0
  2  3  1  0  0  0  0
  3  4  1  0  0  0  0
  3 30  1  0  0  0  0
  3 31  1  0  0  0  0
  4 27  1  0  0  0  0
  4  5  1  0  0  0  0
  4 28  1  0  0  0  0
  5  6  1  0  0  0  0
  5 32  1  0  0  0  0
  5 33  1  0  0  0  0
  6  7  1  0  0  0  0
  6 34  1  0  0  0  0
  6 35  1  0  0  0  0
  7  8  1  0  0  0  0
  7 36  1  0  0  0  0
  7 37  1  0  0  0  0
  8  9  1  0  0  0  0
  8 27  1  0  0  0  0
  9 14  1  0  0  0  0
  9 10  2  0  0  0  0
 10 11  1  0  0  0  0
 11 12  2  0  0  0  0
 11 38  1  0  0  0  0
 12 13  1  0  0  0  0
 13 17  1  0  0  0  0
 13 14  2  0  0  0  0
 14 15  1  0  0  0  0
 15 16  2  0  0  0  0
 16 17  1  0  0  0  0
 16 39  1  0  0  0  0
 17 18  1  0  0  0  0
 18 19  1  0  0  0  0
 18 40  1  0  0  0  0
 18 41  1  0  0  0  0
 19 20  1  0  0  0  0
 19 22  1  0  0  0  0
 19 42  1  0  0  0  0
 20 21  1  0  0  0  0
 20 43  1  0  0  0  0
 20 44  1  0  0  0  0
 21 45  1  0  0  0  0
 22 26  1  0  0  0  0
 22 23  1  0  0  0  0
 22 46  1  0  0  0  0
 23 24  1  0  0  0  0
 23 47  1  0  0  0  0
 23 48  1  0  0  0  0
 24 25  1  0  0  0  0
 24 49  1  0  0  0  0
 24 50  1  0  0  0  0
 25 26  1  0  0  0  0
 26 51  1  0  0  0  0
 26 52  1  0  0  0  0
 27 53  1  0  0  0  0
 27 54  1  0  0  0  0
 28 29  1  0  0  0  0
 28 55  1  0  0  0  0
 28 56  1  0  0  0  0
 29 57  1  0  0  0  0
M  END
> <s_m_source_file>
AV-unprocessed.smi

> <i_m_source_file_index>
20

> <i_lp_mmshare_version>
43012

> <i_f3d_flags>
0

> <s_epik_input>
W0NIMl0xW05IXUMoPU8pW0NIMl1bQ0BAXTEyW0NIMl1bQ0gyXVtDSDJdTihbQ0gyXTIpYyhuW2NIXW4zKWMoYzM0KW5bY0hdbjRbQ0gyXVtDQEhdKFtDSDJdW09IXSlbQ0BASF01W0NIMl1bQ0gyXU9bQ0gyXTU=

> <s_epik_cmdline>
J2VwaWtfcHl0aG9uJywgJy1waCcsICc3LjAnLCAnLXRuJywgJzgnLCAnLW1hJywgJzIwMCcsICctbWV0YWxfYmluZGluZycsICctaW1hZScsICc8aW5maWxlLm1hZT4nLCAnLW9tYWUnLCAnPG91dGZpbGUubWFlPic=

> <r_lp_tautomer_probability>
1

> <r_epik_Ionization_Penalty>
0.0019697

> <r_epik_Ionization_Penalty_Charging>
0

> <r_epik_Ionization_Penalty_Neutral>
0.0019697

> <r_epik_State_Penalty>
0.00113613

> <r_epik_Charging_Adjusted_Penalty>
0.00113613

> <i_epik_Tot_Q>
0

> <i_epik_Tot_abs_Q>
0

> <r_epik_Metal_State_Penalty>
-0

> <b_epik_Metal_Only>
0

> <s_lp_Force_Field>
OPLS_2005

> <r_lp_Energy>
57.3449

> <b_lp_Chiralities_Consistent>
1

> <s_lp_Variant>
AV-unprocessed.smi:20-8

> <Gold.Version>
5.8.1

> <Gold.Id.Protein>
6NUR|6NUR_protein|mol2

> <Gold.PLP.Fitness>
48.3201

> <Gold.PLP.PLP>
-42.5091

> <Gold.PLP.part.hbond>
-1.7959

> <Gold.PLP.part.metal>
0.0000

> <Gold.PLP.part.buried>
-5.7778

> <Gold.PLP.part.nonpolar>
-35.6786

> <Gold.PLP.part.repulsive>
1.5379

> <Gold.PLP.ligand.clash>
0.0000

> <Gold.PLP.ligand.torsion>
0.7654

> <Gold.PLP.Chemscore.Hbond>
1.2910

> <Gold.PLP.Chemscore.CHOScore>
1.0000

> <Gold.PLP.Chemscore.Metal>
0.0000

> <Gold.Chemscore.Hbonds>
donor molecule, donor type, donor heavy atom, donor atom, acceptor molecule, acceptor atom, score
      P1  H  7989  7998       L1    12  0.55
      P1  H  7997  8010       L1    21  0.66
      L1  C    11    38       P1  7957  1.00

> <Gold.PLP.Chemscore.Internal.Correction>
0.4686

> <Gold.Rescore>
     Score         DG    S(hbond)    S(metal)    S(lipo)     H(rot)  DE(clash)    DE(int)     intcor
     11.85     -13.02       0.80        0.00     101.45       2.74       0.18       0.99       ----

> <Gold.Chemscore.Fitness>
11.8453

> <Gold.Chemscore.DG>
-13.0173

> <Gold.Chemscore.ZeroCoef>
-5.4800

> <Gold.Chemscore.Hbond>
0.8042

> <Gold.Chemscore.Metal>
0.0000

> <Gold.Chemscore.Lipo>
101.4479

> <Gold.Chemscore.Internal_Hbond>
0.0000

> <Gold.Chemscore.DEClash>
0.1810

> <Gold.Chemscore.DEInternal>
0.9909

> <Gold.Chemscore.Rot>
2.7415

> <Gold.Chemscore.Internal.Correction>
   9.000000E+99

> <Gold.Chemscore.Hbonds>
donor molecule, donor type, donor heavy atom, donor atom, acceptor molecule, acceptor atom, score
      P1  H  7989  7998       L1    12  0.05
      P1  H  7997  8010       L1    21  0.36

> <Gold.Chemscore.Hbond.Weighted>
-2.6861

> <Gold.Chemscore.Metal.Weighted>
-0.0000

> <Gold.Chemscore.Lipo.Weighted>
-11.8694

> <Gold.Chemscore.Internal_Hbond.Weighted>
0.0000

> <Gold.Chemscore.DEClash.Weighted>
0.1810

> <Gold.Chemscore.DEInternal.Weighted>
0.9909

> <Gold.Chemscore.Rot.Weighted>
7.0182

> <Gold.Chemscore.Internal.Correction.Weighted>
   9.000000E+99

> <Gold.Protein.RotatedTorsions>
[ 6907 6896 6895 6894 ] final   -1.23 input  -60.11 | X-H torsion
[ 7974 7965 7964 7962 ] final -141.26 input  175.53 | X-H torsion
[ 8008 7997 7996 7995 ] final   -0.37 input   59.86 | X-H torsion
[ 10167 10162 10161 10158 ] final   41.34 input  -65.29 | X-H torsion
[ 10718 10713 10712 10709 ] final -154.69 input   66.30 | X-H torsion
[ 10763 10752 10751 10750 ] final  147.31 input  -60.55 | X-H torsion
[ 11005 11000 10999 10996 ] final  -18.42 input  -57.11 | X-H torsion

> <Gold.Protein.ActiveResidues>
 VAL166  LYS551  ARG553  GLY616  TRP617  ASP618  TYR619  PRO620  LYS621  CYS622 
 ASP623  PHE694  ASN695  SER759  ASP760  ASP761  ALA762  ILE779  LEU786  VAL792 
 PHE793  MET794  SER795  GLU796  ALA797  LYS798  CYS799  TRP800  GLU811  SER814 

> <Gold.Protein.RotatedAtoms>
  151.5494  135.1067  159.9945 H   0  0  0  0  0  0  0  0  0  0  0  0  # atno 6907 bound_to 6896
  152.4499  133.7604  159.6754 H   0  0  0  0  0  0  0  0  0  0  0  0  # atno 6908 bound_to 6896
  150.8424  133.7848  159.3080 H   0  0  0  0  0  0  0  0  0  0  0  0  # atno 6909 bound_to 6896
  144.8533  140.6101  143.5376 H   0  0  0  0  0  0  0  0  0  0  0  0  # atno 7974 bound_to 7965
  154.6588  140.2586  155.7132 H   0  0  0  0  0  0  0  0  0  0  0  0  # atno 8008 bound_to 7997
  156.2609  140.2853  156.0973 H   0  0  0  0  0  0  0  0  0  0  0  0  # atno 8009 bound_to 7997
  155.1340  140.0379  157.2772 H   0  0  0  0  0  0  0  0  0  0  0  0  # atno 8010 bound_to 7997
  140.3653  144.2176  150.6136 H   0  0  0  0  0  0  0  0  0  0  0  0  # atno 10167 bound_to 10162
  156.5027  130.8398  151.2615 H   0  0  0  0  0  0  0  0  0  0  0  0  # atno 10718 bound_to 10713
  154.0362  135.2893  155.3361 H   0  0  0  0  0  0  0  0  0  0  0  0  # atno 10763 bound_to 10752
  154.6957  135.5208  153.8459 H   0  0  0  0  0  0  0  0  0  0  0  0  # atno 10764 bound_to 10752
  153.0619  135.6617  154.0570 H   0  0  0  0  0  0  0  0  0  0  0  0  # atno 10765 bound_to 10752
  140.8267  133.8028  155.9715 H   0  0  0  0  0  0  0  0  0  0  0  0  # atno 11005 bound_to 11000
  145.4456  139.1530  143.3946 LP  0  0  0  0  0  0  0  0  0  0  0  0  # atno 17320 bound_to 7965
  146.2802  140.4580  142.8779 LP  0  0  0  0  0  0  0  0  0  0  0  0  # atno 17321 bound_to 7965
  140.5087  143.2297  151.8568 LP  0  0  0  0  0  0  0  0  0  0  0  0  # atno 17342 bound_to 10162
  139.4809  144.4975  151.9104 LP  0  0  0  0  0  0  0  0  0  0  0  0  # atno 17343 bound_to 10162
  157.7461  130.9976  150.2823 LP  0  0  0  0  0  0  0  0  0  0  0  0  # atno 17370 bound_to 10713
  156.3317  130.3801  149.7485 LP  0  0  0  0  0  0  0  0  0  0  0  0  # atno 17371 bound_to 10713
  140.9042  134.2341  157.5024 LP  0  0  0  0  0  0  0  0  0  0  0  0  # atno 17394 bound_to 11000
  139.8706  134.9720  156.4759 LP  0  0  0  0  0  0  0  0  0  0  0  0  # atno 17395 bound_to 11000

$$$$
