#       Name:                AV-unprocessed.smi:2083
#       Creating user name   scv26
#       Creation time:       Fri Mar 27 11:22:41 2020


#       File generated by GOLD software.
#

@<TRIPOS>MOLECULE
AV-unprocessed.smi:2083
    50    51     1
SMALL
NO_CHARGES


@<TRIPOS>ATOM
      1 ****        -5.8251   6.3777   0.0907 C.3            1 S1                 0.0000
      2 ****        -5.0752   5.0901   0.0689 C.2            1 S1                 0.0000
      3 ****        -3.7426   4.7898   0.0996 C.2            1 S1                 0.0000
      4 ****        -3.7320   3.3701   0.0517 C.2            1 S1                 0.0000
      5 ****        -2.5050   2.6558   0.0666 N.am           1 S1                 0.0000
      6 ****        -2.3020   1.3258   0.0404 C.2            1 S1                 0.0000
      7 ****        -3.2620   0.5473  -0.0082 O.2            1 S1                 0.0000
      8 ****        -0.9788   1.0091   0.0746 N.pl3          1 S1                -1.0000
      9 ****        -0.4524  -0.3547   0.0793 C.3            1 S1                 0.0000
     10 ****         1.0832  -0.3443   0.3697 C.3            1 S1                 0.0000
     11 ****         1.4373   0.1652   1.7873 C.3            1 S1                 0.0000
     12 ****         1.8048  -1.6344   0.0959 N.4            1 S1                 1.0000
     13 ****         1.3683  -2.8414   0.8596 C.3            1 S1                 0.0000
     14 ****         2.4151  -3.9602   0.7476 C.3            1 S1                 0.0000
     15 ****         2.7003  -4.3018  -0.7224 C.3            1 S1                 0.0000
     16 ****         3.0918  -3.0474  -1.5270 C.3            1 S1                 0.0000
     17 ****         4.5146  -2.5555  -1.2078 C.3            1 S1                 0.0000
     18 ****         2.0367  -1.9366  -1.3465 C.3            1 S1                 0.0000
     19 ****        -4.9499   2.8515  -0.0045 N.2            1 S1                 0.0000
     20 ****        -5.8165   3.9509   0.0054 O.3            1 S1                 0.0000
     21 ****        -5.1708   7.2050   0.3660 H              1 S1                 0.0000
     22 ****        -6.6413   6.3385   0.8123 H              1 S1                 0.0000
     23 ****        -6.2489   6.5937  -0.8899 H              1 S1                 0.0000
     24 ****        -2.9103   5.4761   0.1493 H              1 S1                 0.0000
     25 ****        -1.6718   3.2236   0.1073 H              1 S1                 0.0000
     26 ****        -0.9471  -0.9860   0.8184 H              1 S1                 0.0000
     27 ****        -0.6258  -0.8378  -0.8827 H              1 S1                 0.0000
     28 ****         1.5283   0.3805  -0.3143 H              1 S1                 0.0000
     29 ****         1.1113   1.1947   1.9470 H              1 S1                 0.0000
     30 ****         2.5172   0.1567   1.9384 H              1 S1                 0.0000
     31 ****         0.9944  -0.4410   2.5786 H              1 S1                 0.0000
     32 ****         1.2229  -2.5989   1.9116 H              1 S1                 0.0000
     33 ****         0.4107  -3.2037   0.4825 H              1 S1                 0.0000
     34 ****         3.3356  -3.6561   1.2469 H              1 S1                 0.0000
     35 ****         2.0635  -4.8493   1.2720 H              1 S1                 0.0000
     36 ****         3.4808  -5.0604  -0.7912 H              1 S1                 0.0000
     37 ****         1.8057  -4.7443  -1.1628 H              1 S1                 0.0000
     38 ****         3.0943  -3.3266  -2.5815 H              1 S1                 0.0000
     39 ****         4.6066  -2.2137  -0.1767 H              1 S1                 0.0000
     40 ****         4.7940  -1.7241  -1.8556 H              1 S1                 0.0000
     41 ****         5.2470  -3.3486  -1.3610 H              1 S1                 0.0000
     42 ****         1.1004  -2.2498  -1.8103 H              1 S1                 0.0000
     43 ****         2.3607  -1.0387  -1.8742 H              1 S1                 0.0000
     44 ****         2.7321  -1.4459   0.4475 H              1 S1                 0.0000
     45 ****        -4.1955   0.9053  -0.0282 LP             1 S1                 0.0000
     46 ****        -3.1046  -0.4401  -0.0274 LP             1 S1                 0.0000
     47 ****        -0.3208   1.7617   0.0982 LP             1 S1                 0.0000
     48 ****        -5.1969   1.8833  -0.0452 LP             1 S1                 0.0000
     49 ****        -6.3665   3.9534  -0.8298 LP             1 S1                 0.0000
     50 ****        -6.4194   3.8969   0.8014 LP             1 S1                 0.0000
@<TRIPOS>BOND
    1    1    2 1     
    2    1   21 1     
    3    1   22 1     
    4    1   23 1     
    5    2   20 1     
    6    2    3 2     
    7    3    4 1     
    8    3   24 1     
    9    4    5 1     
   10    4   19 2     
   11    5    6 am    
   12    5   25 1     
   13    6    7 2     
   14    6    8 1     
   15    8    9 1     
   16    9   10 1     
   17    9   26 1     
   18    9   27 1     
   19   10   11 1     
   20   10   12 1     
   21   10   28 1     
   22   11   29 1     
   23   11   30 1     
   24   11   31 1     
   25   12   18 1     
   26   12   13 1     
   27   12   44 1     
   28   13   14 1     
   29   13   32 1     
   30   13   33 1     
   31   14   15 1     
   32   14   34 1     
   33   14   35 1     
   34   15   16 1     
   35   15   36 1     
   36   15   37 1     
   37   16   17 1     
   38   16   18 1     
   39   16   38 1     
   40   17   39 1     
   41   17   40 1     
   42   17   41 1     
   43   18   42 1     
   44   18   43 1     
   45   19   20 1     
   46    7   45 1     
   47    7   46 1     
   48    8   47 1     
   49   19   48 1     
   50   20   49 1     
   51   20   50 1     
@<TRIPOS>SUBSTRUCTURE
      1 S1             1
@<TRIPOS>SET
LONE_PAIRS      STATIC     ATOMS    <user>   **** ""
6 45 46 47 48 49 50
DONOR_HYDROGENS      STATIC     ATOMS    <user>   **** ""
2 25 44
ATOM$BLUE        STATIC     ATOMS    COLORGROUP SYSTEM
6 45 46 47 48 49 50
ATOM$RED        STATIC     ATOMS    COLORGROUP SYSTEM
2 25 44
