AV-unprocessed.smi:1527|AV-procd|sdf|6149|dock5
  -GOLD-   22720 6293D 1   1.00000     0.00000
 Structure written by MMmdl.
 31 31  0  0  0  0  0  0  0  0  1 V2000
  151.7574  144.6958  159.4752 C   0  0  0  0  0  0  0  0  0  0  0  0
  152.7031  143.7232  160.1955 C   0  0  0  0  0  0  0  0  0  0  0  0
  152.5063  142.2530  159.7816 C   0  0  2  0  0  0  0  0  0  0  0  0
  153.7129  141.3841  160.1668 C   0  0  0  0  0  0  0  0  0  0  0  0
  152.2711  142.1631  158.3424 N   0  0  0  0  0  0  0  0  0  0  0  0
  151.2885  141.4654  157.7526 C   0  0  0  0  0  0  0  0  0  0  0  0
  150.4783  140.7764  158.3739 O   0  0  0  0  0  0  0  0  0  0  0  0
  151.2292  141.5469  156.2208 C   0  0  0  0  0  0  0  0  0  0  0  0
  151.3170  140.2295  155.5755 N   0  0  0  0  0  0  0  0  0  0  0  0
  152.5103  139.5620  155.8059 N   0  0  0  0  0  0  0  0  0  0  0  0
  152.7007  138.3901  155.3011 C   0  0  0  0  0  0  0  0  0  0  0  0
  153.8951  137.7633  155.5581 O   0  0  0  0  0  0  0  0  0  0  0  0
  151.6898  137.7515  154.4875 C   0  0  0  0  0  0  0  0  0  0  0  0
  150.5318  138.4113  154.2656 C   0  0  0  0  0  0  0  0  0  0  0  0
  150.2818  139.7410  154.8247 C   0  0  0  0  0  0  0  0  0  0  0  0
  149.2370  140.3650  154.6391 O   0  0  0  0  0  0  0  0  0  0  0  0
  154.4097  138.3930  156.0394 H   0  0  0  0  0  0  0  0  0  0  0  0
  151.9053  145.7150  159.8326 H   0  0  0  0  0  0  0  0  0  0  0  0
  150.7142  144.4309  159.6496 H   0  0  0  0  0  0  0  0  0  0  0  0
  151.9259  144.6979  158.3980 H   0  0  0  0  0  0  0  0  0  0  0  0
  153.7359  144.0243  160.0151 H   0  0  0  0  0  0  0  0  0  0  0  0
  152.5444  143.8165  161.2705 H   0  0  0  0  0  0  0  0  0  0  0  0
  151.6347  141.8750  160.3192 H   0  0  0  0  0  0  0  0  0  0  0  0
  153.8955  141.4214  161.2412 H   0  0  0  0  0  0  0  0  0  0  0  0
  154.6209  141.7176  159.6633 H   0  0  0  0  0  0  0  0  0  0  0  0
  153.5471  140.3399  159.8992 H   0  0  0  0  0  0  0  0  0  0  0  0
  152.8926  142.6934  157.7489 H   0  0  0  0  0  0  0  0  0  0  0  0
  150.3129  142.0520  155.9083 H   0  0  0  0  0  0  0  0  0  0  0  0
  152.0460  142.1889  155.8865 H   0  0  0  0  0  0  0  0  0  0  0  0
  151.8657  136.7704  154.0714 H   0  0  0  0  0  0  0  0  0  0  0  0
  149.7681  137.9465  153.6597 H   0  0  0  0  0  0  0  0  0  0  0  0
  1  2  1  0  0  0  0
  1 18  1  0  0  0  0
  1 19  1  0  0  0  0
  1 20  1  0  0  0  0
  2  3  1  0  0  0  0
  2 21  1  0  0  0  0
  2 22  1  0  0  0  0
  3  4  1  0  0  0  0
  3  5  1  0  0  0  0
  3 23  1  0  0  0  0
  4 24  1  0  0  0  0
  4 25  1  0  0  0  0
  4 26  1  0  0  0  0
  5  6  1  0  0  0  0
  5 27  1  0  0  0  0
  6  7  2  0  0  0  0
  6  8  1  0  0  0  0
  8 28  1  0  0  0  0
  8 29  1  0  0  0  0
  8  9  1  0  0  0  0
  9 10  1  0  0  0  0
  9 15  1  0  0  0  0
 10 11  2  0  0  0  0
 11 12  1  0  0  0  0
 11 13  1  0  0  0  0
 12 17  1  0  0  0  0
 13 30  1  0  0  0  0
 13 14  2  0  0  0  0
 14 31  1  0  0  0  0
 14 15  1  0  0  0  0
 15 16  2  0  0  0  0
M  END
> <s_m_source_file>
AV-unprocessed.smi

> <i_m_source_file_index>
1527

> <i_lp_mmshare_version>
43012

> <i_f3d_flags>
0

> <s_epik_input>
W0NIM11bQ0gyXVtDQEhdKFtDSDNdKVtOSF1DKD1PKVtDSDJdbjFbbkhdYyg9TylbY0hdW2NIXWMxPU8=

> <s_epik_cmdline>
J2VwaWtfcHl0aG9uJywgJy1waCcsICc3LjAnLCAnLXRuJywgJzgnLCAnLW1hJywgJzIwMCcsICctbWV0YWxfYmluZGluZycsICctaW1hZScsICc8aW5maWxlLm1hZT4nLCAnLW9tYWUnLCAnPG91dGZpbGUubWFlPic=

> <r_lp_tautomer_probability>
0.9996

> <r_epik_Ionization_Penalty>
2.12171

> <r_epik_Ionization_Penalty_Charging>
3.79077e-08

> <r_epik_Ionization_Penalty_Neutral>
2.12171

> <r_epik_State_Penalty>
1.69857

> <r_epik_Charging_Adjusted_Penalty>
1.69857

> <i_epik_Tot_Q>
0

> <i_epik_Tot_abs_Q>
0

> <r_epik_Metal_State_Penalty>
1.69857

> <b_epik_Metal_Only>
0

> <s_lp_Force_Field>
OPLS_2005

> <r_lp_Energy>
14.661

> <b_lp_Chiralities_Consistent>
1

> <s_lp_Variant>
AV-unprocessed.smi:1527-3

> <Gold.Version>
5.8.1

> <Gold.Id.Protein>
6NUR|6NUR_protein|mol2

> <Gold.PLP.Fitness>
40.8435

> <Gold.PLP.PLP>
-38.8179

> <Gold.PLP.part.hbond>
-3.0000

> <Gold.PLP.part.metal>
0.0000

> <Gold.PLP.part.buried>
-4.7093

> <Gold.PLP.part.nonpolar>
-31.7563

> <Gold.PLP.part.repulsive>
0.1639

> <Gold.PLP.ligand.clash>
0.0000

> <Gold.PLP.ligand.torsion>
0.3441

> <Gold.PLP.Chemscore.Hbond>
0.9000

> <Gold.PLP.Chemscore.CHOScore>
0.0000

> <Gold.PLP.Chemscore.Metal>
0.0000

> <Gold.Chemscore.Hbonds>
donor molecule, donor type, donor heavy atom, donor atom, acceptor molecule, acceptor atom, score
      P1  H  7997  8008       L1    10  1.00

> <Gold.PLP.Chemscore.Internal.Correction>
0.0138

> <Gold.Rescore>
     Score         DG    S(hbond)    S(metal)    S(lipo)     H(rot)  DE(clash)    DE(int)     intcor
      8.75      -9.80       0.83        0.00      69.76       2.58       0.59       0.46       ----

> <Gold.Chemscore.Fitness>
8.7451

> <Gold.Chemscore.DG>
-9.7956

> <Gold.Chemscore.ZeroCoef>
-5.4800

> <Gold.Chemscore.Hbond>
0.8263

> <Gold.Chemscore.Metal>
0.0000

> <Gold.Chemscore.Lipo>
69.7602

> <Gold.Chemscore.Internal_Hbond>
0.0000

> <Gold.Chemscore.DEClash>
0.5900

> <Gold.Chemscore.DEInternal>
0.4605

> <Gold.Chemscore.Rot>
2.5806

> <Gold.Chemscore.Internal.Correction>
   9.000000E+99

> <Gold.Chemscore.Hbonds>
donor molecule, donor type, donor heavy atom, donor atom, acceptor molecule, acceptor atom, score
      P1  H  7997  8008       L1    10  0.42

> <Gold.Chemscore.Hbond.Weighted>
-2.7600

> <Gold.Chemscore.Metal.Weighted>
-0.0000

> <Gold.Chemscore.Lipo.Weighted>
-8.1619

> <Gold.Chemscore.Internal_Hbond.Weighted>
0.0000

> <Gold.Chemscore.DEClash.Weighted>
0.5900

> <Gold.Chemscore.DEInternal.Weighted>
0.4605

> <Gold.Chemscore.Rot.Weighted>
6.6063

> <Gold.Chemscore.Internal.Correction.Weighted>
   9.000000E+99

> <Gold.Protein.RotatedTorsions>
[ 6907 6896 6895 6894 ] final   56.65 input  -60.11 | X-H torsion
[ 7974 7965 7964 7962 ] final  -51.86 input  175.53 | X-H torsion
[ 8008 7997 7996 7995 ] final  -51.01 input   59.86 | X-H torsion
[ 10167 10162 10161 10158 ] final -178.52 input  -65.29 | X-H torsion
[ 10718 10713 10712 10709 ] final   73.44 input   66.30 | X-H torsion
[ 10763 10752 10751 10750 ] final -163.64 input  -60.55 | X-H torsion
[ 11005 11000 10999 10996 ] final  153.03 input  -57.11 | X-H torsion

> <Gold.Protein.ActiveResidues>
 VAL166  LYS551  ARG553  GLY616  TRP617  ASP618  TYR619  PRO620  LYS621  CYS622 
 ASP623  PHE694  ASN695  SER759  ASP760  ASP761  ALA762  ILE779  LEU786  VAL792 
 PHE793  MET794  SER795  GLU796  ALA797  LYS798  CYS799  TRP800  GLU811  SER814 

> <Gold.Protein.RotatedAtoms>
  152.3656  134.6809  160.0192 H   0  0  0  0  0  0  0  0  0  0  0  0  # atno 6907 bound_to 6896
  151.7118  133.3307  159.3301 H   0  0  0  0  0  0  0  0  0  0  0  0  # atno 6908 bound_to 6896
  150.7636  134.6460  159.6307 H   0  0  0  0  0  0  0  0  0  0  0  0  # atno 6909 bound_to 6896
  145.9144  140.7888  142.9679 H   0  0  0  0  0  0  0  0  0  0  0  0  # atno 7974 bound_to 7965
  154.4074  140.1258  156.4759 H   0  0  0  0  0  0  0  0  0  0  0  0  # atno 8008 bound_to 7997
  155.7133  140.3493  155.4964 H   0  0  0  0  0  0  0  0  0  0  0  0  # atno 8009 bound_to 7997
  155.9281  140.1064  157.1144 H   0  0  0  0  0  0  0  0  0  0  0  0  # atno 8010 bound_to 7997
  139.5428  144.2315  152.0930 H   0  0  0  0  0  0  0  0  0  0  0  0  # atno 10167 bound_to 10162
  157.6548  130.9629  150.1070 H   0  0  0  0  0  0  0  0  0  0  0  0  # atno 10718 bound_to 10713
  154.7103  135.3005  154.9207 H   0  0  0  0  0  0  0  0  0  0  0  0  # atno 10763 bound_to 10752
  154.0111  135.6694  153.4769 H   0  0  0  0  0  0  0  0  0  0  0  0  # atno 10764 bound_to 10752
  153.0750  135.5040  154.8298 H   0  0  0  0  0  0  0  0  0  0  0  0  # atno 10765 bound_to 10752
  140.1361  134.8770  157.2269 H   0  0  0  0  0  0  0  0  0  0  0  0  # atno 11005 bound_to 11000
  144.6746  140.1876  143.7400 LP  0  0  0  0  0  0  0  0  0  0  0  0  # atno 17320 bound_to 7965
  145.8631  139.2233  143.1705 LP  0  0  0  0  0  0  0  0  0  0  0  0  # atno 17321 bound_to 7965
  140.1797  144.4856  150.6535 LP  0  0  0  0  0  0  0  0  0  0  0  0  # atno 17342 bound_to 10162
  140.6665  143.2270  151.5729 LP  0  0  0  0  0  0  0  0  0  0  0  0  # atno 17343 bound_to 10162
  156.1977  130.3658  149.8828 LP  0  0  0  0  0  0  0  0  0  0  0  0  # atno 17370 bound_to 10713
  156.6740  130.8831  151.3566 LP  0  0  0  0  0  0  0  0  0  0  0  0  # atno 17371 bound_to 10713
  140.2781  134.3382  155.7352 LP  0  0  0  0  0  0  0  0  0  0  0  0  # atno 17394 bound_to 11000
  141.2178  133.7462  156.9322 LP  0  0  0  0  0  0  0  0  0  0  0  0  # atno 17395 bound_to 11000

$$$$
