AV-unprocessed.smi:21|AV-procd|sdf|166|dock3
  -GOLD-   2262015413D 1   1.00000     0.00000
 Structure written by MMmdl.
 61 64  0  0  0  0  0  0  0  0  1 V2000
  146.2963  143.2474  153.7298 C   0  0  0  0  0  0  0  0  0  0  0  0
  146.8268  141.9821  153.3682 O   0  0  0  0  0  0  0  0  0  0  0  0
  147.3406  141.2479  154.4705 C   0  0  2  0  0  0  0  0  0  0  0  0
  148.8723  141.0927  154.4263 C   0  0  0  0  0  0  0  0  0  0  0  0
  149.1048  139.5780  154.3178 C   0  0  1  0  0  0  0  0  0  0  0  0
  150.4378  139.1093  154.9436 C   0  0  0  0  0  0  0  0  0  0  0  0
  150.6876  139.6826  156.2666 N   0  0  0  0  0  0  0  0  0  0  0  0
  151.3217  140.9985  156.3299 C   0  0  0  0  0  0  0  0  0  0  0  0
  150.7523  138.8692  157.3617 C   0  0  0  0  0  0  0  0  0  0  0  0
  149.6575  138.1268  157.6829 N   0  0  0  0  0  0  0  0  0  0  0  0
  149.6544  137.3338  158.7568 C   0  0  0  0  0  0  0  0  0  0  0  0
  150.6286  137.1286  159.6419 N   0  0  0  0  0  0  0  0  0  0  0  0
  151.7390  137.8534  159.3282 C   0  0  0  0  0  0  0  0  0  0  0  0
  151.8899  138.7366  158.2184 C   0  0  0  0  0  0  0  0  0  0  0  0
  153.1706  139.2810  158.2381 N   0  0  0  0  0  0  0  0  0  0  0  0
  153.7330  138.7649  159.2951 C   0  0  0  0  0  0  0  0  0  0  0  0
  152.9455  137.8906  160.0053 N   0  0  0  0  0  0  0  0  0  0  0  0
  153.3171  137.1808  161.2174 C   0  0  0  0  0  0  0  0  0  0  0  0
  154.5540  137.7818  161.9290 C   0  0  1  0  0  0  0  0  0  0  0  0
  154.3474  139.2935  162.1844 C   0  0  0  0  0  0  0  0  0  0  0  0
  155.5563  139.8978  162.5947 O   0  0  0  0  0  0  0  0  0  0  0  0
  154.9569  136.9880  163.2038 C   0  0  1  0  0  0  0  0  0  0  0  0
  153.8118  136.6765  164.1700 C   0  0  0  0  0  0  0  0  0  0  0  0
  153.9083  135.1678  164.3921 C   0  0  0  0  0  0  0  0  0  0  0  0
  155.2657  134.8700  164.1118 O   0  0  0  0  0  0  0  0  0  0  0  0
  155.6140  135.6214  162.9611 C   0  0  0  0  0  0  0  0  0  0  0  0
  147.9177  138.9769  154.9021 N   0  0  0  0  0  0  0  0  0  0  0  0
  147.7411  137.5728  154.5551 C   0  0  0  0  0  0  0  0  0  0  0  0
  146.8348  139.8034  154.4060 C   0  0  0  0  0  0  0  0  0  0  0  0
  147.0313  141.6964  155.4164 H   0  0  0  0  0  0  0  0  0  0  0  0
  149.1106  139.3325  153.2545 H   0  0  0  0  0  0  0  0  0  0  0  0
  145.9216  143.7525  152.8400 H   0  0  0  0  0  0  0  0  0  0  0  0
  147.0526  143.8890  154.1832 H   0  0  0  0  0  0  0  0  0  0  0  0
  145.4657  143.1408  154.4284 H   0  0  0  0  0  0  0  0  0  0  0  0
  149.3304  141.6187  153.5884 H   0  0  0  0  0  0  0  0  0  0  0  0
  149.3055  141.4903  155.3451 H   0  0  0  0  0  0  0  0  0  0  0  0
  150.4260  138.0219  155.0234 H   0  0  0  0  0  0  0  0  0  0  0  0
  151.2818  139.3265  154.2926 H   0  0  0  0  0  0  0  0  0  0  0  0
  150.9532  141.5650  157.1858 H   0  0  0  0  0  0  0  0  0  0  0  0
  151.1072  141.5827  155.4348 H   0  0  0  0  0  0  0  0  0  0  0  0
  152.4044  140.9029  156.4168 H   0  0  0  0  0  0  0  0  0  0  0  0
  148.7388  136.7890  158.9330 H   0  0  0  0  0  0  0  0  0  0  0  0
  154.7455  139.0053  159.5852 H   0  0  0  0  0  0  0  0  0  0  0  0
  152.4524  137.1940  161.8816 H   0  0  0  0  0  0  0  0  0  0  0  0
  153.4961  136.1336  160.9716 H   0  0  0  0  0  0  0  0  0  0  0  0
  155.3965  137.6877  161.2416 H   0  0  0  0  0  0  0  0  0  0  0  0
  153.9914  139.8000  161.2872 H   0  0  0  0  0  0  0  0  0  0  0  0
  153.6088  139.4730  162.9643 H   0  0  0  0  0  0  0  0  0  0  0  0
  155.3586  140.7450  162.9646 H   0  0  0  0  0  0  0  0  0  0  0  0
  155.6660  137.5858  163.7776 H   0  0  0  0  0  0  0  0  0  0  0  0
  153.9727  137.2037  165.1113 H   0  0  0  0  0  0  0  0  0  0  0  0
  152.8274  136.9692  163.8052 H   0  0  0  0  0  0  0  0  0  0  0  0
  153.6312  134.8718  165.4040 H   0  0  0  0  0  0  0  0  0  0  0  0
  153.2670  134.6320  163.6901 H   0  0  0  0  0  0  0  0  0  0  0  0
  155.2139  135.1165  162.0821 H   0  0  0  0  0  0  0  0  0  0  0  0
  156.6954  135.6900  162.8465 H   0  0  0  0  0  0  0  0  0  0  0  0
  146.8054  137.1919  154.9655 H   0  0  0  0  0  0  0  0  0  0  0  0
  148.5489  136.9647  154.9613 H   0  0  0  0  0  0  0  0  0  0  0  0
  147.7202  137.4309  153.4737 H   0  0  0  0  0  0  0  0  0  0  0  0
  145.9198  139.6571  154.9807 H   0  0  0  0  0  0  0  0  0  0  0  0
  146.6176  139.5421  153.3686 H   0  0  0  0  0  0  0  0  0  0  0  0
  1  2  1  0  0  0  0
  1 32  1  0  0  0  0
  1 33  1  0  0  0  0
  1 34  1  0  0  0  0
  2  3  1  0  0  0  0
  3 30  1  0  0  0  0
  3 29  1  0  0  0  0
  3  4  1  0  0  0  0
  4  5  1  0  0  0  0
  4 35  1  0  0  0  0
  4 36  1  0  0  0  0
  5 31  1  0  0  0  0
  5  6  1  0  0  0  0
  5 27  1  0  0  0  0
  6  7  1  0  0  0  0
  6 37  1  0  0  0  0
  6 38  1  0  0  0  0
  7  8  1  0  0  0  0
  7  9  1  0  0  0  0
  8 39  1  0  0  0  0
  8 40  1  0  0  0  0
  8 41  1  0  0  0  0
  9 14  1  0  0  0  0
  9 10  2  0  0  0  0
 10 11  1  0  0  0  0
 11 12  2  0  0  0  0
 11 42  1  0  0  0  0
 12 13  1  0  0  0  0
 13 17  1  0  0  0  0
 13 14  2  0  0  0  0
 14 15  1  0  0  0  0
 15 16  2  0  0  0  0
 16 17  1  0  0  0  0
 16 43  1  0  0  0  0
 17 18  1  0  0  0  0
 18 19  1  0  0  0  0
 18 44  1  0  0  0  0
 18 45  1  0  0  0  0
 19 20  1  0  0  0  0
 19 22  1  0  0  0  0
 19 46  1  0  0  0  0
 20 21  1  0  0  0  0
 20 47  1  0  0  0  0
 20 48  1  0  0  0  0
 21 49  1  0  0  0  0
 22 26  1  0  0  0  0
 22 23  1  0  0  0  0
 22 50  1  0  0  0  0
 23 24  1  0  0  0  0
 23 51  1  0  0  0  0
 23 52  1  0  0  0  0
 24 25  1  0  0  0  0
 24 53  1  0  0  0  0
 24 54  1  0  0  0  0
 25 26  1  0  0  0  0
 26 55  1  0  0  0  0
 26 56  1  0  0  0  0
 27 28  1  0  0  0  0
 27 29  1  0  0  0  0
 28 57  1  0  0  0  0
 28 58  1  0  0  0  0
 28 59  1  0  0  0  0
 29 60  1  0  0  0  0
 29 61  1  0  0  0  0
M  END
> <s_m_source_file>
AV-unprocessed.smi

> <i_m_source_file_index>
21

> <i_lp_mmshare_version>
43012

> <i_f3d_flags>
0

> <s_epik_input>
W0NIM11PW0NASF0xW0NIMl1bQ0BIXShOKFtDSDNdKVtDSDJdMSlbQ0gyXU4oW0NIM10pYyhuW2NIXW4yKWMoYzIzKW5bY0hdbjNbQ0gyXVtDQEhdKFtDSDJdW09IXSlbQ0BASF00W0NIMl1bQ0gyXU9bQ0gyXTQ=

> <s_epik_cmdline>
J2VwaWtfcHl0aG9uJywgJy1waCcsICc3LjAnLCAnLXRuJywgJzgnLCAnLW1hJywgJzIwMCcsICctbWV0YWxfYmluZGluZycsICctaW1hZScsICc8aW5maWxlLm1hZT4nLCAnLW9tYWUnLCAnPG91dGZpbGUubWFlPic=

> <r_lp_tautomer_probability>
1

> <r_epik_Ionization_Penalty>
2.17574

> <r_epik_Ionization_Penalty_Charging>
0

> <r_epik_Ionization_Penalty_Neutral>
2.17574

> <r_epik_State_Penalty>
2.31336

> <r_epik_Charging_Adjusted_Penalty>
2.31336

> <i_epik_Tot_Q>
0

> <i_epik_Tot_abs_Q>
0

> <r_epik_Metal_State_Penalty>
2.31025

> <b_epik_Metal_Only>
0

> <s_lp_Force_Field>
OPLS_2005

> <r_lp_Energy>
69.2807

> <b_lp_Chiralities_Consistent>
1

> <s_lp_Variant>
AV-unprocessed.smi:21-46

> <Gold.Version>
5.8.1

> <Gold.Id.Protein>
6NUR|6NUR_protein|mol2

> <Gold.PLP.Fitness>
45.4752

> <Gold.PLP.PLP>
-43.8696

> <Gold.PLP.part.hbond>
-2.4884

> <Gold.PLP.part.metal>
0.0000

> <Gold.PLP.part.buried>
-6.2642

> <Gold.PLP.part.nonpolar>
-35.4658

> <Gold.PLP.part.repulsive>
0.3269

> <Gold.PLP.ligand.clash>
0.0000

> <Gold.PLP.ligand.torsion>
2.3460

> <Gold.PLP.Chemscore.Hbond>
1.8450

> <Gold.PLP.Chemscore.CHOScore>
0.0000

> <Gold.PLP.Chemscore.Metal>
0.0000

> <Gold.Chemscore.Hbonds>
donor molecule, donor type, donor heavy atom, donor atom, acceptor molecule, acceptor atom, score
      P1  H  6896  6907       L1    12  0.80
      P1  H  7997  8009       L1    15  1.00

> <Gold.PLP.Chemscore.Internal.Correction>
0.7626

> <Gold.Rescore>
     Score         DG    S(hbond)    S(metal)    S(lipo)     H(rot)  DE(clash)    DE(int)     intcor
     12.39     -14.95       1.82        0.00      94.81       3.00       0.09       2.47       ----

> <Gold.Chemscore.Fitness>
12.3892

> <Gold.Chemscore.DG>
-14.9476

> <Gold.Chemscore.ZeroCoef>
-5.4800

> <Gold.Chemscore.Hbond>
1.8151

> <Gold.Chemscore.Metal>
0.0000

> <Gold.Chemscore.Lipo>
94.8141

> <Gold.Chemscore.Internal_Hbond>
0.0000

> <Gold.Chemscore.DEClash>
0.0906

> <Gold.Chemscore.DEInternal>
2.4679

> <Gold.Chemscore.Rot>
3.0031

> <Gold.Chemscore.Internal.Correction>
   9.000000E+99

> <Gold.Chemscore.Hbonds>
donor molecule, donor type, donor heavy atom, donor atom, acceptor molecule, acceptor atom, score
      P1  H  6896  6907       L1    12  0.42
      P1  H  7997  8009       L1    15  0.67

> <Gold.Chemscore.Hbond.Weighted>
-6.0624

> <Gold.Chemscore.Metal.Weighted>
-0.0000

> <Gold.Chemscore.Lipo.Weighted>
-11.0933

> <Gold.Chemscore.Internal_Hbond.Weighted>
0.0000

> <Gold.Chemscore.DEClash.Weighted>
0.0906

> <Gold.Chemscore.DEInternal.Weighted>
2.4679

> <Gold.Chemscore.Rot.Weighted>
7.6880

> <Gold.Chemscore.Internal.Correction.Weighted>
   9.000000E+99

> <Gold.Protein.RotatedTorsions>
[ 6907 6896 6895 6894 ] final  -15.58 input  -60.11 | X-H torsion
[ 7974 7965 7964 7962 ] final -139.78 input  175.53 | X-H torsion
[ 8008 7997 7996 7995 ] final  154.34 input   59.86 | X-H torsion
[ 10167 10162 10161 10158 ] final   75.80 input  -65.29 | X-H torsion
[ 10718 10713 10712 10709 ] final   19.06 input   66.30 | X-H torsion
[ 10763 10752 10751 10750 ] final   68.24 input  -60.55 | X-H torsion
[ 11005 11000 10999 10996 ] final  -31.55 input  -57.11 | X-H torsion

> <Gold.Protein.ActiveResidues>
 VAL166  LYS551  ARG553  GLY616  TRP617  ASP618  TYR619  PRO620  LYS621  CYS622 
 ASP623  PHE694  ASN695  SER759  ASP760  ASP761  ALA762  ILE779  LEU786  VAL792 
 PHE793  MET794  SER795  GLU796  ALA797  LYS798  CYS799  TRP800  GLU811  SER814 

> <Gold.Protein.RotatedAtoms>
  151.3217  135.0820  159.9307 H   0  0  0  0  0  0  0  0  0  0  0  0  # atno 6907 bound_to 6896
  152.5255  133.9632  159.7737 H   0  0  0  0  0  0  0  0  0  0  0  0  # atno 6908 bound_to 6896
  150.9954  133.6056  159.2732 H   0  0  0  0  0  0  0  0  0  0  0  0  # atno 6909 bound_to 6896
  144.8649  140.6278  143.5304 H   0  0  0  0  0  0  0  0  0  0  0  0  # atno 7974 bound_to 7965
  156.2536  140.1969  156.6631 H   0  0  0  0  0  0  0  0  0  0  0  0  # atno 8008 bound_to 7997
  154.6449  140.0579  156.9914 H   0  0  0  0  0  0  0  0  0  0  0  0  # atno 8009 bound_to 7997
  155.1506  140.3251  155.4435 H   0  0  0  0  0  0  0  0  0  0  0  0  # atno 8010 bound_to 7997
  139.9991  144.5700  150.7753 H   0  0  0  0  0  0  0  0  0  0  0  0  # atno 10167 bound_to 10162
  157.1051  130.6484  149.5882 H   0  0  0  0  0  0  0  0  0  0  0  0  # atno 10718 bound_to 10713
  153.0225  135.5254  154.7104 H   0  0  0  0  0  0  0  0  0  0  0  0  # atno 10763 bound_to 10752
  154.6188  135.2886  155.0352 H   0  0  0  0  0  0  0  0  0  0  0  0  # atno 10764 bound_to 10752
  154.1346  135.6587  153.4981 H   0  0  0  0  0  0  0  0  0  0  0  0  # atno 10765 bound_to 10752
  140.9477  133.7239  156.1173 H   0  0  0  0  0  0  0  0  0  0  0  0  # atno 11005 bound_to 11000
  145.4240  139.1559  143.4058 LP  0  0  0  0  0  0  0  0  0  0  0  0  # atno 17320 bound_to 7965
  146.2888  140.4352  142.8747 LP  0  0  0  0  0  0  0  0  0  0  0  0  # atno 17321 bound_to 7965
  140.7426  143.2834  151.3533 LP  0  0  0  0  0  0  0  0  0  0  0  0  # atno 17342 bound_to 10162
  139.6285  144.0767  152.2455 LP  0  0  0  0  0  0  0  0  0  0  0  0  # atno 17343 bound_to 10162
  155.9864  130.4898  150.7077 LP  0  0  0  0  0  0  0  0  0  0  0  0  # atno 17370 bound_to 10713
  157.4607  131.0883  151.0748 LP  0  0  0  0  0  0  0  0  0  0  0  0  # atno 17371 bound_to 10713
  140.7646  134.3901  157.5519 LP  0  0  0  0  0  0  0  0  0  0  0  0  # atno 17394 bound_to 11000
  139.8838  134.8983  156.2742 LP  0  0  0  0  0  0  0  0  0  0  0  0  # atno 17395 bound_to 11000

$$$$
