#       Name:                AV-unprocessed.smi:3306
#       Creating user name   scv26
#       Creation time:       Fri Mar 27 19:03:47 2020


#       File generated by GOLD software.
#

@<TRIPOS>MOLECULE
AV-unprocessed.smi:3306
    46    47     1
SMALL
NO_CHARGES


@<TRIPOS>ATOM
      1 ****        -4.5330  -2.6054   2.2820 C.3            1 S1                 0.0000
      2 ****        -4.1314  -1.8558   0.9918 C.3            1 S1                 0.0000
      3 ****        -4.6743  -2.6537  -0.2149 C.3            1 S1                 0.0000
      4 ****        -2.6693  -1.6510   0.9080 N.3            1 S1                 0.0000
      5 ****        -2.1733  -0.8678   2.0511 C.3            1 S1                 0.0000
      6 ****        -0.6415  -0.7303   2.0151 C.3            1 S1                 0.0000
      7 ****        -0.1779  -0.0372   0.7300 C.3            1 S1                 0.0000
      8 ****         1.3002   0.0172   0.6838 N.4            1 S1                 1.0000
      9 ****         1.8671   0.9092  -0.3490 C.3            1 S1                 0.0000
     10 ****         3.3935   1.0001  -0.2172 C.3            1 S1                 0.0000
     11 ****         4.0090   1.9031  -1.2693 C.ar           1 S1                 0.0000
     12 ****         4.3601   3.2349  -0.9615 C.ar           1 S1                 0.0000
     13 ****         4.9247   4.0311  -1.9770 C.ar           1 S1                 0.0000
     14 ****         5.1138   3.4683  -3.2538 C.ar           1 S1                 0.0000
     15 ****         4.7279   2.1289  -3.4601 C.ar           1 S1                 0.0000
     16 ****         4.1840   1.3573  -2.4938 N.ar           1 S1                 0.0000
     17 ****        -0.7672  -0.8069  -0.4603 C.3            1 S1                 0.0000
     18 ****        -2.2942  -0.9464  -0.3285 C.3            1 S1                 0.0000
     19 ****        -5.5851  -2.8909   2.2573 H              1 S1                 0.0000
     20 ****        -4.4161  -1.9940   3.1759 H              1 S1                 0.0000
     21 ****        -3.9508  -3.5185   2.4114 H              1 S1                 0.0000
     22 ****        -4.6218  -0.8809   0.9997 H              1 S1                 0.0000
     23 ****        -5.7155  -2.9383  -0.0599 H              1 S1                 0.0000
     24 ****        -4.1065  -3.5708  -0.3759 H              1 S1                 0.0000
     25 ****        -4.6622  -2.0750  -1.1378 H              1 S1                 0.0000
     26 ****        -2.6443   0.1164   2.0643 H              1 S1                 0.0000
     27 ****        -2.4209  -1.3531   2.9929 H              1 S1                 0.0000
     28 ****        -0.3059  -0.1649   2.8854 H              1 S1                 0.0000
     29 ****        -0.1871  -1.7194   2.0947 H              1 S1                 0.0000
     30 ****        -0.5634   0.9837   0.7305 H              1 S1                 0.0000
     31 ****         1.6204   0.3527   1.5810 H              1 S1                 0.0000
     32 ****         1.6047   0.5369  -1.3394 H              1 S1                 0.0000
     33 ****         1.4289   1.9032  -0.2491 H              1 S1                 0.0000
     34 ****         3.6615   1.3704   0.7732 H              1 S1                 0.0000
     35 ****         3.8367   0.0066  -0.3030 H              1 S1                 0.0000
     36 ****         4.2020   3.6401   0.0271 H              1 S1                 0.0000
     37 ****         5.2075   5.0547  -1.7804 H              1 S1                 0.0000
     38 ****         5.5443   4.0491  -4.0563 H              1 S1                 0.0000
     39 ****         4.8586   1.6655  -4.4268 H              1 S1                 0.0000
     40 ****        -0.5392  -0.2972  -1.3964 H              1 S1                 0.0000
     41 ****        -0.3153  -1.7979  -0.5285 H              1 S1                 0.0000
     42 ****        -2.6340  -1.4926  -1.2062 H              1 S1                 0.0000
     43 ****        -2.7703   0.0351  -0.3584 H              1 S1                 0.0000
     44 ****         1.6572  -0.9178   0.5467 H              1 S1                 0.0000
     45 ****        -2.2553  -2.5612   0.9151 LP             1 S1                 0.0000
     46 ****         3.9188   0.4110  -2.6786 LP             1 S1                 0.0000
@<TRIPOS>BOND
    1    1    2 1     
    2    1   19 1     
    3    1   20 1     
    4    1   21 1     
    5    2    3 1     
    6    2    4 1     
    7    2   22 1     
    8    3   23 1     
    9    3   24 1     
   10    3   25 1     
   11    4   18 1     
   12    4    5 1     
   13    5    6 1     
   14    5   26 1     
   15    5   27 1     
   16    6    7 1     
   17    6   28 1     
   18    6   29 1     
   19    7    8 1     
   20    7   17 1     
   21    7   30 1     
   22    8    9 1     
   23    8   31 1     
   24    8   44 1     
   25    9   10 1     
   26    9   32 1     
   27    9   33 1     
   28   10   11 1     
   29   10   34 1     
   30   10   35 1     
   31   11   16 ar    
   32   11   12 ar    
   33   12   13 ar    
   34   12   36 1     
   35   13   14 ar    
   36   13   37 1     
   37   14   15 ar    
   38   14   38 1     
   39   15   16 ar    
   40   15   39 1     
   41   17   18 1     
   42   17   40 1     
   43   17   41 1     
   44   18   42 1     
   45   18   43 1     
   46    4   45 1     
   47   16   46 1     
@<TRIPOS>SUBSTRUCTURE
      1 S1             1
@<TRIPOS>SET
LONE_PAIRS      STATIC     ATOMS    <user>   **** ""
2 45 46
DONOR_HYDROGENS      STATIC     ATOMS    <user>   **** ""
2 31 44
ATOM$BLUE        STATIC     ATOMS    COLORGROUP SYSTEM
2 45 46
ATOM$RED        STATIC     ATOMS    COLORGROUP SYSTEM
2 31 44
