#       Name:                AV-unprocessed.smi:794
#       Creating user name   scv26
#       Creation time:       Fri Mar 27 01:19:41 2020


#       File generated by GOLD software.
#

@<TRIPOS>MOLECULE
AV-unprocessed.smi:794
    46    48     1
SMALL
NO_CHARGES


@<TRIPOS>ATOM
      1 ****        -5.8730  -1.2326   0.1556 C.3            1 S1                 0.0000
      2 ****        -4.8687  -0.1188   0.1789 C.2            1 S1                 0.0000
      3 ****        -3.5116  -0.4548   0.1866 N.2            1 S1                 0.0000
      4 ****        -2.7185   0.6201   0.2083 C.2            1 S1                 0.0000
      5 ****        -1.2998   0.5692   0.2237 N.am           1 S1                 0.0000
      6 ****        -0.5078  -0.5158   0.1633 C.2            1 S1                 0.0000
      7 ****        -0.9020  -1.6780   0.0641 O.2            1 S1                 0.0000
      8 ****         0.7868  -0.1719   0.2185 N.am           1 S1                 0.0000
      9 ****         1.9227  -1.0958   0.1709 C.3            1 S1                 0.0000
     10 ****         2.8707  -0.9344   1.3858 C.3            1 S1                 0.0000
     11 ****         3.2478   0.5449   1.6143 C.3            1 S1                 0.0000
     12 ****         4.1542   0.8488   0.4077 C.3            1 S1                 0.0000
     13 ****         4.2149  -0.5057  -0.3304 C.3            1 S1                 0.0000
     14 ****         4.1859  -1.4820   0.8398 C.3            1 S1                 0.0000
     15 ****         2.8778  -0.8501  -1.0314 C.3            1 S1                 0.0000
     16 ****         2.4041   0.1379  -2.1214 C.3            1 S1                 0.0000
     17 ****         3.3547   0.2112  -3.1627 O.3            1 S1                 0.0000
     18 ****        -3.5961   2.1378   0.2251 S.3            1 S1                 0.0000
     19 ****        -5.0955   1.2417   0.1942 C.2            1 S1                 0.0000
     20 ****        -6.3941   1.9818   0.1876 C.3            1 S1                 0.0000
     21 ****        -6.8999  -0.8715   0.1568 H              1 S1                 0.0000
     22 ****        -5.7568  -1.8805   1.0247 H              1 S1                 0.0000
     23 ****        -5.7482  -1.8519  -0.7329 H              1 S1                 0.0000
     24 ****        -0.8349   1.4629   0.2864 H              1 S1                 0.0000
     25 ****         1.0109   0.8087   0.3022 H              1 S1                 0.0000
     26 ****         1.5756  -2.1302   0.1336 H              1 S1                 0.0000
     27 ****         2.5090  -1.4317   2.2862 H              1 S1                 0.0000
     28 ****         2.3909   1.2153   1.6789 H              1 S1                 0.0000
     29 ****         3.8096   0.6526   2.5431 H              1 S1                 0.0000
     30 ****         3.7739   1.6608  -0.2104 H              1 S1                 0.0000
     31 ****         5.1477   1.1420   0.7495 H              1 S1                 0.0000
     32 ****         5.0840  -0.6074  -0.9810 H              1 S1                 0.0000
     33 ****         5.0256  -1.3620   1.5270 H              1 S1                 0.0000
     34 ****         4.1260  -2.5279   0.5332 H              1 S1                 0.0000
     35 ****         3.0156  -1.8120  -1.5293 H              1 S1                 0.0000
     36 ****         1.4606  -0.2036  -2.5486 H              1 S1                 0.0000
     37 ****         2.2275   1.1374  -1.7260 H              1 S1                 0.0000
     38 ****         3.0282   0.7975  -3.8282 H              1 S1                 0.0000
     39 ****        -7.2521   1.3119   0.1929 H              1 S1                 0.0000
     40 ****        -6.4717   2.6114  -0.6989 H              1 S1                 0.0000
     41 ****        -6.4730   2.6259   1.0635 H              1 S1                 0.0000
     42 ****        -3.1722  -1.3954   0.1769 LP             1 S1                 0.0000
     43 ****        -1.8822  -1.8717   0.0221 LP             1 S1                 0.0000
     44 ****        -0.2420  -2.4283   0.0254 LP             1 S1                 0.0000
     45 ****         3.4960  -0.6980  -3.5545 LP             1 S1                 0.0000
     46 ****         4.2213   0.5579  -2.8040 LP             1 S1                 0.0000
@<TRIPOS>BOND
    1    1    2 1     
    2    1   21 1     
    3    1   22 1     
    4    1   23 1     
    5    2   19 2     
    6    2    3 1     
    7    3    4 2     
    8    4    5 1     
    9    4   18 1     
   10    5    6 am    
   11    5   24 1     
   12    6    7 2     
   13    6    8 am    
   14    8    9 1     
   15    8   25 1     
   16    9   15 1     
   17    9   10 1     
   18    9   26 1     
   19   10   14 1     
   20   10   11 1     
   21   10   27 1     
   22   11   12 1     
   23   11   28 1     
   24   11   29 1     
   25   12   13 1     
   26   12   30 1     
   27   12   31 1     
   28   13   14 1     
   29   13   15 1     
   30   13   32 1     
   31   14   33 1     
   32   14   34 1     
   33   15   16 1     
   34   15   35 1     
   35   16   17 1     
   36   16   36 1     
   37   16   37 1     
   38   17   38 1     
   39   18   19 1     
   40   19   20 1     
   41   20   39 1     
   42   20   40 1     
   43   20   41 1     
   44    3   42 1     
   45    7   43 1     
   46    7   44 1     
   47   17   45 1     
   48   17   46 1     
@<TRIPOS>SUBSTRUCTURE
      1 S1             1
@<TRIPOS>SET
LONE_PAIRS      STATIC     ATOMS    <user>   **** ""
5 42 43 44 45 46
DONOR_HYDROGENS      STATIC     ATOMS    <user>   **** ""
3 24 25 38
ATOM$BLUE        STATIC     ATOMS    COLORGROUP SYSTEM
5 42 43 44 45 46
ATOM$RED        STATIC     ATOMS    COLORGROUP SYSTEM
3 24 25 38
