AV-unprocessed.smi:2712|AV-procd|sdf|10476|dock2
  -GOLD-   2272014513D 1   1.00000     0.00000
 Structure written by MMmdl.
 52 53  0  0  0  0  0  0  0  0  1 V2000
  153.3722  142.7452  162.9129 C   0  0  0  0  0  0  0  0  0  0  0  0
  152.9812  141.9597  161.6961 C   0  0  0  0  0  0  0  0  0  0  0  0
  151.8548  142.3176  160.8550 C   0  0  0  0  0  0  0  0  0  0  0  0
  151.5643  141.5558  159.7787 C   0  0  0  0  0  0  0  0  0  0  0  0
  152.3581  140.3783  159.4340 C   0  0  0  0  0  0  0  0  0  0  0  0
  152.1176  139.6621  158.4623 O   0  0  0  0  0  0  0  0  0  0  0  0
  153.3966  140.1462  160.2908 N   0  0  0  0  0  0  0  0  0  0  0  0
  154.3154  139.0169  160.0856 C   0  0  0  0  0  0  0  0  0  0  0  0
  155.1970  138.7120  161.3061 C   0  0  0  0  0  0  0  0  0  0  0  0
  155.9811  139.5530  161.7489 O   0  0  0  0  0  0  0  0  0  0  0  0
  155.0405  137.4949  161.8491 N   0  0  0  0  0  0  0  0  0  0  0  0
  155.7593  136.9851  163.0151 C   0  0  2  0  0  0  0  0  0  0  0  0
  157.1374  136.4441  162.5846 C   0  0  0  0  0  0  0  0  0  0  0  0
  157.8156  135.5319  163.6170 C   0  0  0  0  0  0  0  0  0  0  0  0
  157.4333  134.0478  163.4588 C   0  0  0  0  0  0  0  0  0  0  0  0
  156.0035  133.6475  163.9198 C   0  0  2  0  0  0  0  0  0  0  0  0
  155.7152  132.1057  163.7854 C   0  0  0  0  0  0  0  0  0  0  0  0
  154.4059  131.7001  164.4966 C   0  0  0  0  0  0  0  0  0  0  0  0
  156.8776  131.2780  164.3845 C   0  0  0  0  0  0  0  0  0  0  0  0
  155.6095  131.6845  162.3013 C   0  0  0  0  0  0  0  0  0  0  0  0
  154.9146  134.5324  163.2475 C   0  0  0  0  0  0  0  0  0  0  0  0
  154.8753  135.9776  163.7760 C   0  0  0  0  0  0  0  0  0  0  0  0
  153.6918  140.9213  161.4003 N   0  0  0  0  0  0  0  0  0  0  0  0
  152.6797  143.5683  163.0905 H   0  0  0  0  0  0  0  0  0  0  0  0
  154.3708  143.1675  162.7971 H   0  0  0  0  0  0  0  0  0  0  0  0
  153.3729  142.1124  163.8010 H   0  0  0  0  0  0  0  0  0  0  0  0
  151.2597  143.1864  161.0946 H   0  0  0  0  0  0  0  0  0  0  0  0
  150.7256  141.8236  159.1529 H   0  0  0  0  0  0  0  0  0  0  0  0
  153.7514  138.1147  159.8417 H   0  0  0  0  0  0  0  0  0  0  0  0
  154.9518  139.2055  159.2189 H   0  0  0  0  0  0  0  0  0  0  0  0
  154.3738  136.8697  161.4201 H   0  0  0  0  0  0  0  0  0  0  0  0
  155.9240  137.8177  163.7017 H   0  0  0  0  0  0  0  0  0  0  0  0
  157.0612  135.9162  161.6328 H   0  0  0  0  0  0  0  0  0  0  0  0
  157.7885  137.2969  162.3877 H   0  0  0  0  0  0  0  0  0  0  0  0
  158.8931  135.6081  163.4670 H   0  0  0  0  0  0  0  0  0  0  0  0
  157.6357  135.8815  164.6342 H   0  0  0  0  0  0  0  0  0  0  0  0
  157.5940  133.7484  162.4235 H   0  0  0  0  0  0  0  0  0  0  0  0
  158.1661  133.4942  164.0437 H   0  0  0  0  0  0  0  0  0  0  0  0
  155.9669  133.8594  164.9893 H   0  0  0  0  0  0  0  0  0  0  0  0
  154.2097  130.6340  164.3765 H   0  0  0  0  0  0  0  0  0  0  0  0
  153.5423  132.2305  164.0959 H   0  0  0  0  0  0  0  0  0  0  0  0
  154.4461  131.8956  165.5680 H   0  0  0  0  0  0  0  0  0  0  0  0
  156.9479  131.3654  165.4675 H   0  0  0  0  0  0  0  0  0  0  0  0
  157.8381  131.5770  163.9632 H   0  0  0  0  0  0  0  0  0  0  0  0
  156.7534  130.2142  164.1782 H   0  0  0  0  0  0  0  0  0  0  0  0
  155.5582  130.6002  162.1967 H   0  0  0  0  0  0  0  0  0  0  0  0
  156.4723  132.0253  161.7278 H   0  0  0  0  0  0  0  0  0  0  0  0
  154.7113  132.0764  161.8242 H   0  0  0  0  0  0  0  0  0  0  0  0
  155.0164  134.5230  162.1618 H   0  0  0  0  0  0  0  0  0  0  0  0
  153.9289  134.1189  163.4438 H   0  0  0  0  0  0  0  0  0  0  0  0
  155.1443  135.9834  164.8326 H   0  0  0  0  0  0  0  0  0  0  0  0
  153.8447  136.3355  163.7569 H   0  0  0  0  0  0  0  0  0  0  0  0
  1  2  1  0  0  0  0
  1 24  1  0  0  0  0
  1 25  1  0  0  0  0
  1 26  1  0  0  0  0
  2 23  2  0  0  0  0
  2  3  1  0  0  0  0
  3  4  2  0  0  0  0
  3 27  1  0  0  0  0
  4  5  1  0  0  0  0
  4 28  1  0  0  0  0
  5  6  2  0  0  0  0
  5  7  1  0  0  0  0
  7  8  1  0  0  0  0
  7 23  1  0  0  0  0
  8  9  1  0  0  0  0
  8 29  1  0  0  0  0
  8 30  1  0  0  0  0
  9 10  2  0  0  0  0
  9 11  1  0  0  0  0
 11 12  1  0  0  0  0
 11 31  1  0  0  0  0
 12 22  1  0  0  0  0
 12 13  1  0  0  0  0
 12 32  1  0  0  0  0
 13 14  1  0  0  0  0
 13 33  1  0  0  0  0
 13 34  1  0  0  0  0
 14 15  1  0  0  0  0
 14 35  1  0  0  0  0
 14 36  1  0  0  0  0
 15 16  1  0  0  0  0
 15 37  1  0  0  0  0
 15 38  1  0  0  0  0
 16 17  1  0  0  0  0
 16 21  1  0  0  0  0
 16 39  1  0  0  0  0
 17 18  1  0  0  0  0
 17 19  1  0  0  0  0
 17 20  1  0  0  0  0
 18 40  1  0  0  0  0
 18 41  1  0  0  0  0
 18 42  1  0  0  0  0
 19 43  1  0  0  0  0
 19 44  1  0  0  0  0
 19 45  1  0  0  0  0
 20 46  1  0  0  0  0
 20 47  1  0  0  0  0
 20 48  1  0  0  0  0
 21 22  1  0  0  0  0
 21 49  1  0  0  0  0
 21 50  1  0  0  0  0
 22 51  1  0  0  0  0
 22 52  1  0  0  0  0
M  END
> <s_m_source_file>
AV-unprocessed.smi

> <i_m_source_file_index>
2712

> <i_lp_mmshare_version>
43012

> <i_f3d_flags>
0

> <s_epik_input>
W0NIM11jMVtjSF1bY0hdYyg9TyluKG4xKVtDSDJdQyg9TylbTkhdW0NAQEhdMltDSDJdW0NIMl1bQ0gyXVtDQEBIXShDKFtDSDNdKShbQ0gzXSlbQ0gzXSlbQ0gyXVtDSDJdMg==

> <s_epik_cmdline>
J2VwaWtfcHl0aG9uJywgJy1waCcsICc3LjAnLCAnLXRuJywgJzgnLCAnLW1hJywgJzIwMCcsICctbWV0YWxfYmluZGluZycsICctaW1hZScsICc8aW5maWxlLm1hZT4nLCAnLW9tYWUnLCAnPG91dGZpbGUubWFlPic=

> <r_lp_tautomer_probability>
1

> <r_epik_Ionization_Penalty>
8.71758e-07

> <r_epik_Ionization_Penalty_Charging>
8.50442e-07

> <r_epik_Ionization_Penalty_Neutral>
2.13165e-08

> <r_epik_State_Penalty>
-0

> <r_epik_Charging_Adjusted_Penalty>
8.50442e-07

> <i_epik_Tot_Q>
0

> <i_epik_Tot_abs_Q>
0

> <r_epik_Metal_State_Penalty>
-0

> <b_epik_Metal_Only>
0

> <s_lp_Force_Field>
OPLS_2005

> <r_lp_Energy>
39.6201

> <b_lp_Chiralities_Consistent>
1

> <s_lp_Variant>
AV-unprocessed.smi:2712-3

> <Gold.Version>
5.8.1

> <Gold.Id.Protein>
6NUR|6NUR_protein|mol2

> <Gold.PLP.Fitness>
47.6640

> <Gold.PLP.PLP>
-46.0106

> <Gold.PLP.part.hbond>
-1.4073

> <Gold.PLP.part.metal>
0.0000

> <Gold.PLP.part.buried>
-4.6716

> <Gold.PLP.part.nonpolar>
-38.6266

> <Gold.PLP.part.repulsive>
0.0000

> <Gold.PLP.ligand.clash>
0.0000

> <Gold.PLP.ligand.torsion>
0.6207

> <Gold.PLP.Chemscore.Hbond>
0.9280

> <Gold.PLP.Chemscore.CHOScore>
0.0000

> <Gold.PLP.Chemscore.Metal>
0.0000

> <Gold.PLP.Chemscore.Internal.Correction>
0.1107

> <Gold.Rescore>
     Score         DG    S(hbond)    S(metal)    S(lipo)     H(rot)  DE(clash)    DE(int)     intcor
     16.07     -18.73       0.98        0.00     118.41       1.52       0.09       2.57       ----

> <Gold.Chemscore.Fitness>
16.0704

> <Gold.Chemscore.DG>
-18.7278

> <Gold.Chemscore.ZeroCoef>
-5.4800

> <Gold.Chemscore.Hbond>
0.9807

> <Gold.Chemscore.Metal>
0.0000

> <Gold.Chemscore.Lipo>
118.4080

> <Gold.Chemscore.Internal_Hbond>
0.0000

> <Gold.Chemscore.DEClash>
0.0888

> <Gold.Chemscore.DEInternal>
2.5686

> <Gold.Chemscore.Rot>
1.5162

> <Gold.Chemscore.Internal.Correction>
   9.000000E+99

> <Gold.Chemscore.Hbond.Weighted>
-3.2755

> <Gold.Chemscore.Metal.Weighted>
-0.0000

> <Gold.Chemscore.Lipo.Weighted>
-13.8537

> <Gold.Chemscore.Internal_Hbond.Weighted>
0.0000

> <Gold.Chemscore.DEClash.Weighted>
0.0888

> <Gold.Chemscore.DEInternal.Weighted>
2.5686

> <Gold.Chemscore.Rot.Weighted>
3.8814

> <Gold.Chemscore.Internal.Correction.Weighted>
   9.000000E+99

> <Gold.Protein.RotatedTorsions>
[ 6907 6896 6895 6894 ] final  -45.93 input  -60.11 | X-H torsion
[ 7974 7965 7964 7962 ] final -172.10 input  175.53 | X-H torsion
[ 8008 7997 7996 7995 ] final   25.50 input   59.86 | X-H torsion
[ 10167 10162 10161 10158 ] final  -95.97 input  -65.29 | X-H torsion
[ 10718 10713 10712 10709 ] final -162.34 input   66.30 | X-H torsion
[ 10763 10752 10751 10750 ] final  -75.43 input  -60.55 | X-H torsion
[ 11005 11000 10999 10996 ] final -115.66 input  -57.11 | X-H torsion

> <Gold.Protein.ActiveResidues>
 VAL166  LYS551  ARG553  GLY616  TRP617  ASP618  TYR619  PRO620  LYS621  CYS622 
 ASP623  PHE694  ASN695  SER759  ASP760  ASP761  ALA762  ILE779  LEU786  VAL792 
 PHE793  MET794  SER795  GLU796  ALA797  LYS798  CYS799  TRP800  GLU811  SER814 

> <Gold.Protein.RotatedAtoms>
  150.9167  134.8584  159.7461 H   0  0  0  0  0  0  0  0  0  0  0  0  # atno 6907 bound_to 6896
  152.4972  134.4279  159.9512 H   0  0  0  0  0  0  0  0  0  0  0  0  # atno 6908 bound_to 6896
  151.4317  133.3629  159.2805 H   0  0  0  0  0  0  0  0  0  0  0  0  # atno 6909 bound_to 6896
  144.7150  140.1823  143.6357 H   0  0  0  0  0  0  0  0  0  0  0  0  # atno 7974 bound_to 7965
  155.0127  140.3138  155.4823 H   0  0  0  0  0  0  0  0  0  0  0  0  # atno 8008 bound_to 7997
  156.2906  140.2211  156.5183 H   0  0  0  0  0  0  0  0  0  0  0  0  # atno 8009 bound_to 7997
  154.7520  140.0465  157.0890 H   0  0  0  0  0  0  0  0  0  0  0  0  # atno 8010 bound_to 7997
  140.2987  143.3176  152.0271 H   0  0  0  0  0  0  0  0  0  0  0  0  # atno 10167 bound_to 10162
  156.6091  130.8843  151.2932 H   0  0  0  0  0  0  0  0  0  0  0  0  # atno 10718 bound_to 10713
  154.4864  135.5831  153.6427 H   0  0  0  0  0  0  0  0  0  0  0  0  # atno 10763 bound_to 10752
  152.9855  135.6102  154.3181 H   0  0  0  0  0  0  0  0  0  0  0  0  # atno 10764 bound_to 10752
  154.3076  135.2845  155.2560 H   0  0  0  0  0  0  0  0  0  0  0  0  # atno 10765 bound_to 10752
  141.0473  133.9742  157.2896 H   0  0  0  0  0  0  0  0  0  0  0  0  # atno 11005 bound_to 11000
  145.8845  139.2341  143.1586 LP  0  0  0  0  0  0  0  0  0  0  0  0  # atno 17320 bound_to 7965
  145.9963  140.8559  143.0041 LP  0  0  0  0  0  0  0  0  0  0  0  0  # atno 17321 bound_to 7965
  139.4920  144.6472  151.6753 LP  0  0  0  0  0  0  0  0  0  0  0  0  # atno 17342 bound_to 10162
  140.5670  144.0173  150.6197 LP  0  0  0  0  0  0  0  0  0  0  0  0  # atno 17343 bound_to 10162
  157.7259  130.9622  150.1634 LP  0  0  0  0  0  0  0  0  0  0  0  0  # atno 17370 bound_to 10713
  156.2405  130.3690  149.8343 LP  0  0  0  0  0  0  0  0  0  0  0  0  # atno 17371 bound_to 10713
  139.9322  135.0199  156.8438 LP  0  0  0  0  0  0  0  0  0  0  0  0  # atno 17394 bound_to 11000
  140.6122  134.0072  155.7582 LP  0  0  0  0  0  0  0  0  0  0  0  0  # atno 17395 bound_to 11000

$$$$
