#       Name:                AV-unprocessed.smi:249
#       Creating user name   scv26
#       Creation time:       Thu Mar 26 21:00:40 2020


#       File generated by GOLD software.
#

@<TRIPOS>MOLECULE
AV-unprocessed.smi:249
    71    74     1
SMALL
NO_CHARGES


@<TRIPOS>ATOM
      1 ****        -3.1826  -5.2158  -1.5145 C.3            1 S1                 0.0000
      2 ****        -4.0964  -4.0152  -1.8029 C.3            1 S1                 0.0000
      3 ****        -3.4386  -2.7023  -1.5632 N.4            1 S1                 1.0000
      4 ****        -4.2220  -1.5716  -2.1301 C.3            1 S1                 0.0000
      5 ****        -3.4241  -0.2589  -2.0903 C.3            1 S1                 0.0000
      6 ****        -2.9600   0.0574  -0.6553 C.3            1 S1                 0.0000
      7 ****        -2.2510   1.3370  -0.5273 N.pl3          1 S1                 0.0000
      8 ****        -2.9929   2.5706  -0.7515 C.3            1 S1                 0.0000
      9 ****        -0.9328   1.4462  -0.8224 C.ar           1 S1                 0.0000
     10 ****        -0.4329   0.8798  -1.9511 N.ar           1 S1                 0.0000
     11 ****         0.8654   1.0000  -2.2444 C.ar           1 S1                 0.0000
     12 ****         1.8214   1.6272  -1.5566 N.ar           1 S1                 0.0000
     13 ****         1.3234   2.1968  -0.4219 C.ar           1 S1                 0.0000
     14 ****        -0.0319   2.1633   0.0102 C.ar           1 S1                 0.0000
     15 ****        -0.1687   2.8581   1.2052 N.2            1 S1                 0.0000
     16 ****         1.0391   3.2775   1.4675 C.2            1 S1                 0.0000
     17 ****         2.0019   2.9041   0.5559 N.pl3          1 S1                 0.0000
     18 ****         3.4159   3.2316   0.6104 C.3            1 S1                 0.0000
     19 ****         4.3693   2.0084   0.6768 C.3            1 S1                 0.0000
     20 ****         5.8286   2.4953   0.5180 C.3            1 S1                 0.0000
     21 ****         6.2479   3.2607   1.6300 O.3            1 S1                 0.0000
     22 ****         4.1796   1.0967   1.9258 C.3            1 S1                 0.0000
     23 ****         2.8979   0.2767   1.9683 C.3            1 S1                 0.0000
     24 ****         3.2280  -0.8273   2.9677 C.3            1 S1                 0.0000
     25 ****         4.6351  -1.0165   2.8942 O.3            1 S1                 0.0000
     26 ****         5.2087  -0.0347   2.0404 C.3            1 S1                 0.0000
     27 ****        -2.1775  -1.1428  -0.0797 C.3            1 S1                 0.0000
     28 ****        -2.9864  -2.4539  -0.1582 C.3            1 S1                 0.0000
     29 ****        -4.1278  -2.5009   0.8807 C.3            1 S1                 0.0000
     30 ****        -3.6588  -6.1431  -1.8339 H              1 S1                 0.0000
     31 ****        -2.9665  -5.3191  -0.4514 H              1 S1                 0.0000
     32 ****        -2.2358  -5.1304  -2.0486 H              1 S1                 0.0000
     33 ****        -4.3849  -4.0671  -2.8534 H              1 S1                 0.0000
     34 ****        -5.0233  -4.0926  -1.2344 H              1 S1                 0.0000
     35 ****        -4.4818  -1.7901  -3.1666 H              1 S1                 0.0000
     36 ****        -5.1648  -1.4612  -1.5934 H              1 S1                 0.0000
     37 ****        -2.5737  -0.3456  -2.7656 H              1 S1                 0.0000
     38 ****        -4.0421   0.5522  -2.4765 H              1 S1                 0.0000
     39 ****        -3.8570   0.1729  -0.0463 H              1 S1                 0.0000
     40 ****        -2.6521   3.3571  -0.0779 H              1 S1                 0.0000
     41 ****        -4.0587   2.4223  -0.5760 H              1 S1                 0.0000
     42 ****        -2.8644   2.9170  -1.7778 H              1 S1                 0.0000
     43 ****         1.1844   0.5244  -3.1600 H              1 S1                 0.0000
     44 ****         1.2651   3.8607   2.3485 H              1 S1                 0.0000
     45 ****         3.6404   3.8293  -0.2737 H              1 S1                 0.0000
     46 ****         3.5845   3.8823   1.4694 H              1 S1                 0.0000
     47 ****         4.1722   1.3919  -0.2004 H              1 S1                 0.0000
     48 ****         6.5130   1.6568   0.3901 H              1 S1                 0.0000
     49 ****         5.9290   3.1051  -0.3804 H              1 S1                 0.0000
     50 ****         7.1395   3.5388   1.4845 H              1 S1                 0.0000
     51 ****         4.2334   1.7037   2.8311 H              1 S1                 0.0000
     52 ****         2.0242   0.8440   2.2845 H              1 S1                 0.0000
     53 ****         2.6885  -0.1572   0.9893 H              1 S1                 0.0000
     54 ****         2.9745  -0.5131   3.9807 H              1 S1                 0.0000
     55 ****         2.6902  -1.7513   2.7551 H              1 S1                 0.0000
     56 ****         5.3870  -0.4935   1.0667 H              1 S1                 0.0000
     57 ****         6.1666   0.3066   2.4335 H              1 S1                 0.0000
     58 ****        -1.2466  -1.2869  -0.6282 H              1 S1                 0.0000
     59 ****        -1.8904  -0.9416   0.9532 H              1 S1                 0.0000
     60 ****        -2.2865  -3.2452   0.1083 H              1 S1                 0.0000
     61 ****        -3.7438  -2.2977   1.8808 H              1 S1                 0.0000
     62 ****        -4.5985  -3.4828   0.9210 H              1 S1                 0.0000
     63 ****        -4.9065  -1.7663   0.6794 H              1 S1                 0.0000
     64 ****        -2.5907  -2.7303  -2.1116 H              1 S1                 0.0000
     65 ****        -1.0378   0.3716  -2.5642 LP             1 S1                 0.0000
     66 ****         2.7801   1.6737  -1.8372 LP             1 S1                 0.0000
     67 ****        -1.0006   3.0035   1.7408 LP             1 S1                 0.0000
     68 ****         6.1993   2.7046   2.4597 LP             1 S1                 0.0000
     69 ****         5.6571   4.0613   1.7303 LP             1 S1                 0.0000
     70 ****         4.8291  -1.9274   2.5301 LP             1 S1                 0.0000
     71 ****         5.0297  -0.9323   3.8092 LP             1 S1                 0.0000
@<TRIPOS>BOND
    1    1    2 1     
    2    1   30 1     
    3    1   31 1     
    4    1   32 1     
    5    2    3 1     
    6    2   33 1     
    7    2   34 1     
    8    3   28 1     
    9    3    4 1     
   10    3   64 1     
   11    4    5 1     
   12    4   35 1     
   13    4   36 1     
   14    5    6 1     
   15    5   37 1     
   16    5   38 1     
   17    6    7 1     
   18    6   27 1     
   19    6   39 1     
   20    7    8 1     
   21    7    9 1     
   22    8   40 1     
   23    8   41 1     
   24    8   42 1     
   25    9   14 ar    
   26    9   10 ar    
   27   10   11 ar    
   28   11   12 ar    
   29   11   43 1     
   30   12   13 ar    
   31   13   17 1     
   32   13   14 ar    
   33   14   15 1     
   34   15   16 2     
   35   16   17 1     
   36   16   44 1     
   37   17   18 1     
   38   18   19 1     
   39   18   45 1     
   40   18   46 1     
   41   19   20 1     
   42   19   22 1     
   43   19   47 1     
   44   20   21 1     
   45   20   48 1     
   46   20   49 1     
   47   21   50 1     
   48   22   26 1     
   49   22   23 1     
   50   22   51 1     
   51   23   24 1     
   52   23   52 1     
   53   23   53 1     
   54   24   25 1     
   55   24   54 1     
   56   24   55 1     
   57   25   26 1     
   58   26   56 1     
   59   26   57 1     
   60   27   28 1     
   61   27   58 1     
   62   27   59 1     
   63   28   29 1     
   64   28   60 1     
   65   29   61 1     
   66   29   62 1     
   67   29   63 1     
   68   10   65 1     
   69   12   66 1     
   70   15   67 1     
   71   21   68 1     
   72   21   69 1     
   73   25   70 1     
   74   25   71 1     
@<TRIPOS>SUBSTRUCTURE
      1 S1             1
@<TRIPOS>SET
LONE_PAIRS      STATIC     ATOMS    <user>   **** ""
7 65 66 67 68 69 70 71
DONOR_HYDROGENS      STATIC     ATOMS    <user>   **** ""
2 64 50
ATOM$BLUE        STATIC     ATOMS    COLORGROUP SYSTEM
7 65 66 67 68 69 70 71
ATOM$RED        STATIC     ATOMS    COLORGROUP SYSTEM
2 64 50
