AV-unprocessed.smi:3156|AV-procd|sdf|12031|dock1
  -GOLD-   2272017443D 1   1.00000     0.00000
 Structure written by MMmdl.
 41 42  0  0  0  0  0  0  0  0  2 V2000
  150.0498  139.8362  154.5841 C   0  0  0  0  0  0  0  0  0  0  0  0
  149.1050  141.0512  154.6638 C   0  0  2  0  0  0  0  0  0  0  0  0
  149.4340  141.8682  155.8561 N   0  3  0  0  0  0  0  0  0  0  0  0
  150.8612  141.8825  156.2420 C   0  0  0  0  0  0  0  0  0  0  0  0
  151.0525  142.4511  157.6562 C   0  0  1  0  0  0  0  0  0  0  0  0
  152.0890  141.6584  158.4802 C   0  0  0  0  0  0  0  0  0  0  0  0
  152.3204  142.3236  159.8416 C   0  0  0  0  0  0  0  0  0  0  0  0
  152.6743  143.8006  159.6414 C   0  0  0  0  0  0  0  0  0  0  0  0
  151.6188  144.4873  158.7605 C   0  0  0  0  0  0  0  0  0  0  0  0
  151.5001  143.7977  157.5195 O   0  0  0  0  0  0  0  0  0  0  0  0
  147.6086  140.6345  154.7062 C   0  0  2  0  0  0  0  0  0  0  0  0
  147.2125  139.6718  153.5712 C   0  0  0  0  0  0  0  0  0  0  0  0
  146.7201  141.7923  154.6895 N   0  0  0  0  0  0  0  0  0  0  0  0
  146.5470  142.7183  153.6810 C   0  0  0  0  0  0  0  0  0  0  0  0
  145.6339  143.6341  154.1184 C   0  0  0  0  0  0  0  0  0  0  0  0
  145.3083  143.1880  155.4293 C   0  0  0  0  0  0  0  0  0  0  0  0
  145.9623  142.0895  155.7698 N   0  0  0  0  0  0  0  0  0  0  0  0
  149.8874  139.2592  153.6744 H   0  0  0  0  0  0  0  0  0  0  0  0
  149.9082  139.1673  155.4335 H   0  0  0  0  0  0  0  0  0  0  0  0
  151.0965  140.1381  154.5729 H   0  0  0  0  0  0  0  0  0  0  0  0
  149.2625  141.6663  153.7761 H   0  0  0  0  0  0  0  0  0  0  0  0
  149.1772  142.8224  155.6457 H   0  0  0  0  0  0  0  0  0  0  0  0
  151.2877  140.8816  156.1805 H   0  0  0  0  0  0  0  0  0  0  0  0
  151.4033  142.5037  155.5277 H   0  0  0  0  0  0  0  0  0  0  0  0
  150.0893  142.4540  158.1707 H   0  0  0  0  0  0  0  0  0  0  0  0
  151.7588  140.6295  158.6255 H   0  0  0  0  0  0  0  0  0  0  0  0
  153.0326  141.6092  157.9353 H   0  0  0  0  0  0  0  0  0  0  0  0
  151.4189  142.2410  160.4499 H   0  0  0  0  0  0  0  0  0  0  0  0
  153.1149  141.8123  160.3858 H   0  0  0  0  0  0  0  0  0  0  0  0
  152.7496  144.3052  160.6049 H   0  0  0  0  0  0  0  0  0  0  0  0
  153.6531  143.8825  159.1671 H   0  0  0  0  0  0  0  0  0  0  0  0
  150.6518  144.5205  159.2651 H   0  0  0  0  0  0  0  0  0  0  0  0
  151.9095  145.5193  158.5639 H   0  0  0  0  0  0  0  0  0  0  0  0
  147.4306  140.1176  155.6508 H   0  0  0  0  0  0  0  0  0  0  0  0
  147.7247  138.7139  153.6538 H   0  0  0  0  0  0  0  0  0  0  0  0
  147.4436  140.0926  152.5921 H   0  0  0  0  0  0  0  0  0  0  0  0
  146.1428  139.4605  153.5950 H   0  0  0  0  0  0  0  0  0  0  0  0
  147.0822  142.6503  152.7449 H   0  0  0  0  0  0  0  0  0  0  0  0
  145.2601  144.4961  153.5858 H   0  0  0  0  0  0  0  0  0  0  0  0
  144.6236  143.6279  156.1394 H   0  0  0  0  0  0  0  0  0  0  0  0
  148.8760  141.5507  156.6356 H   0  0  0  0  0  0  0  0  0  0  0  0
  1  2  1  0  0  0  0
  1 18  1  0  0  0  0
  1 19  1  0  0  0  0
  1 20  1  0  0  0  0
  2  3  1  0  0  0  0
  2 11  1  0  0  0  0
  2 21  1  0  0  0  0
  3  4  1  0  0  0  0
  3 22  1  0  0  0  0
  3 41  1  0  0  0  0
  4  5  1  0  0  0  0
  4 23  1  0  0  0  0
  4 24  1  0  0  0  0
  5 10  1  0  0  0  0
  5  6  1  0  0  0  0
  5 25  1  0  0  0  0
  6  7  1  0  0  0  0
  6 26  1  0  0  0  0
  6 27  1  0  0  0  0
  7  8  1  0  0  0  0
  7 28  1  0  0  0  0
  7 29  1  0  0  0  0
  8  9  1  0  0  0  0
  8 30  1  0  0  0  0
  8 31  1  0  0  0  0
  9 10  1  0  0  0  0
  9 32  1  0  0  0  0
  9 33  1  0  0  0  0
 11 12  1  0  0  0  0
 11 13  1  0  0  0  0
 11 34  1  0  0  0  0
 12 35  1  0  0  0  0
 12 36  1  0  0  0  0
 12 37  1  0  0  0  0
 13 17  1  0  0  0  0
 13 14  1  0  0  0  0
 14 15  2  0  0  0  0
 14 38  1  0  0  0  0
 15 16  1  0  0  0  0
 15 39  1  0  0  0  0
 16 17  2  0  0  0  0
 16 40  1  0  0  0  0
M  CHG  1   3   1
M  END
> <s_m_source_file>
AV-unprocessed.smi

> <i_m_source_file_index>
3156

> <i_lp_mmshare_version>
43012

> <i_f3d_flags>
0

> <s_epik_input>
bjFbY0hdW2NIXVtjSF1uMVtDQEBIXShbQ0gzXSlbQ0BIXShbQ0gzXSlbTkhdW0NIMl1bQ0BASF0yW0NIMl1bQ0gyXVtDSDJdW0NIMl1PMg==

> <s_epik_cmdline>
J2VwaWtfcHl0aG9uJywgJy1waCcsICc3LjAnLCAnLXRuJywgJzgnLCAnLW1hJywgJzIwMCcsICctbWV0YWxfYmluZGluZycsICctaW1hZScsICc8aW5maWxlLm1hZT4nLCAnLW9tYWUnLCAnPG91dGZpbGUubWFlPic=

> <r_lp_tautomer_probability>
1

> <r_epik_Ionization_Penalty>
0.00658015

> <r_epik_Ionization_Penalty_Charging>
0.00656881

> <r_epik_Ionization_Penalty_Neutral>
1.13431e-05

> <r_epik_State_Penalty>
0.0048654

> <r_epik_Charging_Adjusted_Penalty>
0.0114342

> <i_epik_Tot_Q>
1

> <i_epik_Tot_abs_Q>
1

> <r_epik_Metal_State_Penalty>
-0

> <b_epik_Metal_Only>
0

> <s_lp_Force_Field>
OPLS_2005

> <r_lp_Energy>
18.0883

> <b_lp_Chiralities_Consistent>
1

> <s_lp_Variant>
AV-unprocessed.smi:3156-3

> <Gold.Version>
5.8.1

> <Gold.Id.Protein>
6NUR|6NUR_protein|mol2

> <Gold.PLP.Fitness>
44.0500

> <Gold.PLP.PLP>
-39.9026

> <Gold.PLP.part.hbond>
-1.0000

> <Gold.PLP.part.metal>
0.0000

> <Gold.PLP.part.buried>
-6.5917

> <Gold.PLP.part.nonpolar>
-32.9166

> <Gold.PLP.part.repulsive>
0.3825

> <Gold.PLP.ligand.clash>
0.0000

> <Gold.PLP.ligand.torsion>
0.9895

> <Gold.PLP.Chemscore.Hbond>
2.0000

> <Gold.PLP.Chemscore.CHOScore>
0.0000

> <Gold.PLP.Chemscore.Metal>
0.0000

> <Gold.Chemscore.Hbonds>
donor molecule, donor type, donor heavy atom, donor atom, acceptor molecule, acceptor atom, score
      L1  H     3    22       P1  8028  2.00

> <Gold.PLP.Chemscore.Internal.Correction>
0.1264

> <Gold.Rescore>
     Score         DG    S(hbond)    S(metal)    S(lipo)     H(rot)  DE(clash)    DE(int)     intcor
     16.31     -17.33       1.00        0.00     107.71       1.59       0.10       0.92       ----

> <Gold.Chemscore.Fitness>
16.3097

> <Gold.Chemscore.DG>
-17.3301

> <Gold.Chemscore.ZeroCoef>
-5.4800

> <Gold.Chemscore.Hbond>
0.9963

> <Gold.Chemscore.Metal>
0.0000

> <Gold.Chemscore.Lipo>
107.7146

> <Gold.Chemscore.Internal_Hbond>
0.0000

> <Gold.Chemscore.DEClash>
0.0971

> <Gold.Chemscore.DEInternal>
0.9234

> <Gold.Chemscore.Rot>
1.5938

> <Gold.Chemscore.Internal.Correction>
   9.000000E+99

> <Gold.Chemscore.Hbonds>
donor molecule, donor type, donor heavy atom, donor atom, acceptor molecule, acceptor atom, score
      L1  H     3    22       P1  8028  1.00

> <Gold.Chemscore.Hbond.Weighted>
-3.3278

> <Gold.Chemscore.Metal.Weighted>
-0.0000

> <Gold.Chemscore.Lipo.Weighted>
-12.6026

> <Gold.Chemscore.Internal_Hbond.Weighted>
0.0000

> <Gold.Chemscore.DEClash.Weighted>
0.0971

> <Gold.Chemscore.DEInternal.Weighted>
0.9234

> <Gold.Chemscore.Rot.Weighted>
4.0802

> <Gold.Chemscore.Internal.Correction.Weighted>
   9.000000E+99

> <Gold.Protein.RotatedTorsions>
[ 6907 6896 6895 6894 ] final   79.32 input  -60.11 | X-H torsion
[ 7974 7965 7964 7962 ] final  -37.95 input  175.53 | X-H torsion
[ 8008 7997 7996 7995 ] final   -6.19 input   59.86 | X-H torsion
[ 10167 10162 10161 10158 ] final  -60.88 input  -65.29 | X-H torsion
[ 10718 10713 10712 10709 ] final -107.59 input   66.30 | X-H torsion
[ 10763 10752 10751 10750 ] final -176.22 input  -60.55 | X-H torsion
[ 11005 11000 10999 10996 ] final  -95.66 input  -57.11 | X-H torsion

> <Gold.Protein.ActiveResidues>
 VAL166  LYS551  ARG553  GLY616  TRP617  ASP618  TYR619  PRO620  LYS621  CYS622 
 ASP623  PHE694  ASN695  SER759  ASP760  ASP761  ALA762  ILE779  LEU786  VAL792 
 PHE793  MET794  SER795  GLU796  ALA797  LYS798  CYS799  TRP800  GLU811  SER814 

> <Gold.Protein.RotatedAtoms>
  152.5194  134.3529  159.9257 H   0  0  0  0  0  0  0  0  0  0  0  0  # atno 6907 bound_to 6896
  151.3480  133.3930  159.2685 H   0  0  0  0  0  0  0  0  0  0  0  0  # atno 6908 bound_to 6896
  150.9750  134.9134  159.7868 H   0  0  0  0  0  0  0  0  0  0  0  0  # atno 6909 bound_to 6896
  146.0530  140.6455  142.9033 H   0  0  0  0  0  0  0  0  0  0  0  0  # atno 7974 bound_to 7965
  154.5962  140.2439  155.7853 H   0  0  0  0  0  0  0  0  0  0  0  0  # atno 8008 bound_to 7997
  156.2281  140.2976  156.0071 H   0  0  0  0  0  0  0  0  0  0  0  0  # atno 8009 bound_to 7997
  155.2288  140.0403  157.2949 H   0  0  0  0  0  0  0  0  0  0  0  0  # atno 8010 bound_to 7997
  140.6042  143.2369  151.5859 H   0  0  0  0  0  0  0  0  0  0  0  0  # atno 10167 bound_to 10162
  156.0444  130.5670  150.7843 H   0  0  0  0  0  0  0  0  0  0  0  0  # atno 10718 bound_to 10713
  154.5750  135.2831  155.0790 H   0  0  0  0  0  0  0  0  0  0  0  0  # atno 10763 bound_to 10752
  154.2148  135.6401  153.5130 H   0  0  0  0  0  0  0  0  0  0  0  0  # atno 10764 bound_to 10752
  153.0069  135.5500  154.6385 H   0  0  0  0  0  0  0  0  0  0  0  0  # atno 10765 bound_to 10752
  141.1435  133.8042  157.0465 H   0  0  0  0  0  0  0  0  0  0  0  0  # atno 11005 bound_to 11000
  144.7132  140.4117  143.7064 LP  0  0  0  0  0  0  0  0  0  0  0  0  # atno 17320 bound_to 7965
  145.6692  139.1596  143.2764 LP  0  0  0  0  0  0  0  0  0  0  0  0  # atno 17321 bound_to 7965
  139.5313  144.2908  152.1153 LP  0  0  0  0  0  0  0  0  0  0  0  0  # atno 17342 bound_to 10162
  140.2095  144.4577  150.6393 LP  0  0  0  0  0  0  0  0  0  0  0  0  # atno 17343 bound_to 10162
  157.5301  131.0936  150.9965 LP  0  0  0  0  0  0  0  0  0  0  0  0  # atno 17370 bound_to 10713
  157.0274  130.5698  149.5339 LP  0  0  0  0  0  0  0  0  0  0  0  0  # atno 17371 bound_to 10713
  140.0659  134.9729  157.1385 LP  0  0  0  0  0  0  0  0  0  0  0  0  # atno 17394 bound_to 11000
  140.3780  134.2318  155.7173 LP  0  0  0  0  0  0  0  0  0  0  0  0  # atno 17395 bound_to 11000

$$$$
