AV-unprocessed.smi:3282|AV-procd|sdf|12562|dock3
  -GOLD-   2272018483D 1   1.00000     0.00000
 Structure written by MMmdl.
 34 35  0  0  0  0  0  0  0  0  1 V2000
  152.8170  142.5922  161.1122 C   0  0  0  0  0  0  0  0  0  0  0  0
  153.0818  143.4925  159.8945 C   0  0  0  0  0  0  0  0  0  0  0  0
  151.9814  143.4232  158.8224 C   0  0  0  0  0  0  0  0  0  0  0  0
  151.3406  144.4354  158.5347 O   0  0  0  0  0  0  0  0  0  0  0  0
  151.7511  142.2370  158.2218 N   0  0  0  0  0  0  0  0  0  0  0  0
  152.4788  141.0140  158.5497 C   0  0  0  0  0  0  0  0  0  0  0  0
  151.7462  139.8828  157.8286 C   0  0  0  0  0  0  0  0  0  0  0  0
  151.0322  140.5657  156.6655 C   0  0  1  0  0  0  0  0  0  0  0  0
  149.8038  139.8657  156.3034 N   0  0  0  0  0  0  0  0  0  0  0  0
  149.4873  139.4449  155.0698 C   0  0  0  0  0  0  0  0  0  0  0  0
  150.2441  139.6180  154.1093 O   0  0  0  0  0  0  0  0  0  0  0  0
  148.2669  138.7878  155.0819 N   0  0  0  0  0  0  0  0  0  0  0  0
  147.6005  138.6753  153.9740 C   0  0  0  0  0  0  0  0  0  0  0  0
  147.8643  139.0748  152.6661 N   0  0  0  0  0  0  0  0  0  0  0  0
  146.8138  138.6862  151.8827 C   0  0  0  0  0  0  0  0  0  0  0  0
  145.9270  138.0697  152.6583 C   0  0  0  0  0  0  0  0  0  0  0  0
  146.3810  138.0474  153.9429 O   0  0  0  0  0  0  0  0  0  0  0  0
  150.7634  141.9890  157.1731 C   0  0  0  0  0  0  0  0  0  0  0  0
  153.6182  142.6905  161.8449 H   0  0  0  0  0  0  0  0  0  0  0  0
  152.7610  141.5411  160.8265 H   0  0  0  0  0  0  0  0  0  0  0  0
  151.8832  142.8581  161.6092 H   0  0  0  0  0  0  0  0  0  0  0  0
  153.1838  144.5240  160.2332 H   0  0  0  0  0  0  0  0  0  0  0  0
  154.0323  143.2101  159.4410 H   0  0  0  0  0  0  0  0  0  0  0  0
  153.5019  141.1018  158.1813 H   0  0  0  0  0  0  0  0  0  0  0  0
  152.5199  140.8362  159.6255 H   0  0  0  0  0  0  0  0  0  0  0  0
  152.4171  139.0876  157.5025 H   0  0  0  0  0  0  0  0  0  0  0  0
  151.0180  139.4414  158.5113 H   0  0  0  0  0  0  0  0  0  0  0  0
  151.7146  140.6064  155.8142 H   0  0  0  0  0  0  0  0  0  0  0  0
  149.1469  139.6807  157.0478 H   0  0  0  0  0  0  0  0  0  0  0  0
  148.6725  139.5668  152.3130 H   0  0  0  0  0  0  0  0  0  0  0  0
  146.8133  138.8987  150.8239 H   0  0  0  0  0  0  0  0  0  0  0  0
  144.9695  137.6124  152.4574 H   0  0  0  0  0  0  0  0  0  0  0  0
  149.7657  142.0695  157.6083 H   0  0  0  0  0  0  0  0  0  0  0  0
  150.8371  142.7110  156.3586 H   0  0  0  0  0  0  0  0  0  0  0  0
  1  2  1  0  0  0  0
  1 19  1  0  0  0  0
  1 20  1  0  0  0  0
  1 21  1  0  0  0  0
  2  3  1  0  0  0  0
  2 22  1  0  0  0  0
  2 23  1  0  0  0  0
  3  4  2  0  0  0  0
  3  5  1  0  0  0  0
  5 18  1  0  0  0  0
  5  6  1  0  0  0  0
  6  7  1  0  0  0  0
  6 24  1  0  0  0  0
  6 25  1  0  0  0  0
  7  8  1  0  0  0  0
  7 26  1  0  0  0  0
  7 27  1  0  0  0  0
  8  9  1  0  0  0  0
  8 18  1  0  0  0  0
  8 28  1  0  0  0  0
  9 29  1  0  0  0  0
  9 10  1  0  0  0  0
 10 12  1  0  0  0  0
 10 11  2  0  0  0  0
 12 13  2  0  0  0  0
 13 17  1  0  0  0  0
 13 14  1  0  0  0  0
 14 30  1  0  0  0  0
 14 15  1  0  0  0  0
 15 31  1  0  0  0  0
 15 16  2  0  0  0  0
 16 32  1  0  0  0  0
 16 17  1  0  0  0  0
 18 33  1  0  0  0  0
 18 34  1  0  0  0  0
M  END
> <s_m_source_file>
AV-unprocessed.smi

> <i_m_source_file_index>
3282

> <i_lp_mmshare_version>
43012

> <i_f3d_flags>
0

> <s_epik_input>
W0NIM11bQ0gyXUMoPU8pTjFbQ0gyXVtDSDJdW0NASF0oW0NIMl0xKVtOSF1DKD1PKVtOSF1jMm5bY0hdW2NIXW8y

> <s_epik_cmdline>
J2VwaWtfcHl0aG9uJywgJy1waCcsICc3LjAnLCAnLXRuJywgJzgnLCAnLW1hJywgJzIwMCcsICctbWV0YWxfYmluZGluZycsICctaW1hZScsICc8aW5maWxlLm1hZT4nLCAnLW9tYWUnLCAnPG91dGZpbGUubWFlPic=

> <r_lp_tautomer_probability>
0.107061

> <r_epik_Ionization_Penalty>
0.434703

> <r_epik_Ionization_Penalty_Charging>
0.434345

> <r_epik_Ionization_Penalty_Neutral>
0.000358141

> <r_epik_State_Penalty>
2.49584

> <r_epik_Charging_Adjusted_Penalty>
2.93019

> <i_epik_Tot_Q>
0

> <i_epik_Tot_abs_Q>
0

> <r_epik_Metal_State_Penalty>
4.06361

> <b_epik_Metal_Only>
0

> <s_lp_Force_Field>
OPLS_2005

> <r_lp_Energy>
50.3275

> <b_lp_Chiralities_Consistent>
1

> <s_lp_Variant>
AV-unprocessed.smi:3282-3

> <Gold.Version>
5.8.1

> <Gold.Id.Protein>
6NUR|6NUR_protein|mol2

> <Gold.PLP.Fitness>
38.0824

> <Gold.PLP.PLP>
-32.3579

> <Gold.PLP.part.hbond>
-2.5079

> <Gold.PLP.part.metal>
0.0000

> <Gold.PLP.part.buried>
-4.5714

> <Gold.PLP.part.nonpolar>
-26.4285

> <Gold.PLP.part.repulsive>
1.2428

> <Gold.PLP.ligand.clash>
0.0000

> <Gold.PLP.ligand.torsion>
0.1427

> <Gold.PLP.Chemscore.Hbond>
2.0000

> <Gold.PLP.Chemscore.CHOScore>
0.0000

> <Gold.PLP.Chemscore.Metal>
0.0000

> <Gold.Chemscore.Hbonds>
donor molecule, donor type, donor heavy atom, donor atom, acceptor molecule, acceptor atom, score
      L1  H    14    30       P1  7957  1.00
      P1  H  7989  7998       L1    11  1.00

> <Gold.PLP.Chemscore.Internal.Correction>
0.0099

> <Gold.Rescore>
     Score         DG    S(hbond)    S(metal)    S(lipo)     H(rot)  DE(clash)    DE(int)     intcor
     15.90     -16.20       1.91        0.00      65.92       1.32       0.13       0.17       ----

> <Gold.Chemscore.Fitness>
15.9041

> <Gold.Chemscore.DG>
-16.2003

> <Gold.Chemscore.ZeroCoef>
-5.4800

> <Gold.Chemscore.Hbond>
1.9121

> <Gold.Chemscore.Metal>
0.0000

> <Gold.Chemscore.Lipo>
65.9212

> <Gold.Chemscore.Internal_Hbond>
0.0000

> <Gold.Chemscore.DEClash>
0.1252

> <Gold.Chemscore.DEInternal>
0.1709

> <Gold.Chemscore.Rot>
1.3199

> <Gold.Chemscore.Internal.Correction>
   9.000000E+99

> <Gold.Chemscore.Hbonds>
donor molecule, donor type, donor heavy atom, donor atom, acceptor molecule, acceptor atom, score
      L1  H    14    30       P1  7957  0.91
      P1  H  7989  7998       L1    11  0.97

> <Gold.Chemscore.Hbond.Weighted>
-6.3864

> <Gold.Chemscore.Metal.Weighted>
-0.0000

> <Gold.Chemscore.Lipo.Weighted>
-7.7128

> <Gold.Chemscore.Internal_Hbond.Weighted>
0.0000

> <Gold.Chemscore.DEClash.Weighted>
0.1252

> <Gold.Chemscore.DEInternal.Weighted>
0.1709

> <Gold.Chemscore.Rot.Weighted>
3.3789

> <Gold.Chemscore.Internal.Correction.Weighted>
   9.000000E+99

> <Gold.Protein.RotatedTorsions>
[ 6907 6896 6895 6894 ] final -176.89 input  -60.11 | X-H torsion
[ 7974 7965 7964 7962 ] final   55.59 input  175.53 | X-H torsion
[ 8008 7997 7996 7995 ] final  120.06 input   59.86 | X-H torsion
[ 10167 10162 10161 10158 ] final   14.82 input  -65.29 | X-H torsion
[ 10718 10713 10712 10709 ] final   60.34 input   66.30 | X-H torsion
[ 10763 10752 10751 10750 ] final   65.74 input  -60.55 | X-H torsion
[ 11005 11000 10999 10996 ] final   91.64 input  -57.11 | X-H torsion

> <Gold.Protein.ActiveResidues>
 VAL166  LYS551  ARG553  GLY616  TRP617  ASP618  TYR619  PRO620  LYS621  CYS622 
 ASP623  PHE694  ASN695  SER759  ASP760  ASP761  ALA762  ILE779  LEU786  VAL792 
 PHE793  MET794  SER795  GLU796  ALA797  LYS798  CYS799  TRP800  GLU811  SER814 

> <Gold.Protein.RotatedAtoms>
  151.6121  133.3346  159.3069 H   0  0  0  0  0  0  0  0  0  0  0  0  # atno 6907 bound_to 6896
  150.8151  134.7331  159.6734 H   0  0  0  0  0  0  0  0  0  0  0  0  # atno 6908 bound_to 6896
  152.4247  134.5896  160.0022 H   0  0  0  0  0  0  0  0  0  0  0  0  # atno 6909 bound_to 6896
  145.9488  139.3953  143.0319 H   0  0  0  0  0  0  0  0  0  0  0  0  # atno 7974 bound_to 7965
  156.2625  140.2839  156.1089 H   0  0  0  0  0  0  0  0  0  0  0  0  # atno 8008 bound_to 7997
  155.1279  140.0393  157.2784 H   0  0  0  0  0  0  0  0  0  0  0  0  # atno 8009 bound_to 7997
  154.6622  140.2569  155.7103 H   0  0  0  0  0  0  0  0  0  0  0  0  # atno 8010 bound_to 7997
  140.5909  143.8796  150.6873 H   0  0  0  0  0  0  0  0  0  0  0  0  # atno 10167 bound_to 10162
  157.5745  130.8933  149.9324 H   0  0  0  0  0  0  0  0  0  0  0  0  # atno 10718 bound_to 10713
  153.0109  135.5346  154.6715 H   0  0  0  0  0  0  0  0  0  0  0  0  # atno 10763 bound_to 10752
  154.5898  135.2858  155.0649 H   0  0  0  0  0  0  0  0  0  0  0  0  # atno 10764 bound_to 10752
  154.1747  135.6526  153.5071 H   0  0  0  0  0  0  0  0  0  0  0  0  # atno 10765 bound_to 10752
  139.8835  134.8686  156.3457 H   0  0  0  0  0  0  0  0  0  0  0  0  # atno 11005 bound_to 11000
  145.8200  140.9684  143.0904 LP  0  0  0  0  0  0  0  0  0  0  0  0  # atno 17320 bound_to 7965
  144.6792  140.0029  143.7484 LP  0  0  0  0  0  0  0  0  0  0  0  0  # atno 17321 bound_to 7965
  140.2319  143.3729  152.1558 LP  0  0  0  0  0  0  0  0  0  0  0  0  # atno 17342 bound_to 10162
  139.5227  144.7062  151.5346 LP  0  0  0  0  0  0  0  0  0  0  0  0  # atno 17343 bound_to 10162
  156.0790  130.3675  150.0619 LP  0  0  0  0  0  0  0  0  0  0  0  0  # atno 17370 bound_to 10713
  156.8767  130.9542  151.3604 LP  0  0  0  0  0  0  0  0  0  0  0  0  # atno 17371 bound_to 10713
  140.9628  133.7377  156.0425 LP  0  0  0  0  0  0  0  0  0  0  0  0  # atno 17394 bound_to 11000
  140.7968  134.3554  157.5450 LP  0  0  0  0  0  0  0  0  0  0  0  0  # atno 17395 bound_to 11000

$$$$
