AV-unprocessed.smi:1703|AV-procd|sdf|6871|dock6
  -GOLD-   22720 8 73D 1   1.00000     0.00000
 Structure written by MMmdl.
 49 51  0  0  0  0  0  0  0  0  2 V2000
  149.8767  133.3294  155.4771 C   0  0  0  0  0  0  0  0  0  0  0  0
  149.6939  134.8039  155.8511 C   0  0  1  0  0  0  0  0  0  0  0  0
  150.5415  135.7347  154.9661 C   0  0  0  0  0  0  0  0  0  0  0  0
  150.3064  137.1396  155.2735 N   0  0  0  0  0  0  0  0  0  0  0  0
  151.1557  138.0075  154.4590 C   0  0  0  0  0  0  0  0  0  0  0  0
  152.0187  139.0089  155.2558 C   0  0  2  0  0  0  0  0  0  0  0  0
  153.3021  138.4518  155.4646 O   0  0  0  0  0  0  0  0  0  0  0  0
  151.3939  139.3500  156.6232 C   0  0  0  0  0  0  0  0  0  0  0  0
  150.9283  140.7445  156.7039 N   0  0  0  0  0  0  0  0  0  0  0  0
  149.9599  141.3826  155.9854 C   0  0  0  0  0  0  0  0  0  0  0  0
  149.1152  140.7853  154.9047 C   0  0  0  0  0  0  0  0  0  0  0  0
  149.6109  141.0347  153.6061 O   0  0  0  0  0  0  0  0  0  0  0  0
  149.9084  142.6692  156.4343 N   0  3  0  0  0  0  0  0  0  0  0  0
  150.8496  142.8568  157.4461 C   0  0  0  0  0  0  0  0  0  0  0  0
  151.1638  143.9845  158.1985 C   0  0  0  0  0  0  0  0  0  0  0  0
  152.1870  143.8398  159.1578 C   0  0  0  0  0  0  0  0  0  0  0  0
  152.8550  142.6115  159.3385 C   0  0  0  0  0  0  0  0  0  0  0  0
  152.5268  141.4748  158.5702 C   0  0  0  0  0  0  0  0  0  0  0  0
  151.5115  141.6244  157.6249 C   0  0  0  0  0  0  0  0  0  0  0  0
  148.8841  137.4307  155.1083 C   0  0  0  0  0  0  0  0  0  0  0  0
  147.9841  136.5010  155.9467 C   0  0  2  0  0  0  0  0  0  0  0  0
  148.0035  136.8294  157.4494 C   0  0  0  0  0  0  0  0  0  0  0  0
  148.3145  135.1334  155.6984 O   0  0  0  0  0  0  0  0  0  0  0  0
  150.9173  133.0228  155.5865 H   0  0  0  0  0  0  0  0  0  0  0  0
  149.5797  133.1442  154.4444 H   0  0  0  0  0  0  0  0  0  0  0  0
  149.2724  132.6873  156.1183 H   0  0  0  0  0  0  0  0  0  0  0  0
  149.9833  134.9309  156.8947 H   0  0  0  0  0  0  0  0  0  0  0  0
  151.5968  135.4978  155.1078 H   0  0  0  0  0  0  0  0  0  0  0  0
  150.3182  135.5443  153.9149 H   0  0  0  0  0  0  0  0  0  0  0  0
  151.8357  137.3649  153.8979 H   0  0  0  0  0  0  0  0  0  0  0  0
  150.5625  138.5259  153.7035 H   0  0  0  0  0  0  0  0  0  0  0  0
  152.1307  139.9319  154.6856 H   0  0  0  0  0  0  0  0  0  0  0  0
  153.2561  137.5224  155.3013 H   0  0  0  0  0  0  0  0  0  0  0  0
  150.5255  138.7150  156.8017 H   0  0  0  0  0  0  0  0  0  0  0  0
  152.0868  139.1460  157.4396 H   0  0  0  0  0  0  0  0  0  0  0  0
  149.0512  139.7076  155.0554 H   0  0  0  0  0  0  0  0  0  0  0  0
  148.1035  141.1849  154.9774 H   0  0  0  0  0  0  0  0  0  0  0  0
  149.4339  140.2788  153.0666 H   0  0  0  0  0  0  0  0  0  0  0  0
  150.6546  144.9269  158.0598 H   0  0  0  0  0  0  0  0  0  0  0  0
  152.4661  144.6882  159.7660 H   0  0  0  0  0  0  0  0  0  0  0  0
  153.6364  142.5395  160.0814 H   0  0  0  0  0  0  0  0  0  0  0  0
  153.0501  140.5420  158.7169 H   0  0  0  0  0  0  0  0  0  0  0  0
  148.6724  138.4649  155.3786 H   0  0  0  0  0  0  0  0  0  0  0  0
  148.6144  137.3267  154.0561 H   0  0  0  0  0  0  0  0  0  0  0  0
  146.9567  136.6343  155.6070 H   0  0  0  0  0  0  0  0  0  0  0  0
  147.6390  137.8412  157.6286 H   0  0  0  0  0  0  0  0  0  0  0  0
  149.0066  136.7662  157.8712 H   0  0  0  0  0  0  0  0  0  0  0  0
  147.3631  136.1445  158.0052 H   0  0  0  0  0  0  0  0  0  0  0  0
  149.2715  143.3647  156.0671 H   0  0  0  0  0  0  0  0  0  0  0  0
  1  2  1  0  0  0  0
  1 24  1  0  0  0  0
  1 25  1  0  0  0  0
  1 26  1  0  0  0  0
  2 23  1  0  0  0  0
  2  3  1  0  0  0  0
  2 27  1  0  0  0  0
  3  4  1  0  0  0  0
  3 28  1  0  0  0  0
  3 29  1  0  0  0  0
  4  5  1  0  0  0  0
  4 20  1  0  0  0  0
  5  6  1  0  0  0  0
  5 30  1  0  0  0  0
  5 31  1  0  0  0  0
  6  7  1  0  0  0  0
  6  8  1  0  0  0  0
  6 32  1  0  0  0  0
  7 33  1  0  0  0  0
  8  9  1  0  0  0  0
  8 34  1  0  0  0  0
  8 35  1  0  0  0  0
  9 19  1  0  0  0  0
  9 10  1  0  0  0  0
 10 11  1  0  0  0  0
 10 13  2  0  0  0  0
 11 12  1  0  0  0  0
 11 36  1  0  0  0  0
 11 37  1  0  0  0  0
 12 38  1  0  0  0  0
 13 14  1  0  0  0  0
 13 49  1  0  0  0  0
 14 19  2  0  0  0  0
 14 15  1  0  0  0  0
 15 16  2  0  0  0  0
 15 39  1  0  0  0  0
 16 17  1  0  0  0  0
 16 40  1  0  0  0  0
 17 18  2  0  0  0  0
 17 41  1  0  0  0  0
 18 19  1  0  0  0  0
 18 42  1  0  0  0  0
 20 21  1  0  0  0  0
 20 43  1  0  0  0  0
 20 44  1  0  0  0  0
 21 22  1  0  0  0  0
 21 23  1  0  0  0  0
 21 45  1  0  0  0  0
 22 46  1  0  0  0  0
 22 47  1  0  0  0  0
 22 48  1  0  0  0  0
M  CHG  1  13   1
M  END
> <s_m_source_file>
AV-unprocessed.smi

> <i_m_source_file_index>
1703

> <i_lp_mmshare_version>
43012

> <i_f3d_flags>
0

> <s_epik_input>
W0NIM11bQ0BASF0xW0NIMl1OKFtDSDJdW0NASF0oTzEpW0NIM10pW0NIMl1bQ0BIXShbT0hdKVtDSDJdbihjKG4yKVtDSDJdW09IXSljKGMyMylbY0hdW2NIXVtjSF1bY0hdMw==

> <s_epik_cmdline>
J2VwaWtfcHl0aG9uJywgJy1waCcsICc3LjAnLCAnLXRuJywgJzgnLCAnLW1hJywgJzIwMCcsICctbWV0YWxfYmluZGluZycsICctaW1hZScsICc8aW5maWxlLm1hZT4nLCAnLW9tYWUnLCAnPG91dGZpbGUubWFlPic=

> <r_epik_Ionization_Penalty>
1.7682

> <r_epik_Ionization_Penalty_Charging>
1.55298

> <r_epik_Ionization_Penalty_Neutral>
0.215215

> <r_epik_State_Penalty>
1.83821

> <r_epik_Charging_Adjusted_Penalty>
3.39119

> <i_epik_Tot_Q>
1

> <i_epik_Tot_abs_Q>
1

> <r_epik_Metal_State_Penalty>
5.89206

> <b_epik_Metal_Only>
0

> <s_lp_Force_Field>
OPLS_2005

> <r_lp_Energy>
35.0588

> <b_lp_Chiralities_Consistent>
1

> <s_lp_Variant>
AV-unprocessed.smi:1703-19

> <Gold.Version>
5.8.1

> <Gold.Id.Protein>
6NUR|6NUR_protein|mol2

> <Gold.PLP.Fitness>
53.3430

> <Gold.PLP.PLP>
-43.5286

> <Gold.PLP.part.hbond>
-4.8239

> <Gold.PLP.part.metal>
0.0000

> <Gold.PLP.part.buried>
-5.2793

> <Gold.PLP.part.nonpolar>
-34.0539

> <Gold.PLP.part.repulsive>
0.2593

> <Gold.PLP.ligand.clash>
0.0000

> <Gold.PLP.ligand.torsion>
2.2520

> <Gold.PLP.Chemscore.Hbond>
4.7664

> <Gold.PLP.Chemscore.CHOScore>
0.0000

> <Gold.PLP.Chemscore.Metal>
0.0000

> <Gold.Chemscore.Hbonds>
donor molecule, donor type, donor heavy atom, donor atom, acceptor molecule, acceptor atom, score
      L1  H    12    38       P1  7957  0.59
      L1  H    13    49       P1  8028  1.69
      P1  H  7989  7998       L1    12  0.22
      P1  H  7997  8008       L1     7  0.76
      P1  H  8011  8017       L1    12  1.00

> <Gold.PLP.Chemscore.Internal.Correction>
0.0192

> <Gold.Rescore>
     Score         DG    S(hbond)    S(metal)    S(lipo)     H(rot)  DE(clash)    DE(int)     intcor
     16.36     -18.57       2.45        0.00     106.60       2.96       0.11       2.10       ----

> <Gold.Chemscore.Fitness>
16.3571

> <Gold.Chemscore.DG>
-18.5672

> <Gold.Chemscore.ZeroCoef>
-5.4800

> <Gold.Chemscore.Hbond>
2.4494

> <Gold.Chemscore.Metal>
0.0000

> <Gold.Chemscore.Lipo>
106.6004

> <Gold.Chemscore.Internal_Hbond>
0.0000

> <Gold.Chemscore.DEClash>
0.1129

> <Gold.Chemscore.DEInternal>
2.0972

> <Gold.Chemscore.Rot>
2.9555

> <Gold.Chemscore.Internal.Correction>
   9.000000E+99

> <Gold.Chemscore.Hbonds>
donor molecule, donor type, donor heavy atom, donor atom, acceptor molecule, acceptor atom, score
      L1  H    12    38       P1  7957  0.60
      L1  H    13    49       P1  8028  0.80
      P1  H  7989  7998       L1    12  0.02
      P1  H  7997  8008       L1     7  0.25
      P1  H  8011  8017       L1    12  0.38

> <Gold.Chemscore.Hbond.Weighted>
-8.1809

> <Gold.Chemscore.Metal.Weighted>
-0.0000

> <Gold.Chemscore.Lipo.Weighted>
-12.4722

> <Gold.Chemscore.Internal_Hbond.Weighted>
0.0000

> <Gold.Chemscore.DEClash.Weighted>
0.1129

> <Gold.Chemscore.DEInternal.Weighted>
2.0972

> <Gold.Chemscore.Rot.Weighted>
7.5660

> <Gold.Chemscore.Internal.Correction.Weighted>
   9.000000E+99

> <Gold.Protein.RotatedTorsions>
[ 6907 6896 6895 6894 ] final -178.21 input  -60.11 | X-H torsion
[ 7974 7965 7964 7962 ] final -136.40 input  175.53 | X-H torsion
[ 8008 7997 7996 7995 ] final  -24.40 input   59.86 | X-H torsion
[ 10167 10162 10161 10158 ] final  -95.13 input  -65.29 | X-H torsion
[ 10718 10713 10712 10709 ] final   -0.75 input   66.30 | X-H torsion
[ 10763 10752 10751 10750 ] final   92.58 input  -60.55 | X-H torsion
[ 11005 11000 10999 10996 ] final  -59.94 input  -57.11 | X-H torsion

> <Gold.Protein.ActiveResidues>
 VAL166  LYS551  ARG553  GLY616  TRP617  ASP618  TYR619  PRO620  LYS621  CYS622 
 ASP623  PHE694  ASN695  SER759  ASP760  ASP761  ALA762  ILE779  LEU786  VAL792 
 PHE793  MET794  SER795  GLU796  ALA797  LYS798  CYS799  TRP800  GLU811  SER814 

> <Gold.Protein.RotatedAtoms>
  151.6335  133.3330  159.3113 H   0  0  0  0  0  0  0  0  0  0  0  0  # atno 6907 bound_to 6896
  150.8044  134.7163  159.6642 H   0  0  0  0  0  0  0  0  0  0  0  0  # atno 6908 bound_to 6896
  152.4138  134.6081  160.0070 H   0  0  0  0  0  0  0  0  0  0  0  0  # atno 6909 bound_to 6896
  144.8931  140.6669  143.5133 H   0  0  0  0  0  0  0  0  0  0  0  0  # atno 7974 bound_to 7965
  154.4531  140.1954  156.0459 H   0  0  0  0  0  0  0  0  0  0  0  0  # atno 8008 bound_to 7997
  156.0690  140.3287  155.7525 H   0  0  0  0  0  0  0  0  0  0  0  0  # atno 8009 bound_to 7997
  155.5293  140.0576  157.2883 H   0  0  0  0  0  0  0  0  0  0  0  0  # atno 8010 bound_to 7997
  140.3073  143.3126  152.0185 H   0  0  0  0  0  0  0  0  0  0  0  0  # atno 10167 bound_to 10162
  156.8157  130.5439  149.5703 H   0  0  0  0  0  0  0  0  0  0  0  0  # atno 10718 bound_to 10713
  153.2208  135.4356  155.0486 H   0  0  0  0  0  0  0  0  0  0  0  0  # atno 10763 bound_to 10752
  154.8248  135.3355  154.6931 H   0  0  0  0  0  0  0  0  0  0  0  0  # atno 10764 bound_to 10752
  153.7363  135.7007  153.5033 H   0  0  0  0  0  0  0  0  0  0  0  0  # atno 10765 bound_to 10752
  141.1268  133.6619  156.5147 H   0  0  0  0  0  0  0  0  0  0  0  0  # atno 11005 bound_to 11000
  145.3749  139.1650  143.4312 LP  0  0  0  0  0  0  0  0  0  0  0  0  # atno 17320 bound_to 7965
  146.3065  140.3824  142.8685 LP  0  0  0  0  0  0  0  0  0  0  0  0  # atno 17321 bound_to 7965
  139.4901  144.6411  151.6875 LP  0  0  0  0  0  0  0  0  0  0  0  0  # atno 17342 bound_to 10162
  140.5599  144.0286  150.6165 LP  0  0  0  0  0  0  0  0  0  0  0  0  # atno 17343 bound_to 10162
  156.1018  130.5974  150.9906 LP  0  0  0  0  0  0  0  0  0  0  0  0  # atno 17370 bound_to 10713
  157.6483  131.0901  150.8107 LP  0  0  0  0  0  0  0  0  0  0  0  0  # atno 17371 bound_to 10713
  140.4340  134.7075  157.4957 LP  0  0  0  0  0  0  0  0  0  0  0  0  # atno 17394 bound_to 11000
  140.0274  134.6457  155.9154 LP  0  0  0  0  0  0  0  0  0  0  0  0  # atno 17395 bound_to 11000

$$$$
