#       Name:                AV-unprocessed.smi:1974
#       Creating user name   scv26
#       Creation time:       Fri Mar 27 10:16:08 2020


#       File generated by GOLD software.
#

@<TRIPOS>MOLECULE
AV-unprocessed.smi:1974
    39    40     1
SMALL
NO_CHARGES


@<TRIPOS>ATOM
      1 ****        -2.7776  -1.3919  -0.8721 C.3            1 S1                 0.0000
      2 ****        -2.0739  -0.5362   0.1926 C.3            1 S1                 0.0000
      3 ****        -2.5524  -0.8970   1.6122 C.3            1 S1                 0.0000
      4 ****        -2.0226   0.0059   2.6191 N.pl3          1 S1                 0.0000
      5 ****        -2.4860   1.2545   2.9762 C.2            1 S1                 0.0000
      6 ****        -1.6651   1.7261   3.9602 C.2            1 S1                 0.0000
      7 ****        -0.7168   0.6804   4.1395 C.2            1 S1                 0.0000
      8 ****        -0.9336  -0.3482   3.3357 N.2            1 S1                 0.0000
      9 ****        -0.6264  -0.7093   0.0910 N.am           1 S1                 0.0000
     10 ****         0.1863  -0.0188  -0.7225 C.2            1 S1                 0.0000
     11 ****        -0.2102   0.8642  -1.4844 O.2            1 S1                 0.0000
     12 ****         1.6766  -0.3721  -0.6397 C.3            1 S1                 0.0000
     13 ****         2.3965  -0.1157  -1.8887 N.am           1 S1                 0.0000
     14 ****         3.1927   1.0986  -2.0164 C.3            1 S1                 0.0000
     15 ****         4.0945   0.9436  -3.2428 C.3            1 S1                 0.0000
     16 ****         3.3341  -0.2772  -4.3313 S.3            1 S1                 0.0000
     17 ****         2.3076  -0.9300  -3.0106 C.2            1 S1                 0.0000
     18 ****         1.6412  -1.9553  -3.1426 O.2            1 S1                 0.0000
     19 ****        -3.8595  -1.2652  -0.8244 H              1 S1                 0.0000
     20 ****        -2.5605  -2.4521  -0.7370 H              1 S1                 0.0000
     21 ****        -2.4600  -1.1124  -1.8774 H              1 S1                 0.0000
     22 ****        -2.3263   0.5099   0.0079 H              1 S1                 0.0000
     23 ****        -3.6409  -0.8486   1.6629 H              1 S1                 0.0000
     24 ****        -2.2756  -1.9218   1.8659 H              1 S1                 0.0000
     25 ****        -3.3499   1.6987   2.5038 H              1 S1                 0.0000
     26 ****        -1.7316   2.6740   4.4734 H              1 S1                 0.0000
     27 ****         0.1168   0.6385   4.8251 H              1 S1                 0.0000
     28 ****        -0.2110  -1.4055   0.6932 H              1 S1                 0.0000
     29 ****         2.1214   0.2042   0.1722 H              1 S1                 0.0000
     30 ****         1.7921  -1.4233  -0.3692 H              1 S1                 0.0000
     31 ****         2.5140   1.9419  -2.1506 H              1 S1                 0.0000
     32 ****         3.7823   1.2885  -1.1187 H              1 S1                 0.0000
     33 ****         4.2530   1.8897  -3.7606 H              1 S1                 0.0000
     34 ****         5.0702   0.5617  -2.9409 H              1 S1                 0.0000
     35 ****        -0.4089  -1.1972   3.2728 LP             1 S1                 0.0000
     36 ****        -1.1821   1.0970  -1.5171 LP             1 S1                 0.0000
     37 ****         0.4399   1.3482  -2.0702 LP             1 S1                 0.0000
     38 ****         1.0790  -2.2872  -2.3852 LP             1 S1                 0.0000
     39 ****         1.6616  -2.4570  -4.0074 LP             1 S1                 0.0000
@<TRIPOS>BOND
    1    1    2 1     
    2    1   19 1     
    3    1   20 1     
    4    1   21 1     
    5    2    3 1     
    6    2    9 1     
    7    2   22 1     
    8    3    4 1     
    9    3   23 1     
   10    3   24 1     
   11    4    8 1     
   12    4    5 1     
   13    5    6 2     
   14    5   25 1     
   15    6    7 1     
   16    6   26 1     
   17    7    8 2     
   18    7   27 1     
   19    9   10 am    
   20    9   28 1     
   21   10   11 2     
   22   10   12 1     
   23   12   13 1     
   24   12   29 1     
   25   12   30 1     
   26   13   17 am    
   27   13   14 1     
   28   14   15 1     
   29   14   31 1     
   30   14   32 1     
   31   15   16 1     
   32   15   33 1     
   33   15   34 1     
   34   16   17 1     
   35   17   18 2     
   36    8   35 1     
   37   11   36 1     
   38   11   37 1     
   39   18   38 1     
   40   18   39 1     
@<TRIPOS>SUBSTRUCTURE
      1 S1             1
@<TRIPOS>SET
LONE_PAIRS      STATIC     ATOMS    <user>   **** ""
5 35 36 37 38 39
DONOR_HYDROGENS      STATIC     ATOMS    <user>   **** ""
1 28
ATOM$BLUE        STATIC     ATOMS    COLORGROUP SYSTEM
5 35 36 37 38 39
ATOM$RED        STATIC     ATOMS    COLORGROUP SYSTEM
1 28
