AV-unprocessed.smi:1388|AV-procd|sdf|5643|dock6
  -GOLD-   22720 5263D 1   1.00000     0.00000
 Structure written by MMmdl.
 46 47  0  0  0  0  0  0  0  0  2 V2000
  145.5995  135.5639  151.8582 C   0  0  0  0  0  0  0  0  0  0  0  0
  146.4491  136.6292  152.3692 N   0  0  0  0  0  0  0  0  0  0  0  0
  146.1026  137.4576  153.3641 C   0  0  0  0  0  0  0  0  0  0  0  0
  145.0171  137.3998  153.9431 O   0  0  0  0  0  0  0  0  0  0  0  0
  147.1346  138.5229  153.7483 C   0  0  0  0  0  0  0  0  0  0  0  0
  148.4737  137.9548  154.0514 N   0  3  2  0  0  0  0  0  0  0  0  0
  148.4671  137.1138  155.2753 C   0  0  0  0  0  0  0  0  0  0  0  0
  149.8267  136.4223  155.4858 C   0  0  0  0  0  0  0  0  0  0  0  0
  150.9896  137.4288  155.5203 C   0  0  2  0  0  0  0  0  0  0  0  0
  150.9569  138.2075  156.7579 N   0  0  0  0  0  0  0  0  0  0  0  0
  151.7055  139.2915  157.0102 C   0  0  0  0  0  0  0  0  0  0  0  0
  152.5127  139.7584  156.2063 O   0  0  0  0  0  0  0  0  0  0  0  0
  151.4452  139.7875  158.2328 N   0  0  0  0  0  0  0  0  0  0  0  0
  152.0369  140.9109  158.8765 C   0  0  0  0  0  0  0  0  0  0  0  0
  152.8568  140.7904  159.9507 N   0  0  0  0  0  0  0  0  0  0  0  0
  153.3792  141.8974  160.5166 C   0  0  0  0  0  0  0  0  0  0  0  0
  153.1176  143.1958  160.0468 C   0  0  0  0  0  0  0  0  0  0  0  0
  152.2708  143.3386  158.9344 C   0  0  0  0  0  0  0  0  0  0  0  0
  151.7187  142.1859  158.3362 C   0  0  0  0  0  0  0  0  0  0  0  0
  150.8029  142.3391  157.1326 C   0  0  0  0  0  0  0  0  0  0  0  0
  150.9307  138.3335  154.2736 C   0  0  0  0  0  0  0  0  0  0  0  0
  149.5470  138.9837  154.0993 C   0  0  0  0  0  0  0  0  0  0  0  0
  146.1194  135.0192  151.0702 H   0  0  0  0  0  0  0  0  0  0  0  0
  144.6769  135.9693  151.4407 H   0  0  0  0  0  0  0  0  0  0  0  0
  145.3435  134.8569  152.6482 H   0  0  0  0  0  0  0  0  0  0  0  0
  147.3541  136.7436  151.9356 H   0  0  0  0  0  0  0  0  0  0  0  0
  147.2169  139.2779  152.9646 H   0  0  0  0  0  0  0  0  0  0  0  0
  146.7421  139.0293  154.6310 H   0  0  0  0  0  0  0  0  0  0  0  0
  148.2142  137.7295  156.1400 H   0  0  0  0  0  0  0  0  0  0  0  0
  147.6915  136.3514  155.1933 H   0  0  0  0  0  0  0  0  0  0  0  0
  149.8094  135.8317  156.4027 H   0  0  0  0  0  0  0  0  0  0  0  0
  149.9929  135.7137  154.6732 H   0  0  0  0  0  0  0  0  0  0  0  0
  151.9237  136.8642  155.5018 H   0  0  0  0  0  0  0  0  0  0  0  0
  150.3255  137.8915  157.4793 H   0  0  0  0  0  0  0  0  0  0  0  0
  150.7397  139.3069  158.7707 H   0  0  0  0  0  0  0  0  0  0  0  0
  154.0246  141.7428  161.3686 H   0  0  0  0  0  0  0  0  0  0  0  0
  153.5549  144.0583  160.5271 H   0  0  0  0  0  0  0  0  0  0  0  0
  152.0495  144.3227  158.5479 H   0  0  0  0  0  0  0  0  0  0  0  0
  150.6954  143.3856  156.8462 H   0  0  0  0  0  0  0  0  0  0  0  0
  149.8100  141.9492  157.3571 H   0  0  0  0  0  0  0  0  0  0  0  0
  151.2038  141.7976  156.2757 H   0  0  0  0  0  0  0  0  0  0  0  0
  151.7028  139.1025  154.3185 H   0  0  0  0  0  0  0  0  0  0  0  0
  151.1551  137.7361  153.3888 H   0  0  0  0  0  0  0  0  0  0  0  0
  149.5451  139.5717  153.1812 H   0  0  0  0  0  0  0  0  0  0  0  0
  149.3515  139.6802  154.9161 H   0  0  0  0  0  0  0  0  0  0  0  0
  148.6945  137.3364  153.2833 H   0  0  0  0  0  0  0  0  0  0  0  0
  1  2  1  0  0  0  0
  1 23  1  0  0  0  0
  1 24  1  0  0  0  0
  1 25  1  0  0  0  0
  2  3  1  0  0  0  0
  2 26  1  0  0  0  0
  3  4  2  0  0  0  0
  3  5  1  0  0  0  0
  5  6  1  0  0  0  0
  5 27  1  0  0  0  0
  5 28  1  0  0  0  0
  6 22  1  0  0  0  0
  6  7  1  0  0  0  0
  6 46  1  0  0  0  0
  7  8  1  0  0  0  0
  7 29  1  0  0  0  0
  7 30  1  0  0  0  0
  8  9  1  0  0  0  0
  8 31  1  0  0  0  0
  8 32  1  0  0  0  0
  9 10  1  0  0  0  0
  9 21  1  0  0  0  0
  9 33  1  0  0  0  0
 10 11  1  0  0  0  0
 10 34  1  0  0  0  0
 11 12  2  0  0  0  0
 11 13  1  0  0  0  0
 13 14  1  0  0  0  0
 13 35  1  0  0  0  0
 14 19  1  0  0  0  0
 14 15  2  0  0  0  0
 15 16  1  0  0  0  0
 16 17  2  0  0  0  0
 16 36  1  0  0  0  0
 17 18  1  0  0  0  0
 17 37  1  0  0  0  0
 18 19  2  0  0  0  0
 18 38  1  0  0  0  0
 19 20  1  0  0  0  0
 20 39  1  0  0  0  0
 20 40  1  0  0  0  0
 20 41  1  0  0  0  0
 21 22  1  0  0  0  0
 21 42  1  0  0  0  0
 21 43  1  0  0  0  0
 22 44  1  0  0  0  0
 22 45  1  0  0  0  0
M  CHG  1   6   1
M  END
> <s_m_source_file>
AV-unprocessed.smi

> <i_m_source_file_index>
1388

> <i_lp_mmshare_version>
43012

> <i_f3d_flags>
0

> <s_epik_input>
W0NIM11bTkhdQyg9TylbQ0gyXU4xW0NIMl1bQ0gyXVtDSF0oW0NIMl1bQ0gyXTEpW05IXUMoPU8pW05IXWMybltjSF1bY0hdW2NIXWMyW0NIM10=

> <s_epik_cmdline>
J2VwaWtfcHl0aG9uJywgJy1waCcsICc3LjAnLCAnLXRuJywgJzgnLCAnLW1hJywgJzIwMCcsICctbWV0YWxfYmluZGluZycsICctaW1hZScsICc8aW5maWxlLm1hZT4nLCAnLW9tYWUnLCAnPG91dGZpbGUubWFlPic=

> <r_epik_Ionization_Penalty>
0.83891

> <r_epik_Ionization_Penalty_Charging>
0.838844

> <r_epik_Ionization_Penalty_Neutral>
6.58477e-05

> <r_epik_State_Penalty>
0.8734

> <r_epik_Charging_Adjusted_Penalty>
1.71224

> <i_epik_Tot_Q>
1

> <i_epik_Tot_abs_Q>
1

> <r_epik_Metal_State_Penalty>
0.877924

> <b_epik_Metal_Only>
0

> <s_lp_Force_Field>
OPLS_2005

> <r_lp_Energy>
16.2558

> <b_lp_Chiralities_Consistent>
1

> <s_lp_Variant>
AV-unprocessed.smi:1388-3

> <Gold.Version>
5.8.1

> <Gold.Id.Protein>
6NUR|6NUR_protein|mol2

> <Gold.PLP.Fitness>
46.2388

> <Gold.PLP.PLP>
-36.2439

> <Gold.PLP.part.hbond>
-3.0000

> <Gold.PLP.part.metal>
0.0000

> <Gold.PLP.part.buried>
-5.4403

> <Gold.PLP.part.nonpolar>
-29.4950

> <Gold.PLP.part.repulsive>
0.3415

> <Gold.PLP.ligand.clash>
0.0000

> <Gold.PLP.ligand.torsion>
0.8823

> <Gold.PLP.Chemscore.Hbond>
3.9120

> <Gold.PLP.Chemscore.CHOScore>
0.0000

> <Gold.PLP.Chemscore.Metal>
0.0000

> <Gold.Chemscore.Hbonds>
donor molecule, donor type, donor heavy atom, donor atom, acceptor molecule, acceptor atom, score
      L1  H     2    26       P1  7948  0.96
      L1  H     6    46       P1  7948  2.00
      P1  H  7997  8009       L1    12  1.00

> <Gold.PLP.Chemscore.Internal.Correction>
0.0234

> <Gold.Rescore>
     Score         DG    S(hbond)    S(metal)    S(lipo)     H(rot)  DE(clash)    DE(int)     intcor
     19.26     -21.59       3.00        0.00      89.08       1.69       0.19       2.15       ----

> <Gold.Chemscore.Fitness>
19.2559

> <Gold.Chemscore.DG>
-21.5920

> <Gold.Chemscore.ZeroCoef>
-5.4800

> <Gold.Chemscore.Hbond>
2.9953

> <Gold.Chemscore.Metal>
0.0000

> <Gold.Chemscore.Lipo>
89.0761

> <Gold.Chemscore.Internal_Hbond>
0.0000

> <Gold.Chemscore.DEClash>
0.1893

> <Gold.Chemscore.DEInternal>
2.1468

> <Gold.Chemscore.Rot>
1.6853

> <Gold.Chemscore.Internal.Correction>
   9.000000E+99

> <Gold.Chemscore.Hbonds>
donor molecule, donor type, donor heavy atom, donor atom, acceptor molecule, acceptor atom, score
      L1  H     2    26       P1  7948  0.92
      L1  H     6    46       P1  7948  1.00
      P1  H  7997  8009       L1    12  1.00

> <Gold.Chemscore.Hbond.Weighted>
-10.0044

> <Gold.Chemscore.Metal.Weighted>
-0.0000

> <Gold.Chemscore.Lipo.Weighted>
-10.4219

> <Gold.Chemscore.Internal_Hbond.Weighted>
0.0000

> <Gold.Chemscore.DEClash.Weighted>
0.1893

> <Gold.Chemscore.DEInternal.Weighted>
2.1468

> <Gold.Chemscore.Rot.Weighted>
4.3143

> <Gold.Chemscore.Internal.Correction.Weighted>
   9.000000E+99

> <Gold.Protein.RotatedTorsions>
[ 6907 6896 6895 6894 ] final  175.30 input  -60.11 | X-H torsion
[ 7974 7965 7964 7962 ] final  -94.48 input  175.53 | X-H torsion
[ 8008 7997 7996 7995 ] final -160.64 input   59.86 | X-H torsion
[ 10167 10162 10161 10158 ] final   62.67 input  -65.29 | X-H torsion
[ 10718 10713 10712 10709 ] final  -99.47 input   66.30 | X-H torsion
[ 10763 10752 10751 10750 ] final  -49.72 input  -60.55 | X-H torsion
[ 11005 11000 10999 10996 ] final   28.90 input  -57.11 | X-H torsion

> <Gold.Protein.ActiveResidues>
 VAL166  LYS551  ARG553  GLY616  TRP617  ASP618  TYR619  PRO620  LYS621  CYS622 
 ASP623  PHE694  ASN695  SER759  ASP760  ASP761  ALA762  ILE779  LEU786  VAL792 
 PHE793  MET794  SER795  GLU796  ALA797  LYS798  CYS799  TRP800  GLU811  SER814 

> <Gold.Protein.RotatedAtoms>
  151.7384  133.3321  159.3358 H   0  0  0  0  0  0  0  0  0  0  0  0  # atno 6907 bound_to 6896
  150.7583  134.6300  159.6190 H   0  0  0  0  0  0  0  0  0  0  0  0  # atno 6908 bound_to 6896
  152.3546  134.6960  160.0277 H   0  0  0  0  0  0  0  0  0  0  0  0  # atno 6909 bound_to 6896
  145.3727  140.9507  143.2438 H   0  0  0  0  0  0  0  0  0  0  0  0  # atno 7974 bound_to 7965
  155.7804  140.0864  157.2062 H   0  0  0  0  0  0  0  0  0  0  0  0  # atno 8008 bound_to 7997
  154.3990  140.1509  156.3103 H   0  0  0  0  0  0  0  0  0  0  0  0  # atno 8009 bound_to 7997
  155.8659  140.3428  155.5790 H   0  0  0  0  0  0  0  0  0  0  0  0  # atno 8010 bound_to 7997
  140.1414  144.4550  150.6809 H   0  0  0  0  0  0  0  0  0  0  0  0  # atno 10167 bound_to 10162
  156.0135  130.5284  150.6674 H   0  0  0  0  0  0  0  0  0  0  0  0  # atno 10718 bound_to 10713
  154.0986  135.6566  153.4864 H   0  0  0  0  0  0  0  0  0  0  0  0  # atno 10763 bound_to 10752
  153.0296  135.5219  154.7309 H   0  0  0  0  0  0  0  0  0  0  0  0  # atno 10764 bound_to 10752
  154.6454  135.2994  155.0021 H   0  0  0  0  0  0  0  0  0  0  0  0  # atno 10765 bound_to 10752
  140.3107  134.2653  155.7735 H   0  0  0  0  0  0  0  0  0  0  0  0  # atno 11005 bound_to 11000
  144.8565  139.5242  143.6832 LP  0  0  0  0  0  0  0  0  0  0  0  0  # atno 17320 bound_to 7965
  146.2878  139.7053  142.9183 LP  0  0  0  0  0  0  0  0  0  0  0  0  # atno 17321 bound_to 7965
  140.6758  143.2304  151.5510 LP  0  0  0  0  0  0  0  0  0  0  0  0  # atno 17342 bound_to 10162
  139.5470  144.2494  152.1461 LP  0  0  0  0  0  0  0  0  0  0  0  0  # atno 17343 bound_to 10162
  157.4404  131.0860  151.0949 LP  0  0  0  0  0  0  0  0  0  0  0  0  # atno 17370 bound_to 10713
  157.1495  130.6178  149.5578 LP  0  0  0  0  0  0  0  0  0  0  0  0  # atno 17371 bound_to 10713
  141.2109  133.7706  156.9903 LP  0  0  0  0  0  0  0  0  0  0  0  0  # atno 17394 bound_to 11000
  140.1027  134.9525  157.1948 LP  0  0  0  0  0  0  0  0  0  0  0  0  # atno 17395 bound_to 11000

$$$$
