AV-unprocessed.smi:1056|AV-procd|sdf|4636|dock1
  -GOLD-   22720 3143D 1   1.00000     0.00000
 Structure written by MMmdl.
 46 48  0  0  0  0  0  0  0  0  3 V2000
  151.9440  145.1486  159.8437 C   0  0  0  0  0  0  0  0  0  0  0  0
  151.7543  143.8782  159.0321 C   0  0  0  0  0  0  0  0  0  0  0  0
  150.8942  143.9151  157.9116 C   0  0  0  0  0  0  0  0  0  0  0  0
  150.7423  142.7373  157.1896 C   0  0  0  0  0  0  0  0  0  0  0  0
  149.9791  142.4538  156.0553 N   0  3  0  0  0  0  0  0  0  0  0  0
  150.1528  141.1499  155.7044 C   0  0  0  0  0  0  0  0  0  0  0  0
  151.0137  140.5935  156.5998 N   0  0  0  0  0  0  0  0  0  0  0  0
  151.5323  139.2191  156.6720 C   0  0  0  0  0  0  0  0  0  0  0  0
  152.1908  138.7552  155.3572 C   0  0  2  0  0  0  0  0  0  0  0  0
  153.1499  139.7088  154.9418 O   0  0  0  0  0  0  0  0  0  0  0  0
  151.1538  138.5760  154.2310 C   0  0  0  0  0  0  0  0  0  0  0  0
  150.4180  137.2900  154.3353 N   0  3  1  0  0  0  0  0  0  0  0  0
  151.2534  136.1660  154.8215 C   0  0  0  0  0  0  0  0  0  0  0  0
  150.4834  134.8397  154.6959 C   0  0  0  0  0  0  0  0  0  0  0  0
  149.0932  134.9432  155.1333 N   0  0  0  0  0  0  0  0  0  0  0  0
  148.4237  136.0898  155.3351 C   0  0  0  0  0  0  0  0  0  0  0  0
  147.2491  136.0986  155.6939 O   0  0  0  0  0  0  0  0  0  0  0  0
  149.1597  137.4203  155.1137 C   0  0  0  0  0  0  0  0  0  0  0  0
  151.4096  141.5487  157.5455 C   0  0  0  0  0  0  0  0  0  0  0  0
  152.2593  141.4959  158.6487 C   0  0  0  0  0  0  0  0  0  0  0  0
  152.4284  142.6839  159.3953 C   0  0  0  0  0  0  0  0  0  0  0  0
  153.3512  142.6557  160.6019 C   0  0  0  0  0  0  0  0  0  0  0  0
  151.3300  145.9634  159.4595 H   0  0  0  0  0  0  0  0  0  0  0  0
  152.9849  145.4712  159.8107 H   0  0  0  0  0  0  0  0  0  0  0  0
  151.6644  144.9847  160.8846 H   0  0  0  0  0  0  0  0  0  0  0  0
  150.3778  144.8207  157.6287 H   0  0  0  0  0  0  0  0  0  0  0  0
  149.6898  140.6493  154.8661 H   0  0  0  0  0  0  0  0  0  0  0  0
  152.2655  139.1978  157.4792 H   0  0  0  0  0  0  0  0  0  0  0  0
  150.7313  138.5444  156.9744 H   0  0  0  0  0  0  0  0  0  0  0  0
  152.7116  137.8167  155.5460 H   0  0  0  0  0  0  0  0  0  0  0  0
  152.8103  140.1770  154.1941 H   0  0  0  0  0  0  0  0  0  0  0  0
  150.4370  139.3987  154.2325 H   0  0  0  0  0  0  0  0  0  0  0  0
  151.6719  138.6288  153.2717 H   0  0  0  0  0  0  0  0  0  0  0  0
  152.1871  136.0972  154.2644 H   0  0  0  0  0  0  0  0  0  0  0  0
  151.5209  136.3458  155.8642 H   0  0  0  0  0  0  0  0  0  0  0  0
  150.4772  134.5174  153.6541 H   0  0  0  0  0  0  0  0  0  0  0  0
  150.9841  134.0549  155.2638 H   0  0  0  0  0  0  0  0  0  0  0  0
  148.5983  134.0762  155.2892 H   0  0  0  0  0  0  0  0  0  0  0  0
  149.3809  137.8494  156.0921 H   0  0  0  0  0  0  0  0  0  0  0  0
  148.4895  138.1133  154.6033 H   0  0  0  0  0  0  0  0  0  0  0  0
  152.7723  140.5892  158.9316 H   0  0  0  0  0  0  0  0  0  0  0  0
  153.8219  141.6795  160.7227 H   0  0  0  0  0  0  0  0  0  0  0  0
  152.7941  142.8727  161.5134 H   0  0  0  0  0  0  0  0  0  0  0  0
  154.1447  143.3957  160.4958 H   0  0  0  0  0  0  0  0  0  0  0  0
  150.1345  137.0500  153.3958 H   0  0  0  0  0  0  0  0  0  0  0  0
  149.3839  143.1018  155.5548 H   0  0  0  0  0  0  0  0  0  0  0  0
  1  2  1  0  0  0  0
  1 23  1  0  0  0  0
  1 24  1  0  0  0  0
  1 25  1  0  0  0  0
  2 21  1  0  0  0  0
  2  3  2  0  0  0  0
  3  4  1  0  0  0  0
  3 26  1  0  0  0  0
  4 19  2  0  0  0  0
  4  5  1  0  0  0  0
  5  6  2  0  0  0  0
  5 46  1  0  0  0  0
  6  7  1  0  0  0  0
  6 27  1  0  0  0  0
  7  8  1  0  0  0  0
  7 19  1  0  0  0  0
  8  9  1  0  0  0  0
  8 28  1  0  0  0  0
  8 29  1  0  0  0  0
  9 10  1  0  0  0  0
  9 11  1  0  0  0  0
  9 30  1  0  0  0  0
 10 31  1  0  0  0  0
 11 12  1  0  0  0  0
 11 32  1  0  0  0  0
 11 33  1  0  0  0  0
 12 18  1  0  0  0  0
 12 13  1  0  0  0  0
 12 45  1  0  0  0  0
 13 14  1  0  0  0  0
 13 34  1  0  0  0  0
 13 35  1  0  0  0  0
 14 15  1  0  0  0  0
 14 36  1  0  0  0  0
 14 37  1  0  0  0  0
 15 16  1  0  0  0  0
 15 38  1  0  0  0  0
 16 17  2  0  0  0  0
 16 18  1  0  0  0  0
 18 39  1  0  0  0  0
 18 40  1  0  0  0  0
 19 20  1  0  0  0  0
 20 21  2  0  0  0  0
 20 41  1  0  0  0  0
 21 22  1  0  0  0  0
 22 42  1  0  0  0  0
 22 43  1  0  0  0  0
 22 44  1  0  0  0  0
M  CHG  1   5   1
M  CHG  1  12   1
M  END
> <s_m_source_file>
AV-unprocessed.smi

> <i_m_source_file_index>
1056

> <i_lp_mmshare_version>
43012

> <i_f3d_flags>
0

> <s_epik_input>
W0NIM11jKFtjSF0xKWMoW0NIM10pW2NIXWMoYzEyKW4oW2NIXW4yKVtDSDJdW0NASF0oW09IXSlbQ0gyXU4zW0NIMl1bQ0gyXVtOSF1DKD1PKVtDSDJdMw==

> <s_epik_cmdline>
J2VwaWtfcHl0aG9uJywgJy1waCcsICc3LjAnLCAnLXRuJywgJzgnLCAnLW1hJywgJzIwMCcsICctbWV0YWxfYmluZGluZycsICctaW1hZScsICc8aW5maWxlLm1hZT4nLCAnLW9tYWUnLCAnPG91dGZpbGUubWFlPic=

> <r_epik_Ionization_Penalty>
1.262

> <r_epik_Ionization_Penalty_Charging>
1.26188

> <r_epik_Ionization_Penalty_Neutral>
0.000125436

> <r_epik_State_Penalty>
1.3387

> <r_epik_Charging_Adjusted_Penalty>
2.60058

> <i_epik_Tot_Q>
2

> <i_epik_Tot_abs_Q>
2

> <r_epik_Metal_State_Penalty>
1.58938

> <b_epik_Metal_Only>
0

> <s_lp_Force_Field>
OPLS_2005

> <r_lp_Energy>
35.3013

> <b_lp_Chiralities_Consistent>
1

> <s_lp_Variant>
AV-unprocessed.smi:1056-7

> <Gold.Version>
5.8.1

> <Gold.Id.Protein>
6NUR|6NUR_protein|mol2

> <Gold.PLP.Fitness>
57.4988

> <Gold.PLP.PLP>
-43.8508

> <Gold.PLP.part.hbond>
-3.2264

> <Gold.PLP.part.metal>
0.0000

> <Gold.PLP.part.buried>
-5.9684

> <Gold.PLP.part.nonpolar>
-36.3439

> <Gold.PLP.part.repulsive>
0.1904

> <Gold.PLP.ligand.clash>
0.0000

> <Gold.PLP.ligand.torsion>
0.5975

> <Gold.PLP.Chemscore.Hbond>
4.9280

> <Gold.PLP.Chemscore.CHOScore>
0.0000

> <Gold.PLP.Chemscore.Metal>
0.0000

> <Gold.Chemscore.Hbonds>
donor molecule, donor type, donor heavy atom, donor atom, acceptor molecule, acceptor atom, score
      L1  H     5    46       P1  8028  1.57
      L1  H    12    45       P1  7948  1.60
      P1  H  7997  8009       L1    10  0.77

> <Gold.PLP.Chemscore.Internal.Correction>
0.0589

> <Gold.Rescore>
     Score         DG    S(hbond)    S(metal)    S(lipo)     H(rot)  DE(clash)    DE(int)     intcor
     20.29     -20.84       2.67        0.00     108.39       2.44       0.04       0.51       ----

> <Gold.Chemscore.Fitness>
20.2877

> <Gold.Chemscore.DG>
-20.8367

> <Gold.Chemscore.ZeroCoef>
-5.4800

> <Gold.Chemscore.Hbond>
2.6678

> <Gold.Chemscore.Metal>
0.0000

> <Gold.Chemscore.Lipo>
108.3893

> <Gold.Chemscore.Internal_Hbond>
0.0000

> <Gold.Chemscore.DEClash>
0.0402

> <Gold.Chemscore.DEInternal>
0.5087

> <Gold.Chemscore.Rot>
2.4357

> <Gold.Chemscore.Internal.Correction>
   9.000000E+99

> <Gold.Chemscore.Hbonds>
donor molecule, donor type, donor heavy atom, donor atom, acceptor molecule, acceptor atom, score
      L1  H     5    46       P1  8028  0.78
      L1  H    12    45       P1  7948  0.13
      P1  H  7997  8009       L1    10  0.66

> <Gold.Chemscore.Hbond.Weighted>
-8.9105

> <Gold.Chemscore.Metal.Weighted>
-0.0000

> <Gold.Chemscore.Lipo.Weighted>
-12.6815

> <Gold.Chemscore.Internal_Hbond.Weighted>
0.0000

> <Gold.Chemscore.DEClash.Weighted>
0.0402

> <Gold.Chemscore.DEInternal.Weighted>
0.5087

> <Gold.Chemscore.Rot.Weighted>
6.2353

> <Gold.Chemscore.Internal.Correction.Weighted>
   9.000000E+99

> <Gold.Protein.RotatedTorsions>
[ 6907 6896 6895 6894 ] final   28.40 input  -60.11 | X-H torsion
[ 7974 7965 7964 7962 ] final -131.31 input  175.53 | X-H torsion
[ 8008 7997 7996 7995 ] final -161.78 input   59.86 | X-H torsion
[ 10167 10162 10161 10158 ] final  -73.71 input  -65.29 | X-H torsion
[ 10718 10713 10712 10709 ] final  -74.99 input   66.30 | X-H torsion
[ 10763 10752 10751 10750 ] final   19.11 input  -60.55 | X-H torsion
[ 11005 11000 10999 10996 ] final -124.86 input  -57.11 | X-H torsion

> <Gold.Protein.ActiveResidues>
 VAL166  LYS551  ARG553  GLY616  TRP617  ASP618  TYR619  PRO620  LYS621  CYS622 
 ASP623  PHE694  ASN695  SER759  ASP760  ASP761  ALA762  ILE779  LEU786  VAL792 
 PHE793  MET794  SER795  GLU796  ALA797  LYS798  CYS799  TRP800  GLU811  SER814 

> <Gold.Protein.RotatedAtoms>
  152.0164  134.9847  160.0569 H   0  0  0  0  0  0  0  0  0  0  0  0  # atno 6907 bound_to 6896
  152.1380  133.4442  159.4761 H   0  0  0  0  0  0  0  0  0  0  0  0  # atno 6908 bound_to 6896
  150.6862  134.2259  159.4458 H   0  0  0  0  0  0  0  0  0  0  0  0  # atno 6909 bound_to 6896
  144.9391  140.7218  143.4858 H   0  0  0  0  0  0  0  0  0  0  0  0  # atno 7974 bound_to 7965
  155.7972  140.0886  157.1977 H   0  0  0  0  0  0  0  0  0  0  0  0  # atno 8008 bound_to 7997
  154.3983  140.1479  156.3291 H   0  0  0  0  0  0  0  0  0  0  0  0  # atno 8009 bound_to 7997
  155.8499  140.3435  155.5689 H   0  0  0  0  0  0  0  0  0  0  0  0  # atno 8010 bound_to 7997
  140.5087  143.2348  151.7630 H   0  0  0  0  0  0  0  0  0  0  0  0  # atno 10167 bound_to 10162
  156.0223  130.4430  150.2976 H   0  0  0  0  0  0  0  0  0  0  0  0  # atno 10718 bound_to 10713
  153.1190  135.6714  153.9368 H   0  0  0  0  0  0  0  0  0  0  0  0  # atno 10763 bound_to 10752
  153.8889  135.3049  155.3448 H   0  0  0  0  0  0  0  0  0  0  0  0  # atno 10764 bound_to 10752
  154.7603  135.4991  153.9531 H   0  0  0  0  0  0  0  0  0  0  0  0  # atno 10765 bound_to 10752
  140.9807  134.0677  157.3768 H   0  0  0  0  0  0  0  0  0  0  0  0  # atno 11005 bound_to 11000
  145.3020  139.1847  143.4685 LP  0  0  0  0  0  0  0  0  0  0  0  0  # atno 17320 bound_to 7965
  146.3278  140.3012  142.8621 LP  0  0  0  0  0  0  0  0  0  0  0  0  # atno 17321 bound_to 7965
  139.4890  144.4421  151.9753 LP  0  0  0  0  0  0  0  0  0  0  0  0  # atno 17342 bound_to 10162
  140.3512  144.3086  150.5949 LP  0  0  0  0  0  0  0  0  0  0  0  0  # atno 17343 bound_to 10162
  157.1079  131.0213  151.3060 LP  0  0  0  0  0  0  0  0  0  0  0  0  # atno 17370 bound_to 10713
  157.4728  130.7719  149.7339 LP  0  0  0  0  0  0  0  0  0  0  0  0  # atno 17371 bound_to 10713
  139.8949  135.0138  156.6975 LP  0  0  0  0  0  0  0  0  0  0  0  0  # atno 17394 bound_to 11000
  140.7190  133.9157  155.8134 LP  0  0  0  0  0  0  0  0  0  0  0  0  # atno 17395 bound_to 11000

$$$$
