AV-unprocessed.smi:203|AV-procd|sdf|1587|dock4
  -GOLD-   2262019483D 1   1.00000     0.00000
 Structure written by MMmdl.
 57 61  0  0  0  0  0  0  0  0  1 V2000
  153.7150  136.2178  157.5527 O   0  0  0  0  0  0  0  0  0  0  0  0
  153.1053  137.0336  158.2401 C   0  0  0  0  0  0  0  0  0  0  0  0
  151.9158  137.8331  157.7357 C   0  0  0  0  0  0  0  0  0  0  0  0
  151.6690  138.8646  158.8545 C   0  0  2  0  0  0  0  0  0  0  0  0
  151.9870  140.3374  158.4429 C   0  0  2  0  0  0  0  0  0  0  0  0
  152.2787  141.2520  159.6623 C   0  0  0  0  0  0  0  0  0  0  0  0
  152.5890  142.6923  159.2343 C   0  0  0  0  0  0  0  0  0  0  0  0
  151.4432  143.2416  158.3781 C   0  0  0  0  0  0  0  0  0  0  0  0
  151.1856  142.3210  157.1783 C   0  0  0  0  0  0  0  0  0  0  0  0
  150.9355  140.9450  157.6069 N   0  0  0  0  0  0  0  0  0  0  0  0
  150.4873  140.2023  156.5704 C   0  0  0  0  0  0  0  0  0  0  0  0
  151.2978  140.0964  155.4890 N   0  0  0  0  0  0  0  0  0  0  0  0
  150.9072  139.3788  154.4310 C   0  0  0  0  0  0  0  0  0  0  0  0
  149.7723  138.6979  154.2560 N   0  0  0  0  0  0  0  0  0  0  0  0
  148.9592  138.7993  155.3467 C   0  0  0  0  0  0  0  0  0  0  0  0
  149.2348  139.5271  156.5379 C   0  0  0  0  0  0  0  0  0  0  0  0
  148.1743  139.4022  157.4275 N   0  0  0  0  0  0  0  0  0  0  0  0
  147.3203  138.6419  156.7979 C   0  0  0  0  0  0  0  0  0  0  0  0
  147.7124  138.2330  155.5436 N   0  0  0  0  0  0  0  0  0  0  0  0
  146.9634  137.3840  154.6345 C   0  0  0  0  0  0  0  0  0  0  0  0
  146.7076  138.0620  153.2717 C   0  0  1  0  0  0  0  0  0  0  0  0
  147.9241  138.2678  152.5814 O   0  0  0  0  0  0  0  0  0  0  0  0
  145.7407  137.2898  152.3502 C   0  0  2  0  0  0  0  0  0  0  0  0
  144.3560  137.0321  152.9580 C   0  0  0  0  0  0  0  0  0  0  0  0
  143.9383  135.6809  152.3919 C   0  0  0  0  0  0  0  0  0  0  0  0
  145.1251  135.2514  151.5312 C   0  0  0  0  0  0  0  0  0  0  0  0
  146.2164  135.9818  152.0657 O   0  0  0  0  0  0  0  0  0  0  0  0
  152.4981  138.3551  160.0554 C   0  0  0  0  0  0  0  0  0  0  0  0
  153.3756  137.3399  159.5069 N   0  0  0  0  0  0  0  0  0  0  0  0
  152.1142  138.2838  156.7633 H   0  0  0  0  0  0  0  0  0  0  0  0
  151.0626  137.1631  157.6258 H   0  0  0  0  0  0  0  0  0  0  0  0
  150.6123  138.7922  159.1137 H   0  0  0  0  0  0  0  0  0  0  0  0
  152.8953  140.3146  157.8398 H   0  0  0  0  0  0  0  0  0  0  0  0
  151.4246  141.2643  160.3396 H   0  0  0  0  0  0  0  0  0  0  0  0
  153.1197  140.8725  160.2413 H   0  0  0  0  0  0  0  0  0  0  0  0
  152.7384  143.3223  160.1116 H   0  0  0  0  0  0  0  0  0  0  0  0
  153.5203  142.7168  158.6671 H   0  0  0  0  0  0  0  0  0  0  0  0
  150.5377  143.3226  158.9808 H   0  0  0  0  0  0  0  0  0  0  0  0
  151.6807  144.2481  158.0331 H   0  0  0  0  0  0  0  0  0  0  0  0
  150.3324  142.6960  156.6106 H   0  0  0  0  0  0  0  0  0  0  0  0
  152.0465  142.3422  156.5085 H   0  0  0  0  0  0  0  0  0  0  0  0
  151.6041  139.3445  153.6066 H   0  0  0  0  0  0  0  0  0  0  0  0
  146.3742  138.3557  157.2337 H   0  0  0  0  0  0  0  0  0  0  0  0
  147.5113  136.4499  154.5036 H   0  0  0  0  0  0  0  0  0  0  0  0
  146.0212  137.1242  155.1170 H   0  0  0  0  0  0  0  0  0  0  0  0
  146.2909  139.0552  153.4443 H   0  0  0  0  0  0  0  0  0  0  0  0
  148.4520  137.4888  152.6703 H   0  0  0  0  0  0  0  0  0  0  0  0
  145.6072  137.8259  151.4082 H   0  0  0  0  0  0  0  0  0  0  0  0
  144.4003  136.9739  154.0459 H   0  0  0  0  0  0  0  0  0  0  0  0
  143.6525  137.8245  152.7007 H   0  0  0  0  0  0  0  0  0  0  0  0
  143.7782  134.9704  153.2037 H   0  0  0  0  0  0  0  0  0  0  0  0
  143.0183  135.7373  151.8095 H   0  0  0  0  0  0  0  0  0  0  0  0
  145.3046  134.1767  151.5658 H   0  0  0  0  0  0  0  0  0  0  0  0
  144.9726  135.5404  150.4901 H   0  0  0  0  0  0  0  0  0  0  0  0
  153.0719  139.1404  160.5475 H   0  0  0  0  0  0  0  0  0  0  0  0
  151.8524  137.8986  160.8064 H   0  0  0  0  0  0  0  0  0  0  0  0
  154.1226  136.9217  160.0424 H   0  0  0  0  0  0  0  0  0  0  0  0
  1  2  2  0  0  0  0
  2 29  1  0  0  0  0
  2  3  1  0  0  0  0
  3  4  1  0  0  0  0
  3 30  1  0  0  0  0
  3 31  1  0  0  0  0
  4  5  1  0  0  0  0
  4 28  1  0  0  0  0
  4 32  1  0  0  0  0
  5 10  1  0  0  0  0
  5  6  1  0  0  0  0
  5 33  1  0  0  0  0
  6  7  1  0  0  0  0
  6 34  1  0  0  0  0
  6 35  1  0  0  0  0
  7  8  1  0  0  0  0
  7 36  1  0  0  0  0
  7 37  1  0  0  0  0
  8  9  1  0  0  0  0
  8 38  1  0  0  0  0
  8 39  1  0  0  0  0
  9 10  1  0  0  0  0
  9 40  1  0  0  0  0
  9 41  1  0  0  0  0
 10 11  1  0  0  0  0
 11 16  1  0  0  0  0
 11 12  2  0  0  0  0
 12 13  1  0  0  0  0
 13 14  2  0  0  0  0
 13 42  1  0  0  0  0
 14 15  1  0  0  0  0
 15 19  1  0  0  0  0
 15 16  2  0  0  0  0
 16 17  1  0  0  0  0
 17 18  2  0  0  0  0
 18 19  1  0  0  0  0
 18 43  1  0  0  0  0
 19 20  1  0  0  0  0
 20 21  1  0  0  0  0
 20 44  1  0  0  0  0
 20 45  1  0  0  0  0
 21 22  1  0  0  0  0
 21 23  1  0  0  0  0
 21 46  1  0  0  0  0
 22 47  1  0  0  0  0
 23 27  1  0  0  0  0
 23 24  1  0  0  0  0
 23 48  1  0  0  0  0
 24 25  1  0  0  0  0
 24 49  1  0  0  0  0
 24 50  1  0  0  0  0
 25 26  1  0  0  0  0
 25 51  1  0  0  0  0
 25 52  1  0  0  0  0
 26 27  1  0  0  0  0
 26 53  1  0  0  0  0
 26 54  1  0  0  0  0
 28 29  1  0  0  0  0
 28 55  1  0  0  0  0
 28 56  1  0  0  0  0
 29 57  1  0  0  0  0
M  END
> <s_m_source_file>
AV-unprocessed.smi

> <i_m_source_file_index>
203

> <i_lp_mmshare_version>
43012

> <i_f3d_flags>
0

> <s_epik_input>
Tz1DMVtDSDJdW0NASF0oW0NIMl1bTkhdMSlbQ0BASF0yW0NIMl1bQ0gyXVtDSDJdW0NIMl1OMmMobltjSF1uMyljKGMzNCluW2NIXW40W0NIMl1bQ0BIXShbT0hdKVtDQEBIXTVbQ0gyXVtDSDJdW0NIMl1PNQ==

> <s_epik_cmdline>
J2VwaWtfcHl0aG9uJywgJy1waCcsICc3LjAnLCAnLXRuJywgJzgnLCAnLW1hJywgJzIwMCcsICctbWV0YWxfYmluZGluZycsICctaW1hZScsICc8aW5maWxlLm1hZT4nLCAnLW9tYWUnLCAnPG91dGZpbGUubWFlPic=

> <r_lp_tautomer_probability>
1

> <r_epik_Ionization_Penalty>
0.00175146

> <r_epik_Ionization_Penalty_Charging>
0

> <r_epik_Ionization_Penalty_Neutral>
0.00175146

> <r_epik_State_Penalty>
0.00109045

> <r_epik_Charging_Adjusted_Penalty>
0.00109045

> <i_epik_Tot_Q>
0

> <i_epik_Tot_abs_Q>
0

> <r_epik_Metal_State_Penalty>
-0

> <b_epik_Metal_Only>
0

> <s_lp_Force_Field>
OPLS_2005

> <r_lp_Energy>
57.3727

> <b_lp_Chiralities_Consistent>
1

> <s_lp_Variant>
AV-unprocessed.smi:203-6

> <Gold.Version>
5.8.1

> <Gold.Id.Protein>
6NUR|6NUR_protein|mol2

> <Gold.PLP.Fitness>
40.0141

> <Gold.PLP.PLP>
-34.6778

> <Gold.PLP.part.hbond>
-4.0000

> <Gold.PLP.part.metal>
0.0000

> <Gold.PLP.part.buried>
-5.3059

> <Gold.PLP.part.nonpolar>
-26.3941

> <Gold.PLP.part.repulsive>
1.1986

> <Gold.PLP.ligand.clash>
0.0000

> <Gold.PLP.ligand.torsion>
0.6148

> <Gold.PLP.Chemscore.Hbond>
2.0000

> <Gold.PLP.Chemscore.CHOScore>
0.0970

> <Gold.PLP.Chemscore.Metal>
0.0000

> <Gold.Chemscore.Hbonds>
donor molecule, donor type, donor heavy atom, donor atom, acceptor molecule, acceptor atom, score
      L1  H    22    47       P1  7948  0.83
      P1  H 10752 10764       L1     1  0.18

> <Gold.PLP.Chemscore.Internal.Correction>
0.2749

> <Gold.Rescore>
     Score         DG    S(hbond)    S(metal)    S(lipo)     H(rot)  DE(clash)    DE(int)     intcor
     12.42     -13.78       1.95        0.00      74.61       2.72       0.18       1.18       ----

> <Gold.Chemscore.Fitness>
12.4246

> <Gold.Chemscore.DG>
-13.7824

> <Gold.Chemscore.ZeroCoef>
-5.4800

> <Gold.Chemscore.Hbond>
1.9549

> <Gold.Chemscore.Metal>
0.0000

> <Gold.Chemscore.Lipo>
74.6050

> <Gold.Chemscore.Internal_Hbond>
0.0000

> <Gold.Chemscore.DEClash>
0.1808

> <Gold.Chemscore.DEInternal>
1.1770

> <Gold.Chemscore.Rot>
2.7171

> <Gold.Chemscore.Internal.Correction>
   9.000000E+99

> <Gold.Chemscore.Hbonds>
donor molecule, donor type, donor heavy atom, donor atom, acceptor molecule, acceptor atom, score
      L1  H    22    47       P1  7948  0.78
      P1  H 10752 10764       L1     1  0.19

> <Gold.Chemscore.Hbond.Weighted>
-6.5293

> <Gold.Chemscore.Metal.Weighted>
-0.0000

> <Gold.Chemscore.Lipo.Weighted>
-8.7288

> <Gold.Chemscore.Internal_Hbond.Weighted>
0.0000

> <Gold.Chemscore.DEClash.Weighted>
0.1808

> <Gold.Chemscore.DEInternal.Weighted>
1.1770

> <Gold.Chemscore.Rot.Weighted>
6.9557

> <Gold.Chemscore.Internal.Correction.Weighted>
   9.000000E+99

> <Gold.Protein.RotatedTorsions>
[ 6907 6896 6895 6894 ] final  160.78 input  -60.11 | X-H torsion
[ 7974 7965 7964 7962 ] final   -2.29 input  175.53 | X-H torsion
[ 8008 7997 7996 7995 ] final   91.47 input   59.86 | X-H torsion
[ 10167 10162 10161 10158 ] final -110.63 input  -65.29 | X-H torsion
[ 10718 10713 10712 10709 ] final  -45.60 input   66.30 | X-H torsion
[ 10763 10752 10751 10750 ] final   28.72 input  -60.55 | X-H torsion
[ 11005 11000 10999 10996 ] final -103.77 input  -57.11 | X-H torsion

> <Gold.Protein.ActiveResidues>
 VAL166  LYS551  ARG553  GLY616  TRP617  ASP618  TYR619  PRO620  LYS621  CYS622 
 ASP623  PHE694  ASN695  SER759  ASP760  ASP761  ALA762  ILE779  LEU786  VAL792 
 PHE793  MET794  SER795  GLU796  ALA797  LYS798  CYS799  TRP800  GLU811  SER814 

> <Gold.Protein.RotatedAtoms>
  151.9654  133.3708  159.4050 H   0  0  0  0  0  0  0  0  0  0  0  0  # atno 6907 bound_to 6896
  150.6957  134.4196  159.5208 H   0  0  0  0  0  0  0  0  0  0  0  0  # atno 6908 bound_to 6896
  152.1891  134.8687  160.0570 H   0  0  0  0  0  0  0  0  0  0  0  0  # atno 6909 bound_to 6896
  146.2406  140.1549  142.8333 H   0  0  0  0  0  0  0  0  0  0  0  0  # atno 7974 bound_to 7965
  156.0242  140.3337  155.7070 H   0  0  0  0  0  0  0  0  0  0  0  0  # atno 8008 bound_to 7997
  155.5979  140.0652  157.2758 H   0  0  0  0  0  0  0  0  0  0  0  0  # atno 8009 bound_to 7997
  154.4327  140.1815  156.1130 H   0  0  0  0  0  0  0  0  0  0  0  0  # atno 8010 bound_to 7997
  140.1423  143.4268  152.1553 H   0  0  0  0  0  0  0  0  0  0  0  0  # atno 10167 bound_to 10162
  156.2267  130.4170  149.8925 H   0  0  0  0  0  0  0  0  0  0  0  0  # atno 10718 bound_to 10713
  153.0474  135.6506  154.0780 H   0  0  0  0  0  0  0  0  0  0  0  0  # atno 10763 bound_to 10752
  154.0475  135.2898  155.3347 H   0  0  0  0  0  0  0  0  0  0  0  0  # atno 10764 bound_to 10752
  154.6741  135.5345  153.8243 H   0  0  0  0  0  0  0  0  0  0  0  0  # atno 10765 bound_to 10752
  141.1131  133.8667  157.1527 H   0  0  0  0  0  0  0  0  0  0  0  0  # atno 11005 bound_to 11000
  145.0137  140.8736  143.5208 LP  0  0  0  0  0  0  0  0  0  0  0  0  # atno 17320 bound_to 7965
  145.1586  139.2471  143.5403 LP  0  0  0  0  0  0  0  0  0  0  0  0  # atno 17321 bound_to 7965
  139.5466  144.7303  151.4565 LP  0  0  0  0  0  0  0  0  0  0  0  0  # atno 17342 bound_to 10162
  140.6753  143.8204  150.7050 LP  0  0  0  0  0  0  0  0  0  0  0  0  # atno 17343 bound_to 10162
  156.6553  130.8760  151.3538 LP  0  0  0  0  0  0  0  0  0  0  0  0  # atno 17370 bound_to 10713
  157.7114  130.9444  150.1101 LP  0  0  0  0  0  0  0  0  0  0  0  0  # atno 17371 bound_to 10713
  140.0036  135.0017  157.0244 LP  0  0  0  0  0  0  0  0  0  0  0  0  # atno 17394 bound_to 11000
  140.4721  134.1376  155.7204 LP  0  0  0  0  0  0  0  0  0  0  0  0  # atno 17395 bound_to 11000

$$$$
