AV-unprocessed.smi:2253|AV-procd|sdf|9122|dock2
  -GOLD-   2272012323D 1   1.00000     0.00000
 Structure written by MMmdl.
 51 53  0  0  0  0  0  0  0  0  2 V2000
  146.3805  142.2399  154.2668 C   0  0  0  0  0  0  0  0  0  0  0  0
  147.2479  141.0918  154.4909 N   0  0  0  0  0  0  0  0  0  0  0  0
  148.6421  141.5170  154.4092 C   0  0  0  0  0  0  0  0  0  0  0  0
  149.5740  140.3333  154.7183 C   0  0  0  0  0  0  0  0  0  0  0  0
  149.3561  139.1469  153.7479 C   0  0  0  0  0  0  0  0  0  0  0  0
  150.1663  137.9364  154.1145 N   0  3  2  0  0  0  0  0  0  0  0  0
  149.8365  137.3043  155.4243 C   0  0  0  0  0  0  0  0  0  0  0  0
  150.3128  138.1656  156.6087 C   0  0  0  0  0  0  0  0  0  0  0  0
  151.8301  138.4065  156.5304 C   0  0  2  0  0  0  0  0  0  0  0  0
  152.2492  139.2985  157.6080 N   0  0  0  0  0  0  0  0  0  0  0  0
  151.7249  140.5086  157.8527 C   0  0  0  0  0  0  0  0  0  0  0  0
  150.7970  140.9830  157.1991 O   0  0  0  0  0  0  0  0  0  0  0  0
  152.3447  141.1043  158.8866 N   0  0  0  0  0  0  0  0  0  0  0  0
  152.1359  142.3925  159.4565 C   0  0  0  0  0  0  0  0  0  0  0  0
  151.4463  143.4575  158.8254 C   0  0  0  0  0  0  0  0  0  0  0  0
  151.3208  144.6823  159.5117 C   0  0  0  0  0  0  0  0  0  0  0  0
  151.8238  144.9007  160.7448 N   0  0  0  0  0  0  0  0  0  0  0  0
  152.4804  143.8853  161.3434 C   0  0  0  0  0  0  0  0  0  0  0  0
  152.6622  142.6220  160.7459 C   0  0  0  0  0  0  0  0  0  0  0  0
  153.3346  141.6467  161.4040 F   0  0  0  0  0  0  0  0  0  0  0  0
  152.2075  138.9840  155.1516 C   0  0  0  0  0  0  0  0  0  0  0  0
  151.6436  138.1152  154.0092 C   0  0  0  0  0  0  0  0  0  0  0  0
  147.8413  138.8312  153.7305 C   0  0  0  0  0  0  0  0  0  0  0  0
  146.9875  140.0833  153.4679 C   0  0  0  0  0  0  0  0  0  0  0  0
  146.5556  143.0055  155.0233 H   0  0  0  0  0  0  0  0  0  0  0  0
  145.3324  141.9457  154.3311 H   0  0  0  0  0  0  0  0  0  0  0  0
  146.5513  142.6840  153.2850 H   0  0  0  0  0  0  0  0  0  0  0  0
  148.8580  141.9238  153.4196 H   0  0  0  0  0  0  0  0  0  0  0  0
  148.8213  142.3162  155.1297 H   0  0  0  0  0  0  0  0  0  0  0  0
  150.5959  140.7054  154.6519 H   0  0  0  0  0  0  0  0  0  0  0  0
  149.4204  140.0085  155.7485 H   0  0  0  0  0  0  0  0  0  0  0  0
  149.6484  139.4812  152.7523 H   0  0  0  0  0  0  0  0  0  0  0  0
  148.7789  137.0630  155.5114 H   0  0  0  0  0  0  0  0  0  0  0  0
  150.3401  136.3372  155.4679 H   0  0  0  0  0  0  0  0  0  0  0  0
  149.7774  139.1160  156.6185 H   0  0  0  0  0  0  0  0  0  0  0  0
  150.0659  137.6666  157.5467 H   0  0  0  0  0  0  0  0  0  0  0  0
  152.3289  137.4431  156.6554 H   0  0  0  0  0  0  0  0  0  0  0  0
  153.0065  138.9811  158.1955 H   0  0  0  0  0  0  0  0  0  0  0  0
  153.0810  140.5682  159.3224 H   0  0  0  0  0  0  0  0  0  0  0  0
  151.0138  143.3739  157.8416 H   0  0  0  0  0  0  0  0  0  0  0  0
  150.8010  145.5116  159.0552 H   0  0  0  0  0  0  0  0  0  0  0  0
  152.8745  144.0862  162.3286 H   0  0  0  0  0  0  0  0  0  0  0  0
  151.8428  140.0074  155.0593 H   0  0  0  0  0  0  0  0  0  0  0  0
  153.2925  139.0427  155.0573 H   0  0  0  0  0  0  0  0  0  0  0  0
  152.1059  137.1284  154.0579 H   0  0  0  0  0  0  0  0  0  0  0  0
  151.9415  138.5142  153.0423 H   0  0  0  0  0  0  0  0  0  0  0  0
  147.5984  138.1081  152.9541 H   0  0  0  0  0  0  0  0  0  0  0  0
  147.5443  138.3816  154.6794 H   0  0  0  0  0  0  0  0  0  0  0  0
  145.9314  139.8112  153.4869 H   0  0  0  0  0  0  0  0  0  0  0  0
  147.1965  140.4858  152.4751 H   0  0  0  0  0  0  0  0  0  0  0  0
  149.9223  137.2466  153.4180 H   0  0  0  0  0  0  0  0  0  0  0  0
  1  2  1  0  0  0  0
  1 25  1  0  0  0  0
  1 26  1  0  0  0  0
  1 27  1  0  0  0  0
  2 24  1  0  0  0  0
  2  3  1  0  0  0  0
  3  4  1  0  0  0  0
  3 28  1  0  0  0  0
  3 29  1  0  0  0  0
  4  5  1  0  0  0  0
  4 30  1  0  0  0  0
  4 31  1  0  0  0  0
  5  6  1  0  0  0  0
  5 23  1  0  0  0  0
  5 32  1  0  0  0  0
  6 22  1  0  0  0  0
  6  7  1  0  0  0  0
  6 51  1  0  0  0  0
  7  8  1  0  0  0  0
  7 33  1  0  0  0  0
  7 34  1  0  0  0  0
  8  9  1  0  0  0  0
  8 35  1  0  0  0  0
  8 36  1  0  0  0  0
  9 10  1  0  0  0  0
  9 21  1  0  0  0  0
  9 37  1  0  0  0  0
 10 11  1  0  0  0  0
 10 38  1  0  0  0  0
 11 12  2  0  0  0  0
 11 13  1  0  0  0  0
 13 14  1  0  0  0  0
 13 39  1  0  0  0  0
 14 19  1  0  0  0  0
 14 15  2  0  0  0  0
 15 16  1  0  0  0  0
 15 40  1  0  0  0  0
 16 17  2  0  0  0  0
 16 41  1  0  0  0  0
 17 18  1  0  0  0  0
 18 19  2  0  0  0  0
 18 42  1  0  0  0  0
 19 20  1  0  0  0  0
 21 22  1  0  0  0  0
 21 43  1  0  0  0  0
 21 44  1  0  0  0  0
 22 45  1  0  0  0  0
 22 46  1  0  0  0  0
 23 24  1  0  0  0  0
 23 47  1  0  0  0  0
 23 48  1  0  0  0  0
 24 49  1  0  0  0  0
 24 50  1  0  0  0  0
M  CHG  1   6   1
M  END
> <s_m_source_file>
AV-unprocessed.smi

> <i_m_source_file_index>
2253

> <i_lp_mmshare_version>
43012

> <i_f3d_flags>
0

> <s_epik_input>
W0NIM11OMVtDSDJdW0NIMl1bQ0hdKFtDSDJdW0NIMl0xKU4yW0NIMl1bQ0gyXVtDSF0oW0NIMl1bQ0gyXTIpW05IXUMoPU8pW05IXWMzW2NIXVtjSF1uW2NIXWMzRg==

> <s_epik_cmdline>
J2VwaWtfcHl0aG9uJywgJy1waCcsICc3LjAnLCAnLXRuJywgJzgnLCAnLW1hJywgJzIwMCcsICctbWV0YWxfYmluZGluZycsICctaW1hZScsICc8aW5maWxlLm1hZT4nLCAnLW9tYWUnLCAnPG91dGZpbGUubWFlPic=

> <r_epik_Ionization_Penalty>
1.37522

> <r_epik_Ionization_Penalty_Charging>
0.00081195

> <r_epik_Ionization_Penalty_Neutral>
1.3744

> <r_epik_State_Penalty>
1.55149

> <r_epik_Charging_Adjusted_Penalty>
1.5523

> <i_epik_Tot_Q>
1

> <i_epik_Tot_abs_Q>
1

> <r_epik_Metal_State_Penalty>
1.55158

> <b_epik_Metal_Only>
0

> <s_lp_Force_Field>
OPLS_2005

> <r_lp_Energy>
38.6229

> <b_lp_Chiralities_Consistent>
1

> <s_lp_Variant>
AV-unprocessed.smi:2253-8

> <Gold.Version>
5.8.1

> <Gold.Id.Protein>
6NUR|6NUR_protein|mol2

> <Gold.PLP.Fitness>
49.4608

> <Gold.PLP.PLP>
-45.2474

> <Gold.PLP.part.hbond>
-0.9995

> <Gold.PLP.part.metal>
0.0000

> <Gold.PLP.part.buried>
-3.9082

> <Gold.PLP.part.nonpolar>
-41.1257

> <Gold.PLP.part.repulsive>
0.5879

> <Gold.PLP.ligand.clash>
1.3247

> <Gold.PLP.ligand.torsion>
0.1342

> <Gold.PLP.Chemscore.Hbond>
1.9175

> <Gold.PLP.Chemscore.CHOScore>
0.0000

> <Gold.PLP.Chemscore.Metal>
0.0000

> <Gold.Chemscore.Hbonds>
donor molecule, donor type, donor heavy atom, donor atom, acceptor molecule, acceptor atom, score
      L1  H     6    51       P1  7948  1.89

> <Gold.PLP.Chemscore.Internal.Correction>
0.0539

> <Gold.Rescore>
     Score         DG    S(hbond)    S(metal)    S(lipo)     H(rot)  DE(clash)    DE(int)     intcor
     13.59     -18.94       0.94        0.00     115.34       1.24       0.22       5.13       ----

> <Gold.Chemscore.Fitness>
13.5880

> <Gold.Chemscore.DG>
-18.9379

> <Gold.Chemscore.ZeroCoef>
-5.4800

> <Gold.Chemscore.Hbond>
0.9375

> <Gold.Chemscore.Metal>
0.0000

> <Gold.Chemscore.Lipo>
115.3423

> <Gold.Chemscore.Internal_Hbond>
0.0000

> <Gold.Chemscore.DEClash>
0.2234

> <Gold.Chemscore.DEInternal>
5.1264

> <Gold.Chemscore.Rot>
1.2377

> <Gold.Chemscore.Internal.Correction>
   9.000000E+99

> <Gold.Chemscore.Hbonds>
donor molecule, donor type, donor heavy atom, donor atom, acceptor molecule, acceptor atom, score
      L1  H     6    51       P1  7948  0.36

> <Gold.Chemscore.Hbond.Weighted>
-3.1314

> <Gold.Chemscore.Metal.Weighted>
-0.0000

> <Gold.Chemscore.Lipo.Weighted>
-13.4951

> <Gold.Chemscore.Internal_Hbond.Weighted>
0.0000

> <Gold.Chemscore.DEClash.Weighted>
0.2234

> <Gold.Chemscore.DEInternal.Weighted>
5.1264

> <Gold.Chemscore.Rot.Weighted>
3.1685

> <Gold.Chemscore.Internal.Correction.Weighted>
   9.000000E+99

> <Gold.Protein.RotatedTorsions>
[ 6907 6896 6895 6894 ] final -109.92 input  -60.11 | X-H torsion
[ 7974 7965 7964 7962 ] final -147.75 input  175.53 | X-H torsion
[ 8008 7997 7996 7995 ] final  123.21 input   59.86 | X-H torsion
[ 10167 10162 10161 10158 ] final  -39.68 input  -65.29 | X-H torsion
[ 10718 10713 10712 10709 ] final   -2.31 input   66.30 | X-H torsion
[ 10763 10752 10751 10750 ] final -153.35 input  -60.55 | X-H torsion
[ 11005 11000 10999 10996 ] final  -70.79 input  -57.11 | X-H torsion

> <Gold.Protein.ActiveResidues>
 VAL166  LYS551  ARG553  GLY616  TRP617  ASP618  TYR619  PRO620  LYS621  CYS622 
 ASP623  PHE694  ASN695  SER759  ASP760  ASP761  ALA762  ILE779  LEU786  VAL792 
 PHE793  MET794  SER795  GLU796  ALA797  LYS798  CYS799  TRP800  GLU811  SER814 

> <Gold.Protein.RotatedAtoms>
  150.7592  133.9459  159.3470 H   0  0  0  0  0  0  0  0  0  0  0  0  # atno 6907 bound_to 6896
  151.7371  135.0860  160.0319 H   0  0  0  0  0  0  0  0  0  0  0  0  # atno 6908 bound_to 6896
  152.3552  133.6191  159.6010 H   0  0  0  0  0  0  0  0  0  0  0  0  # atno 6909 bound_to 6896
  144.8073  140.5286  143.5666 H   0  0  0  0  0  0  0  0  0  0  0  0  # atno 7974 bound_to 7965
  156.2757  140.2768  156.1592 H   0  0  0  0  0  0  0  0  0  0  0  0  # atno 8008 bound_to 7997
  155.0772  140.0387  157.2645 H   0  0  0  0  0  0  0  0  0  0  0  0  # atno 8009 bound_to 7997
  154.6993  140.2645  155.6741 H   0  0  0  0  0  0  0  0  0  0  0  0  # atno 8010 bound_to 7997
  140.7057  143.3199  151.2817 H   0  0  0  0  0  0  0  0  0  0  0  0  # atno 10167 bound_to 10162
  156.7926  130.5367  149.5733 H   0  0  0  0  0  0  0  0  0  0  0  0  # atno 10718 bound_to 10713
  154.7933  135.3215  154.7726 H   0  0  0  0  0  0  0  0  0  0  0  0  # atno 10763 bound_to 10752
  153.8409  135.6871  153.4807 H   0  0  0  0  0  0  0  0  0  0  0  0  # atno 10764 bound_to 10752
  153.1613  135.4659  154.9717 H   0  0  0  0  0  0  0  0  0  0  0  0  # atno 10765 bound_to 10752
  141.1580  133.6799  156.6807 H   0  0  0  0  0  0  0  0  0  0  0  0  # atno 11005 bound_to 11000
  145.5407  139.1475  143.3448 LP  0  0  0  0  0  0  0  0  0  0  0  0  # atno 17320 bound_to 7965
  146.2367  140.5547  142.8952 LP  0  0  0  0  0  0  0  0  0  0  0  0  # atno 17321 bound_to 7965
  139.6650  144.0121  152.2717 LP  0  0  0  0  0  0  0  0  0  0  0  0  # atno 17342 bound_to 10162
  139.9701  144.6499  150.7997 LP  0  0  0  0  0  0  0  0  0  0  0  0  # atno 17343 bound_to 10162
  156.1149  130.6068  151.0106 LP  0  0  0  0  0  0  0  0  0  0  0  0  # atno 17370 bound_to 10713
  157.6593  131.0884  150.7876 LP  0  0  0  0  0  0  0  0  0  0  0  0  # atno 17371 bound_to 10713
  140.3105  134.8090  157.4172 LP  0  0  0  0  0  0  0  0  0  0  0  0  # atno 17394 bound_to 11000
  140.1183  134.5254  155.8206 LP  0  0  0  0  0  0  0  0  0  0  0  0  # atno 17395 bound_to 11000

$$$$
