AV-unprocessed.smi:148|AV-procd|sdf|1206|dock6
  -GOLD-   2262018373D 1   1.00000     0.00000
 Structure written by MMmdl.
 63 67  0  0  0  0  0  0  0  0  1 V2000
  148.3983  136.7516  162.1615 O   0  0  0  0  0  0  0  0  0  0  0  0
  146.9953  136.6930  162.3119 C   0  0  0  0  0  0  0  0  0  0  0  0
  146.4480  135.2937  161.9442 C   0  0  2  0  0  0  0  0  0  0  0  0
  146.2556  135.1431  160.4121 C   0  0  0  0  0  0  0  0  0  0  0  0
  147.1838  135.9572  159.6476 N   0  0  0  0  0  0  0  0  0  0  0  0
  148.4995  135.6659  159.3620 C   0  0  0  0  0  0  0  0  0  0  0  0
  149.1229  136.5568  158.6396 N   0  0  0  0  0  0  0  0  0  0  0  0
  148.1655  137.5384  158.4209 C   0  0  0  0  0  0  0  0  0  0  0  0
  148.1541  138.7621  157.7026 C   0  0  0  0  0  0  0  0  0  0  0  0
  149.2397  139.2039  157.0315 N   0  0  0  0  0  0  0  0  0  0  0  0
  150.3937  139.2647  157.9317 C   0  0  0  0  0  0  0  0  0  0  0  0
  151.6999  139.4519  157.1547 C   0  0  0  0  0  0  0  0  0  0  0  0
  151.6042  140.6974  156.2727 C   0  0  0  0  0  0  0  0  0  0  0  0
  150.3797  140.5942  155.3544 C   0  0  0  0  0  0  0  0  0  0  0  0
  149.0565  140.3677  156.1380 C   0  0  1  0  0  0  0  0  0  0  0  0
  147.8496  140.2319  155.1432 C   0  0  1  0  0  0  0  0  0  0  0  0
  147.8173  141.2014  153.9393 C   0  0  0  0  0  0  0  0  0  0  0  0
  146.9911  140.5274  152.8345 C   0  0  0  0  0  0  0  0  0  0  0  0
  146.6910  139.1113  153.3311 C   0  0  0  0  0  0  0  0  0  0  0  0
  147.6994  138.8591  154.4522 C   0  0  1  0  0  0  0  0  0  0  0  0
  148.9196  138.4348  153.8695 O   0  0  0  0  0  0  0  0  0  0  0  0
  147.0077  139.4929  157.7009 N   0  0  0  0  0  0  0  0  0  0  0  0
  145.9325  139.0434  158.3561 C   0  0  0  0  0  0  0  0  0  0  0  0
  145.7915  137.9146  159.0556 N   0  0  0  0  0  0  0  0  0  0  0  0
  146.9443  137.1851  159.0579 C   0  0  0  0  0  0  0  0  0  0  0  0
  145.1770  134.9346  162.7626 C   0  0  2  0  0  0  0  0  0  0  0  0
  144.5440  133.5781  162.4475 C   0  0  0  0  0  0  0  0  0  0  0  0
  143.0484  133.8792  162.3319 C   0  0  0  0  0  0  0  0  0  0  0  0
  142.8841  135.1157  163.0080 O   0  0  0  0  0  0  0  0  0  0  0  0
  144.0025  135.9160  162.6654 C   0  0  0  0  0  0  0  0  0  0  0  0
  148.6916  135.9488  161.7584 H   0  0  0  0  0  0  0  0  0  0  0  0
  146.7293  136.9586  163.3353 H   0  0  0  0  0  0  0  0  0  0  0  0
  146.5745  137.4625  161.6652 H   0  0  0  0  0  0  0  0  0  0  0  0
  147.2122  134.5724  162.2380 H   0  0  0  0  0  0  0  0  0  0  0  0
  146.3897  134.1103  160.0936 H   0  0  0  0  0  0  0  0  0  0  0  0
  145.2440  135.4256  160.1217 H   0  0  0  0  0  0  0  0  0  0  0  0
  148.9823  134.7598  159.6979 H   0  0  0  0  0  0  0  0  0  0  0  0
  150.2656  140.0911  158.6327 H   0  0  0  0  0  0  0  0  0  0  0  0
  150.4544  138.3508  158.5253 H   0  0  0  0  0  0  0  0  0  0  0  0
  152.5385  139.5423  157.8455 H   0  0  0  0  0  0  0  0  0  0  0  0
  151.8932  138.5730  156.5382 H   0  0  0  0  0  0  0  0  0  0  0  0
  151.5243  141.5890  156.8959 H   0  0  0  0  0  0  0  0  0  0  0  0
  152.5122  140.8093  155.6793 H   0  0  0  0  0  0  0  0  0  0  0  0
  150.3367  141.5056  154.7603 H   0  0  0  0  0  0  0  0  0  0  0  0
  150.5293  139.7753  154.6492 H   0  0  0  0  0  0  0  0  0  0  0  0
  148.8874  141.2423  156.7682 H   0  0  0  0  0  0  0  0  0  0  0  0
  146.9333  140.3906  155.7148 H   0  0  0  0  0  0  0  0  0  0  0  0
  147.3819  142.1672  154.1876 H   0  0  0  0  0  0  0  0  0  0  0  0
  148.8294  141.3825  153.5750 H   0  0  0  0  0  0  0  0  0  0  0  0
  146.0690  141.0730  152.6311 H   0  0  0  0  0  0  0  0  0  0  0  0
  147.5639  140.4970  151.9070 H   0  0  0  0  0  0  0  0  0  0  0  0
  145.6819  139.0834  153.7446 H   0  0  0  0  0  0  0  0  0  0  0  0
  146.7356  138.3659  152.5358 H   0  0  0  0  0  0  0  0  0  0  0  0
  147.3404  138.0877  155.1345 H   0  0  0  0  0  0  0  0  0  0  0  0
  148.7235  137.9415  153.0878 H   0  0  0  0  0  0  0  0  0  0  0  0
  145.0587  139.6764  158.3093 H   0  0  0  0  0  0  0  0  0  0  0  0
  145.4542  134.8877  163.8167 H   0  0  0  0  0  0  0  0  0  0  0  0
  144.9245  133.1102  161.5402 H   0  0  0  0  0  0  0  0  0  0  0  0
  144.7316  132.8831  163.2671 H   0  0  0  0  0  0  0  0  0  0  0  0
  142.7613  134.0011  161.2864 H   0  0  0  0  0  0  0  0  0  0  0  0
  142.4262  133.0975  162.7681 H   0  0  0  0  0  0  0  0  0  0  0  0
  144.1082  136.7647  163.3417 H   0  0  0  0  0  0  0  0  0  0  0  0
  143.8579  136.3007  161.6563 H   0  0  0  0  0  0  0  0  0  0  0  0
  1  2  1  0  0  0  0
  1 31  1  0  0  0  0
  2  3  1  0  0  0  0
  2 32  1  0  0  0  0
  2 33  1  0  0  0  0
  3  4  1  0  0  0  0
  3 26  1  0  0  0  0
  3 34  1  0  0  0  0
  4  5  1  0  0  0  0
  4 35  1  0  0  0  0
  4 36  1  0  0  0  0
  5 25  1  0  0  0  0
  5  6  1  0  0  0  0
  6  7  2  0  0  0  0
  6 37  1  0  0  0  0
  7  8  1  0  0  0  0
  8 25  2  0  0  0  0
  8  9  1  0  0  0  0
  9 10  1  0  0  0  0
  9 22  2  0  0  0  0
 10 15  1  0  0  0  0
 10 11  1  0  0  0  0
 11 12  1  0  0  0  0
 11 38  1  0  0  0  0
 11 39  1  0  0  0  0
 12 13  1  0  0  0  0
 12 40  1  0  0  0  0
 12 41  1  0  0  0  0
 13 14  1  0  0  0  0
 13 42  1  0  0  0  0
 13 43  1  0  0  0  0
 14 15  1  0  0  0  0
 14 44  1  0  0  0  0
 14 45  1  0  0  0  0
 15 16  1  0  0  0  0
 15 46  1  0  0  0  0
 16 20  1  0  0  0  0
 16 17  1  0  0  0  0
 16 47  1  0  0  0  0
 17 18  1  0  0  0  0
 17 48  1  0  0  0  0
 17 49  1  0  0  0  0
 18 19  1  0  0  0  0
 18 50  1  0  0  0  0
 18 51  1  0  0  0  0
 19 20  1  0  0  0  0
 19 52  1  0  0  0  0
 19 53  1  0  0  0  0
 20 21  1  0  0  0  0
 20 54  1  0  0  0  0
 21 55  1  0  0  0  0
 22 23  1  0  0  0  0
 23 24  2  0  0  0  0
 23 56  1  0  0  0  0
 24 25  1  0  0  0  0
 26 30  1  0  0  0  0
 26 27  1  0  0  0  0
 26 57  1  0  0  0  0
 27 28  1  0  0  0  0
 27 58  1  0  0  0  0
 27 59  1  0  0  0  0
 28 29  1  0  0  0  0
 28 60  1  0  0  0  0
 28 61  1  0  0  0  0
 29 30  1  0  0  0  0
 30 62  1  0  0  0  0
 30 63  1  0  0  0  0
M  END
> <s_m_source_file>
AV-unprocessed.smi

> <i_m_source_file_index>
148

> <i_lp_mmshare_version>
43012

> <i_f3d_flags>
0

> <s_epik_input>
W0NIMl0xT1tDSDJdW0NIMl1bQ0BIXTFbQ0BIXShbQ0gyXVtPSF0pW0NIMl1uKFtjSF1uMiljKGMyMyluW2NIXW5jM040W0NIMl1bQ0gyXVtDSDJdW0NIMl1bQ0BIXTRbQ0BASF01W0NIMl1bQ0gyXVtDSDJdW0NASF01W09IXQ==

> <s_epik_cmdline>
J2VwaWtfcHl0aG9uJywgJy1waCcsICc3LjAnLCAnLXRuJywgJzgnLCAnLW1hJywgJzIwMCcsICctbWV0YWxfYmluZGluZycsICctaW1hZScsICc8aW5maWxlLm1hZT4nLCAnLW9tYWUnLCAnPG91dGZpbGUubWFlPic=

> <r_lp_tautomer_probability>
1

> <r_epik_Ionization_Penalty>
0.00556303

> <r_epik_Ionization_Penalty_Charging>
0

> <r_epik_Ionization_Penalty_Neutral>
0.00556303

> <r_epik_State_Penalty>
0.00401767

> <r_epik_Charging_Adjusted_Penalty>
0.00401767

> <i_epik_Tot_Q>
0

> <i_epik_Tot_abs_Q>
0

> <r_epik_Metal_State_Penalty>
-0

> <b_epik_Metal_Only>
0

> <s_lp_Force_Field>
OPLS_2005

> <r_lp_Energy>
71.7906

> <b_lp_Chiralities_Consistent>
1

> <s_lp_Variant>
AV-unprocessed.smi:148-5

> <Gold.Version>
5.8.1

> <Gold.Id.Protein>
6NUR|6NUR_protein|mol2

> <Gold.PLP.Fitness>
43.7189

> <Gold.PLP.PLP>
-39.8028

> <Gold.PLP.part.hbond>
-2.2479

> <Gold.PLP.part.metal>
0.0000

> <Gold.PLP.part.buried>
-5.4556

> <Gold.PLP.part.nonpolar>
-31.7479

> <Gold.PLP.part.repulsive>
0.1045

> <Gold.PLP.ligand.clash>
0.0011

> <Gold.PLP.ligand.torsion>
1.3828

> <Gold.PLP.Chemscore.Hbond>
1.9913

> <Gold.PLP.Chemscore.CHOScore>
0.0000

> <Gold.PLP.Chemscore.Metal>
0.0000

> <Gold.Chemscore.Hbonds>
donor molecule, donor type, donor heavy atom, donor atom, acceptor molecule, acceptor atom, score
      L1  H    21    55       P1  7948  0.84
      P1  H  6931  6943       L1     1  1.00

> <Gold.PLP.Chemscore.Internal.Correction>
0.7090

> <Gold.Rescore>
     Score         DG    S(hbond)    S(metal)    S(lipo)     H(rot)  DE(clash)    DE(int)     intcor
     11.22     -15.33       1.90        0.00     102.49       3.32       0.09       4.02       ----

> <Gold.Chemscore.Fitness>
11.2238

> <Gold.Chemscore.DG>
-15.3291

> <Gold.Chemscore.ZeroCoef>
-5.4800

> <Gold.Chemscore.Hbond>
1.9035

> <Gold.Chemscore.Metal>
0.0000

> <Gold.Chemscore.Lipo>
102.4917

> <Gold.Chemscore.Internal_Hbond>
0.0000

> <Gold.Chemscore.DEClash>
0.0855

> <Gold.Chemscore.DEInternal>
4.0198

> <Gold.Chemscore.Rot>
3.3203

> <Gold.Chemscore.Internal.Correction>
   9.000000E+99

> <Gold.Chemscore.Hbonds>
donor molecule, donor type, donor heavy atom, donor atom, acceptor molecule, acceptor atom, score
      L1  H    21    55       P1  7948  0.78
      P1  H  6931  6943       L1     1  0.94

> <Gold.Chemscore.Hbond.Weighted>
-6.3576

> <Gold.Chemscore.Metal.Weighted>
-0.0000

> <Gold.Chemscore.Lipo.Weighted>
-11.9915

> <Gold.Chemscore.Internal_Hbond.Weighted>
0.0000

> <Gold.Chemscore.DEClash.Weighted>
0.0855

> <Gold.Chemscore.DEInternal.Weighted>
4.0198

> <Gold.Chemscore.Rot.Weighted>
8.5000

> <Gold.Chemscore.Internal.Correction.Weighted>
   9.000000E+99

> <Gold.Protein.RotatedTorsions>
[ 6907 6896 6895 6894 ] final -154.12 input  -60.11 | X-H torsion
[ 7974 7965 7964 7962 ] final -117.29 input  175.53 | X-H torsion
[ 8008 7997 7996 7995 ] final  147.39 input   59.86 | X-H torsion
[ 10167 10162 10161 10158 ] final   91.39 input  -65.29 | X-H torsion
[ 10718 10713 10712 10709 ] final   83.00 input   66.30 | X-H torsion
[ 10763 10752 10751 10750 ] final   78.43 input  -60.55 | X-H torsion
[ 11005 11000 10999 10996 ] final   80.57 input  -57.11 | X-H torsion

> <Gold.Protein.ActiveResidues>
 VAL166  LYS551  ARG553  GLY616  TRP617  ASP618  TYR619  PRO620  LYS621  CYS622 
 ASP623  PHE694  ASN695  SER759  ASP760  ASP761  ALA762  ILE779  LEU786  VAL792 
 PHE793  MET794  SER795  GLU796  ALA797  LYS798  CYS799  TRP800  GLU811  SER814 

> <Gold.Protein.RotatedAtoms>
  151.2528  133.4341  159.2612 H   0  0  0  0  0  0  0  0  0  0  0  0  # atno 6907 bound_to 6896
  151.0602  134.9731  159.8266 H   0  0  0  0  0  0  0  0  0  0  0  0  # atno 6908 bound_to 6896
  152.5397  134.2478  159.8940 H   0  0  0  0  0  0  0  0  0  0  0  0  # atno 6909 bound_to 6896
  145.0870  140.8464  143.4005 H   0  0  0  0  0  0  0  0  0  0  0  0  # atno 7974 bound_to 7965
  156.2826  140.2157  156.5530 H   0  0  0  0  0  0  0  0  0  0  0  0  # atno 8008 bound_to 7997
  154.7276  140.0498  157.0719 H   0  0  0  0  0  0  0  0  0  0  0  0  # atno 8009 bound_to 7997
  155.0396  140.3144  155.4732 H   0  0  0  0  0  0  0  0  0  0  0  0  # atno 8010 bound_to 7997
  139.8379  144.6655  150.9319 H   0  0  0  0  0  0  0  0  0  0  0  0  # atno 10167 bound_to 10162
  157.6869  131.0072  150.2458 H   0  0  0  0  0  0  0  0  0  0  0  0  # atno 10718 bound_to 10713
  153.0874  135.4877  154.8623 H   0  0  0  0  0  0  0  0  0  0  0  0  # atno 10763 bound_to 10752
  154.7227  135.3043  154.9024 H   0  0  0  0  0  0  0  0  0  0  0  0  # atno 10764 bound_to 10752
  153.9683  135.6804  153.4799 H   0  0  0  0  0  0  0  0  0  0  0  0  # atno 10765 bound_to 10752
  139.9130  134.7930  156.1926 H   0  0  0  0  0  0  0  0  0  0  0  0  # atno 11005 bound_to 11000
  145.1111  139.2756  143.5637 LP  0  0  0  0  0  0  0  0  0  0  0  0  # atno 17320 bound_to 7965
  146.3531  140.0707  142.8623 LP  0  0  0  0  0  0  0  0  0  0  0  0  # atno 17321 bound_to 7965
  140.7801  143.3939  151.1262 LP  0  0  0  0  0  0  0  0  0  0  0  0  # atno 17342 bound_to 10162
  139.7588  143.8667  152.3095 LP  0  0  0  0  0  0  0  0  0  0  0  0  # atno 17343 bound_to 10162
  156.3064  130.3765  149.7702 LP  0  0  0  0  0  0  0  0  0  0  0  0  # atno 17370 bound_to 10713
  156.5317  130.8260  151.3239 LP  0  0  0  0  0  0  0  0  0  0  0  0  # atno 17371 bound_to 10713
  141.0574  133.6858  156.1887 LP  0  0  0  0  0  0  0  0  0  0  0  0  # atno 17394 bound_to 11000
  140.6715  134.4863  157.5587 LP  0  0  0  0  0  0  0  0  0  0  0  0  # atno 17395 bound_to 11000

$$$$
