AV-unprocessed.smi:2795|AV-procd|sdf|10780|dock2
  -GOLD-   2272015213D 1   1.00000     0.00000
 Structure written by MMmdl.
 36 37  0  0  0  0  0  0  0  0  1 V2000
  151.3228  145.5335  159.8269 C   0  0  0  0  0  0  0  0  0  0  0  0
  151.7715  144.2408  160.3038 N   0  0  0  0  0  0  0  0  0  0  0  0
  152.1916  143.9415  161.5405 C   0  0  0  0  0  0  0  0  0  0  0  0
  152.5478  142.6753  161.7083 N   0  0  0  0  0  0  0  0  0  0  0  0
  152.3363  142.1040  160.4564 C   0  0  0  0  0  0  0  0  0  0  0  0
  151.8595  143.0554  159.5791 C   0  0  0  0  0  0  0  0  0  0  0  0
  151.4794  142.9554  158.1335 C   0  0  0  0  0  0  0  0  0  0  0  0
  151.5673  141.5332  157.5514 C   0  0  0  0  0  0  0  0  0  0  0  0
  150.4358  141.2409  156.6791 N   0  0  0  0  0  0  0  0  0  0  0  0
  150.4936  140.4960  155.5643 C   0  0  0  0  0  0  0  0  0  0  0  0
  151.5352  139.9910  155.1445 O   0  0  0  0  0  0  0  0  0  0  0  0
  149.1762  140.2945  154.8085 C   0  0  2  0  0  0  0  0  0  0  0  0
  148.5764  141.6356  154.3330 C   0  0  0  0  0  0  0  0  0  0  0  0
  147.2172  141.4061  153.6636 C   0  0  0  0  0  0  0  0  0  0  0  0
  146.3084  140.6099  154.6058 C   0  0  0  0  0  0  0  0  0  0  0  0
  147.0142  139.3268  155.0728 C   0  0  0  0  0  0  0  0  0  0  0  0
  148.2581  139.6487  155.6884 O   0  0  0  0  0  0  0  0  0  0  0  0
  151.2883  146.2490  160.6492 H   0  0  0  0  0  0  0  0  0  0  0  0
  150.3252  145.4422  159.3965 H   0  0  0  0  0  0  0  0  0  0  0  0
  152.0097  145.9019  159.0646 H   0  0  0  0  0  0  0  0  0  0  0  0
  152.2380  144.6687  162.3380 H   0  0  0  0  0  0  0  0  0  0  0  0
  152.5428  141.0578  160.2851 H   0  0  0  0  0  0  0  0  0  0  0  0
  150.4640  143.3340  158.0121 H   0  0  0  0  0  0  0  0  0  0  0  0
  152.1208  143.6189  157.5523 H   0  0  0  0  0  0  0  0  0  0  0  0
  152.4795  141.4274  156.9635 H   0  0  0  0  0  0  0  0  0  0  0  0
  151.6222  140.7919  158.3505 H   0  0  0  0  0  0  0  0  0  0  0  0
  149.5412  141.6254  156.9463 H   0  0  0  0  0  0  0  0  0  0  0  0
  149.3556  139.6485  153.9463 H   0  0  0  0  0  0  0  0  0  0  0  0
  148.4479  142.3142  155.1780 H   0  0  0  0  0  0  0  0  0  0  0  0
  149.2544  142.1293  153.6360 H   0  0  0  0  0  0  0  0  0  0  0  0
  146.7555  142.3589  153.4032 H   0  0  0  0  0  0  0  0  0  0  0  0
  147.3538  140.8567  152.7312 H   0  0  0  0  0  0  0  0  0  0  0  0
  146.0542  141.2210  155.4727 H   0  0  0  0  0  0  0  0  0  0  0  0
  145.3695  140.3659  154.1083 H   0  0  0  0  0  0  0  0  0  0  0  0
  146.3913  138.7989  155.7950 H   0  0  0  0  0  0  0  0  0  0  0  0
  147.1771  138.6462  154.2358 H   0  0  0  0  0  0  0  0  0  0  0  0
  1  2  1  0  0  0  0
  1 18  1  0  0  0  0
  1 19  1  0  0  0  0
  1 20  1  0  0  0  0
  2  6  1  0  0  0  0
  2  3  1  0  0  0  0
  3  4  2  0  0  0  0
  3 21  1  0  0  0  0
  4  5  1  0  0  0  0
  5  6  2  0  0  0  0
  5 22  1  0  0  0  0
  6  7  1  0  0  0  0
  7  8  1  0  0  0  0
  7 23  1  0  0  0  0
  7 24  1  0  0  0  0
  8  9  1  0  0  0  0
  8 25  1  0  0  0  0
  8 26  1  0  0  0  0
  9 10  1  0  0  0  0
  9 27  1  0  0  0  0
 10 11  2  0  0  0  0
 10 12  1  0  0  0  0
 12 17  1  0  0  0  0
 12 13  1  0  0  0  0
 12 28  1  0  0  0  0
 13 14  1  0  0  0  0
 13 29  1  0  0  0  0
 13 30  1  0  0  0  0
 14 15  1  0  0  0  0
 14 31  1  0  0  0  0
 14 32  1  0  0  0  0
 15 16  1  0  0  0  0
 15 33  1  0  0  0  0
 15 34  1  0  0  0  0
 16 17  1  0  0  0  0
 16 35  1  0  0  0  0
 16 36  1  0  0  0  0
M  END
> <s_m_source_file>
AV-unprocessed.smi

> <i_m_source_file_index>
2795

> <i_lp_mmshare_version>
43012

> <i_f3d_flags>
0

> <s_epik_input>
W0NIM11uMVtjSF1uW2NIXWMxW0NIMl1bQ0gyXVtOSF1DKD1PKVtDQEBIXTJbQ0gyXVtDSDJdW0NIMl1bQ0gyXU8y

> <s_epik_cmdline>
J2VwaWtfcHl0aG9uJywgJy1waCcsICc3LjAnLCAnLXRuJywgJzgnLCAnLW1hJywgJzIwMCcsICctbWV0YWxfYmluZGluZycsICctaW1hZScsICc8aW5maWxlLm1hZT4nLCAnLW9tYWUnLCAnPG91dGZpbGUubWFlPic=

> <r_lp_tautomer_probability>
1

> <r_epik_Ionization_Penalty>
0.870864

> <r_epik_Ionization_Penalty_Charging>
0.870864

> <r_epik_Ionization_Penalty_Neutral>
4.06047e-08

> <r_epik_State_Penalty>
0.90819

> <r_epik_Charging_Adjusted_Penalty>
1.77905

> <i_epik_Tot_Q>
0

> <i_epik_Tot_abs_Q>
0

> <r_epik_Metal_State_Penalty>
0.360563

> <b_epik_Metal_Only>
0

> <s_lp_Force_Field>
OPLS_2005

> <r_lp_Energy>
9.35516

> <b_lp_Chiralities_Consistent>
1

> <s_lp_Variant>
AV-unprocessed.smi:2795-3

> <Gold.Version>
5.8.1

> <Gold.Id.Protein>
6NUR|6NUR_protein|mol2

> <Gold.PLP.Fitness>
40.4142

> <Gold.PLP.PLP>
-38.3457

> <Gold.PLP.part.hbond>
-1.0000

> <Gold.PLP.part.metal>
0.0000

> <Gold.PLP.part.buried>
-5.6397

> <Gold.PLP.part.nonpolar>
-30.9281

> <Gold.PLP.part.repulsive>
0.1587

> <Gold.PLP.ligand.clash>
0.0000

> <Gold.PLP.ligand.torsion>
0.4782

> <Gold.PLP.Chemscore.Hbond>
1.0000

> <Gold.PLP.Chemscore.CHOScore>
0.0000

> <Gold.PLP.Chemscore.Metal>
0.0000

> <Gold.Chemscore.Hbonds>
donor molecule, donor type, donor heavy atom, donor atom, acceptor molecule, acceptor atom, score
      P1  H  7989  7998       L1    11  0.95

> <Gold.PLP.Chemscore.Internal.Correction>
0.0251

> <Gold.Rescore>
     Score         DG    S(hbond)    S(metal)    S(lipo)     H(rot)  DE(clash)    DE(int)     intcor
     12.36     -12.87       0.87        0.00      76.82       1.76       0.02       0.49       ----

> <Gold.Chemscore.Fitness>
12.3579

> <Gold.Chemscore.DG>
-12.8690

> <Gold.Chemscore.ZeroCoef>
-5.4800

> <Gold.Chemscore.Hbond>
0.8692

> <Gold.Chemscore.Metal>
0.0000

> <Gold.Chemscore.Lipo>
76.8176

> <Gold.Chemscore.Internal_Hbond>
0.0000

> <Gold.Chemscore.DEClash>
0.0222

> <Gold.Chemscore.DEInternal>
0.4890

> <Gold.Chemscore.Rot>
1.7585

> <Gold.Chemscore.Internal.Correction>
   9.000000E+99

> <Gold.Chemscore.Hbonds>
donor molecule, donor type, donor heavy atom, donor atom, acceptor molecule, acceptor atom, score
      P1  H  7989  7998       L1    11  0.21

> <Gold.Chemscore.Hbond.Weighted>
-2.9031

> <Gold.Chemscore.Metal.Weighted>
-0.0000

> <Gold.Chemscore.Lipo.Weighted>
-8.9877

> <Gold.Chemscore.Internal_Hbond.Weighted>
0.0000

> <Gold.Chemscore.DEClash.Weighted>
0.0222

> <Gold.Chemscore.DEInternal.Weighted>
0.4890

> <Gold.Chemscore.Rot.Weighted>
4.5018

> <Gold.Chemscore.Internal.Correction.Weighted>
   9.000000E+99

> <Gold.Protein.RotatedTorsions>
[ 6907 6896 6895 6894 ] final  112.10 input  -60.11 | X-H torsion
[ 7974 7965 7964 7962 ] final   24.60 input  175.53 | X-H torsion
[ 8008 7997 7996 7995 ] final  -80.20 input   59.86 | X-H torsion
[ 10167 10162 10161 10158 ] final -175.28 input  -65.29 | X-H torsion
[ 10718 10713 10712 10709 ] final  129.08 input   66.30 | X-H torsion
[ 10763 10752 10751 10750 ] final  -63.48 input  -60.55 | X-H torsion
[ 11005 11000 10999 10996 ] final   26.39 input  -57.11 | X-H torsion

> <Gold.Protein.ActiveResidues>
 VAL166  LYS551  ARG553  GLY616  TRP617  ASP618  TYR619  PRO620  LYS621  CYS622 
 ASP623  PHE694  ASN695  SER759  ASP760  ASP761  ALA762  ILE779  LEU786  VAL792 
 PHE793  MET794  SER795  GLU796  ALA797  LYS798  CYS799  TRP800  GLU811  SER814 

> <Gold.Protein.RotatedAtoms>
  152.4935  133.8564  159.7227 H   0  0  0  0  0  0  0  0  0  0  0  0  # atno 6907 bound_to 6896
  150.9087  133.7016  159.2867 H   0  0  0  0  0  0  0  0  0  0  0  0  # atno 6908 bound_to 6896
  151.4432  135.1026  159.9728 H   0  0  0  0  0  0  0  0  0  0  0  0  # atno 6909 bound_to 6896
  146.1929  139.7582  142.8818 H   0  0  0  0  0  0  0  0  0  0  0  0  # atno 7974 bound_to 7965
  154.5859  140.0666  156.9170 H   0  0  0  0  0  0  0  0  0  0  0  0  # atno 8008 bound_to 7997
  155.2380  140.3342  155.4277 H   0  0  0  0  0  0  0  0  0  0  0  0  # atno 8009 bound_to 7997
  156.2222  140.1804  156.7433 H   0  0  0  0  0  0  0  0  0  0  0  0  # atno 8010 bound_to 7997
  139.5589  144.1919  152.1206 H   0  0  0  0  0  0  0  0  0  0  0  0  # atno 10167 bound_to 10162
  157.5186  131.1098  150.9187 H   0  0  0  0  0  0  0  0  0  0  0  0  # atno 10718 bound_to 10713
  154.3156  135.6206  153.5485 H   0  0  0  0  0  0  0  0  0  0  0  0  # atno 10763 bound_to 10752
  152.9825  135.5712  154.5127 H   0  0  0  0  0  0  0  0  0  0  0  0  # atno 10764 bound_to 10752
  154.4786  135.2862  155.1565 H   0  0  0  0  0  0  0  0  0  0  0  0  # atno 10765 bound_to 10752
  140.3376  134.2369  155.7694 H   0  0  0  0  0  0  0  0  0  0  0  0  # atno 11005 bound_to 11000
  145.3734  141.0346  143.3218 LP  0  0  0  0  0  0  0  0  0  0  0  0  # atno 17320 bound_to 7965
  144.8523  139.5303  143.6851 LP  0  0  0  0  0  0  0  0  0  0  0  0  # atno 17321 bound_to 7965
  140.1428  144.5186  150.6733 LP  0  0  0  0  0  0  0  0  0  0  0  0  # atno 17342 bound_to 10162
  140.6866  143.2353  151.5243 LP  0  0  0  0  0  0  0  0  0  0  0  0  # atno 17343 bound_to 10162
  156.9804  130.5525  149.5296 LP  0  0  0  0  0  0  0  0  0  0  0  0  # atno 17370 bound_to 10713
  156.0338  130.5427  150.8601 LP  0  0  0  0  0  0  0  0  0  0  0  0  # atno 17371 bound_to 10713
  141.2047  133.7879  157.0272 LP  0  0  0  0  0  0  0  0  0  0  0  0  # atno 17394 bound_to 11000
  140.0808  134.9649  157.1621 LP  0  0  0  0  0  0  0  0  0  0  0  0  # atno 17395 bound_to 11000

$$$$
