AV-unprocessed.smi:3303|AV-procd|sdf|12672|dock8
  -GOLD-   2272019 03D 1   1.00000     0.00000
 Structure written by MMmdl.
 45 46  0  0  0  0  0  0  0  0  3 V2000
  149.6792  131.3687  154.9954 C   0  0  0  0  0  0  0  0  0  0  0  0
  148.9347  131.5498  153.6605 C   0  0  1  0  0  0  0  0  0  0  0  0
  147.9462  130.3859  153.4430 C   0  0  0  0  0  0  0  0  0  0  0  0
  147.2081  130.5041  152.1584 N   0  3  1  0  0  0  0  0  0  0  0  0
  146.3786  129.2993  151.9124 C   0  0  0  0  0  0  0  0  0  0  0  0
  146.4554  131.7907  152.0650 C   0  0  2  0  0  0  0  0  0  0  0  0
  145.7054  131.9452  150.7274 C   0  0  0  0  0  0  0  0  0  0  0  0
  147.4154  132.9824  152.2598 C   0  0  0  0  0  0  0  0  0  0  0  0
  148.1905  132.8997  153.5842 C   0  0  2  0  0  0  0  0  0  0  0  0
  149.1377  134.0348  153.6744 N   0  3  0  0  0  0  0  0  0  0  0  0
  149.3296  134.5745  155.0352 C   0  0  0  0  0  0  0  0  0  0  0  0
  150.7699  135.0652  155.2337 C   0  0  0  0  0  0  0  0  0  0  0  0
  150.9024  136.5585  155.0063 C   0  0  0  0  0  0  0  0  0  0  0  0
  149.7573  137.3731  154.8787 C   0  0  0  0  0  0  0  0  0  0  0  0
  149.9376  138.7525  154.6585 C   0  0  0  0  0  0  0  0  0  0  0  0
  151.2483  139.2602  154.5752 C   0  0  0  0  0  0  0  0  0  0  0  0
  152.3256  138.3626  154.7148 C   0  0  0  0  0  0  0  0  0  0  0  0
  152.1638  137.0376  154.9230 N   0  0  0  0  0  0  0  0  0  0  0  0
  148.9948  131.4200  155.8428 H   0  0  0  0  0  0  0  0  0  0  0  0
  150.4427  132.1337  155.1385 H   0  0  0  0  0  0  0  0  0  0  0  0
  150.1827  130.4022  155.0352 H   0  0  0  0  0  0  0  0  0  0  0  0
  149.6747  131.5155  152.8588 H   0  0  0  0  0  0  0  0  0  0  0  0
  148.4962  129.4436  153.4537 H   0  0  0  0  0  0  0  0  0  0  0  0
  147.2307  130.3394  154.2660 H   0  0  0  0  0  0  0  0  0  0  0  0
  145.5275  129.2633  152.5936 H   0  0  0  0  0  0  0  0  0  0  0  0
  146.9639  128.3901  152.0546 H   0  0  0  0  0  0  0  0  0  0  0  0
  146.0060  129.2710  150.8890 H   0  0  0  0  0  0  0  0  0  0  0  0
  145.7166  131.8086  152.8685 H   0  0  0  0  0  0  0  0  0  0  0  0
  145.2488  132.9323  150.6491 H   0  0  0  0  0  0  0  0  0  0  0  0
  144.8961  131.2223  150.6253 H   0  0  0  0  0  0  0  0  0  0  0  0
  146.3768  131.8255  149.8764 H   0  0  0  0  0  0  0  0  0  0  0  0
  148.1179  133.0216  151.4253 H   0  0  0  0  0  0  0  0  0  0  0  0
  146.8517  133.9161  152.2289 H   0  0  0  0  0  0  0  0  0  0  0  0
  147.4724  132.9530  154.4051 H   0  0  0  0  0  0  0  0  0  0  0  0
  150.0350  133.7284  153.3258 H   0  0  0  0  0  0  0  0  0  0  0  0
  148.6264  135.3928  155.1966 H   0  0  0  0  0  0  0  0  0  0  0  0
  149.0992  133.7991  155.7670 H   0  0  0  0  0  0  0  0  0  0  0  0
  151.1108  134.8259  156.2420 H   0  0  0  0  0  0  0  0  0  0  0  0
  151.4421  134.5435  154.5506 H   0  0  0  0  0  0  0  0  0  0  0  0
  148.7637  136.9548  154.9462 H   0  0  0  0  0  0  0  0  0  0  0  0
  149.0861  139.4088  154.5541 H   0  0  0  0  0  0  0  0  0  0  0  0
  151.4242  140.3124  154.4074 H   0  0  0  0  0  0  0  0  0  0  0  0
  153.3438  138.7175  154.6558 H   0  0  0  0  0  0  0  0  0  0  0  0
  148.8032  134.7815  153.0817 H   0  0  0  0  0  0  0  0  0  0  0  0
  147.9052  130.5203  151.4273 H   0  0  0  0  0  0  0  0  0  0  0  0
  1  2  1  0  0  0  0
  1 19  1  0  0  0  0
  1 20  1  0  0  0  0
  1 21  1  0  0  0  0
  2  9  1  0  0  0  0
  2  3  1  0  0  0  0
  2 22  1  0  0  0  0
  3  4  1  0  0  0  0
  3 23  1  0  0  0  0
  3 24  1  0  0  0  0
  4  5  1  0  0  0  0
  4  6  1  0  0  0  0
  4 45  1  0  0  0  0
  5 25  1  0  0  0  0
  5 26  1  0  0  0  0
  5 27  1  0  0  0  0
  6  7  1  0  0  0  0
  6  8  1  0  0  0  0
  6 28  1  0  0  0  0
  7 29  1  0  0  0  0
  7 30  1  0  0  0  0
  7 31  1  0  0  0  0
  8  9  1  0  0  0  0
  8 32  1  0  0  0  0
  8 33  1  0  0  0  0
  9 10  1  0  0  0  0
  9 34  1  0  0  0  0
 10 11  1  0  0  0  0
 10 35  1  0  0  0  0
 10 44  1  0  0  0  0
 11 12  1  0  0  0  0
 11 36  1  0  0  0  0
 11 37  1  0  0  0  0
 12 13  1  0  0  0  0
 12 38  1  0  0  0  0
 12 39  1  0  0  0  0
 13 18  1  0  0  0  0
 13 14  2  0  0  0  0
 14 15  1  0  0  0  0
 14 40  1  0  0  0  0
 15 16  2  0  0  0  0
 15 41  1  0  0  0  0
 16 17  1  0  0  0  0
 16 42  1  0  0  0  0
 17 18  2  0  0  0  0
 17 43  1  0  0  0  0
M  CHG  1   4   1
M  CHG  1  10   1
M  END
> <s_m_source_file>
AV-unprocessed.smi

> <i_m_source_file_index>
3303

> <i_lp_mmshare_version>
43012

> <i_f3d_flags>
0

> <s_epik_input>
W0NIM11bQ0BASF0xW0NIMl1OKFtDSDNdKVtDQEBIXShbQ0gzXSlbQ0gyXVtDQEhdMVtOSF1bQ0gyXVtDSDJdYzJbY0hdW2NIXVtjSF1bY0hdbjI=

> <s_epik_cmdline>
J2VwaWtfcHl0aG9uJywgJy1waCcsICc3LjAnLCAnLXRuJywgJzgnLCAnLW1hJywgJzIwMCcsICctbWV0YWxfYmluZGluZycsICctaW1hZScsICc8aW5maWxlLm1hZT4nLCAnLW9tYWUnLCAnPG91dGZpbGUubWFlPic=

> <r_epik_Ionization_Penalty>
0.0769462

> <r_epik_Ionization_Penalty_Charging>
0.0759813

> <r_epik_Ionization_Penalty_Neutral>
0.000964829

> <r_epik_State_Penalty>
0.0654373

> <r_epik_Charging_Adjusted_Penalty>
0.141419

> <i_epik_Tot_Q>
2

> <i_epik_Tot_abs_Q>
2

> <r_epik_Metal_State_Penalty>
0.0656439

> <b_epik_Metal_Only>
0

> <s_lp_Force_Field>
OPLS_2005

> <r_lp_Energy>
29.1913

> <b_lp_Chiralities_Consistent>
1

> <s_lp_Variant>
AV-unprocessed.smi:3303-16

> <Gold.Version>
5.8.1

> <Gold.Id.Protein>
6NUR|6NUR_protein|mol2

> <Gold.PLP.Fitness>
46.3272

> <Gold.PLP.PLP>
-36.6906

> <Gold.PLP.part.hbond>
-3.0000

> <Gold.PLP.part.metal>
0.0000

> <Gold.PLP.part.buried>
-2.4112

> <Gold.PLP.part.nonpolar>
-31.5102

> <Gold.PLP.part.repulsive>
0.1045

> <Gold.PLP.ligand.clash>
0.0000

> <Gold.PLP.ligand.torsion>
1.0534

> <Gold.PLP.Chemscore.Hbond>
3.9120

> <Gold.PLP.Chemscore.CHOScore>
0.0000

> <Gold.PLP.Chemscore.Metal>
0.0000

> <Gold.Chemscore.Hbonds>
donor molecule, donor type, donor heavy atom, donor atom, acceptor molecule, acceptor atom, score
      L1  H     4    45       P1 10747  1.00
      L1  H    10    44       P1  7948  1.90
      P1  H 10752 10763       L1    18  0.84

> <Gold.PLP.Chemscore.Internal.Correction>
0.0073

> <Gold.Rescore>
     Score         DG    S(hbond)    S(metal)    S(lipo)     H(rot)  DE(clash)    DE(int)     intcor
     19.46     -20.71       2.38        0.00      92.46       1.37       0.05       1.21       ----

> <Gold.Chemscore.Fitness>
19.4578

> <Gold.Chemscore.DG>
-20.7131

> <Gold.Chemscore.ZeroCoef>
-5.4800

> <Gold.Chemscore.Hbond>
2.3753

> <Gold.Chemscore.Metal>
0.0000

> <Gold.Chemscore.Lipo>
92.4610

> <Gold.Chemscore.Internal_Hbond>
0.0000

> <Gold.Chemscore.DEClash>
0.0456

> <Gold.Chemscore.DEInternal>
1.2097

> <Gold.Chemscore.Rot>
1.3744

> <Gold.Chemscore.Internal.Correction>
   9.000000E+99

> <Gold.Chemscore.Hbonds>
donor molecule, donor type, donor heavy atom, donor atom, acceptor molecule, acceptor atom, score
      L1  H     4    45       P1 10747  0.98
      L1  H    10    44       P1  7948  0.21
      P1  H 10752 10763       L1    18  0.19

> <Gold.Chemscore.Hbond.Weighted>
-7.9336

> <Gold.Chemscore.Metal.Weighted>
-0.0000

> <Gold.Chemscore.Lipo.Weighted>
-10.8179

> <Gold.Chemscore.Internal_Hbond.Weighted>
0.0000

> <Gold.Chemscore.DEClash.Weighted>
0.0456

> <Gold.Chemscore.DEInternal.Weighted>
1.2097

> <Gold.Chemscore.Rot.Weighted>
3.5185

> <Gold.Chemscore.Internal.Correction.Weighted>
   9.000000E+99

> <Gold.Protein.RotatedTorsions>
[ 6907 6896 6895 6894 ] final   90.57 input  -60.11 | X-H torsion
[ 7974 7965 7964 7962 ] final -129.06 input  175.53 | X-H torsion
[ 8008 7997 7996 7995 ] final  154.08 input   59.86 | X-H torsion
[ 10167 10162 10161 10158 ] final -130.99 input  -65.29 | X-H torsion
[ 10718 10713 10712 10709 ] final   -3.89 input   66.30 | X-H torsion
[ 10763 10752 10751 10750 ] final   55.44 input  -60.55 | X-H torsion
[ 11005 11000 10999 10996 ] final  151.74 input  -57.11 | X-H torsion

> <Gold.Protein.ActiveResidues>
 VAL166  LYS551  ARG553  GLY616  TRP617  ASP618  TYR619  PRO620  LYS621  CYS622 
 ASP623  PHE694  ASN695  SER759  ASP760  ASP761  ALA762  ILE779  LEU786  VAL792 
 PHE793  MET794  SER795  GLU796  ALA797  LYS798  CYS799  TRP800  GLU811  SER814 

> <Gold.Protein.RotatedAtoms>
  152.5445  134.1791  159.8627 H   0  0  0  0  0  0  0  0  0  0  0  0  # atno 6907 bound_to 6896
  151.1795  133.4727  159.2601 H   0  0  0  0  0  0  0  0  0  0  0  0  # atno 6908 bound_to 6896
  151.1193  135.0082  159.8586 H   0  0  0  0  0  0  0  0  0  0  0  0  # atno 6909 bound_to 6896
  144.9609  140.7446  143.4729 H   0  0  0  0  0  0  0  0  0  0  0  0  # atno 7974 bound_to 7965
  156.2549  140.1976  156.6590 H   0  0  0  0  0  0  0  0  0  0  0  0  # atno 8008 bound_to 7997
  154.6478  140.0575  156.9946 H   0  0  0  0  0  0  0  0  0  0  0  0  # atno 8009 bound_to 7997
  155.1463  140.3247  155.4443 H   0  0  0  0  0  0  0  0  0  0  0  0  # atno 8010 bound_to 7997
  139.9235  143.6354  152.2548 H   0  0  0  0  0  0  0  0  0  0  0  0  # atno 10167 bound_to 10162
  156.7693  130.5295  149.5770 H   0  0  0  0  0  0  0  0  0  0  0  0  # atno 10718 bound_to 10713
  152.9817  135.5710  154.5068 H   0  0  0  0  0  0  0  0  0  0  0  0  # atno 10763 bound_to 10752
  154.4578  135.2780  155.1737 H   0  0  0  0  0  0  0  0  0  0  0  0  # atno 10764 bound_to 10752
  154.3337  135.6244  153.5617 H   0  0  0  0  0  0  0  0  0  0  0  0  # atno 10765 bound_to 10752
  140.1246  134.8842  157.2119 H   0  0  0  0  0  0  0  0  0  0  0  0  # atno 11005 bound_to 11000
  145.2701  139.1958  143.4846 LP  0  0  0  0  0  0  0  0  0  0  0  0  # atno 17320 bound_to 7965
  146.3353  140.2646  142.8603 LP  0  0  0  0  0  0  0  0  0  0  0  0  # atno 17321 bound_to 7965
  139.6841  144.7653  151.1555 LP  0  0  0  0  0  0  0  0  0  0  0  0  # atno 17342 bound_to 10162
  140.7656  143.5682  150.9025 LP  0  0  0  0  0  0  0  0  0  0  0  0  # atno 17343 bound_to 10162
  156.1288  130.6163  151.0303 LP  0  0  0  0  0  0  0  0  0  0  0  0  # atno 17370 bound_to 10713
  157.6698  131.0864  150.7639 LP  0  0  0  0  0  0  0  0  0  0  0  0  # atno 17371 bound_to 10713
  140.2921  134.3228  155.7312 LP  0  0  0  0  0  0  0  0  0  0  0  0  # atno 17394 bound_to 11000
  141.2158  133.7541  156.9518 LP  0  0  0  0  0  0  0  0  0  0  0  0  # atno 17395 bound_to 11000

$$$$
