AV-unprocessed.smi:1644|AV-procd|sdf|6584|dock4
  -GOLD-   22720 7273D 1   1.00000     0.00000
 Structure written by MMmdl.
 49 51  0  0  0  0  0  0  0  0  1 V2000
  144.0140  147.0195  156.1809 C   0  0  0  0  0  0  0  0  0  0  0  0
  143.8202  145.6991  155.4273 C   0  0  0  0  0  0  0  0  0  0  0  0
  144.5391  144.5228  156.1072 C   0  0  0  0  0  0  0  0  0  0  0  0
  144.3557  143.1851  155.3634 C   0  0  2  0  0  0  0  0  0  0  0  0
  144.2652  142.0518  156.2627 N   0  0  0  0  0  0  0  0  0  0  0  0
  145.2350  141.1519  156.0564 C   0  0  0  0  0  0  0  0  0  0  0  0
  145.3805  140.1085  156.6916 O   0  0  0  0  0  0  0  0  0  0  0  0
  146.0135  141.5904  155.0507 N   0  0  0  0  0  0  0  0  0  0  0  0
  147.2009  140.8857  154.5565 C   0  0  0  0  0  0  0  0  0  0  0  0
  148.5024  141.6421  154.8928 C   0  0  2  0  0  0  0  0  0  0  0  0
  148.5559  142.8211  154.1129 O   0  0  0  0  0  0  0  0  0  0  0  0
  149.7493  140.7912  154.5839 C   0  0  0  0  0  0  0  0  0  0  0  0
  150.4636  140.3950  155.7847 N   0  0  0  0  0  0  0  0  0  0  0  0
  150.7660  139.1404  156.1698 C   0  0  0  0  0  0  0  0  0  0  0  0
  151.4272  138.9975  157.3149 N   0  0  0  0  0  0  0  0  0  0  0  0
  151.5712  140.3135  157.7200 C   0  0  0  0  0  0  0  0  0  0  0  0
  152.1857  140.8570  158.8692 C   0  0  0  0  0  0  0  0  0  0  0  0
  152.2125  142.2533  159.0852 C   0  0  0  0  0  0  0  0  0  0  0  0
  152.8811  142.7948  160.3363 C   0  0  0  0  0  0  0  0  0  0  0  0
  151.6193  143.1296  158.1412 C   0  0  0  0  0  0  0  0  0  0  0  0
  151.6350  144.6333  158.3523 C   0  0  0  0  0  0  0  0  0  0  0  0
  151.0022  142.6034  156.9872 C   0  0  0  0  0  0  0  0  0  0  0  0
  150.9809  141.2123  156.7841 C   0  0  0  0  0  0  0  0  0  0  0  0
  145.5910  142.7729  154.5848 C   0  0  0  0  0  0  0  0  0  0  0  0
  146.0927  143.4447  153.6834 O   0  0  0  0  0  0  0  0  0  0  0  0
  143.4866  147.8330  155.6821 H   0  0  0  0  0  0  0  0  0  0  0  0
  145.0684  147.2913  156.2360 H   0  0  0  0  0  0  0  0  0  0  0  0
  143.6316  146.9511  157.1997 H   0  0  0  0  0  0  0  0  0  0  0  0
  142.7531  145.4882  155.3495 H   0  0  0  0  0  0  0  0  0  0  0  0
  144.1880  145.8106  154.4068 H   0  0  0  0  0  0  0  0  0  0  0  0
  145.6040  144.7509  156.1731 H   0  0  0  0  0  0  0  0  0  0  0  0
  144.1853  144.4280  157.1355 H   0  0  0  0  0  0  0  0  0  0  0  0
  143.4891  143.2104  154.7016 H   0  0  0  0  0  0  0  0  0  0  0  0
  143.5456  141.9652  156.9657 H   0  0  0  0  0  0  0  0  0  0  0  0
  147.2227  139.8986  155.0215 H   0  0  0  0  0  0  0  0  0  0  0  0
  147.1312  140.6947  153.4838 H   0  0  0  0  0  0  0  0  0  0  0  0
  148.5180  141.9189  155.9481 H   0  0  0  0  0  0  0  0  0  0  0  0
  148.4543  143.5654  154.6867 H   0  0  0  0  0  0  0  0  0  0  0  0
  149.4621  139.8863  154.0466 H   0  0  0  0  0  0  0  0  0  0  0  0
  150.4342  141.3350  153.9318 H   0  0  0  0  0  0  0  0  0  0  0  0
  150.4831  138.2834  155.5761 H   0  0  0  0  0  0  0  0  0  0  0  0
  152.6371  140.1890  159.5878 H   0  0  0  0  0  0  0  0  0  0  0  0
  153.7173  143.4428  160.0722 H   0  0  0  0  0  0  0  0  0  0  0  0
  153.2664  141.9894  160.9624 H   0  0  0  0  0  0  0  0  0  0  0  0
  152.1710  143.3695  160.9314 H   0  0  0  0  0  0  0  0  0  0  0  0
  151.1541  145.1563  157.5251 H   0  0  0  0  0  0  0  0  0  0  0  0
  152.6597  144.9983  158.4280 H   0  0  0  0  0  0  0  0  0  0  0  0
  151.1046  144.8953  159.2681 H   0  0  0  0  0  0  0  0  0  0  0  0
  150.5432  143.2587  156.2615 H   0  0  0  0  0  0  0  0  0  0  0  0
  1  2  1  0  0  0  0
  1 26  1  0  0  0  0
  1 27  1  0  0  0  0
  1 28  1  0  0  0  0
  2  3  1  0  0  0  0
  2 29  1  0  0  0  0
  2 30  1  0  0  0  0
  3  4  1  0  0  0  0
  3 31  1  0  0  0  0
  3 32  1  0  0  0  0
  4 24  1  0  0  0  0
  4  5  1  0  0  0  0
  4 33  1  0  0  0  0
  5  6  1  0  0  0  0
  5 34  1  0  0  0  0
  6  7  2  0  0  0  0
  6  8  1  0  0  0  0
  8  9  1  0  0  0  0
  8 24  1  0  0  0  0
  9 10  1  0  0  0  0
  9 35  1  0  0  0  0
  9 36  1  0  0  0  0
 10 11  1  0  0  0  0
 10 12  1  0  0  0  0
 10 37  1  0  0  0  0
 11 38  1  0  0  0  0
 12 13  1  0  0  0  0
 12 39  1  0  0  0  0
 12 40  1  0  0  0  0
 13 23  1  0  0  0  0
 13 14  1  0  0  0  0
 14 15  2  0  0  0  0
 14 41  1  0  0  0  0
 15 16  1  0  0  0  0
 16 23  2  0  0  0  0
 16 17  1  0  0  0  0
 17 18  2  0  0  0  0
 17 42  1  0  0  0  0
 18 19  1  0  0  0  0
 18 20  1  0  0  0  0
 19 43  1  0  0  0  0
 19 44  1  0  0  0  0
 19 45  1  0  0  0  0
 20 21  1  0  0  0  0
 20 22  2  0  0  0  0
 21 46  1  0  0  0  0
 21 47  1  0  0  0  0
 21 48  1  0  0  0  0
 22 23  1  0  0  0  0
 22 49  1  0  0  0  0
 24 25  2  0  0  0  0
M  END
> <s_m_source_file>
AV-unprocessed.smi

> <i_m_source_file_index>
1644

> <i_lp_mmshare_version>
43012

> <i_f3d_flags>
0

> <s_epik_input>
W0NIM11bQ0gyXVtDSDJdW0NAQEhdMVtOSF1DKD1PKU4oQzE9TylbQ0gyXVtDQEhdKFtPSF0pW0NIMl1uKFtjSF1uMiljKGMyMylbY0hdYyhbQ0gzXSljKFtjSF0zKVtDSDNd

> <s_epik_cmdline>
J2VwaWtfcHl0aG9uJywgJy1waCcsICc3LjAnLCAnLXRuJywgJzgnLCAnLW1hJywgJzIwMCcsICctbWV0YWxfYmluZGluZycsICctaW1hZScsICc8aW5maWxlLm1hZT4nLCAnLW9tYWUnLCAnPG91dGZpbGUubWFlPic=

> <r_lp_tautomer_probability>
1

> <r_epik_Ionization_Penalty>
0.10693

> <r_epik_Ionization_Penalty_Charging>
0

> <r_epik_Ionization_Penalty_Neutral>
0.10693

> <r_epik_State_Penalty>
0.096713

> <r_epik_Charging_Adjusted_Penalty>
0.096713

> <i_epik_Tot_Q>
0

> <i_epik_Tot_abs_Q>
0

> <r_epik_Metal_State_Penalty>
0.102757

> <b_epik_Metal_Only>
0

> <s_lp_Force_Field>
OPLS_2005

> <r_lp_Energy>
24.4016

> <b_lp_Chiralities_Consistent>
1

> <s_lp_Variant>
AV-unprocessed.smi:1644-1

> <Gold.Version>
5.8.1

> <Gold.Id.Protein>
6NUR|6NUR_protein|mol2

> <Gold.PLP.Fitness>
46.7883

> <Gold.PLP.PLP>
-46.4682

> <Gold.PLP.part.hbond>
-3.2477

> <Gold.PLP.part.metal>
0.0000

> <Gold.PLP.part.buried>
-2.2448

> <Gold.PLP.part.nonpolar>
-40.6274

> <Gold.PLP.part.repulsive>
0.2407

> <Gold.PLP.ligand.clash>
0.0000

> <Gold.PLP.ligand.torsion>
1.3947

> <Gold.PLP.Chemscore.Hbond>
1.0000

> <Gold.PLP.Chemscore.CHOScore>
0.0000

> <Gold.PLP.Chemscore.Metal>
0.0000

> <Gold.Chemscore.Hbonds>
donor molecule, donor type, donor heavy atom, donor atom, acceptor molecule, acceptor atom, score
      L1  H    11    38       P1  8028  1.00

> <Gold.PLP.Chemscore.Internal.Correction>
0.1095

> <Gold.Rescore>
     Score         DG    S(hbond)    S(metal)    S(lipo)     H(rot)  DE(clash)    DE(int)     intcor
     12.72     -15.61       1.17        0.00     112.56       2.72       0.02       2.87       ----

> <Gold.Chemscore.Fitness>
12.7160

> <Gold.Chemscore.DG>
-15.6062

> <Gold.Chemscore.ZeroCoef>
-5.4800

> <Gold.Chemscore.Hbond>
1.1746

> <Gold.Chemscore.Metal>
0.0000

> <Gold.Chemscore.Lipo>
112.5576

> <Gold.Chemscore.Internal_Hbond>
0.0000

> <Gold.Chemscore.DEClash>
0.0240

> <Gold.Chemscore.DEInternal>
2.8662

> <Gold.Chemscore.Rot>
2.7212

> <Gold.Chemscore.Internal.Correction>
   9.000000E+99

> <Gold.Chemscore.Hbonds>
donor molecule, donor type, donor heavy atom, donor atom, acceptor molecule, acceptor atom, score
      L1  H    11    38       P1  8028  0.92
      P1  H  8011  8017       L1    11  0.02

> <Gold.Chemscore.Hbond.Weighted>
-3.9233

> <Gold.Chemscore.Metal.Weighted>
-0.0000

> <Gold.Chemscore.Lipo.Weighted>
-13.1692

> <Gold.Chemscore.Internal_Hbond.Weighted>
0.0000

> <Gold.Chemscore.DEClash.Weighted>
0.0240

> <Gold.Chemscore.DEInternal.Weighted>
2.8662

> <Gold.Chemscore.Rot.Weighted>
6.9663

> <Gold.Chemscore.Internal.Correction.Weighted>
   9.000000E+99

> <Gold.Protein.RotatedTorsions>
[ 6907 6896 6895 6894 ] final -115.75 input  -60.11 | X-H torsion
[ 7974 7965 7964 7962 ] final   86.05 input  175.53 | X-H torsion
[ 8008 7997 7996 7995 ] final  -69.53 input   59.86 | X-H torsion
[ 10167 10162 10161 10158 ] final  -18.48 input  -65.29 | X-H torsion
[ 10718 10713 10712 10709 ] final   37.32 input   66.30 | X-H torsion
[ 10763 10752 10751 10750 ] final -156.44 input  -60.55 | X-H torsion
[ 11005 11000 10999 10996 ] final -107.81 input  -57.11 | X-H torsion

> <Gold.Protein.ActiveResidues>
 VAL166  LYS551  ARG553  GLY616  TRP617  ASP618  TYR619  PRO620  LYS621  CYS622 
 ASP623  PHE694  ASN695  SER759  ASP760  ASP761  ALA762  ILE779  LEU786  VAL792 
 PHE793  MET794  SER795  GLU796  ALA797  LYS798  CYS799  TRP800  GLU811  SER814 

> <Gold.Protein.RotatedAtoms>
  150.8002  133.8614  159.3232 H   0  0  0  0  0  0  0  0  0  0  0  0  # atno 6907 bound_to 6896
  151.6429  135.1009  160.0154 H   0  0  0  0  0  0  0  0  0  0  0  0  # atno 6908 bound_to 6896
  152.4088  133.6891  159.6415 H   0  0  0  0  0  0  0  0  0  0  0  0  # atno 6909 bound_to 6896
  145.5774  139.2321  143.2372 H   0  0  0  0  0  0  0  0  0  0  0  0  # atno 7974 bound_to 7965
  154.4946  140.0851  156.7668 H   0  0  0  0  0  0  0  0  0  0  0  0  # atno 8008 bound_to 7997
  155.4148  140.3443  155.4248 H   0  0  0  0  0  0  0  0  0  0  0  0  # atno 8009 bound_to 7997
  156.1376  140.1520  156.8958 H   0  0  0  0  0  0  0  0  0  0  0  0  # atno 8010 bound_to 7997
  140.7259  143.4912  150.9989 H   0  0  0  0  0  0  0  0  0  0  0  0  # atno 10167 bound_to 10162
  157.3455  130.7570  149.6941 H   0  0  0  0  0  0  0  0  0  0  0  0  # atno 10718 bound_to 10713
  154.7713  135.3146  154.8184 H   0  0  0  0  0  0  0  0  0  0  0  0  # atno 10763 bound_to 10752
  153.8919  135.6824  153.4764 H   0  0  0  0  0  0  0  0  0  0  0  0  # atno 10764 bound_to 10752
  153.1327  135.4773  154.9308 H   0  0  0  0  0  0  0  0  0  0  0  0  # atno 10765 bound_to 10752
  141.0934  133.9014  157.2020 H   0  0  0  0  0  0  0  0  0  0  0  0  # atno 11005 bound_to 11000
  146.1741  140.6600  142.9219 LP  0  0  0  0  0  0  0  0  0  0  0  0  # atno 17320 bound_to 7965
  144.7410  140.4940  143.6869 LP  0  0  0  0  0  0  0  0  0  0  0  0  # atno 17321 bound_to 7965
  139.8617  143.7306  152.3173 LP  0  0  0  0  0  0  0  0  0  0  0  0  # atno 17342 bound_to 10162
  139.7524  144.7530  151.0487 LP  0  0  0  0  0  0  0  0  0  0  0  0  # atno 17343 bound_to 10162
  155.9713  130.4155  150.4187 LP  0  0  0  0  0  0  0  0  0  0  0  0  # atno 17370 bound_to 10713
  157.2242  131.0489  151.2529 LP  0  0  0  0  0  0  0  0  0  0  0  0  # atno 17371 bound_to 10713
  139.9765  135.0112  156.9644 LP  0  0  0  0  0  0  0  0  0  0  0  0  # atno 17394 bound_to 11000
  140.5197  134.0920  155.7289 LP  0  0  0  0  0  0  0  0  0  0  0  0  # atno 17395 bound_to 11000

$$$$
