AV-unprocessed.smi:3068|AV-procd|sdf|11704|dock1
  -GOLD-   2272017103D 1   1.00000     0.00000
 Structure written by MMmdl.
 40 42  0  0  0  0  0  0  0  0  2 V2000
  152.4846  137.3009  154.2498 N   0  0  0  0  0  0  0  0  0  0  0  0
  152.0474  138.2838  154.6765 C   0  0  0  0  0  0  0  0  0  0  0  0
  151.4968  139.5222  155.2121 C   0  0  0  0  0  0  0  0  0  0  0  0
  152.1948  140.1185  156.2061 N   0  0  0  0  0  0  0  0  0  0  0  0
  151.6924  141.2643  156.7134 C   0  0  0  0  0  0  0  0  0  0  0  0
  150.4914  141.8202  156.2314 C   0  0  0  0  0  0  0  0  0  0  0  0
  149.7882  141.2327  155.2398 N   0  0  0  0  0  0  0  0  0  0  0  0
  150.2822  140.0803  154.7218 C   0  0  0  0  0  0  0  0  0  0  0  0
  149.5582  139.4570  153.6900 N   0  0  0  0  0  0  0  0  0  0  0  0
  148.8958  138.1780  153.9032 C   0  0  0  0  0  0  0  0  0  0  0  0
  147.3938  138.3614  154.1979 C   0  0  2  0  0  0  0  0  0  0  0  0
  146.6319  137.0270  154.3041 C   0  0  0  0  0  0  0  0  0  0  0  0
  146.4863  136.3808  152.9783 N   0  3  1  0  0  0  0  0  0  0  0  0
  145.7862  135.0738  153.0663 C   0  0  0  0  0  0  0  0  0  0  0  0
  145.7238  134.3828  151.6950 C   0  0  0  0  0  0  0  0  0  0  0  0
  145.0572  135.2933  150.6564 C   0  0  0  0  0  0  0  0  0  0  0  0
  145.7841  136.6434  150.6013 C   0  0  0  0  0  0  0  0  0  0  0  0
  145.8556  137.3017  151.9940 C   0  0  2  0  0  0  0  0  0  0  0  0
  146.6347  138.6296  151.9378 C   0  0  0  0  0  0  0  0  0  0  0  0
  146.7460  139.1974  153.2384 O   0  0  0  0  0  0  0  0  0  0  0  0
  152.2504  141.7385  157.5072 H   0  0  0  0  0  0  0  0  0  0  0  0
  150.0941  142.7365  156.6422 H   0  0  0  0  0  0  0  0  0  0  0  0
  149.5880  139.8403  152.7555 H   0  0  0  0  0  0  0  0  0  0  0  0
  149.0492  137.5297  153.0405 H   0  0  0  0  0  0  0  0  0  0  0  0
  149.3730  137.6847  154.7509 H   0  0  0  0  0  0  0  0  0  0  0  0
  147.3081  138.8670  155.1606 H   0  0  0  0  0  0  0  0  0  0  0  0
  147.1467  136.3548  154.9918 H   0  0  0  0  0  0  0  0  0  0  0  0
  145.6404  137.2064  154.7225 H   0  0  0  0  0  0  0  0  0  0  0  0
  146.3059  134.4285  153.7755 H   0  0  0  0  0  0  0  0  0  0  0  0
  144.7776  135.2247  153.4551 H   0  0  0  0  0  0  0  0  0  0  0  0
  146.7317  134.1251  151.3665 H   0  0  0  0  0  0  0  0  0  0  0  0
  145.1740  133.4447  151.7750 H   0  0  0  0  0  0  0  0  0  0  0  0
  145.0692  134.8181  149.6749 H   0  0  0  0  0  0  0  0  0  0  0  0
  144.0092  135.4474  150.9167 H   0  0  0  0  0  0  0  0  0  0  0  0
  146.7918  136.4955  150.2100 H   0  0  0  0  0  0  0  0  0  0  0  0
  145.2752  137.3055  149.9001 H   0  0  0  0  0  0  0  0  0  0  0  0
  144.8398  137.5137  152.3333 H   0  0  0  0  0  0  0  0  0  0  0  0
  147.6211  138.4918  151.4945 H   0  0  0  0  0  0  0  0  0  0  0  0
  146.1111  139.3415  151.2991 H   0  0  0  0  0  0  0  0  0  0  0  0
  147.4194  136.1895  152.6419 H   0  0  0  0  0  0  0  0  0  0  0  0
  1  2  3  0  0  0  0
  2  3  1  0  0  0  0
  3  8  1  0  0  0  0
  3  4  2  0  0  0  0
  4  5  1  0  0  0  0
  5  6  2  0  0  0  0
  5 21  1  0  0  0  0
  6  7  1  0  0  0  0
  6 22  1  0  0  0  0
  7  8  2  0  0  0  0
  8  9  1  0  0  0  0
  9 10  1  0  0  0  0
  9 23  1  0  0  0  0
 10 11  1  0  0  0  0
 10 24  1  0  0  0  0
 10 25  1  0  0  0  0
 11 20  1  0  0  0  0
 11 12  1  0  0  0  0
 11 26  1  0  0  0  0
 12 13  1  0  0  0  0
 12 27  1  0  0  0  0
 12 28  1  0  0  0  0
 13 18  1  0  0  0  0
 13 14  1  0  0  0  0
 13 40  1  0  0  0  0
 14 15  1  0  0  0  0
 14 29  1  0  0  0  0
 14 30  1  0  0  0  0
 15 16  1  0  0  0  0
 15 31  1  0  0  0  0
 15 32  1  0  0  0  0
 16 17  1  0  0  0  0
 16 33  1  0  0  0  0
 16 34  1  0  0  0  0
 17 18  1  0  0  0  0
 17 35  1  0  0  0  0
 17 36  1  0  0  0  0
 18 19  1  0  0  0  0
 18 37  1  0  0  0  0
 19 20  1  0  0  0  0
 19 38  1  0  0  0  0
 19 39  1  0  0  0  0
M  CHG  1  13   1
M  END
> <s_m_source_file>
AV-unprocessed.smi

> <i_m_source_file_index>
3068

> <i_lp_mmshare_version>
43012

> <i_f3d_flags>
0

> <s_epik_input>
TiNDYzFuW2NIXVtjSF1uYzFbTkhdW0NIMl1bQ0BIXShbQ0gyXTIpT1tDSDJdW0NAQEhdKE4yMylbQ0gyXVtDSDJdW0NIMl1bQ0gyXTM=

> <s_epik_cmdline>
J2VwaWtfcHl0aG9uJywgJy1waCcsICc3LjAnLCAnLXRuJywgJzgnLCAnLW1hJywgJzIwMCcsICctbWV0YWxfYmluZGluZycsICctaW1hZScsICc8aW5maWxlLm1hZT4nLCAnLW9tYWUnLCAnPG91dGZpbGUubWFlPic=

> <r_epik_Ionization_Penalty>
0.0804321

> <r_epik_Ionization_Penalty_Charging>
0.0803403

> <r_epik_Ionization_Penalty_Neutral>
9.17277e-05

> <r_epik_State_Penalty>
0.0711481

> <r_epik_Charging_Adjusted_Penalty>
0.151488

> <i_epik_Tot_Q>
1

> <i_epik_Tot_abs_Q>
1

> <r_epik_Metal_State_Penalty>
0.0711481

> <b_epik_Metal_Only>
0

> <s_lp_Force_Field>
OPLS_2005

> <r_lp_Energy>
40.024

> <b_lp_Chiralities_Consistent>
1

> <s_lp_Variant>
AV-unprocessed.smi:3068-7

> <Gold.Version>
5.8.1

> <Gold.Id.Protein>
6NUR|6NUR_protein|mol2

> <Gold.PLP.Fitness>
44.6039

> <Gold.PLP.PLP>
-30.0331

> <Gold.PLP.part.hbond>
-3.6909

> <Gold.PLP.part.metal>
0.0000

> <Gold.PLP.part.buried>
3.1942

> <Gold.PLP.part.nonpolar>
-30.7517

> <Gold.PLP.part.repulsive>
0.6046

> <Gold.PLP.ligand.clash>
0.0000

> <Gold.PLP.ligand.torsion>
0.8260

> <Gold.PLP.Chemscore.Hbond>
4.4030

> <Gold.PLP.Chemscore.CHOScore>
0.9983

> <Gold.PLP.Chemscore.Metal>
0.0000

> <Gold.Chemscore.Hbonds>
donor molecule, donor type, donor heavy atom, donor atom, acceptor molecule, acceptor atom, score
      L1  H     9    23       P1  7957  1.00
      L1  H    13    40       P1  7948  2.00
      P1  H  7997  8009       L1     4  0.73
      P1  H 10752 10763       L1     1  0.69
      L1  C     6    22       P1  8028  1.00

> <Gold.PLP.Chemscore.Internal.Correction>
0.0191

> <Gold.Rescore>
     Score         DG    S(hbond)    S(metal)    S(lipo)     H(rot)  DE(clash)    DE(int)     intcor
     18.56     -21.18       3.32        0.00      68.12       1.32       1.77       0.84       ----

> <Gold.Chemscore.Fitness>
18.5595

> <Gold.Chemscore.DG>
-21.1753

> <Gold.Chemscore.ZeroCoef>
-5.4800

> <Gold.Chemscore.Hbond>
3.3242

> <Gold.Chemscore.Metal>
0.0000

> <Gold.Chemscore.Lipo>
68.1178

> <Gold.Chemscore.Internal_Hbond>
0.0000

> <Gold.Chemscore.DEClash>
1.7723

> <Gold.Chemscore.DEInternal>
0.8434

> <Gold.Chemscore.Rot>
1.3193

> <Gold.Chemscore.Internal.Correction>
   9.000000E+99

> <Gold.Chemscore.Hbonds>
donor molecule, donor type, donor heavy atom, donor atom, acceptor molecule, acceptor atom, score
      L1  H     9    23       P1  7957  0.99
      L1  H    13    40       P1  7948  1.00
      P1  H  7997  8009       L1     4  0.53
      P1  H 10752 10763       L1     1  0.68

> <Gold.Chemscore.Hbond.Weighted>
-11.1029

> <Gold.Chemscore.Metal.Weighted>
-0.0000

> <Gold.Chemscore.Lipo.Weighted>
-7.9698

> <Gold.Chemscore.Internal_Hbond.Weighted>
0.0000

> <Gold.Chemscore.DEClash.Weighted>
1.7723

> <Gold.Chemscore.DEInternal.Weighted>
0.8434

> <Gold.Chemscore.Rot.Weighted>
3.3774

> <Gold.Chemscore.Internal.Correction.Weighted>
   9.000000E+99

> <Gold.Protein.RotatedTorsions>
[ 6907 6896 6895 6894 ] final    3.50 input  -60.11 | X-H torsion
[ 7974 7965 7964 7962 ] final   45.17 input  175.53 | X-H torsion
[ 8008 7997 7996 7995 ] final -158.76 input   59.86 | X-H torsion
[ 10167 10162 10161 10158 ] final -176.95 input  -65.29 | X-H torsion
[ 10718 10713 10712 10709 ] final -132.33 input   66.30 | X-H torsion
[ 10763 10752 10751 10750 ] final   29.26 input  -60.55 | X-H torsion
[ 11005 11000 10999 10996 ] final  -33.67 input  -57.11 | X-H torsion

> <Gold.Protein.ActiveResidues>
 VAL166  LYS551  ARG553  GLY616  TRP617  ASP618  TYR619  PRO620  LYS621  CYS622 
 ASP623  PHE694  ASN695  SER759  ASP760  ASP761  ALA762  ILE779  LEU786  VAL792 
 PHE793  MET794  SER795  GLU796  ALA797  LYS798  CYS799  TRP800  GLU811  SER814 

> <Gold.Protein.RotatedAtoms>
  151.6261  135.1027  160.0111 H   0  0  0  0  0  0  0  0  0  0  0  0  # atno 6907 bound_to 6896
  152.4131  133.6991  159.6424 H   0  0  0  0  0  0  0  0  0  0  0  0  # atno 6908 bound_to 6896
  150.8021  133.8505  159.3245 H   0  0  0  0  0  0  0  0  0  0  0  0  # atno 6909 bound_to 6896
  146.0503  139.4993  142.9722 H   0  0  0  0  0  0  0  0  0  0  0  0  # atno 7974 bound_to 7965
  155.7524  140.0828  157.2195 H   0  0  0  0  0  0  0  0  0  0  0  0  # atno 8008 bound_to 7997
  154.4011  140.1558  156.2795 H   0  0  0  0  0  0  0  0  0  0  0  0  # atno 8009 bound_to 7997
  155.8918  140.3415  155.5964 H   0  0  0  0  0  0  0  0  0  0  0  0  # atno 8010 bound_to 7997
  139.5504  144.2124  152.1066 H   0  0  0  0  0  0  0  0  0  0  0  0  # atno 10167 bound_to 10162
  156.2335  130.7052  151.0883 H   0  0  0  0  0  0  0  0  0  0  0  0  # atno 10718 bound_to 10713
  153.0441  135.6493  154.0864 H   0  0  0  0  0  0  0  0  0  0  0  0  # atno 10763 bound_to 10752
  154.0565  135.2891  155.3333 H   0  0  0  0  0  0  0  0  0  0  0  0  # atno 10764 bound_to 10752
  154.6686  135.5365  153.8174 H   0  0  0  0  0  0  0  0  0  0  0  0  # atno 10765 bound_to 10752
  140.9653  133.7140  156.1436 H   0  0  0  0  0  0  0  0  0  0  0  0  # atno 11005 bound_to 11000
  145.6735  141.0210  143.1645 LP  0  0  0  0  0  0  0  0  0  0  0  0  # atno 17320 bound_to 7965
  144.7119  139.8338  143.7411 LP  0  0  0  0  0  0  0  0  0  0  0  0  # atno 17321 bound_to 7965
  140.1618  144.5018  150.6628 LP  0  0  0  0  0  0  0  0  0  0  0  0  # atno 17342 bound_to 10162
  140.6765  143.2307  151.5494 LP  0  0  0  0  0  0  0  0  0  0  0  0  # atno 17343 bound_to 10162
  157.7144  131.0718  150.6383 LP  0  0  0  0  0  0  0  0  0  0  0  0  # atno 17370 bound_to 10713
  156.6452  130.4469  149.5738 LP  0  0  0  0  0  0  0  0  0  0  0  0  # atno 17371 bound_to 10713
  140.7408  134.4152  157.5555 LP  0  0  0  0  0  0  0  0  0  0  0  0  # atno 17394 bound_to 11000
  139.8892  134.8835  156.2431 LP  0  0  0  0  0  0  0  0  0  0  0  0  # atno 17395 bound_to 11000

$$$$
