AV-unprocessed.smi:2837|AV-procd|sdf|10925|dock10
  -GOLD-   2272015373D 1   1.00000     0.00000
 Structure written by MMmdl.
 33 35  0  0  0  0  0  0  0  0  2 V2000
  137.6573  137.2721  156.0890 F   0  0  0  0  0  0  0  0  0  0  0  0
  137.1230  137.2023  154.8461 C   0  0  0  0  0  0  0  0  0  0  0  0
  135.7965  137.4588  154.9562 F   0  0  0  0  0  0  0  0  0  0  0  0
  137.7186  138.1199  154.0385 O   0  0  0  0  0  0  0  0  0  0  0  0
  139.0606  138.0007  153.7577 C   0  0  0  0  0  0  0  0  0  0  0  0
  139.6570  136.7275  153.8684 C   0  0  0  0  0  0  0  0  0  0  0  0
  141.0323  136.5693  153.6006 C   0  0  0  0  0  0  0  0  0  0  0  0
  141.8030  137.6975  153.2323 C   0  0  0  0  0  0  0  0  0  0  0  0
  143.1741  137.6642  152.9428 N   0  0  0  0  0  0  0  0  0  0  0  0
  143.9308  136.4188  153.0028 C   0  0  1  0  0  0  0  0  0  0  0  0
  143.6280  135.4771  151.8347 C   0  0  0  0  0  0  0  0  0  0  0  0
  145.0336  135.1890  151.2888 C   0  0  1  0  0  0  0  0  0  0  0  0
  145.5892  136.3849  150.5054 C   0  0  0  0  0  0  0  0  0  0  0  0
  145.8965  137.3746  151.6274 C   0  0  0  0  0  0  0  0  0  0  0  0
  145.4583  136.5886  152.8753 C   0  0  2  0  0  0  0  0  0  0  0  0
  145.8077  135.2751  152.4738 O   0  0  0  0  0  0  0  0  0  0  0  0
  141.1969  138.9023  153.1476 N   0  3  0  0  0  0  0  0  0  0  0  0
  139.8825  139.0944  153.3939 C   0  0  0  0  0  0  0  0  0  0  0  0
  137.2686  136.1866  154.4774 H   0  0  0  0  0  0  0  0  0  0  0  0
  139.0607  135.8734  154.1545 H   0  0  0  0  0  0  0  0  0  0  0  0
  141.4711  135.5863  153.6820 H   0  0  0  0  0  0  0  0  0  0  0  0
  143.6870  138.5310  152.8711 H   0  0  0  0  0  0  0  0  0  0  0  0
  143.6950  135.8965  153.9308 H   0  0  0  0  0  0  0  0  0  0  0  0
  143.1576  134.5632  152.1993 H   0  0  0  0  0  0  0  0  0  0  0  0
  142.9769  135.9109  151.0742 H   0  0  0  0  0  0  0  0  0  0  0  0
  145.1184  134.2380  150.7625 H   0  0  0  0  0  0  0  0  0  0  0  0
  146.5029  136.1122  149.9758 H   0  0  0  0  0  0  0  0  0  0  0  0
  144.8759  136.7747  149.7784 H   0  0  0  0  0  0  0  0  0  0  0  0
  146.9663  137.5825  151.6635 H   0  0  0  0  0  0  0  0  0  0  0  0
  145.3749  138.3249  151.5127 H   0  0  0  0  0  0  0  0  0  0  0  0
  145.9486  136.9141  153.7928 H   0  0  0  0  0  0  0  0  0  0  0  0
  139.5397  140.1143  153.2963 H   0  0  0  0  0  0  0  0  0  0  0  0
  141.7601  139.7121  152.8867 H   0  0  0  0  0  0  0  0  0  0  0  0
  1  2  1  0  0  0  0
  2  3  1  0  0  0  0
  2  4  1  0  0  0  0
  2 19  1  0  0  0  0
  4  5  1  0  0  0  0
  5 18  1  0  0  0  0
  5  6  2  0  0  0  0
  6  7  1  0  0  0  0
  6 20  1  0  0  0  0
  7  8  2  0  0  0  0
  7 21  1  0  0  0  0
  8  9  1  0  0  0  0
  8 17  1  0  0  0  0
  9 10  1  0  0  0  0
  9 22  1  0  0  0  0
 10 15  1  0  0  0  0
 10 11  1  0  0  0  0
 10 23  1  0  0  0  0
 11 12  1  0  0  0  0
 11 24  1  0  0  0  0
 11 25  1  0  0  0  0
 12 16  1  0  0  0  0
 12 13  1  0  0  0  0
 12 26  1  0  0  0  0
 13 14  1  0  0  0  0
 13 27  1  0  0  0  0
 13 28  1  0  0  0  0
 14 15  1  0  0  0  0
 14 29  1  0  0  0  0
 14 30  1  0  0  0  0
 15 16  1  0  0  0  0
 15 31  1  0  0  0  0
 17 18  2  0  0  0  0
 17 33  1  0  0  0  0
 18 32  1  0  0  0  0
M  CHG  1  17   1
M  END
> <s_m_source_file>
AV-unprocessed.smi

> <i_m_source_file_index>
2837

> <i_lp_mmshare_version>
43012

> <i_f3d_flags>
0

> <s_epik_input>
RltDSF0oRilPYzFbY0hdW2NIXWMobltjSF0xKVtOSF1bQ0BIXShbQ0gyXVtDQEBIXTIzKVtDQEBIXShPMylbQ0gyXVtDSDJdMg==

> <s_epik_cmdline>
J2VwaWtfcHl0aG9uJywgJy1waCcsICc3LjAnLCAnLXRuJywgJzgnLCAnLW1hJywgJzIwMCcsICctbWV0YWxfYmluZGluZycsICctaW1hZScsICc8aW5maWxlLm1hZT4nLCAnLW9tYWUnLCAnPG91dGZpbGUubWFlPic=

> <r_lp_tautomer_probability>
0.999429

> <r_epik_Ionization_Penalty>
2.29716

> <r_epik_Ionization_Penalty_Charging>
2.29716

> <r_epik_Ionization_Penalty_Neutral>
1.42285e-06

> <r_epik_State_Penalty>
2.44762

> <r_epik_Charging_Adjusted_Penalty>
4.74478

> <i_epik_Tot_Q>
1

> <i_epik_Tot_abs_Q>
1

> <r_epik_Metal_State_Penalty>
6.53078

> <b_epik_Metal_Only>
0

> <s_lp_Force_Field>
OPLS_2005

> <r_lp_Energy>
46.8356

> <b_lp_Chiralities_Consistent>
1

> <s_lp_Variant>
AV-unprocessed.smi:2837-6

> <Gold.Version>
5.8.1

> <Gold.Id.Protein>
6NUR|6NUR_protein|mol2

> <Gold.PLP.Fitness>
43.0813

> <Gold.PLP.PLP>
-32.4836

> <Gold.PLP.part.hbond>
-3.0465

> <Gold.PLP.part.metal>
0.0000

> <Gold.PLP.part.buried>
-0.2452

> <Gold.PLP.part.nonpolar>
-29.7665

> <Gold.PLP.part.repulsive>
0.2015

> <Gold.PLP.ligand.clash>
0.0000

> <Gold.PLP.ligand.torsion>
0.4671

> <Gold.PLP.Chemscore.Hbond>
3.8400

> <Gold.PLP.Chemscore.CHOScore>
0.0000

> <Gold.PLP.Chemscore.Metal>
0.0000

> <Gold.Chemscore.Hbonds>
donor molecule, donor type, donor heavy atom, donor atom, acceptor molecule, acceptor atom, score
      L1  H     9    22       P1 10175  1.89
      L1  H    17    33       P1 10175  1.95

> <Gold.PLP.Chemscore.Internal.Correction>
0.0119

> <Gold.Rescore>
     Score         DG    S(hbond)    S(metal)    S(lipo)     H(rot)  DE(clash)    DE(int)     intcor
     13.04     -14.30       1.32        0.00      66.87       1.34       0.75       0.51       ----

> <Gold.Chemscore.Fitness>
13.0434

> <Gold.Chemscore.DG>
-14.3021

> <Gold.Chemscore.ZeroCoef>
-5.4800

> <Gold.Chemscore.Hbond>
1.3237

> <Gold.Chemscore.Metal>
0.0000

> <Gold.Chemscore.Lipo>
66.8657

> <Gold.Chemscore.Internal_Hbond>
0.0000

> <Gold.Chemscore.DEClash>
0.7476

> <Gold.Chemscore.DEInternal>
0.5110

> <Gold.Chemscore.Rot>
1.3368

> <Gold.Chemscore.Internal.Correction>
   9.000000E+99

> <Gold.Chemscore.Hbonds>
donor molecule, donor type, donor heavy atom, donor atom, acceptor molecule, acceptor atom, score
      L1  H     9    22       P1 10175  0.90
      L1  H    17    33       P1 10175  0.31

> <Gold.Chemscore.Hbond.Weighted>
-4.4211

> <Gold.Chemscore.Metal.Weighted>
-0.0000

> <Gold.Chemscore.Lipo.Weighted>
-7.8233

> <Gold.Chemscore.Internal_Hbond.Weighted>
0.0000

> <Gold.Chemscore.DEClash.Weighted>
0.7476

> <Gold.Chemscore.DEInternal.Weighted>
0.5110

> <Gold.Chemscore.Rot.Weighted>
3.4223

> <Gold.Chemscore.Internal.Correction.Weighted>
   9.000000E+99

> <Gold.Protein.RotatedTorsions>
[ 6907 6896 6895 6894 ] final  -56.71 input  -60.11 | X-H torsion
[ 7974 7965 7964 7962 ] final  -57.66 input  175.53 | X-H torsion
[ 8008 7997 7996 7995 ] final  -45.23 input   59.86 | X-H torsion
[ 10167 10162 10161 10158 ] final  -72.33 input  -65.29 | X-H torsion
[ 10718 10713 10712 10709 ] final  131.16 input   66.30 | X-H torsion
[ 10763 10752 10751 10750 ] final   74.16 input  -60.55 | X-H torsion
[ 11005 11000 10999 10996 ] final  179.78 input  -57.11 | X-H torsion

> <Gold.Protein.ActiveResidues>
 VAL166  LYS551  ARG553  GLY616  TRP617  ASP618  TYR619  PRO620  LYS621  CYS622 
 ASP623  PHE694  ASN695  SER759  ASP760  ASP761  ALA762  ILE779  LEU786  VAL792 
 PHE793  MET794  SER795  GLU796  ALA797  LYS798  CYS799  TRP800  GLU811  SER814 

> <Gold.Protein.RotatedAtoms>
  150.8145  134.7320  159.6717 H   0  0  0  0  0  0  0  0  0  0  0  0  # atno 6907 bound_to 6896
  152.4265  134.5856  159.9970 H   0  0  0  0  0  0  0  0  0  0  0  0  # atno 6908 bound_to 6896
  151.6056  133.3315  159.3092 H   0  0  0  0  0  0  0  0  0  0  0  0  # atno 6909 bound_to 6896
  145.8485  140.8369  142.9998 H   0  0  0  0  0  0  0  0  0  0  0  0  # atno 7974 bound_to 7965
  154.4000  140.1402  156.3813 H   0  0  0  0  0  0  0  0  0  0  0  0  # atno 8008 bound_to 7997
  155.8001  140.3476  155.5377 H   0  0  0  0  0  0  0  0  0  0  0  0  # atno 8009 bound_to 7997
  155.8492  140.0939  157.1676 H   0  0  0  0  0  0  0  0  0  0  0  0  # atno 8010 bound_to 7997
  140.5200  143.2333  151.7446 H   0  0  0  0  0  0  0  0  0  0  0  0  # atno 10167 bound_to 10162
  157.4993  131.1093  150.9449 H   0  0  0  0  0  0  0  0  0  0  0  0  # atno 10718 bound_to 10713
  153.0569  135.5036  154.8001 H   0  0  0  0  0  0  0  0  0  0  0  0  # atno 10763 bound_to 10752
  154.6821  135.2970  154.9601 H   0  0  0  0  0  0  0  0  0  0  0  0  # atno 10764 bound_to 10752
  154.0384  135.6720  153.4840 H   0  0  0  0  0  0  0  0  0  0  0  0  # atno 10765 bound_to 10752
  140.4100  134.6700  157.4609 H   0  0  0  0  0  0  0  0  0  0  0  0  # atno 11005 bound_to 11000
  144.6730  140.0918  143.7465 LP  0  0  0  0  0  0  0  0  0  0  0  0  # atno 17320 bound_to 7965
  145.9385  139.2653  143.1283 LP  0  0  0  0  0  0  0  0  0  0  0  0  # atno 17321 bound_to 7965
  139.4921  144.4268  151.9917 LP  0  0  0  0  0  0  0  0  0  0  0  0  # atno 17342 bound_to 10162
  140.3364  144.3256  150.5976 LP  0  0  0  0  0  0  0  0  0  0  0  0  # atno 17343 bound_to 10162
  157.0125  130.5642  149.5322 LP  0  0  0  0  0  0  0  0  0  0  0  0  # atno 17370 bound_to 10713
  156.0219  130.5314  150.8301 LP  0  0  0  0  0  0  0  0  0  0  0  0  # atno 17371 bound_to 10713
  140.0274  134.6456  155.9153 LP  0  0  0  0  0  0  0  0  0  0  0  0  # atno 17394 bound_to 11000
  141.1825  133.6549  156.5077 LP  0  0  0  0  0  0  0  0  0  0  0  0  # atno 17395 bound_to 11000

$$$$
