AV-unprocessed.smi:2727|AV-procd|sdf|10522|dock10
  -GOLD-   2272014563D 1   1.00000     0.00000
 Structure written by MMmdl.
 40 41  0  0  0  0  0  0  0  0  1 V2000
  149.7975  140.8823  153.6099 O   0  0  0  0  0  0  0  0  0  0  0  0
  148.8697  141.0207  154.4139 C   0  0  0  0  0  0  0  0  0  0  0  0
  149.0875  141.0299  155.7379 N   0  0  0  0  0  0  0  0  0  0  0  0
  150.3908  140.8939  156.3800 C   0  0  0  0  0  0  0  0  0  0  0  0
  150.7839  142.1755  157.1429 C   0  0  0  0  0  0  0  0  0  0  0  0
  151.6463  141.9122  158.3906 C   0  0  0  0  0  0  0  0  0  0  0  0
  151.5062  140.8513  159.0022 O   0  0  0  0  0  0  0  0  0  0  0  0
  152.5312  142.8583  158.7913 N   0  0  0  0  0  0  0  0  0  0  0  0
  153.3212  142.6977  160.0180 C   0  0  0  0  0  0  0  0  0  0  0  0
  152.5285  143.1097  161.2755 C   0  0  0  0  0  0  0  0  0  0  0  0
  151.5526  144.2943  161.1009 C   0  0  0  0  0  0  0  0  0  0  0  0
  152.0803  145.4640  160.2467 C   0  0  0  0  0  0  0  0  0  0  0  0
  151.8866  145.2612  158.7286 C   0  0  0  0  0  0  0  0  0  0  0  0
  152.7530  144.1449  158.1157 C   0  0  0  0  0  0  0  0  0  0  0  0
  147.5177  141.1910  154.1533 N   0  0  0  0  0  0  0  0  0  0  0  0
  146.6585  140.3504  154.6414 C   0  0  0  0  0  0  0  0  0  0  0  0
  145.2813  140.3627  154.4860 N   0  0  0  0  0  0  0  0  0  0  0  0
  144.7670  139.2906  155.1615 C   0  0  0  0  0  0  0  0  0  0  0  0
  145.7767  138.6309  155.7213 C   0  0  0  0  0  0  0  0  0  0  0  0
  146.9498  139.2550  155.4216 O   0  0  0  0  0  0  0  0  0  0  0  0
  148.2898  141.1487  156.3459 H   0  0  0  0  0  0  0  0  0  0  0  0
  150.3831  140.0298  157.0471 H   0  0  0  0  0  0  0  0  0  0  0  0
  151.1256  140.6797  155.6034 H   0  0  0  0  0  0  0  0  0  0  0  0
  151.3260  142.8446  156.4738 H   0  0  0  0  0  0  0  0  0  0  0  0
  149.8768  142.6955  157.4497 H   0  0  0  0  0  0  0  0  0  0  0  0
  153.6789  141.6719  160.1212 H   0  0  0  0  0  0  0  0  0  0  0  0
  154.2292  143.2990  159.9651 H   0  0  0  0  0  0  0  0  0  0  0  0
  151.9595  142.2522  161.6360 H   0  0  0  0  0  0  0  0  0  0  0  0
  153.2400  143.3422  162.0684 H   0  0  0  0  0  0  0  0  0  0  0  0
  150.6131  143.9363  160.6773 H   0  0  0  0  0  0  0  0  0  0  0  0
  151.2968  144.6668  162.0932 H   0  0  0  0  0  0  0  0  0  0  0  0
  151.5313  146.3626  160.5307 H   0  0  0  0  0  0  0  0  0  0  0  0
  153.1257  145.6687  160.4806 H   0  0  0  0  0  0  0  0  0  0  0  0
  150.8334  145.0704  158.5218 H   0  0  0  0  0  0  0  0  0  0  0  0
  152.1214  146.1960  158.2188 H   0  0  0  0  0  0  0  0  0  0  0  0
  153.8041  144.4286  158.1787 H   0  0  0  0  0  0  0  0  0  0  0  0
  152.5619  144.0740  157.0453 H   0  0  0  0  0  0  0  0  0  0  0  0
  144.7154  141.0204  153.9693 H   0  0  0  0  0  0  0  0  0  0  0  0
  143.7026  139.1085  155.1689 H   0  0  0  0  0  0  0  0  0  0  0  0
  145.8238  137.7417  156.3323 H   0  0  0  0  0  0  0  0  0  0  0  0
  1  2  2  0  0  0  0
  2 15  1  0  0  0  0
  2  3  1  0  0  0  0
  3  4  1  0  0  0  0
  3 21  1  0  0  0  0
  4  5  1  0  0  0  0
  4 22  1  0  0  0  0
  4 23  1  0  0  0  0
  5  6  1  0  0  0  0
  5 24  1  0  0  0  0
  5 25  1  0  0  0  0
  6  7  2  0  0  0  0
  6  8  1  0  0  0  0
  8 14  1  0  0  0  0
  8  9  1  0  0  0  0
  9 10  1  0  0  0  0
  9 26  1  0  0  0  0
  9 27  1  0  0  0  0
 10 11  1  0  0  0  0
 10 28  1  0  0  0  0
 10 29  1  0  0  0  0
 11 12  1  0  0  0  0
 11 30  1  0  0  0  0
 11 31  1  0  0  0  0
 12 13  1  0  0  0  0
 12 32  1  0  0  0  0
 12 33  1  0  0  0  0
 13 14  1  0  0  0  0
 13 34  1  0  0  0  0
 13 35  1  0  0  0  0
 14 36  1  0  0  0  0
 14 37  1  0  0  0  0
 15 16  2  0  0  0  0
 16 20  1  0  0  0  0
 16 17  1  0  0  0  0
 17 38  1  0  0  0  0
 17 18  1  0  0  0  0
 18 39  1  0  0  0  0
 18 19  2  0  0  0  0
 19 40  1  0  0  0  0
 19 20  1  0  0  0  0
M  END
> <s_m_source_file>
AV-unprocessed.smi

> <i_m_source_file_index>
2727

> <i_lp_mmshare_version>
43012

> <i_f3d_flags>
0

> <s_epik_input>
bzFbY0hdW2NIXW5jMVtOSF1DKD1PKVtOSF1bQ0gyXVtDSDJdQyg9TylOMltDSDJdW0NIMl1bQ0gyXVtDSDJdW0NIMl1bQ0gyXTI=

> <s_epik_cmdline>
J2VwaWtfcHl0aG9uJywgJy1waCcsICc3LjAnLCAnLXRuJywgJzgnLCAnLW1hJywgJzIwMCcsICctbWV0YWxfYmluZGluZycsICctaW1hZScsICc8aW5maWxlLm1hZT4nLCAnLW9tYWUnLCAnPG91dGZpbGUubWFlPic=

> <r_lp_tautomer_probability>
0.107061

> <r_epik_Ionization_Penalty>
0.376272

> <r_epik_Ionization_Penalty_Charging>
0.375918

> <r_epik_Ionization_Penalty_Neutral>
0.000353756

> <r_epik_State_Penalty>
2.48665

> <r_epik_Charging_Adjusted_Penalty>
2.86256

> <i_epik_Tot_Q>
0

> <i_epik_Tot_abs_Q>
0

> <r_epik_Metal_State_Penalty>
4.1171

> <b_epik_Metal_Only>
0

> <s_lp_Force_Field>
OPLS_2005

> <r_lp_Energy>
48.3689

> <b_lp_Chiralities_Consistent>
1

> <s_lp_Variant>
AV-unprocessed.smi:2727-2

> <Gold.Version>
5.8.1

> <Gold.Id.Protein>
6NUR|6NUR_protein|mol2

> <Gold.PLP.Fitness>
42.2517

> <Gold.PLP.PLP>
-38.7140

> <Gold.PLP.part.hbond>
-2.9554

> <Gold.PLP.part.metal>
0.0000

> <Gold.PLP.part.buried>
-5.2628

> <Gold.PLP.part.nonpolar>
-34.3495

> <Gold.PLP.part.repulsive>
3.4268

> <Gold.PLP.ligand.clash>
0.0000

> <Gold.PLP.ligand.torsion>
1.1324

> <Gold.PLP.Chemscore.Hbond>
1.9280

> <Gold.PLP.Chemscore.CHOScore>
0.0000

> <Gold.PLP.Chemscore.Metal>
0.0000

> <Gold.Chemscore.Hbonds>
donor molecule, donor type, donor heavy atom, donor atom, acceptor molecule, acceptor atom, score
      L1  H    17    38       P1 10175  0.45
      P1  H  7989  7998       L1     1  0.35
      P1  H  8011  8017       L1     1  1.00

> <Gold.PLP.Chemscore.Internal.Correction>
0.0186

> <Gold.Rescore>
     Score         DG    S(hbond)    S(metal)    S(lipo)     H(rot)  DE(clash)    DE(int)     intcor
     14.48     -18.66       2.18        0.00      87.71       1.70       1.64       2.53       ----

> <Gold.Chemscore.Fitness>
14.4802

> <Gold.Chemscore.DG>
-18.6553

> <Gold.Chemscore.ZeroCoef>
-5.4800

> <Gold.Chemscore.Hbond>
2.1773

> <Gold.Chemscore.Metal>
0.0000

> <Gold.Chemscore.Lipo>
87.7053

> <Gold.Chemscore.Internal_Hbond>
0.0000

> <Gold.Chemscore.DEClash>
1.6406

> <Gold.Chemscore.DEInternal>
2.5345

> <Gold.Chemscore.Rot>
1.7025

> <Gold.Chemscore.Internal.Correction>
   9.000000E+99

> <Gold.Chemscore.Hbonds>
donor molecule, donor type, donor heavy atom, donor atom, acceptor molecule, acceptor atom, score
      L1  H    17    38       P1 10175  0.38
      P1  H  7989  7998       L1     1  0.36
      P1  H  8011  8017       L1     1  0.69

> <Gold.Chemscore.Hbond.Weighted>
-7.2721

> <Gold.Chemscore.Metal.Weighted>
-0.0000

> <Gold.Chemscore.Lipo.Weighted>
-10.2615

> <Gold.Chemscore.Internal_Hbond.Weighted>
0.0000

> <Gold.Chemscore.DEClash.Weighted>
1.6406

> <Gold.Chemscore.DEInternal.Weighted>
2.5345

> <Gold.Chemscore.Rot.Weighted>
4.3584

> <Gold.Chemscore.Internal.Correction.Weighted>
   9.000000E+99

> <Gold.Protein.RotatedTorsions>
[ 6907 6896 6895 6894 ] final  139.32 input  -60.11 | X-H torsion
[ 7974 7965 7964 7962 ] final  -99.12 input  175.53 | X-H torsion
[ 8008 7997 7996 7995 ] final  -12.50 input   59.86 | X-H torsion
[ 10167 10162 10161 10158 ] final -167.17 input  -65.29 | X-H torsion
[ 10718 10713 10712 10709 ] final  -25.49 input   66.30 | X-H torsion
[ 10763 10752 10751 10750 ] final  110.39 input  -60.55 | X-H torsion
[ 11005 11000 10999 10996 ] final  -15.52 input  -57.11 | X-H torsion

> <Gold.Protein.ActiveResidues>
 VAL166  LYS551  ARG553  GLY616  TRP617  ASP618  TYR619  PRO620  LYS621  CYS622 
 ASP623  PHE694  ASN695  SER759  ASP760  ASP761  ALA762  ILE779  LEU786  VAL792 
 PHE793  MET794  SER795  GLU796  ALA797  LYS798  CYS799  TRP800  GLU811  SER814 

> <Gold.Protein.RotatedAtoms>
  152.2563  133.5258  159.5354 H   0  0  0  0  0  0  0  0  0  0  0  0  # atno 6907 bound_to 6896
  150.7110  134.0892  159.3934 H   0  0  0  0  0  0  0  0  0  0  0  0  # atno 6908 bound_to 6896
  151.8810  135.0453  160.0539 H   0  0  0  0  0  0  0  0  0  0  0  0  # atno 6909 bound_to 6896
  145.3117  140.9402  143.2765 H   0  0  0  0  0  0  0  0  0  0  0  0  # atno 7974 bound_to 7965
  154.5372  140.2274  155.8702 H   0  0  0  0  0  0  0  0  0  0  0  0  # atno 8008 bound_to 7997
  156.1823  140.3097  155.9135 H   0  0  0  0  0  0  0  0  0  0  0  0  # atno 8009 bound_to 7997
  155.3330  140.0446  157.3033 H   0  0  0  0  0  0  0  0  0  0  0  0  # atno 8010 bound_to 7997
  139.6067  144.0899  152.1800 H   0  0  0  0  0  0  0  0  0  0  0  0  # atno 10167 bound_to 10162
  156.4636  130.4509  149.6913 H   0  0  0  0  0  0  0  0  0  0  0  0  # atno 10718 bound_to 10713
  153.4483  135.3750  155.2269 H   0  0  0  0  0  0  0  0  0  0  0  0  # atno 10763 bound_to 10752
  154.8756  135.3879  154.4069 H   0  0  0  0  0  0  0  0  0  0  0  0  # atno 10764 bound_to 10752
  153.4625  135.7087  153.6106 H   0  0  0  0  0  0  0  0  0  0  0  0  # atno 10765 bound_to 10752
  140.7975  133.8240  155.9438 H   0  0  0  0  0  0  0  0  0  0  0  0  # atno 11005 bound_to 11000
  144.9010  139.4649  143.6632 LP  0  0  0  0  0  0  0  0  0  0  0  0  # atno 17320 bound_to 7965
  146.3115  139.7764  142.9016 LP  0  0  0  0  0  0  0  0  0  0  0  0  # atno 17321 bound_to 7965
  140.0508  144.5934  150.7338 LP  0  0  0  0  0  0  0  0  0  0  0  0  # atno 17342 bound_to 10162
  140.7290  143.2667  151.4020 LP  0  0  0  0  0  0  0  0  0  0  0  0  # atno 17343 bound_to 10162
  156.3690  130.7521  151.2502 LP  0  0  0  0  0  0  0  0  0  0  0  0  # atno 17370 bound_to 10713
  157.7496  131.0328  150.4244 LP  0  0  0  0  0  0  0  0  0  0  0  0  # atno 17371 bound_to 10713
  140.9328  134.2000  157.4852 LP  0  0  0  0  0  0  0  0  0  0  0  0  # atno 17394 bound_to 11000
  139.8725  134.9840  156.5221 LP  0  0  0  0  0  0  0  0  0  0  0  0  # atno 17395 bound_to 11000

$$$$
