#       Name:                AV-unprocessed.smi:198
#       Creating user name   scv26
#       Creation time:       Thu Mar 26 19:42:57 2020


#       File generated by GOLD software.
#

@<TRIPOS>MOLECULE
AV-unprocessed.smi:198
    67    71     1
SMALL
NO_CHARGES


@<TRIPOS>ATOM
      1 ****        -5.4520   2.4300   2.0699 C.3            1 S1                 0.0000
      2 ****        -4.6566   1.2235   1.7558 N.4            1 S1                 1.0000
      3 ****        -3.1981   1.4883   1.7838 C.3            1 S1                 0.0000
      4 ****        -2.4036   0.1885   1.5807 C.3            1 S1                 0.0000
      5 ****        -2.7851  -0.5250   0.2616 C.3            1 S1                 0.0000
      6 ****        -4.3188  -0.7400   0.2372 C.3            1 S1                 0.0000
      7 ****        -4.7525  -1.4347  -1.0689 C.3            1 S1                 0.0000
      8 ****        -4.2266  -0.6879  -2.3042 C.3            1 S1                 0.0000
      9 ****        -2.7091  -0.4760  -2.2078 C.3            1 S1                 0.0000
     10 ****        -2.3420   0.1781  -0.9527 N.3            1 S1                 0.0000
     11 ****        -1.0491   0.5708  -0.9771 C.ar           1 S1                 0.0000
     12 ****        -0.8108   1.8938  -1.1483 N.ar           1 S1                 0.0000
     13 ****         0.4471   2.3440  -1.1882 C.ar           1 S1                 0.0000
     14 ****         1.5848   1.6545  -1.0789 N.ar           1 S1                 0.0000
     15 ****         1.3464   0.3223  -0.9063 C.ar           1 S1                 0.0000
     16 ****         0.0684  -0.3012  -0.8478 C.ar           1 S1                 0.0000
     17 ****         0.2156  -1.6724  -0.6809 N.2            1 S1                 0.0000
     18 ****         1.5082  -1.8509  -0.6515 C.2            1 S1                 0.0000
     19 ****         2.2631  -0.7035  -0.7523 N.pl3          1 S1                 0.0000
     20 ****         3.6944  -0.6228  -0.7968 C.3            1 S1                 0.0000
     21 ****         4.5649  -1.6036  -0.0053 C.3            1 S1                 0.0000
     22 ****         5.5866  -0.4825   0.2863 C.3            1 S1                 0.0000
     23 ****         6.0562  -0.3910   1.7466 C.3            1 S1                 0.0000
     24 ****         6.7668  -1.5496   2.1341 O.3            1 S1                 0.0000
     25 ****         6.8505  -0.4315  -0.6008 C.3            1 S1                 0.0000
     26 ****         6.5660  -0.4656  -1.9847 O.3            1 S1                 0.0000
     27 ****         4.4515   0.5000  -0.0807 C.3            1 S1                 0.0000
     28 ****        -5.0803   0.5831   0.4865 C.3            1 S1                 0.0000
     29 ****        -5.2997   3.2058   1.3183 H              1 S1                 0.0000
     30 ****        -5.1696   2.8356   3.0421 H              1 S1                 0.0000
     31 ****        -6.5156   2.1921   2.1063 H              1 S1                 0.0000
     32 ****        -2.9392   2.2166   1.0137 H              1 S1                 0.0000
     33 ****        -2.9272   1.9319   2.7427 H              1 S1                 0.0000
     34 ****        -1.3333   0.3887   1.6352 H              1 S1                 0.0000
     35 ****        -2.6125  -0.4827   2.4147 H              1 S1                 0.0000
     36 ****        -2.3092  -1.5064   0.2589 H              1 S1                 0.0000
     37 ****        -4.5737  -1.4127   1.0577 H              1 S1                 0.0000
     38 ****        -4.3625  -2.4534  -1.0786 H              1 S1                 0.0000
     39 ****        -5.8383  -1.5236  -1.1144 H              1 S1                 0.0000
     40 ****        -4.4653  -1.2496  -3.2076 H              1 S1                 0.0000
     41 ****        -4.7277   0.2751  -2.4044 H              1 S1                 0.0000
     42 ****        -2.2004  -1.4387  -2.2753 H              1 S1                 0.0000
     43 ****        -2.3698   0.1217  -3.0552 H              1 S1                 0.0000
     44 ****         0.5588   3.4093  -1.3273 H              1 S1                 0.0000
     45 ****         1.9489  -2.8323  -0.5518 H              1 S1                 0.0000
     46 ****         3.9565  -0.6462  -1.8552 H              1 S1                 0.0000
     47 ****         4.0694  -1.9649   0.8975 H              1 S1                 0.0000
     48 ****         4.9539  -2.4349  -0.5938 H              1 S1                 0.0000
     49 ****         6.6890   0.4830   1.9051 H              1 S1                 0.0000
     50 ****         5.2076  -0.2824   2.4225 H              1 S1                 0.0000
     51 ****         7.0145  -1.4611   3.0418 H              1 S1                 0.0000
     52 ****         7.4230   0.4754  -0.4034 H              1 S1                 0.0000
     53 ****         7.5129  -1.2706  -0.3857 H              1 S1                 0.0000
     54 ****         7.3822  -0.4347  -2.4602 H              1 S1                 0.0000
     55 ****         4.7495   1.3240  -0.7302 H              1 S1                 0.0000
     56 ****         3.9097   0.8715   0.7906 H              1 S1                 0.0000
     57 ****        -6.1521   0.3838   0.5266 H              1 S1                 0.0000
     58 ****        -4.9213   1.2859  -0.3323 H              1 S1                 0.0000
     59 ****        -4.8434   0.5572   2.4917 H              1 S1                 0.0000
     60 ****        -2.8783   1.0194  -0.8848 LP             1 S1                 0.0000
     61 ****        -1.5746   2.5320  -1.2446 LP             1 S1                 0.0000
     62 ****         2.4967   2.0628  -1.1185 LP             1 S1                 0.0000
     63 ****        -0.5030  -2.3633  -0.6016 LP             1 S1                 0.0000
     64 ****         7.5861  -1.6473   1.5691 LP             1 S1                 0.0000
     65 ****         6.1855  -2.3554   2.0204 LP             1 S1                 0.0000
     66 ****         6.0015   0.3218  -2.2323 LP             1 S1                 0.0000
     67 ****         6.0776  -1.3092  -2.2078 LP             1 S1                 0.0000
@<TRIPOS>BOND
    1    1    2 1     
    2    1   29 1     
    3    1   30 1     
    4    1   31 1     
    5    2   28 1     
    6    2    3 1     
    7    2   59 1     
    8    3    4 1     
    9    3   32 1     
   10    3   33 1     
   11    4    5 1     
   12    4   34 1     
   13    4   35 1     
   14    5   10 1     
   15    5    6 1     
   16    5   36 1     
   17    6    7 1     
   18    6   28 1     
   19    6   37 1     
   20    7    8 1     
   21    7   38 1     
   22    7   39 1     
   23    8    9 1     
   24    8   40 1     
   25    8   41 1     
   26    9   10 1     
   27    9   42 1     
   28    9   43 1     
   29   10   11 1     
   30   11   16 ar    
   31   11   12 ar    
   32   12   13 ar    
   33   13   14 ar    
   34   13   44 1     
   35   14   15 ar    
   36   15   19 1     
   37   15   16 ar    
   38   16   17 1     
   39   17   18 2     
   40   18   19 1     
   41   18   45 1     
   42   19   20 1     
   43   20   27 1     
   44   20   21 1     
   45   20   46 1     
   46   21   22 1     
   47   21   47 1     
   48   21   48 1     
   49   22   23 1     
   50   22   25 1     
   51   22   27 1     
   52   23   24 1     
   53   23   49 1     
   54   23   50 1     
   55   24   51 1     
   56   25   26 1     
   57   25   52 1     
   58   25   53 1     
   59   26   54 1     
   60   27   55 1     
   61   27   56 1     
   62   28   57 1     
   63   28   58 1     
   64   10   60 1     
   65   12   61 1     
   66   14   62 1     
   67   17   63 1     
   68   24   64 1     
   69   24   65 1     
   70   26   66 1     
   71   26   67 1     
@<TRIPOS>SUBSTRUCTURE
      1 S1             1
@<TRIPOS>SET
LONE_PAIRS      STATIC     ATOMS    <user>   **** ""
8 60 61 62 63 64 65 66 67
DONOR_HYDROGENS      STATIC     ATOMS    <user>   **** ""
3 59 51 54
ATOM$BLUE        STATIC     ATOMS    COLORGROUP SYSTEM
8 60 61 62 63 64 65 66 67
ATOM$RED        STATIC     ATOMS    COLORGROUP SYSTEM
3 59 51 54
