#       Name:                AV-unprocessed.smi:196
#       Creating user name   scv26
#       Creation time:       Thu Mar 26 19:40:00 2020


#       File generated by GOLD software.
#

@<TRIPOS>MOLECULE
AV-unprocessed.smi:196
    56    59     1
SMALL
NO_CHARGES


@<TRIPOS>ATOM
      1 ****        -3.2478  -1.2482  -0.5663 C.3            1 S1                 0.0000
      2 ****        -2.6036  -1.8032  -1.8473 C.3            1 S1                 0.0000
      3 ****        -3.4021  -2.8384  -2.4022 O.3            1 S1                 0.0000
      4 ****        -2.9723  -3.0203  -3.7391 C.3            1 S1                 0.0000
      5 ****        -2.8335  -1.5895  -4.2448 C.3            1 S1                 0.0000
      6 ****        -2.3720  -0.8046  -3.0128 C.3            1 S1                 0.0000
      7 ****        -3.1925   0.3460  -2.8915 O.3            1 S1                 0.0000
      8 ****        -0.8999  -0.3393  -3.1367 C.3            1 S1                 0.0000
      9 ****        -0.3881   0.2963  -1.9317 N.pl3          1 S1                 0.0000
     10 ****        -0.6015   1.5952  -1.5302 C.2            1 S1                 0.0000
     11 ****        -0.0354   1.9292  -0.4034 N.2            1 S1                 0.0000
     12 ****         0.6245   0.7754   0.0048 C.ar           1 S1                 0.0000
     13 ****         1.4343   0.4357   1.1276 C.ar           1 S1                 0.0000
     14 ****         1.7220   1.3053   2.1336 N.pl3          1 S1                 0.0000
     15 ****         0.6794   2.2035   2.6181 C.3            1 S1                 0.0000
     16 ****         0.9410   2.3719   4.1148 C.3            1 S1                 0.0000
     17 ****         0.2519   1.4519   4.7923 F              1 S1                 0.0000
     18 ****         2.4337   2.0857   4.2452 C.3            1 S1                 0.0000
     19 ****         2.6911   0.9971   3.1908 C.3            1 S1                 0.0000
     20 ****         4.1466   1.0331   2.6973 C.2            1 S1                 0.0000
     21 ****         5.0109   0.2258   3.3163 N.am           1 S1                 0.0000
     22 ****         4.4900   1.7827   1.7845 O.2            1 S1                 0.0000
     23 ****         1.9397  -0.8260   1.1690 N.ar           1 S1                 0.0000
     24 ****         1.6694  -1.6985   0.1945 C.ar           1 S1                 0.0000
     25 ****         0.9286  -1.5221  -0.9001 N.ar           1 S1                 0.0000
     26 ****         0.4218  -0.2575  -0.9550 C.ar           1 S1                 0.0000
     27 ****         0.6493   3.3503   4.4974 H              1 S1                 0.0000
     28 ****         2.4589   0.0199   3.6190 H              1 S1                 0.0000
     29 ****        -2.6488  -0.4422  -0.1418 H              1 S1                 0.0000
     30 ****        -3.3345  -2.0282   0.1901 H              1 S1                 0.0000
     31 ****        -4.2497  -0.8623  -0.7552 H              1 S1                 0.0000
     32 ****        -1.6556  -2.2716  -1.5800 H              1 S1                 0.0000
     33 ****        -2.0108  -3.5363  -3.7518 H              1 S1                 0.0000
     34 ****        -3.6873  -3.6052  -4.3180 H              1 S1                 0.0000
     35 ****        -2.1483  -1.5163  -5.0902 H              1 S1                 0.0000
     36 ****        -3.8102  -1.2434  -4.5880 H              1 S1                 0.0000
     37 ****        -3.0950   0.8677  -3.6733 H              1 S1                 0.0000
     38 ****        -0.2590  -1.1897  -3.3728 H              1 S1                 0.0000
     39 ****        -0.7896   0.3613  -3.9656 H              1 S1                 0.0000
     40 ****        -1.1989   2.2917  -2.1002 H              1 S1                 0.0000
     41 ****         0.7835   3.1600   2.1046 H              1 S1                 0.0000
     42 ****        -0.3284   1.8278   2.4330 H              1 S1                 0.0000
     43 ****         2.9932   2.9939   4.0131 H              1 S1                 0.0000
     44 ****         2.7139   1.7721   5.2513 H              1 S1                 0.0000
     45 ****         5.9808   0.2148   3.0361 H              1 S1                 0.0000
     46 ****         4.6907  -0.3668   4.0684 H              1 S1                 0.0000
     47 ****         2.1090  -2.6782   0.3091 H              1 S1                 0.0000
     48 ****        -4.3667  -2.5753  -2.3842 LP             1 S1                 0.0000
     49 ****        -3.2775  -3.6840  -1.8832 LP             1 S1                 0.0000
     50 ****        -2.9108   0.8786  -2.0934 LP             1 S1                 0.0000
     51 ****        -4.1479   0.0696  -2.7875 LP             1 S1                 0.0000
     52 ****        -0.0685   2.8141   0.0613 LP             1 S1                 0.0000
     53 ****         3.8178   2.3823   1.3502 LP             1 S1                 0.0000
     54 ****         5.4414   1.7925   1.4767 LP             1 S1                 0.0000
     55 ****         2.5188  -1.1030   1.9357 LP             1 S1                 0.0000
     56 ****         0.7658  -2.2262  -1.5913 LP             1 S1                 0.0000
@<TRIPOS>BOND
    1    1    2 1     
    2    1   29 1     
    3    1   30 1     
    4    1   31 1     
    5    2    6 1     
    6    2    3 1     
    7    2   32 1     
    8    3    4 1     
    9    4    5 1     
   10    4   33 1     
   11    4   34 1     
   12    5    6 1     
   13    5   35 1     
   14    5   36 1     
   15    6    7 1     
   16    6    8 1     
   17    7   37 1     
   18    8    9 1     
   19    8   38 1     
   20    8   39 1     
   21    9   26 1     
   22    9   10 1     
   23   10   11 2     
   24   10   40 1     
   25   11   12 1     
   26   12   26 ar    
   27   12   13 ar    
   28   13   14 1     
   29   13   23 ar    
   30   14   19 1     
   31   14   15 1     
   32   15   16 1     
   33   15   41 1     
   34   15   42 1     
   35   16   27 1     
   36   16   17 1     
   37   16   18 1     
   38   18   19 1     
   39   18   43 1     
   40   18   44 1     
   41   19   28 1     
   42   19   20 1     
   43   20   21 am    
   44   20   22 2     
   45   21   45 1     
   46   21   46 1     
   47   23   24 ar    
   48   24   25 ar    
   49   24   47 1     
   50   25   26 ar    
   51    3   48 1     
   52    3   49 1     
   53    7   50 1     
   54    7   51 1     
   55   11   52 1     
   56   22   53 1     
   57   22   54 1     
   58   23   55 1     
   59   25   56 1     
@<TRIPOS>SUBSTRUCTURE
      1 S1             1
@<TRIPOS>SET
LONE_PAIRS      STATIC     ATOMS    <user>   **** ""
9 48 49 50 51 52 53 54 55 56
DONOR_HYDROGENS      STATIC     ATOMS    <user>   **** ""
3 37 45 46
ATOM$BLUE        STATIC     ATOMS    COLORGROUP SYSTEM
9 48 49 50 51 52 53 54 55 56
ATOM$RED        STATIC     ATOMS    COLORGROUP SYSTEM
3 37 45 46
