AV-unprocessed.smi:2035|AV-procd|sdf|8269|dock1
  -GOLD-   2272010543D 1   1.00000     0.00000
 Structure written by MMmdl.
 34 35  0  0  0  0  0  0  0  0  1 V2000
  149.8826  140.5832  156.8205 O   0  0  0  0  0  0  0  0  0  0  0  0
  149.5983  141.6875  156.3568 C   0  0  0  0  0  0  0  0  0  0  0  0
  150.0934  142.8637  156.7807 N   0  0  0  0  0  0  0  0  0  0  0  0
  151.0101  143.1174  157.8372 C   0  0  0  0  0  0  0  0  0  0  0  0
  151.4599  144.4430  158.0098 C   0  0  0  0  0  0  0  0  0  0  0  0
  152.3557  144.7258  159.0600 C   0  0  0  0  0  0  0  0  0  0  0  0
  152.8051  143.7910  159.9234 N   0  0  0  0  0  0  0  0  0  0  0  0
  152.3636  142.5254  159.7655 C   0  0  0  0  0  0  0  0  0  0  0  0
  151.4680  142.1359  158.7492 C   0  0  0  0  0  0  0  0  0  0  0  0
  148.7537  141.8627  155.3301 N   0  0  0  0  0  0  0  0  0  0  0  0
  148.0288  140.8037  154.6273 C   0  0  2  0  0  0  0  0  0  0  0  0
  146.9160  140.2097  155.5301 C   0  0  0  0  0  0  0  0  0  0  0  0
  146.4916  138.7583  155.2223 C   0  0  0  0  0  0  0  0  0  0  0  0
  146.0676  138.4840  153.7650 C   0  0  0  0  0  0  0  0  0  0  0  0
  147.0796  138.8751  152.6620 C   0  0  0  0  0  0  0  0  0  0  0  0
  148.4725  138.9057  153.1063 N   0  0  0  0  0  0  0  0  0  0  0  0
  148.9863  139.7763  153.9923 C   0  0  0  0  0  0  0  0  0  0  0  0
  150.1760  139.7465  154.3051 O   0  0  0  0  0  0  0  0  0  0  0  0
  149.8190  143.6751  156.2467 H   0  0  0  0  0  0  0  0  0  0  0  0
  151.1314  145.2320  157.3489 H   0  0  0  0  0  0  0  0  0  0  0  0
  152.7194  145.7314  159.2113 H   0  0  0  0  0  0  0  0  0  0  0  0
  152.7298  141.7996  160.4765 H   0  0  0  0  0  0  0  0  0  0  0  0
  151.1464  141.1073  158.7004 H   0  0  0  0  0  0  0  0  0  0  0  0
  148.5791  142.8060  155.0150 H   0  0  0  0  0  0  0  0  0  0  0  0
  147.5377  141.2883  153.7822 H   0  0  0  0  0  0  0  0  0  0  0  0
  147.2421  140.2385  156.5710 H   0  0  0  0  0  0  0  0  0  0  0  0
  146.0396  140.8572  155.4808 H   0  0  0  0  0  0  0  0  0  0  0  0
  147.3003  138.0792  155.4955 H   0  0  0  0  0  0  0  0  0  0  0  0
  145.6652  138.4904  155.8813 H   0  0  0  0  0  0  0  0  0  0  0  0
  145.8629  137.4162  153.6791 H   0  0  0  0  0  0  0  0  0  0  0  0
  145.1171  138.9785  153.5625 H   0  0  0  0  0  0  0  0  0  0  0  0
  146.9993  138.1742  151.8309 H   0  0  0  0  0  0  0  0  0  0  0  0
  146.8174  139.8468  152.2423 H   0  0  0  0  0  0  0  0  0  0  0  0
  149.0973  138.2260  152.6971 H   0  0  0  0  0  0  0  0  0  0  0  0
  1  2  2  0  0  0  0
  2  3  1  0  0  0  0
  2 10  1  0  0  0  0
  3  4  1  0  0  0  0
  3 19  1  0  0  0  0
  4  9  1  0  0  0  0
  4  5  2  0  0  0  0
  5  6  1  0  0  0  0
  5 20  1  0  0  0  0
  6  7  2  0  0  0  0
  6 21  1  0  0  0  0
  7  8  1  0  0  0  0
  8  9  2  0  0  0  0
  8 22  1  0  0  0  0
  9 23  1  0  0  0  0
 10 11  1  0  0  0  0
 10 24  1  0  0  0  0
 11 17  1  0  0  0  0
 11 12  1  0  0  0  0
 11 25  1  0  0  0  0
 12 13  1  0  0  0  0
 12 26  1  0  0  0  0
 12 27  1  0  0  0  0
 13 14  1  0  0  0  0
 13 28  1  0  0  0  0
 13 29  1  0  0  0  0
 14 15  1  0  0  0  0
 14 30  1  0  0  0  0
 14 31  1  0  0  0  0
 15 16  1  0  0  0  0
 15 32  1  0  0  0  0
 15 33  1  0  0  0  0
 16 17  1  0  0  0  0
 16 34  1  0  0  0  0
 17 18  2  0  0  0  0
M  END
> <s_m_source_file>
AV-unprocessed.smi

> <i_m_source_file_index>
2035

> <i_lp_mmshare_version>
43012

> <i_f3d_flags>
0

> <s_epik_input>
W2NIXTFbY0hdbltjSF1bY0hdYzFbTkhdQyg9TylbTkhdW0NAQEhdMltDSDJdW0NIMl1bQ0gyXVtDSDJdW05IXUMyPU8=

> <s_epik_cmdline>
J2VwaWtfcHl0aG9uJywgJy1waCcsICc3LjAnLCAnLXRuJywgJzgnLCAnLW1hJywgJzIwMCcsICctbWV0YWxfYmluZGluZycsICctaW1hZScsICc8aW5maWxlLm1hZT4nLCAnLW9tYWUnLCAnPG91dGZpbGUubWFlPic=

> <r_epik_Ionization_Penalty>
0.100041

> <r_epik_Ionization_Penalty_Charging>
0

> <r_epik_Ionization_Penalty_Neutral>
0.100041

> <r_epik_State_Penalty>
0.0900442

> <r_epik_Charging_Adjusted_Penalty>
0.0900442

> <i_epik_Tot_Q>
0

> <i_epik_Tot_abs_Q>
0

> <r_epik_Metal_State_Penalty>
0.0769377

> <b_epik_Metal_Only>
0

> <s_lp_Force_Field>
OPLS_2005

> <r_lp_Energy>
20.0166

> <b_lp_Chiralities_Consistent>
1

> <s_lp_Variant>
AV-unprocessed.smi:2035-1

> <Gold.Version>
5.8.1

> <Gold.Id.Protein>
6NUR|6NUR_protein|mol2

> <Gold.PLP.Fitness>
42.5264

> <Gold.PLP.PLP>
-32.1113

> <Gold.PLP.part.hbond>
-4.8885

> <Gold.PLP.part.metal>
0.0000

> <Gold.PLP.part.buried>
-3.2126

> <Gold.PLP.part.nonpolar>
-25.5332

> <Gold.PLP.part.repulsive>
0.4328

> <Gold.PLP.ligand.clash>
0.0000

> <Gold.PLP.ligand.torsion>
0.0633

> <Gold.PLP.Chemscore.Hbond>
3.4958

> <Gold.PLP.Chemscore.CHOScore>
0.0000

> <Gold.PLP.Chemscore.Metal>
0.0000

> <Gold.Chemscore.Hbonds>
donor molecule, donor type, donor heavy atom, donor atom, acceptor molecule, acceptor atom, score
      L1  H     3    19       P1  8028  0.96
      L1  H    10    24       P1  8028  0.80
      L1  H    16    34       P1  7948  0.57
      P1  H  7989  7998       L1    18  1.00

> <Gold.PLP.Chemscore.Internal.Correction>
0.0542

> <Gold.Rescore>
     Score         DG    S(hbond)    S(metal)    S(lipo)     H(rot)  DE(clash)    DE(int)     intcor
     18.85     -22.83       3.36        0.00      74.15       1.00       0.14       3.84       ----

> <Gold.Chemscore.Fitness>
18.8474

> <Gold.Chemscore.DG>
-22.8273

> <Gold.Chemscore.ZeroCoef>
-5.4800

> <Gold.Chemscore.Hbond>
3.3629

> <Gold.Chemscore.Metal>
0.0000

> <Gold.Chemscore.Lipo>
74.1483

> <Gold.Chemscore.Internal_Hbond>
0.0000

> <Gold.Chemscore.DEClash>
0.1359

> <Gold.Chemscore.DEInternal>
3.8441

> <Gold.Chemscore.Rot>
1.0000

> <Gold.Chemscore.Internal.Correction>
   9.000000E+99

> <Gold.Chemscore.Hbonds>
donor molecule, donor type, donor heavy atom, donor atom, acceptor molecule, acceptor atom, score
      L1  H     3    19       P1  8028  0.90
      L1  H    10    24       P1  8028  0.74
      L1  H    16    34       P1  7948  0.57
      P1  H  7989  7998       L1    18  0.95

> <Gold.Chemscore.Hbond.Weighted>
-11.2320

> <Gold.Chemscore.Metal.Weighted>
-0.0000

> <Gold.Chemscore.Lipo.Weighted>
-8.6753

> <Gold.Chemscore.Internal_Hbond.Weighted>
0.0000

> <Gold.Chemscore.DEClash.Weighted>
0.1359

> <Gold.Chemscore.DEInternal.Weighted>
3.8441

> <Gold.Chemscore.Rot.Weighted>
2.5600

> <Gold.Chemscore.Internal.Correction.Weighted>
   9.000000E+99

> <Gold.Protein.RotatedTorsions>
[ 6907 6896 6895 6894 ] final   56.70 input  -60.11 | X-H torsion
[ 7974 7965 7964 7962 ] final -132.53 input  175.53 | X-H torsion
[ 8008 7997 7996 7995 ] final -143.61 input   59.86 | X-H torsion
[ 10167 10162 10161 10158 ] final   51.34 input  -65.29 | X-H torsion
[ 10718 10713 10712 10709 ] final   59.45 input   66.30 | X-H torsion
[ 10763 10752 10751 10750 ] final -108.48 input  -60.55 | X-H torsion
[ 11005 11000 10999 10996 ] final -146.07 input  -57.11 | X-H torsion

> <Gold.Protein.ActiveResidues>
 VAL166  LYS551  ARG553  GLY616  TRP617  ASP618  TYR619  PRO620  LYS621  CYS622 
 ASP623  PHE694  ASN695  SER759  ASP760  ASP761  ALA762  ILE779  LEU786  VAL792 
 PHE793  MET794  SER795  GLU796  ALA797  LYS798  CYS799  TRP800  GLU811  SER814 

> <Gold.Protein.RotatedAtoms>
  152.3661  134.6802  160.0191 H   0  0  0  0  0  0  0  0  0  0  0  0  # atno 6907 bound_to 6896
  151.7110  133.3307  159.3299 H   0  0  0  0  0  0  0  0  0  0  0  0  # atno 6908 bound_to 6896
  150.7639  134.6466  159.6310 H   0  0  0  0  0  0  0  0  0  0  0  0  # atno 6909 bound_to 6896
  144.9277  140.7091  143.4926 H   0  0  0  0  0  0  0  0  0  0  0  0  # atno 7974 bound_to 7965
  155.5134  140.0585  157.2919 H   0  0  0  0  0  0  0  0  0  0  0  0  # atno 8008 bound_to 7997
  154.4544  140.1965  156.0372 H   0  0  0  0  0  0  0  0  0  0  0  0  # atno 8009 bound_to 7997
  156.0769  140.3252  155.7649 H   0  0  0  0  0  0  0  0  0  0  0  0  # atno 8010 bound_to 7997
  140.2630  144.3352  150.6312 H   0  0  0  0  0  0  0  0  0  0  0  0  # atno 10167 bound_to 10162
  157.5677  130.8883  149.9214 H   0  0  0  0  0  0  0  0  0  0  0  0  # atno 10718 bound_to 10713
  154.8138  135.4636  154.0588 H   0  0  0  0  0  0  0  0  0  0  0  0  # atno 10763 bound_to 10752
  153.1997  135.6867  153.8253 H   0  0  0  0  0  0  0  0  0  0  0  0  # atno 10764 bound_to 10752
  153.7742  135.3266  155.3333 H   0  0  0  0  0  0  0  0  0  0  0  0  # atno 10765 bound_to 10752
  140.7858  134.3026  157.5030 H   0  0  0  0  0  0  0  0  0  0  0  0  # atno 11005 bound_to 11000
  145.3193  139.1793  143.4596 LP  0  0  0  0  0  0  0  0  0  0  0  0  # atno 17320 bound_to 7965
  146.3233  140.3208  142.8633 LP  0  0  0  0  0  0  0  0  0  0  0  0  # atno 17321 bound_to 7965
  140.5951  143.2167  151.7179 LP  0  0  0  0  0  0  0  0  0  0  0  0  # atno 17342 bound_to 10162
  139.5011  144.3880  152.0309 LP  0  0  0  0  0  0  0  0  0  0  0  0  # atno 17343 bound_to 10162
  156.0724  130.3683  150.0748 LP  0  0  0  0  0  0  0  0  0  0  0  0  # atno 17370 bound_to 10713
  156.8905  130.9587  151.3589 LP  0  0  0  0  0  0  0  0  0  0  0  0  # atno 17371 bound_to 10713
  139.8737  134.9345  156.3609 LP  0  0  0  0  0  0  0  0  0  0  0  0  # atno 17394 bound_to 11000
  140.9438  133.7496  156.0181 LP  0  0  0  0  0  0  0  0  0  0  0  0  # atno 17395 bound_to 11000

$$$$
