AV-unprocessed.smi:1240|AV-procd|sdf|5195|dock1
  -GOLD-   22720 4283D 1   1.00000     0.00000
 Structure written by MMmdl.
 47 49  0  0  0  0  0  0  0  0  1 V2000
  144.6554  136.9095  152.4686 O   0  0  0  0  0  0  0  0  0  0  0  0
  145.8603  136.6889  152.3510 C   0  0  0  0  0  0  0  0  0  0  0  0
  146.8083  137.5509  152.7474 N   0  0  0  0  0  0  0  0  0  0  0  0
  146.5578  138.8556  153.3524 C   0  0  0  0  0  0  0  0  0  0  0  0
  146.8614  138.9336  154.8883 C   0  0  2  0  0  0  0  0  0  0  0  0
  145.8814  139.9657  155.5597 C   0  0  2  0  0  0  0  0  0  0  0  0
  144.3977  139.6312  155.5839 C   0  0  0  0  0  0  0  0  0  0  0  0
  143.7642  140.9583  155.9735 C   0  0  0  0  0  0  0  0  0  0  0  0
  144.5476  141.9350  155.3067 O   0  0  0  0  0  0  0  0  0  0  0  0
  145.7971  141.3667  154.9268 C   0  0  0  0  0  0  0  0  0  0  0  0
  148.2849  139.2521  155.2069 N   0  0  0  0  0  0  0  0  0  0  0  0
  148.7103  140.6303  154.9313 C   0  0  0  0  0  0  0  0  0  0  0  0
  150.1792  140.8863  155.3142 C   0  0  0  0  0  0  0  0  0  0  0  0
  151.0246  139.9772  154.6228 O   0  0  0  0  0  0  0  0  0  0  0  0
  150.6883  138.6232  154.8916 C   0  0  0  0  0  0  0  0  0  0  0  0
  149.2238  138.3721  154.4959 C   0  0  0  0  0  0  0  0  0  0  0  0
  146.4053  135.5897  151.8009 N   0  0  0  0  0  0  0  0  0  0  0  0
  145.7577  134.4584  151.2329 C   0  0  0  0  0  0  0  0  0  0  0  0
  146.5734  133.4086  150.7621 C   0  0  0  0  0  0  0  0  0  0  0  0
  145.9606  132.2687  150.2045 C   0  0  0  0  0  0  0  0  0  0  0  0
  144.6233  132.1208  150.1029 N   0  0  0  0  0  0  0  0  0  0  0  0
  143.8432  133.1205  150.5653 C   0  0  0  0  0  0  0  0  0  0  0  0
  144.3533  134.3022  151.1394 C   0  0  0  0  0  0  0  0  0  0  0  0
  147.7746  137.2926  152.6107 H   0  0  0  0  0  0  0  0  0  0  0  0
  147.1743  139.5439  152.7750 H   0  0  0  0  0  0  0  0  0  0  0  0
  145.5220  139.1354  153.1579 H   0  0  0  0  0  0  0  0  0  0  0  0
  146.6456  137.9452  155.2960 H   0  0  0  0  0  0  0  0  0  0  0  0
  146.1950  140.0909  156.5977 H   0  0  0  0  0  0  0  0  0  0  0  0
  144.0502  139.3497  154.5891 H   0  0  0  0  0  0  0  0  0  0  0  0
  144.1437  138.8408  156.2907 H   0  0  0  0  0  0  0  0  0  0  0  0
  142.7132  141.0236  155.6912 H   0  0  0  0  0  0  0  0  0  0  0  0
  143.8404  141.1176  157.0497 H   0  0  0  0  0  0  0  0  0  0  0  0
  146.6063  142.0207  155.2514 H   0  0  0  0  0  0  0  0  0  0  0  0
  145.8204  141.3037  153.8382 H   0  0  0  0  0  0  0  0  0  0  0  0
  148.5646  140.8633  153.8751 H   0  0  0  0  0  0  0  0  0  0  0  0
  148.1108  141.3345  155.5076 H   0  0  0  0  0  0  0  0  0  0  0  0
  150.4665  141.9052  155.0554 H   0  0  0  0  0  0  0  0  0  0  0  0
  150.3208  140.7779  156.3908 H   0  0  0  0  0  0  0  0  0  0  0  0
  151.3514  137.9734  154.3205 H   0  0  0  0  0  0  0  0  0  0  0  0
  150.8489  138.3984  155.9473 H   0  0  0  0  0  0  0  0  0  0  0  0
  149.0154  137.3235  154.6667 H   0  0  0  0  0  0  0  0  0  0  0  0
  149.1184  138.5220  153.4202 H   0  0  0  0  0  0  0  0  0  0  0  0
  147.4119  135.5889  151.7258 H   0  0  0  0  0  0  0  0  0  0  0  0
  147.6503  133.4725  150.8200 H   0  0  0  0  0  0  0  0  0  0  0  0
  146.5620  131.4532  149.8308 H   0  0  0  0  0  0  0  0  0  0  0  0
  142.7769  132.9724  150.4799 H   0  0  0  0  0  0  0  0  0  0  0  0
  143.6617  135.0471  151.5002 H   0  0  0  0  0  0  0  0  0  0  0  0
  1  2  2  0  0  0  0
  2  3  1  0  0  0  0
  2 17  1  0  0  0  0
  3  4  1  0  0  0  0
  3 24  1  0  0  0  0
  4  5  1  0  0  0  0
  4 25  1  0  0  0  0
  4 26  1  0  0  0  0
  5  6  1  0  0  0  0
  5 11  1  0  0  0  0
  5 27  1  0  0  0  0
  6 10  1  0  0  0  0
  6  7  1  0  0  0  0
  6 28  1  0  0  0  0
  7  8  1  0  0  0  0
  7 29  1  0  0  0  0
  7 30  1  0  0  0  0
  8  9  1  0  0  0  0
  8 31  1  0  0  0  0
  8 32  1  0  0  0  0
  9 10  1  0  0  0  0
 10 33  1  0  0  0  0
 10 34  1  0  0  0  0
 11 16  1  0  0  0  0
 11 12  1  0  0  0  0
 12 13  1  0  0  0  0
 12 35  1  0  0  0  0
 12 36  1  0  0  0  0
 13 14  1  0  0  0  0
 13 37  1  0  0  0  0
 13 38  1  0  0  0  0
 14 15  1  0  0  0  0
 15 16  1  0  0  0  0
 15 39  1  0  0  0  0
 15 40  1  0  0  0  0
 16 41  1  0  0  0  0
 16 42  1  0  0  0  0
 17 18  1  0  0  0  0
 17 43  1  0  0  0  0
 18 23  1  0  0  0  0
 18 19  2  0  0  0  0
 19 20  1  0  0  0  0
 19 44  1  0  0  0  0
 20 21  2  0  0  0  0
 20 45  1  0  0  0  0
 21 22  1  0  0  0  0
 22 23  2  0  0  0  0
 22 46  1  0  0  0  0
 23 47  1  0  0  0  0
M  END
> <s_m_source_file>
AV-unprocessed.smi

> <i_m_source_file_index>
1240

> <i_lp_mmshare_version>
43012

> <i_f3d_flags>
0

> <s_epik_input>
W2NIXTFbY0hdbltjSF1bY0hdYzFbTkhdQyg9TylbTkhdW0NIMl1bQ0BIXShbQ0BASF0yW0NIMl1bQ0gyXU9bQ0gyXTIpTjNbQ0gyXVtDSDJdT1tDSDJdW0NIMl0z

> <s_epik_cmdline>
J2VwaWtfcHl0aG9uJywgJy1waCcsICc3LjAnLCAnLXRuJywgJzgnLCAnLW1hJywgJzIwMCcsICctbWV0YWxfYmluZGluZycsICctaW1hZScsICc8aW5maWxlLm1hZT4nLCAnLW9tYWUnLCAnPG91dGZpbGUubWFlPic=

> <r_epik_Ionization_Penalty>
0.238664

> <r_epik_Ionization_Penalty_Charging>
0

> <r_epik_Ionization_Penalty_Neutral>
0.238664

> <r_epik_State_Penalty>
0.217087

> <r_epik_Charging_Adjusted_Penalty>
0.217087

> <i_epik_Tot_Q>
0

> <i_epik_Tot_abs_Q>
0

> <r_epik_Metal_State_Penalty>
0.199194

> <b_epik_Metal_Only>
0

> <s_lp_Force_Field>
OPLS_2005

> <r_lp_Energy>
60.4877

> <b_lp_Chiralities_Consistent>
1

> <s_lp_Variant>
AV-unprocessed.smi:1240-1

> <Gold.Version>
5.8.1

> <Gold.Id.Protein>
6NUR|6NUR_protein|mol2

> <Gold.PLP.Fitness>
44.7000

> <Gold.PLP.PLP>
-30.7916

> <Gold.PLP.part.hbond>
-3.0000

> <Gold.PLP.part.metal>
0.0000

> <Gold.PLP.part.buried>
-5.9117

> <Gold.PLP.part.nonpolar>
-23.9622

> <Gold.PLP.part.repulsive>
0.7416

> <Gold.PLP.ligand.clash>
0.0000

> <Gold.PLP.ligand.torsion>
0.6215

> <Gold.PLP.Chemscore.Hbond>
2.9920

> <Gold.PLP.Chemscore.CHOScore>
1.9989

> <Gold.PLP.Chemscore.Metal>
0.0000

> <Gold.Chemscore.Hbonds>
donor molecule, donor type, donor heavy atom, donor atom, acceptor molecule, acceptor atom, score
      L1  H     3    24       P1  7948  0.98
      L1  H    17    43       P1  7948  1.00
      P1  H  7989  7998       L1    14  1.00
      L1  C    20    45       P1 10747  1.00
      L1  C    22    46       P1 10186  1.00

> <Gold.PLP.Chemscore.Internal.Correction>
0.1787

> <Gold.Rescore>
     Score         DG    S(hbond)    S(metal)    S(lipo)     H(rot)  DE(clash)    DE(int)     intcor
     16.96     -19.13       2.89        0.00      70.19       1.65       0.00       2.16       ----

> <Gold.Chemscore.Fitness>
16.9643

> <Gold.Chemscore.DG>
-19.1264

> <Gold.Chemscore.ZeroCoef>
-5.4800

> <Gold.Chemscore.Hbond>
2.8922

> <Gold.Chemscore.Metal>
0.0000

> <Gold.Chemscore.Lipo>
70.1931

> <Gold.Chemscore.Internal_Hbond>
0.0000

> <Gold.Chemscore.DEClash>
0.0009

> <Gold.Chemscore.DEInternal>
2.1612

> <Gold.Chemscore.Rot>
1.6508

> <Gold.Chemscore.Internal.Correction>
   9.000000E+99

> <Gold.Chemscore.Hbonds>
donor molecule, donor type, donor heavy atom, donor atom, acceptor molecule, acceptor atom, score
      L1  H     3    24       P1  7948  0.93
      L1  H    17    43       P1  7948  0.98
      P1  H  7989  7998       L1    14  0.38

> <Gold.Chemscore.Hbond.Weighted>
-9.6599

> <Gold.Chemscore.Metal.Weighted>
-0.0000

> <Gold.Chemscore.Lipo.Weighted>
-8.2126

> <Gold.Chemscore.Internal_Hbond.Weighted>
0.0000

> <Gold.Chemscore.DEClash.Weighted>
0.0009

> <Gold.Chemscore.DEInternal.Weighted>
2.1612

> <Gold.Chemscore.Rot.Weighted>
4.2262

> <Gold.Chemscore.Internal.Correction.Weighted>
   9.000000E+99

> <Gold.Protein.RotatedTorsions>
[ 6907 6896 6895 6894 ] final  -42.02 input  -60.11 | X-H torsion
[ 7974 7965 7964 7962 ] final  -16.61 input  175.53 | X-H torsion
[ 8008 7997 7996 7995 ] final  149.07 input   59.86 | X-H torsion
[ 10167 10162 10161 10158 ] final   33.37 input  -65.29 | X-H torsion
[ 10718 10713 10712 10709 ] final  -84.24 input   66.30 | X-H torsion
[ 10763 10752 10751 10750 ] final   32.27 input  -60.55 | X-H torsion
[ 11005 11000 10999 10996 ] final  117.24 input  -57.11 | X-H torsion

> <Gold.Protein.ActiveResidues>
 VAL166  LYS551  ARG553  GLY616  TRP617  ASP618  TYR619  PRO620  LYS621  CYS622 
 ASP623  PHE694  ASN695  SER759  ASP760  ASP761  ALA762  ILE779  LEU786  VAL792 
 PHE793  MET794  SER795  GLU796  ALA797  LYS798  CYS799  TRP800  GLU811  SER814 

> <Gold.Protein.RotatedAtoms>
  150.9601  134.8990  159.7724 H   0  0  0  0  0  0  0  0  0  0  0  0  # atno 6907 bound_to 6896
  152.5153  134.3685  159.9320 H   0  0  0  0  0  0  0  0  0  0  0  0  # atno 6908 bound_to 6896
  151.3698  133.3818  159.2733 H   0  0  0  0  0  0  0  0  0  0  0  0  # atno 6909 bound_to 6896
  146.1979  140.3661  142.8434 H   0  0  0  0  0  0  0  0  0  0  0  0  # atno 7974 bound_to 7965
  156.2768  140.2111  156.5800 H   0  0  0  0  0  0  0  0  0  0  0  0  # atno 8008 bound_to 7997
  154.7066  140.0516  157.0533 H   0  0  0  0  0  0  0  0  0  0  0  0  # atno 8009 bound_to 7997
  155.0662  140.3172  155.4648 H   0  0  0  0  0  0  0  0  0  0  0  0  # atno 8010 bound_to 7997
  140.4413  144.1183  150.6174 H   0  0  0  0  0  0  0  0  0  0  0  0  # atno 10167 bound_to 10162
  156.0008  130.4691  150.4379 H   0  0  0  0  0  0  0  0  0  0  0  0  # atno 10718 bound_to 10713
  153.0271  135.6417  154.1329 H   0  0  0  0  0  0  0  0  0  0  0  0  # atno 10763 bound_to 10752
  154.1056  135.2856  155.3243 H   0  0  0  0  0  0  0  0  0  0  0  0  # atno 10764 bound_to 10752
  154.6368  135.5474  153.7806 H   0  0  0  0  0  0  0  0  0  0  0  0  # atno 10765 bound_to 10752
  139.9068  134.9608  156.7320 H   0  0  0  0  0  0  0  0  0  0  0  0  # atno 11005 bound_to 11000
  144.8620  140.7153  143.6101 LP  0  0  0  0  0  0  0  0  0  0  0  0  # atno 17320 bound_to 7965
  145.3581  139.1688  143.4398 LP  0  0  0  0  0  0  0  0  0  0  0  0  # atno 17321 bound_to 7965
  140.4315  143.2566  151.9590 LP  0  0  0  0  0  0  0  0  0  0  0  0  # atno 17342 bound_to 10162
  139.4790  144.5739  151.8043 LP  0  0  0  0  0  0  0  0  0  0  0  0  # atno 17343 bound_to 10162
  157.2423  131.0528  151.2429 LP  0  0  0  0  0  0  0  0  0  0  0  0  # atno 17370 bound_to 10713
  157.3608  130.7130  149.6501 LP  0  0  0  0  0  0  0  0  0  0  0  0  # atno 17371 bound_to 10713
  140.6917  133.9384  155.7970 LP  0  0  0  0  0  0  0  0  0  0  0  0  # atno 17394 bound_to 11000
  141.0436  134.0585  157.3871 LP  0  0  0  0  0  0  0  0  0  0  0  0  # atno 17395 bound_to 11000

$$$$
