AV-unprocessed.smi:3150|AV-procd|sdf|12010|dock3
  -GOLD-   2272017413D 1   1.00000     0.00000
 Structure written by MMmdl.
 33 34  0  0  0  0  0  0  0  0  3 V2000
  151.0104  137.8325  155.0032 C   0  0  0  0  0  0  0  0  0  0  0  0
  151.5505  139.2524  155.2326 C   0  0  1  0  0  0  0  0  0  0  0  0
  150.6651  140.1568  154.5776 O   0  0  0  0  0  0  0  0  0  0  0  0
  149.2972  140.0521  154.9533 C   0  0  0  0  0  0  0  0  0  0  0  0
  148.6451  141.4083  154.7926 C   0  0  0  0  0  0  0  0  0  0  0  0
  147.2048  141.6156  155.2025 C   0  0  0  0  0  0  0  0  0  0  0  0
  147.5803  141.6330  153.7427 C   0  0  0  0  0  0  0  0  0  0  0  0
  151.6408  139.5856  156.7307 C   0  0  0  0  0  0  0  0  0  0  0  0
  151.2134  138.7830  157.5622 O   0  0  0  0  0  0  0  0  0  0  0  0
  152.1858  140.7794  157.0307 N   0  0  0  0  0  0  0  0  0  0  0  0
  152.3913  141.3689  158.3090 C   0  0  0  0  0  0  0  0  0  0  0  0
  151.7378  142.4917  158.6998 N   0  3  0  0  0  0  0  0  0  0  0  0
  151.9098  143.0755  159.9052 C   0  0  0  0  0  0  0  0  0  0  0  0
  152.8086  142.5147  160.8328 C   0  0  0  0  0  0  0  0  0  0  0  0
  153.5143  141.3478  160.4789 C   0  0  0  0  0  0  0  0  0  0  0  0
  153.3062  140.7692  159.2085 C   0  0  0  0  0  0  0  0  0  0  0  0
  153.9919  139.6376  158.8653 O   0  5  0  0  0  0  0  0  0  0  0  0
  151.6382  137.0851  155.4894 H   0  0  0  0  0  0  0  0  0  0  0  0
  150.9842  137.5976  153.9389 H   0  0  0  0  0  0  0  0  0  0  0  0
  149.9956  137.7209  155.3870 H   0  0  0  0  0  0  0  0  0  0  0  0
  152.5401  139.3185  154.7758 H   0  0  0  0  0  0  0  0  0  0  0  0
  148.7669  139.3196  154.3436 H   0  0  0  0  0  0  0  0  0  0  0  0
  149.2144  139.7433  155.9961 H   0  0  0  0  0  0  0  0  0  0  0  0
  149.3142  142.2440  154.9889 H   0  0  0  0  0  0  0  0  0  0  0  0
  146.6513  140.7528  155.5679 H   0  0  0  0  0  0  0  0  0  0  0  0
  146.9478  142.5652  155.6673 H   0  0  0  0  0  0  0  0  0  0  0  0
  147.5735  142.5939  153.2322 H   0  0  0  0  0  0  0  0  0  0  0  0
  147.2785  140.7814  153.1359 H   0  0  0  0  0  0  0  0  0  0  0  0
  152.4882  141.3451  156.2503 H   0  0  0  0  0  0  0  0  0  0  0  0
  151.3271  143.9662  160.0885 H   0  0  0  0  0  0  0  0  0  0  0  0
  152.9553  142.9713  161.8005 H   0  0  0  0  0  0  0  0  0  0  0  0
  154.2085  140.9021  161.1765 H   0  0  0  0  0  0  0  0  0  0  0  0
  151.0808  142.9171  158.0450 H   0  0  0  0  0  0  0  0  0  0  0  0
  1  2  1  0  0  0  0
  1 18  1  0  0  0  0
  1 19  1  0  0  0  0
  1 20  1  0  0  0  0
  2  3  1  0  0  0  0
  2  8  1  0  0  0  0
  2 21  1  0  0  0  0
  3  4  1  0  0  0  0
  4  5  1  0  0  0  0
  4 22  1  0  0  0  0
  4 23  1  0  0  0  0
  5  7  1  0  0  0  0
  5  6  1  0  0  0  0
  5 24  1  0  0  0  0
  6  7  1  0  0  0  0
  6 25  1  0  0  0  0
  6 26  1  0  0  0  0
  7 27  1  0  0  0  0
  7 28  1  0  0  0  0
  8  9  2  0  0  0  0
  8 10  1  0  0  0  0
 10 29  1  0  0  0  0
 10 11  1  0  0  0  0
 11 16  2  0  0  0  0
 11 12  1  0  0  0  0
 12 33  1  0  0  0  0
 12 13  2  0  0  0  0
 13 30  1  0  0  0  0
 13 14  1  0  0  0  0
 14 31  1  0  0  0  0
 14 15  2  0  0  0  0
 15 16  1  0  0  0  0
 15 32  1  0  0  0  0
 16 17  1  0  0  0  0
M  CHG  1  12   1
M  CHG  1  17  -1
M  END
> <s_m_source_file>
AV-unprocessed.smi

> <i_m_source_file_index>
3150

> <i_lp_mmshare_version>
43012

> <i_f3d_flags>
0

> <s_epik_input>
W0NIMl0xW0NIMl1bQ0hdMVtDSDJdT1tDQEBIXShbQ0gzXSlDKD1PKVtOSF1jMm5bY0hdW2NIXVtjSF1jMltPSF0=

> <s_epik_cmdline>
J2VwaWtfcHl0aG9uJywgJy1waCcsICc3LjAnLCAnLXRuJywgJzgnLCAnLW1hJywgJzIwMCcsICctbWV0YWxfYmluZGluZycsICctaW1hZScsICc8aW5maWxlLm1hZT4nLCAnLW9tYWUnLCAnPG91dGZpbGUubWFlPic=

> <r_lp_tautomer_probability>
0.56342

> <r_epik_Ionization_Penalty>
0.213151

> <r_epik_Ionization_Penalty_Charging>
0.0249427

> <r_epik_Ionization_Penalty_Neutral>
0.188209

> <r_epik_State_Penalty>
0.538305

> <r_epik_Charging_Adjusted_Penalty>
0.563248

> <i_epik_Tot_Q>
0

> <i_epik_Tot_abs_Q>
2

> <r_epik_Metal_State_Penalty>
2.57454

> <b_epik_Metal_Only>
0

> <s_lp_Force_Field>
OPLS_2005

> <r_lp_Energy>
15.4349

> <b_lp_Chiralities_Consistent>
1

> <s_lp_Variant>
AV-unprocessed.smi:3150-4

> <Gold.Version>
5.8.1

> <Gold.Id.Protein>
6NUR|6NUR_protein|mol2

> <Gold.PLP.Fitness>
40.0726

> <Gold.PLP.PLP>
-32.4792

> <Gold.PLP.part.hbond>
-2.0000

> <Gold.PLP.part.metal>
0.0000

> <Gold.PLP.part.buried>
-3.4652

> <Gold.PLP.part.nonpolar>
-27.0146

> <Gold.PLP.part.repulsive>
0.2877

> <Gold.PLP.ligand.clash>
0.0000

> <Gold.PLP.ligand.torsion>
1.2373

> <Gold.PLP.Chemscore.Hbond>
3.0000

> <Gold.PLP.Chemscore.CHOScore>
0.0000

> <Gold.PLP.Chemscore.Metal>
0.0000

> <Gold.Chemscore.Hbonds>
donor molecule, donor type, donor heavy atom, donor atom, acceptor molecule, acceptor atom, score
      P1  H  7989  7998       L1     3  1.00
      P1  H  7997  8009       L1    17  2.00

> <Gold.PLP.Chemscore.Internal.Correction>
1.0681

> <Gold.Rescore>
     Score         DG    S(hbond)    S(metal)    S(lipo)     H(rot)  DE(clash)    DE(int)     intcor
     15.06     -16.48       1.80        0.00      79.30       1.68       0.17       1.25       ----

> <Gold.Chemscore.Fitness>
15.0595

> <Gold.Chemscore.DG>
-16.4757

> <Gold.Chemscore.ZeroCoef>
-5.4800

> <Gold.Chemscore.Hbond>
1.8045

> <Gold.Chemscore.Metal>
0.0000

> <Gold.Chemscore.Lipo>
79.3010

> <Gold.Chemscore.Internal_Hbond>
0.0000

> <Gold.Chemscore.DEClash>
0.1669

> <Gold.Chemscore.DEInternal>
1.2494

> <Gold.Chemscore.Rot>
1.6833

> <Gold.Chemscore.Internal.Correction>
   9.000000E+99

> <Gold.Chemscore.Hbonds>
donor molecule, donor type, donor heavy atom, donor atom, acceptor molecule, acceptor atom, score
      P1  H  7989  7998       L1     3  0.39
      P1  H  7997  8009       L1    17  0.60

> <Gold.Chemscore.Hbond.Weighted>
-6.0269

> <Gold.Chemscore.Metal.Weighted>
-0.0000

> <Gold.Chemscore.Lipo.Weighted>
-9.2782

> <Gold.Chemscore.Internal_Hbond.Weighted>
0.0000

> <Gold.Chemscore.DEClash.Weighted>
0.1669

> <Gold.Chemscore.DEInternal.Weighted>
1.2494

> <Gold.Chemscore.Rot.Weighted>
4.3094

> <Gold.Chemscore.Internal.Correction.Weighted>
   9.000000E+99

> <Gold.Protein.RotatedTorsions>
[ 6907 6896 6895 6894 ] final   12.91 input  -60.11 | X-H torsion
[ 7974 7965 7964 7962 ] final   10.96 input  175.53 | X-H torsion
[ 8008 7997 7996 7995 ] final  130.36 input   59.86 | X-H torsion
[ 10167 10162 10161 10158 ] final   -7.96 input  -65.29 | X-H torsion
[ 10718 10713 10712 10709 ] final  -85.59 input   66.30 | X-H torsion
[ 10763 10752 10751 10750 ] final   84.93 input  -60.55 | X-H torsion
[ 11005 11000 10999 10996 ] final  172.50 input  -57.11 | X-H torsion

> <Gold.Protein.ActiveResidues>
 VAL166  LYS551  ARG553  GLY616  TRP617  ASP618  TYR619  PRO620  LYS621  CYS622 
 ASP623  PHE694  ASN695  SER759  ASP760  ASP761  ALA762  ILE779  LEU786  VAL792 
 PHE793  MET794  SER795  GLU796  ALA797  LYS798  CYS799  TRP800  GLU811  SER814 

> <Gold.Protein.RotatedAtoms>
  151.7779  135.0769  160.0369 H   0  0  0  0  0  0  0  0  0  0  0  0  # atno 6907 bound_to 6896
  152.3243  133.5884  159.5774 H   0  0  0  0  0  0  0  0  0  0  0  0  # atno 6908 bound_to 6896
  150.7387  133.9879  159.3639 H   0  0  0  0  0  0  0  0  0  0  0  0  # atno 6909 bound_to 6896
  146.2379  139.9556  142.8465 H   0  0  0  0  0  0  0  0  0  0  0  0  # atno 7974 bound_to 7965
  156.2953  140.2598  156.2750 H   0  0  0  0  0  0  0  0  0  0  0  0  # atno 8008 bound_to 7997
  154.9658  140.0392  157.2230 H   0  0  0  0  0  0  0  0  0  0  0  0  # atno 8009 bound_to 7997
  154.7904  140.2811  155.6000 H   0  0  0  0  0  0  0  0  0  0  0  0  # atno 8010 bound_to 7997
  140.7045  143.6022  150.8786 H   0  0  0  0  0  0  0  0  0  0  0  0  # atno 10167 bound_to 10162
  155.9995  130.4736  150.4586 H   0  0  0  0  0  0  0  0  0  0  0  0  # atno 10718 bound_to 10713
  153.1428  135.4636  154.9521 H   0  0  0  0  0  0  0  0  0  0  0  0  # atno 10763 bound_to 10752
  154.7761  135.3173  154.8091 H   0  0  0  0  0  0  0  0  0  0  0  0  # atno 10764 bound_to 10752
  153.8611  135.6912  153.4837 H   0  0  0  0  0  0  0  0  0  0  0  0  # atno 10765 bound_to 10752
  140.3304  134.7362  157.4130 H   0  0  0  0  0  0  0  0  0  0  0  0  # atno 11005 bound_to 11000
  145.1819  140.9771  143.4261 LP  0  0  0  0  0  0  0  0  0  0  0  0  # atno 17320 bound_to 7965
  144.9934  139.3667  143.6203 LP  0  0  0  0  0  0  0  0  0  0  0  0  # atno 17321 bound_to 7965
  139.9746  143.6018  152.2962 LP  0  0  0  0  0  0  0  0  0  0  0  0  # atno 17342 bound_to 10162
  139.6617  144.7662  151.1949 LP  0  0  0  0  0  0  0  0  0  0  0  0  # atno 17343 bound_to 10162
  157.2612  131.0567  151.2319 LP  0  0  0  0  0  0  0  0  0  0  0  0  # atno 17370 bound_to 10713
  157.3433  130.7044  149.6395 LP  0  0  0  0  0  0  0  0  0  0  0  0  # atno 17371 bound_to 10713
  140.0865  134.5659  155.8487 LP  0  0  0  0  0  0  0  0  0  0  0  0  # atno 17394 bound_to 11000
  141.2065  133.6655  156.6244 LP  0  0  0  0  0  0  0  0  0  0  0  0  # atno 17395 bound_to 11000

$$$$
