AV-unprocessed.smi:2784|AV-procd|sdf|10739|dock4
  -GOLD-   2272015173D 1   1.00000     0.00000
 Structure written by MMmdl.
 31 32  0  0  0  0  0  0  0  0  1 V2000
  149.8038  143.9285  159.3766 C   0  0  0  0  0  0  0  0  0  0  0  0
  150.7294  142.8581  159.2808 O   0  0  0  0  0  0  0  0  0  0  0  0
  152.0918  143.2664  159.3730 C   0  0  1  0  0  0  0  0  0  0  0  0
  152.2694  143.8846  160.7615 C   0  0  0  0  0  0  0  0  0  0  0  0
  152.5049  142.6895  161.6801 C   0  0  0  0  0  0  0  0  0  0  0  0
  153.3467  141.7237  160.8436 C   0  0  0  0  0  0  0  0  0  0  0  0
  153.0503  142.0509  159.3665 C   0  0  1  0  0  0  0  0  0  0  0  0
  152.4999  140.8866  158.6744 N   0  0  0  0  0  0  0  0  0  0  0  0
  153.1652  139.7543  158.4020 C   0  0  0  0  0  0  0  0  0  0  0  0
  154.3475  139.6075  158.7277 O   0  0  0  0  0  0  0  0  0  0  0  0
  152.3353  138.8673  157.7319 N   0  0  0  0  0  0  0  0  0  0  0  0
  152.5424  138.6154  156.4764 C   0  0  0  0  0  0  0  0  0  0  0  0
  151.8202  137.7643  155.6551 N   0  0  0  0  0  0  0  0  0  0  0  0
  152.3828  137.7957  154.4090 C   0  0  0  0  0  0  0  0  0  0  0  0
  153.4157  138.6327  154.4424 C   0  0  0  0  0  0  0  0  0  0  0  0
  153.5402  139.1523  155.6954 O   0  0  0  0  0  0  0  0  0  0  0  0
  148.7890  143.5450  159.2718 H   0  0  0  0  0  0  0  0  0  0  0  0
  149.9662  144.6689  158.5931 H   0  0  0  0  0  0  0  0  0  0  0  0
  149.8784  144.4237  160.3456 H   0  0  0  0  0  0  0  0  0  0  0  0
  152.3518  143.9877  158.5956 H   0  0  0  0  0  0  0  0  0  0  0  0
  153.1524  144.5253  160.7666 H   0  0  0  0  0  0  0  0  0  0  0  0
  151.4176  144.4929  161.0679 H   0  0  0  0  0  0  0  0  0  0  0  0
  152.9910  142.9675  162.6159 H   0  0  0  0  0  0  0  0  0  0  0  0
  151.5495  142.2246  161.9273 H   0  0  0  0  0  0  0  0  0  0  0  0
  154.4058  141.8904  161.0450 H   0  0  0  0  0  0  0  0  0  0  0  0
  153.1325  140.6863  161.1047 H   0  0  0  0  0  0  0  0  0  0  0  0
  153.9926  142.3450  158.9005 H   0  0  0  0  0  0  0  0  0  0  0  0
  151.5384  140.9518  158.3730 H   0  0  0  0  0  0  0  0  0  0  0  0
  151.0159  137.2013  155.8910 H   0  0  0  0  0  0  0  0  0  0  0  0
  151.9716  137.1983  153.6086 H   0  0  0  0  0  0  0  0  0  0  0  0
  154.1272  138.9507  153.6947 H   0  0  0  0  0  0  0  0  0  0  0  0
  1  2  1  0  0  0  0
  1 17  1  0  0  0  0
  1 18  1  0  0  0  0
  1 19  1  0  0  0  0
  2  3  1  0  0  0  0
  3  7  1  0  0  0  0
  3  4  1  0  0  0  0
  3 20  1  0  0  0  0
  4  5  1  0  0  0  0
  4 21  1  0  0  0  0
  4 22  1  0  0  0  0
  5  6  1  0  0  0  0
  5 23  1  0  0  0  0
  5 24  1  0  0  0  0
  6  7  1  0  0  0  0
  6 25  1  0  0  0  0
  6 26  1  0  0  0  0
  7  8  1  0  0  0  0
  7 27  1  0  0  0  0
  8 28  1  0  0  0  0
  8  9  1  0  0  0  0
  9 11  1  0  0  0  0
  9 10  2  0  0  0  0
 11 12  2  0  0  0  0
 12 16  1  0  0  0  0
 12 13  1  0  0  0  0
 13 29  1  0  0  0  0
 13 14  1  0  0  0  0
 14 30  1  0  0  0  0
 14 15  2  0  0  0  0
 15 31  1  0  0  0  0
 15 16  1  0  0  0  0
M  END
> <s_m_source_file>
AV-unprocessed.smi

> <i_m_source_file_index>
2784

> <i_lp_mmshare_version>
43012

> <i_f3d_flags>
0

> <s_epik_input>
W0NIM11PW0NAQEhdMVtDSDJdW0NIMl1bQ0gyXVtDQEhdMVtOSF1DKD1PKVtOSF1jMm5bY0hdW2NIXW8y

> <s_epik_cmdline>
J2VwaWtfcHl0aG9uJywgJy1waCcsICc3LjAnLCAnLXRuJywgJzgnLCAnLW1hJywgJzIwMCcsICctbWV0YWxfYmluZGluZycsICctaW1hZScsICc8aW5maWxlLm1hZT4nLCAnLW9tYWUnLCAnPG91dGZpbGUubWFlPic=

> <r_lp_tautomer_probability>
0.107061

> <r_epik_Ionization_Penalty>
1.29244

> <r_epik_Ionization_Penalty_Charging>
1.29208

> <r_epik_Ionization_Penalty_Neutral>
0.000359742

> <r_epik_State_Penalty>
2.59896

> <r_epik_Charging_Adjusted_Penalty>
3.89105

> <i_epik_Tot_Q>
0

> <i_epik_Tot_abs_Q>
0

> <r_epik_Metal_State_Penalty>
3.62496

> <b_epik_Metal_Only>
0

> <s_lp_Force_Field>
OPLS_2005

> <r_lp_Energy>
45.4074

> <b_lp_Chiralities_Consistent>
1

> <s_lp_Variant>
AV-unprocessed.smi:2784-14

> <Gold.Version>
5.8.1

> <Gold.Id.Protein>
6NUR|6NUR_protein|mol2

> <Gold.PLP.Fitness>
40.3437

> <Gold.PLP.PLP>
-33.5018

> <Gold.PLP.part.hbond>
-2.4103

> <Gold.PLP.part.metal>
0.0000

> <Gold.PLP.part.buried>
-5.1362

> <Gold.PLP.part.nonpolar>
-25.5228

> <Gold.PLP.part.repulsive>
0.2283

> <Gold.PLP.ligand.clash>
0.0000

> <Gold.PLP.ligand.torsion>
0.7274

> <Gold.PLP.Chemscore.Hbond>
1.7760

> <Gold.PLP.Chemscore.CHOScore>
0.9856

> <Gold.PLP.Chemscore.Metal>
0.0000

> <Gold.Chemscore.Hbonds>
donor molecule, donor type, donor heavy atom, donor atom, acceptor molecule, acceptor atom, score
      P1  H  7997  8008       L1    10  1.00
      P1  H  7997  8009       L1    16  0.59
      L1  C    14    30       P1  7949  0.92

> <Gold.PLP.Chemscore.Internal.Correction>
0.0120

> <Gold.Rescore>
     Score         DG    S(hbond)    S(metal)    S(lipo)     H(rot)  DE(clash)    DE(int)     intcor
     16.43     -17.26       1.70        0.00      81.11       1.32       0.05       0.79       ----

> <Gold.Chemscore.Fitness>
16.4258

> <Gold.Chemscore.DG>
-17.2611

> <Gold.Chemscore.ZeroCoef>
-5.4800

> <Gold.Chemscore.Hbond>
1.7003

> <Gold.Chemscore.Metal>
0.0000

> <Gold.Chemscore.Lipo>
81.1139

> <Gold.Chemscore.Internal_Hbond>
0.0000

> <Gold.Chemscore.DEClash>
0.0473

> <Gold.Chemscore.DEInternal>
0.7880

> <Gold.Chemscore.Rot>
1.3235

> <Gold.Chemscore.Internal.Correction>
   9.000000E+99

> <Gold.Chemscore.Hbonds>
donor molecule, donor type, donor heavy atom, donor atom, acceptor molecule, acceptor atom, score
      P1  H  7997  8008       L1    10  0.34
      P1  H  7997  8009       L1    16  0.49

> <Gold.Chemscore.Hbond.Weighted>
-5.6789

> <Gold.Chemscore.Metal.Weighted>
-0.0000

> <Gold.Chemscore.Lipo.Weighted>
-9.4903

> <Gold.Chemscore.Internal_Hbond.Weighted>
0.0000

> <Gold.Chemscore.DEClash.Weighted>
0.0473

> <Gold.Chemscore.DEInternal.Weighted>
0.7880

> <Gold.Chemscore.Rot.Weighted>
3.3882

> <Gold.Chemscore.Internal.Correction.Weighted>
   9.000000E+99

> <Gold.Protein.RotatedTorsions>
[ 6907 6896 6895 6894 ] final    5.46 input  -60.11 | X-H torsion
[ 7974 7965 7964 7962 ] final  130.88 input  175.53 | X-H torsion
[ 8008 7997 7996 7995 ] final -123.63 input   59.86 | X-H torsion
[ 10167 10162 10161 10158 ] final   40.45 input  -65.29 | X-H torsion
[ 10718 10713 10712 10709 ] final  123.59 input   66.30 | X-H torsion
[ 10763 10752 10751 10750 ] final   36.25 input  -60.55 | X-H torsion
[ 11005 11000 10999 10996 ] final -133.93 input  -57.11 | X-H torsion

> <Gold.Protein.ActiveResidues>
 VAL166  LYS551  ARG553  GLY616  TRP617  ASP618  TYR619  PRO620  LYS621  CYS622 
 ASP623  PHE694  ASN695  SER759  ASP760  ASP761  ALA762  ILE779  LEU786  VAL792 
 PHE793  MET794  SER795  GLU796  ALA797  LYS798  CYS799  TRP800  GLU811  SER814 

> <Gold.Protein.RotatedAtoms>
  151.6579  135.0993  160.0173 H   0  0  0  0  0  0  0  0  0  0  0  0  # atno 6907 bound_to 6896
  152.3964  133.6748  159.6288 H   0  0  0  0  0  0  0  0  0  0  0  0  # atno 6908 bound_to 6896
  150.7870  133.8784  159.3320 H   0  0  0  0  0  0  0  0  0  0  0  0  # atno 6909 bound_to 6896
  145.0132  139.4201  143.5234 H   0  0  0  0  0  0  0  0  0  0  0  0  # atno 7974 bound_to 7965
  155.1836  140.0411  157.2887 H   0  0  0  0  0  0  0  0  0  0  0  0  # atno 8008 bound_to 7997
  154.6186  140.2495  155.7550 H   0  0  0  0  0  0  0  0  0  0  0  0  # atno 8009 bound_to 7997
  156.2421  140.2899  156.0484 H   0  0  0  0  0  0  0  0  0  0  0  0  # atno 8010 bound_to 7997
  140.3740  144.2067  150.6132 H   0  0  0  0  0  0  0  0  0  0  0  0  # atno 10167 bound_to 10162
  157.5652  131.1087  150.8467 H   0  0  0  0  0  0  0  0  0  0  0  0  # atno 10718 bound_to 10713
  153.0084  135.6311  154.1956 H   0  0  0  0  0  0  0  0  0  0  0  0  # atno 10763 bound_to 10752
  154.1699  135.2819  155.3085 H   0  0  0  0  0  0  0  0  0  0  0  0  # atno 10764 bound_to 10752
  154.5916  135.5616  153.7344 H   0  0  0  0  0  0  0  0  0  0  0  0  # atno 10765 bound_to 10752
  140.9036  134.1658  157.4442 H   0  0  0  0  0  0  0  0  0  0  0  0  # atno 11005 bound_to 11000
  146.3473  139.9588  142.8720 LP  0  0  0  0  0  0  0  0  0  0  0  0  # atno 17320 bound_to 7965
  145.1995  140.9848  143.4164 LP  0  0  0  0  0  0  0  0  0  0  0  0  # atno 17321 bound_to 7965
  140.5004  143.2319  151.8686 LP  0  0  0  0  0  0  0  0  0  0  0  0  # atno 17342 bound_to 10162
  139.4801  144.5065  151.8990 LP  0  0  0  0  0  0  0  0  0  0  0  0  # atno 17343 bound_to 10162
  156.8953  130.5227  149.5284 LP  0  0  0  0  0  0  0  0  0  0  0  0  # atno 17370 bound_to 10713
  156.0701  130.5736  150.9366 LP  0  0  0  0  0  0  0  0  0  0  0  0  # atno 17371 bound_to 10713
  139.8746  134.9908  156.5520 LP  0  0  0  0  0  0  0  0  0  0  0  0  # atno 17394 bound_to 11000
  140.8198  133.8362  155.8885 LP  0  0  0  0  0  0  0  0  0  0  0  0  # atno 17395 bound_to 11000

$$$$
