AV-unprocessed.smi:212|AV-procd|sdf|1629|dock5
  -GOLD-   2262019583D 1   1.00000     0.00000
 Structure written by MMmdl.
 65 68  0  0  0  0  0  0  0  0  2 V2000
  147.8058  134.7901  154.9522 C   0  0  0  0  0  0  0  0  0  0  0  0
  146.4422  135.3295  154.4790 C   0  0  2  0  0  0  0  0  0  0  0  0
  146.2174  135.1856  152.9576 C   0  0  0  0  0  0  0  0  0  0  0  0
  144.8643  135.6622  152.5688 N   0  3  2  0  0  0  0  0  0  0  0  0
  144.5752  135.4822  151.1212 C   0  0  0  0  0  0  0  0  0  0  0  0
  144.3168  134.0045  150.7432 C   0  0  0  0  0  0  0  0  0  0  0  0
  145.6526  133.2617  150.5711 C   0  0  0  0  0  0  0  0  0  0  0  0
  143.4356  133.2820  151.7792 C   0  0  0  0  0  0  0  0  0  0  0  0
  143.6641  133.9522  149.4900 O   0  0  0  0  0  0  0  0  0  0  0  0
  144.5838  137.0379  153.0583 C   0  0  0  0  0  0  0  0  0  0  0  0
  144.8004  137.1401  154.5797 C   0  0  0  0  0  0  0  0  0  0  0  0
  146.1404  136.6894  154.9440 N   0  0  0  0  0  0  0  0  0  0  0  0
  147.0644  137.6814  154.8649 C   0  0  0  0  0  0  0  0  0  0  0  0
  147.0880  138.5277  153.8017 N   0  0  0  0  0  0  0  0  0  0  0  0
  147.9819  139.5201  153.7505 C   0  0  0  0  0  0  0  0  0  0  0  0
  148.9181  139.8470  154.6438 N   0  0  0  0  0  0  0  0  0  0  0  0
  148.8906  139.0068  155.7172 C   0  0  0  0  0  0  0  0  0  0  0  0
  148.0055  137.9089  155.9053 C   0  0  0  0  0  0  0  0  0  0  0  0
  148.2744  137.2814  157.1153 N   0  0  0  0  0  0  0  0  0  0  0  0
  149.2616  137.9724  157.6173 C   0  0  0  0  0  0  0  0  0  0  0  0
  149.6870  139.0320  156.8476 N   0  0  0  0  0  0  0  0  0  0  0  0
  150.7510  139.9681  157.1632 C   0  0  0  0  0  0  0  0  0  0  0  0
  150.3001  141.4534  157.1781 C   0  0  1  0  0  0  0  0  0  0  0  0
  149.1843  141.7240  158.2205 C   0  0  0  0  0  0  0  0  0  0  0  0
  148.2488  142.6780  157.7599 O   0  0  0  0  0  0  0  0  0  0  0  0
  151.5179  142.3849  157.4142 C   0  0  1  0  0  0  0  0  0  0  0  0
  151.1915  143.8685  157.4641 C   0  0  0  0  0  0  0  0  0  0  0  0
  152.4217  144.4444  158.1533 C   0  0  0  0  0  0  0  0  0  0  0  0
  152.8156  143.4569  159.0962 O   0  0  0  0  0  0  0  0  0  0  0  0
  152.2136  142.2073  158.7714 C   0  0  0  0  0  0  0  0  0  0  0  0
  147.8991  133.7286  154.7216 H   0  0  0  0  0  0  0  0  0  0  0  0
  147.9165  134.8998  156.0313 H   0  0  0  0  0  0  0  0  0  0  0  0
  148.6454  135.2952  154.4758 H   0  0  0  0  0  0  0  0  0  0  0  0
  145.6961  134.6978  154.9634 H   0  0  0  0  0  0  0  0  0  0  0  0
  146.9719  135.7348  152.3942 H   0  0  0  0  0  0  0  0  0  0  0  0
  146.3200  134.1367  152.6758 H   0  0  0  0  0  0  0  0  0  0  0  0
  143.7330  136.1102  150.8248 H   0  0  0  0  0  0  0  0  0  0  0  0
  145.4214  135.8393  150.5314 H   0  0  0  0  0  0  0  0  0  0  0  0
  146.2205  133.2502  151.5022 H   0  0  0  0  0  0  0  0  0  0  0  0
  146.2774  133.7339  149.8117 H   0  0  0  0  0  0  0  0  0  0  0  0
  145.4973  132.2248  150.2702 H   0  0  0  0  0  0  0  0  0  0  0  0
  143.8922  133.3062  152.7694 H   0  0  0  0  0  0  0  0  0  0  0  0
  143.2889  132.2348  151.5121 H   0  0  0  0  0  0  0  0  0  0  0  0
  142.4472  133.7356  151.8609 H   0  0  0  0  0  0  0  0  0  0  0  0
  144.3136  134.0359  148.8078 H   0  0  0  0  0  0  0  0  0  0  0  0
  145.2329  137.7459  152.5406 H   0  0  0  0  0  0  0  0  0  0  0  0
  143.5585  137.3189  152.8187 H   0  0  0  0  0  0  0  0  0  0  0  0
  144.6226  138.1630  154.9152 H   0  0  0  0  0  0  0  0  0  0  0  0
  144.0725  136.5178  155.1015 H   0  0  0  0  0  0  0  0  0  0  0  0
  147.9393  140.1433  152.8695 H   0  0  0  0  0  0  0  0  0  0  0  0
  149.7025  137.7330  158.5739 H   0  0  0  0  0  0  0  0  0  0  0  0
  151.1722  139.6958  158.1318 H   0  0  0  0  0  0  0  0  0  0  0  0
  151.5418  139.8133  156.4293 H   0  0  0  0  0  0  0  0  0  0  0  0
  149.9002  141.6941  156.1916 H   0  0  0  0  0  0  0  0  0  0  0  0
  148.6679  140.8002  158.4841 H   0  0  0  0  0  0  0  0  0  0  0  0
  149.5951  142.1262  159.1452 H   0  0  0  0  0  0  0  0  0  0  0  0
  148.6534  143.1899  157.0760 H   0  0  0  0  0  0  0  0  0  0  0  0
  152.2538  142.2248  156.6242 H   0  0  0  0  0  0  0  0  0  0  0  0
  151.0264  144.3092  156.4808 H   0  0  0  0  0  0  0  0  0  0  0  0
  150.3033  144.0453  158.0728 H   0  0  0  0  0  0  0  0  0  0  0  0
  153.2302  144.5829  157.4344 H   0  0  0  0  0  0  0  0  0  0  0  0
  152.2247  145.4031  158.6339 H   0  0  0  0  0  0  0  0  0  0  0  0
  151.4904  141.9667  159.5517 H   0  0  0  0  0  0  0  0  0  0  0  0
  152.9626  141.4154  158.7526 H   0  0  0  0  0  0  0  0  0  0  0  0
  144.2164  135.0576  153.0533 H   0  0  0  0  0  0  0  0  0  0  0  0
  1  2  1  0  0  0  0
  1 31  1  0  0  0  0
  1 32  1  0  0  0  0
  1 33  1  0  0  0  0
  2 12  1  0  0  0  0
  2  3  1  0  0  0  0
  2 34  1  0  0  0  0
  3  4  1  0  0  0  0
  3 35  1  0  0  0  0
  3 36  1  0  0  0  0
  4  5  1  0  0  0  0
  4 10  1  0  0  0  0
  4 65  1  0  0  0  0
  5  6  1  0  0  0  0
  5 37  1  0  0  0  0
  5 38  1  0  0  0  0
  6  7  1  0  0  0  0
  6  8  1  0  0  0  0
  6  9  1  0  0  0  0
  7 39  1  0  0  0  0
  7 40  1  0  0  0  0
  7 41  1  0  0  0  0
  8 42  1  0  0  0  0
  8 43  1  0  0  0  0
  8 44  1  0  0  0  0
  9 45  1  0  0  0  0
 10 11  1  0  0  0  0
 10 46  1  0  0  0  0
 10 47  1  0  0  0  0
 11 12  1  0  0  0  0
 11 48  1  0  0  0  0
 11 49  1  0  0  0  0
 12 13  1  0  0  0  0
 13 18  1  0  0  0  0
 13 14  2  0  0  0  0
 14 15  1  0  0  0  0
 15 16  2  0  0  0  0
 15 50  1  0  0  0  0
 16 17  1  0  0  0  0
 17 21  1  0  0  0  0
 17 18  2  0  0  0  0
 18 19  1  0  0  0  0
 19 20  2  0  0  0  0
 20 21  1  0  0  0  0
 20 51  1  0  0  0  0
 21 22  1  0  0  0  0
 22 23  1  0  0  0  0
 22 52  1  0  0  0  0
 22 53  1  0  0  0  0
 23 24  1  0  0  0  0
 23 26  1  0  0  0  0
 23 54  1  0  0  0  0
 24 25  1  0  0  0  0
 24 55  1  0  0  0  0
 24 56  1  0  0  0  0
 25 57  1  0  0  0  0
 26 30  1  0  0  0  0
 26 27  1  0  0  0  0
 26 58  1  0  0  0  0
 27 28  1  0  0  0  0
 27 59  1  0  0  0  0
 27 60  1  0  0  0  0
 28 29  1  0  0  0  0
 28 61  1  0  0  0  0
 28 62  1  0  0  0  0
 29 30  1  0  0  0  0
 30 63  1  0  0  0  0
 30 64  1  0  0  0  0
M  CHG  1   4   1
M  END
> <s_m_source_file>
AV-unprocessed.smi

> <i_m_source_file_index>
212

> <i_lp_mmshare_version>
43012

> <i_f3d_flags>
0

> <s_epik_input>
W0NIM11bQ0BASF0xW0NIMl1OKFtDSDJdQyhbQ0gzXSkoW0NIM10pW09IXSlbQ0gyXVtDSDJdTjFjKG5bY0hdbjIpYyhjMjMpbltjSF1uM1tDSDJdW0NASF0oW0NIMl1bT0hdKVtDQEBIXTRbQ0gyXVtDSDJdT1tDSDJdNA==

> <s_epik_cmdline>
J2VwaWtfcHl0aG9uJywgJy1waCcsICc3LjAnLCAnLXRuJywgJzgnLCAnLW1hJywgJzIwMCcsICctbWV0YWxfYmluZGluZycsICctaW1hZScsICc8aW5maWxlLm1hZT4nLCAnLW9tYWUnLCAnPG91dGZpbGUubWFlPic=

> <r_lp_tautomer_probability>
1

> <r_epik_Ionization_Penalty>
0.00182193

> <r_epik_Ionization_Penalty_Charging>
0.00173996

> <r_epik_Ionization_Penalty_Neutral>
8.19718e-05

> <r_epik_State_Penalty>
-0

> <r_epik_Charging_Adjusted_Penalty>
0.00173996

> <i_epik_Tot_Q>
1

> <i_epik_Tot_abs_Q>
1

> <r_epik_Metal_State_Penalty>
-0

> <b_epik_Metal_Only>
0

> <s_lp_Force_Field>
OPLS_2005

> <r_lp_Energy>
57.8479

> <b_lp_Chiralities_Consistent>
1

> <s_lp_Variant>
AV-unprocessed.smi:212-13

> <Gold.Version>
5.8.1

> <Gold.Id.Protein>
6NUR|6NUR_protein|mol2

> <Gold.PLP.Fitness>
45.0467

> <Gold.PLP.PLP>
-37.6525

> <Gold.PLP.part.hbond>
-3.6549

> <Gold.PLP.part.metal>
0.0000

> <Gold.PLP.part.buried>
-3.0188

> <Gold.PLP.part.nonpolar>
-31.2877

> <Gold.PLP.part.repulsive>
0.3072

> <Gold.PLP.ligand.clash>
0.0000

> <Gold.PLP.ligand.torsion>
1.4400

> <Gold.PLP.Chemscore.Hbond>
1.9920

> <Gold.PLP.Chemscore.CHOScore>
1.0000

> <Gold.PLP.Chemscore.Metal>
0.0000

> <Gold.Chemscore.Hbonds>
donor molecule, donor type, donor heavy atom, donor atom, acceptor molecule, acceptor atom, score
      L1  H     9    45       P1  7921  0.34
      L1  H    25    57       P1  8028  0.86
      L1  C    15    50       P1  7957  0.85

> <Gold.PLP.Chemscore.Internal.Correction>
1.2982

> <Gold.Rescore>
     Score         DG    S(hbond)    S(metal)    S(lipo)     H(rot)  DE(clash)    DE(int)     intcor
      8.73     -12.45       1.57        0.00      95.34       3.68       0.94       2.77       ----

> <Gold.Chemscore.Fitness>
8.7338

> <Gold.Chemscore.DG>
-12.4464

> <Gold.Chemscore.ZeroCoef>
-5.4800

> <Gold.Chemscore.Hbond>
1.5677

> <Gold.Chemscore.Metal>
0.0000

> <Gold.Chemscore.Lipo>
95.3351

> <Gold.Chemscore.Internal_Hbond>
0.0000

> <Gold.Chemscore.DEClash>
0.9435

> <Gold.Chemscore.DEInternal>
2.7690

> <Gold.Chemscore.Rot>
3.6812

> <Gold.Chemscore.Internal.Correction>
   9.000000E+99

> <Gold.Chemscore.Hbonds>
donor molecule, donor type, donor heavy atom, donor atom, acceptor molecule, acceptor atom, score
      L1  H     9    45       P1  7921  0.35
      L1  H    25    57       P1  8028  0.37

> <Gold.Chemscore.Hbond.Weighted>
-5.2361

> <Gold.Chemscore.Metal.Weighted>
-0.0000

> <Gold.Chemscore.Lipo.Weighted>
-11.1542

> <Gold.Chemscore.Internal_Hbond.Weighted>
0.0000

> <Gold.Chemscore.DEClash.Weighted>
0.9435

> <Gold.Chemscore.DEInternal.Weighted>
2.7690

> <Gold.Chemscore.Rot.Weighted>
9.4239

> <Gold.Chemscore.Internal.Correction.Weighted>
   9.000000E+99

> <Gold.Protein.RotatedTorsions>
[ 6907 6896 6895 6894 ] final -106.92 input  -60.11 | X-H torsion
[ 7974 7965 7964 7962 ] final -176.94 input  175.53 | X-H torsion
[ 8008 7997 7996 7995 ] final   93.47 input   59.86 | X-H torsion
[ 10167 10162 10161 10158 ] final   67.39 input  -65.29 | X-H torsion
[ 10718 10713 10712 10709 ] final  -41.51 input   66.30 | X-H torsion
[ 10763 10752 10751 10750 ] final  151.53 input  -60.55 | X-H torsion
[ 11005 11000 10999 10996 ] final -139.36 input  -57.11 | X-H torsion

> <Gold.Protein.ActiveResidues>
 VAL166  LYS551  ARG553  GLY616  TRP617  ASP618  TYR619  PRO620  LYS621  CYS622 
 ASP623  PHE694  ASN695  SER759  ASP760  ASP761  ALA762  ILE779  LEU786  VAL792 
 PHE793  MET794  SER795  GLU796  ALA797  LYS798  CYS799  TRP800  GLU811  SER814 

> <Gold.Protein.RotatedAtoms>
  150.7416  133.9903  159.3604 H   0  0  0  0  0  0  0  0  0  0  0  0  # atno 6907 bound_to 6896
  151.7850  135.0749  160.0388 H   0  0  0  0  0  0  0  0  0  0  0  0  # atno 6908 bound_to 6896
  152.3247  133.5855  159.5805 H   0  0  0  0  0  0  0  0  0  0  0  0  # atno 6909 bound_to 6896
  144.7127  140.1094  143.6412 H   0  0  0  0  0  0  0  0  0  0  0  0  # atno 7974 bound_to 7965
  156.0471  140.3312  155.7308 H   0  0  0  0  0  0  0  0  0  0  0  0  # atno 8008 bound_to 7997
  155.5657  140.0623  157.2836 H   0  0  0  0  0  0  0  0  0  0  0  0  # atno 8009 bound_to 7997
  154.4419  140.1869  156.0817 H   0  0  0  0  0  0  0  0  0  0  0  0  # atno 8010 bound_to 7997
  140.0901  144.4996  150.7104 H   0  0  0  0  0  0  0  0  0  0  0  0  # atno 10167 bound_to 10162
  156.2696  130.4205  149.8453 H   0  0  0  0  0  0  0  0  0  0  0  0  # atno 10718 bound_to 10713
  154.1053  135.2843  155.3242 H   0  0  0  0  0  0  0  0  0  0  0  0  # atno 10763 bound_to 10752
  154.6527  135.5363  153.7925 H   0  0  0  0  0  0  0  0  0  0  0  0  # atno 10764 bound_to 10752
  153.0364  135.6514  154.1214 H   0  0  0  0  0  0  0  0  0  0  0  0  # atno 10765 bound_to 10752
  140.8527  134.2266  157.4751 H   0  0  0  0  0  0  0  0  0  0  0  0  # atno 11005 bound_to 11000
  145.9468  139.2706  143.1236 LP  0  0  0  0  0  0  0  0  0  0  0  0  # atno 17320 bound_to 7965
  145.9366  140.9010  143.0329 LP  0  0  0  0  0  0  0  0  0  0  0  0  # atno 17321 bound_to 7965
  140.7033  143.2450  151.4801 LP  0  0  0  0  0  0  0  0  0  0  0  0  # atno 17342 bound_to 10162
  139.5730  144.1885  152.1863 LP  0  0  0  0  0  0  0  0  0  0  0  0  # atno 17343 bound_to 10162
  156.5939  130.8518  151.3415 LP  0  0  0  0  0  0  0  0  0  0  0  0  # atno 17370 bound_to 10713
  157.7279  130.9649  150.1720 LP  0  0  0  0  0  0  0  0  0  0  0  0  # atno 17371 bound_to 10713
  139.8704  134.9691  156.4655 LP  0  0  0  0  0  0  0  0  0  0  0  0  # atno 17394 bound_to 11000
  140.8772  133.7945  155.9427 LP  0  0  0  0  0  0  0  0  0  0  0  0  # atno 17395 bound_to 11000

$$$$
