AV-unprocessed.smi:1901|AV-procd|sdf|7716|dock2
  -GOLD-   22720 9453D 1   1.00000     0.00000
 Structure written by MMmdl.
 28 29  0  0  0  0  0  0  0  0  1 V2000
  144.7473  137.5044  152.4922 O   0  0  0  0  0  0  0  0  0  0  0  0
  145.9297  137.1991  152.3329 C   0  0  0  0  0  0  0  0  0  0  0  0
  146.9465  138.0454  152.5506 N   0  0  0  0  0  0  0  0  0  0  0  0
  146.8034  139.4259  153.0004 C   0  0  0  0  0  0  0  0  0  0  0  0
  147.8644  139.8055  154.0508 C   0  0  2  0  0  0  0  0  0  0  0  0
  148.1514  141.2904  154.1568 C   0  0  0  0  0  0  0  0  0  0  0  0
  149.5042  141.2953  154.8605 C   0  0  0  0  0  0  0  0  0  0  0  0
  150.1750  140.1204  154.4150 O   0  0  0  0  0  0  0  0  0  0  0  0
  149.2584  139.2538  153.7518 C   0  0  0  0  0  0  0  0  0  0  0  0
  146.3747  135.9979  151.9247 N   0  0  0  0  0  0  0  0  0  0  0  0
  145.6140  134.8432  151.6032 C   0  0  0  0  0  0  0  0  0  0  0  0
  144.2782  134.8155  151.5289 N   0  0  0  0  0  0  0  0  0  0  0  0
  143.7973  133.5468  151.1957 C   0  0  0  0  0  0  0  0  0  0  0  0
  144.7883  132.6139  151.0176 C   0  0  0  0  0  0  0  0  0  0  0  0
  146.3743  133.2959  151.2617 S   0  0  0  0  0  0  0  0  0  0  0  0
  147.8868  137.7129  152.3942 H   0  0  0  0  0  0  0  0  0  0  0  0
  146.8592  140.1026  152.1461 H   0  0  0  0  0  0  0  0  0  0  0  0
  145.8029  139.5419  153.4183 H   0  0  0  0  0  0  0  0  0  0  0  0
  147.5561  139.4405  155.0323 H   0  0  0  0  0  0  0  0  0  0  0  0
  148.2439  141.7339  153.1643 H   0  0  0  0  0  0  0  0  0  0  0  0
  147.3865  141.8386  154.7076 H   0  0  0  0  0  0  0  0  0  0  0  0
  150.0843  142.1928  154.6449 H   0  0  0  0  0  0  0  0  0  0  0  0
  149.3698  141.2296  155.9410 H   0  0  0  0  0  0  0  0  0  0  0  0
  149.3760  138.2222  154.0845 H   0  0  0  0  0  0  0  0  0  0  0  0
  149.4692  139.2889  152.6821 H   0  0  0  0  0  0  0  0  0  0  0  0
  147.3752  135.8944  151.8410 H   0  0  0  0  0  0  0  0  0  0  0  0
  142.7316  133.3954  151.1059 H   0  0  0  0  0  0  0  0  0  0  0  0
  144.6813  131.5710  150.7589 H   0  0  0  0  0  0  0  0  0  0  0  0
  1  2  2  0  0  0  0
  2  3  1  0  0  0  0
  2 10  1  0  0  0  0
  3  4  1  0  0  0  0
  3 16  1  0  0  0  0
  4  5  1  0  0  0  0
  4 17  1  0  0  0  0
  4 18  1  0  0  0  0
  5  9  1  0  0  0  0
  5  6  1  0  0  0  0
  5 19  1  0  0  0  0
  6  7  1  0  0  0  0
  6 20  1  0  0  0  0
  6 21  1  0  0  0  0
  7  8  1  0  0  0  0
  7 22  1  0  0  0  0
  7 23  1  0  0  0  0
  8  9  1  0  0  0  0
  9 24  1  0  0  0  0
  9 25  1  0  0  0  0
 10 11  1  0  0  0  0
 10 26  1  0  0  0  0
 11 15  1  0  0  0  0
 11 12  2  0  0  0  0
 12 13  1  0  0  0  0
 13 14  2  0  0  0  0
 13 27  1  0  0  0  0
 14 15  1  0  0  0  0
 14 28  1  0  0  0  0
M  END
> <s_m_source_file>
AV-unprocessed.smi

> <i_m_source_file_index>
1901

> <i_lp_mmshare_version>
43012

> <i_f3d_flags>
0

> <s_epik_input>
czFbY0hdW2NIXW5jMVtOSF1DKD1PKVtOSF1bQ0gyXVtDQEBIXTJbQ0gyXVtDSDJdT1tDSDJdMg==

> <s_epik_cmdline>
J2VwaWtfcHl0aG9uJywgJy1waCcsICc3LjAnLCAnLXRuJywgJzgnLCAnLW1hJywgJzIwMCcsICctbWV0YWxfYmluZGluZycsICctaW1hZScsICc8aW5maWxlLm1hZT4nLCAnLW9tYWUnLCAnPG91dGZpbGUubWFlPic=

> <r_lp_tautomer_probability>
0.999

> <r_epik_Ionization_Penalty>
0.000365592

> <r_epik_Ionization_Penalty_Charging>
0

> <r_epik_Ionization_Penalty_Neutral>
0.000365592

> <r_epik_State_Penalty>
0.000177984

> <r_epik_Charging_Adjusted_Penalty>
0.000177984

> <i_epik_Tot_Q>
0

> <i_epik_Tot_abs_Q>
0

> <r_epik_Metal_State_Penalty>
0.00682492

> <b_epik_Metal_Only>
0

> <s_lp_Force_Field>
OPLS_2005

> <r_lp_Energy>
16.9403

> <b_lp_Chiralities_Consistent>
1

> <s_lp_Variant>
AV-unprocessed.smi:1901-1

> <Gold.Version>
5.8.1

> <Gold.Id.Protein>
6NUR|6NUR_protein|mol2

> <Gold.PLP.Fitness>
36.5148

> <Gold.PLP.PLP>
-25.4889

> <Gold.PLP.part.hbond>
-3.0000

> <Gold.PLP.part.metal>
0.0000

> <Gold.PLP.part.buried>
-2.4016

> <Gold.PLP.part.nonpolar>
-22.0978

> <Gold.PLP.part.repulsive>
1.3259

> <Gold.PLP.ligand.clash>
0.0000

> <Gold.PLP.ligand.torsion>
0.3582

> <Gold.PLP.Chemscore.Hbond>
2.9120

> <Gold.PLP.Chemscore.CHOScore>
1.0000

> <Gold.PLP.Chemscore.Metal>
0.0000

> <Gold.Chemscore.Hbonds>
donor molecule, donor type, donor heavy atom, donor atom, acceptor molecule, acceptor atom, score
      L1  H     3    16       P1  7948  0.91
      L1  H    10    26       P1  7948  1.00
      P1  H  7989  7998       L1     8  1.00
      L1  C    13    27       P1 10186  1.00

> <Gold.PLP.Chemscore.Internal.Correction>
0.0063

> <Gold.Rescore>
     Score         DG    S(hbond)    S(metal)    S(lipo)     H(rot)  DE(clash)    DE(int)     intcor
     14.38     -17.32       2.59        0.00      56.17       1.32       1.39       1.54       ----

> <Gold.Chemscore.Fitness>
14.3830

> <Gold.Chemscore.DG>
-17.3193

> <Gold.Chemscore.ZeroCoef>
-5.4800

> <Gold.Chemscore.Hbond>
2.5861

> <Gold.Chemscore.Metal>
0.0000

> <Gold.Chemscore.Lipo>
56.1671

> <Gold.Chemscore.Internal_Hbond>
0.0000

> <Gold.Chemscore.DEClash>
1.3914

> <Gold.Chemscore.DEInternal>
1.5449

> <Gold.Chemscore.Rot>
1.3163

> <Gold.Chemscore.Internal.Correction>
   9.000000E+99

> <Gold.Chemscore.Hbonds>
donor molecule, donor type, donor heavy atom, donor atom, acceptor molecule, acceptor atom, score
      L1  H     3    16       P1  7948  0.89
      L1  H    10    26       P1  7948  0.98
      P1  H  7989  7998       L1     8  0.28

> <Gold.Chemscore.Hbond.Weighted>
-8.6376

> <Gold.Chemscore.Metal.Weighted>
-0.0000

> <Gold.Chemscore.Lipo.Weighted>
-6.5716

> <Gold.Chemscore.Internal_Hbond.Weighted>
0.0000

> <Gold.Chemscore.DEClash.Weighted>
1.3914

> <Gold.Chemscore.DEInternal.Weighted>
1.5449

> <Gold.Chemscore.Rot.Weighted>
3.3698

> <Gold.Chemscore.Internal.Correction.Weighted>
   9.000000E+99

> <Gold.Protein.RotatedTorsions>
[ 6907 6896 6895 6894 ] final -160.43 input  -60.11 | X-H torsion
[ 7974 7965 7964 7962 ] final   49.18 input  175.53 | X-H torsion
[ 8008 7997 7996 7995 ] final -166.93 input   59.86 | X-H torsion
[ 10167 10162 10161 10158 ] final  156.67 input  -65.29 | X-H torsion
[ 10718 10713 10712 10709 ] final -120.29 input   66.30 | X-H torsion
[ 10763 10752 10751 10750 ] final   12.88 input  -60.55 | X-H torsion
[ 11005 11000 10999 10996 ] final  -22.59 input  -57.11 | X-H torsion

> <Gold.Protein.ActiveResidues>
 VAL166  LYS551  ARG553  GLY616  TRP617  ASP618  TYR619  PRO620  LYS621  CYS622 
 ASP623  PHE694  ASN695  SER759  ASP760  ASP761  ALA762  ILE779  LEU786  VAL792 
 PHE793  MET794  SER795  GLU796  ALA797  LYS798  CYS799  TRP800  GLU811  SER814 

> <Gold.Protein.RotatedAtoms>
  151.3489  133.3933  159.2678 H   0  0  0  0  0  0  0  0  0  0  0  0  # atno 6907 bound_to 6896
  150.9817  134.9172  159.7858 H   0  0  0  0  0  0  0  0  0  0  0  0  # atno 6908 bound_to 6896
  152.5219  134.3453  159.9284 H   0  0  0  0  0  0  0  0  0  0  0  0  # atno 6909 bound_to 6896
  146.0134  139.4568  142.9942 H   0  0  0  0  0  0  0  0  0  0  0  0  # atno 7974 bound_to 7965
  155.8707  140.0993  157.1552 H   0  0  0  0  0  0  0  0  0  0  0  0  # atno 8008 bound_to 7997
  154.3997  140.1347  156.4138 H   0  0  0  0  0  0  0  0  0  0  0  0  # atno 8009 bound_to 7997
  155.7753  140.3460  155.5271 H   0  0  0  0  0  0  0  0  0  0  0  0  # atno 8010 bound_to 7997
  139.4821  144.4988  151.8200 H   0  0  0  0  0  0  0  0  0  0  0  0  # atno 10167 bound_to 10162
  156.1246  130.6349  150.9521 H   0  0  0  0  0  0  0  0  0  0  0  0  # atno 10718 bound_to 10713
  153.1778  135.6823  153.8519 H   0  0  0  0  0  0  0  0  0  0  0  0  # atno 10763 bound_to 10752
  153.7862  135.3175  155.3373 H   0  0  0  0  0  0  0  0  0  0  0  0  # atno 10764 bound_to 10752
  154.8040  135.4760  154.0440 H   0  0  0  0  0  0  0  0  0  0  0  0  # atno 10765 bound_to 10752
  140.8671  133.7746  156.0143 H   0  0  0  0  0  0  0  0  0  0  0  0  # atno 11005 bound_to 11000
  145.7307  141.0043  143.1353 LP  0  0  0  0  0  0  0  0  0  0  0  0  # atno 17320 bound_to 7965
  144.6961  139.8981  143.7457 LP  0  0  0  0  0  0  0  0  0  0  0  0  # atno 17321 bound_to 7965
  140.4479  144.1896  150.5895 LP  0  0  0  0  0  0  0  0  0  0  0  0  # atno 17342 bound_to 10162
  140.4616  143.2447  151.9212 LP  0  0  0  0  0  0  0  0  0  0  0  0  # atno 17343 bound_to 10162
  157.6428  131.0908  150.8215 LP  0  0  0  0  0  0  0  0  0  0  0  0  # atno 17370 bound_to 10713
  156.8307  130.5015  149.5332 LP  0  0  0  0  0  0  0  0  0  0  0  0  # atno 17371 bound_to 10713
  140.8616  134.2834  157.5232 LP  0  0  0  0  0  0  0  0  0  0  0  0  # atno 17394 bound_to 11000
  139.8710  134.9521  156.4104 LP  0  0  0  0  0  0  0  0  0  0  0  0  # atno 17395 bound_to 11000

$$$$
