AV-unprocessed.smi:648|AV-procd|sdf|3172|dock10
  -GOLD-   22720 0 93D 1   1.00000     0.00000
 Structure written by MMmdl.
 46 47  0  0  0  0  0  0  0  0  2 V2000
  150.1411  141.6991  156.7389 C   0  0  0  0  0  0  0  0  0  0  0  0
  150.2652  140.2985  156.1211 C   0  0  2  0  0  0  0  0  0  0  0  0
  151.7176  140.0093  155.6950 C   0  0  0  0  0  0  0  0  0  0  0  0
  151.9204  138.6069  155.0728 C   0  0  0  0  0  0  0  0  0  0  0  0
  153.3133  138.5682  154.4070 C   0  0  0  0  0  0  0  0  0  0  0  0
  151.9311  137.5155  156.1677 C   0  0  0  0  0  0  0  0  0  0  0  0
  150.8565  138.3457  153.9640 C   0  0  0  0  0  0  0  0  0  0  0  0
  149.3752  138.7279  154.2672 C   0  0  2  0  0  0  0  0  0  0  0  0
  148.7072  137.6705  155.1884 C   0  0  0  0  0  0  0  0  0  0  0  0
  148.9707  136.3505  154.7514 O   0  0  0  0  0  0  0  0  0  0  0  0
  148.6006  138.6706  152.9922 N   0  3  0  0  0  0  0  0  0  0  0  0
  147.1424  138.9329  153.0178 C   0  0  0  0  0  0  0  0  0  0  0  0
  146.4744  138.3964  151.7439 C   0  0  0  0  0  0  0  0  0  0  0  0
  145.5664  137.3042  152.0340 N   0  0  0  0  0  0  0  0  0  0  0  0
  145.6558  136.0016  151.7603 C   0  0  0  0  0  0  0  0  0  0  0  0
  144.6191  135.2934  152.1860 N   0  0  0  0  0  0  0  0  0  0  0  0
  143.8755  136.2920  152.7488 C   0  0  0  0  0  0  0  0  0  0  0  0
  144.3991  137.5167  152.6849 N   0  0  0  0  0  0  0  0  0  0  0  0
  149.3251  140.1427  154.9109 C   0  0  0  0  0  0  0  0  0  0  0  0
  150.4133  142.4764  156.0240 H   0  0  0  0  0  0  0  0  0  0  0  0
  150.7916  141.8042  157.6078 H   0  0  0  0  0  0  0  0  0  0  0  0
  149.1201  141.8937  157.0690 H   0  0  0  0  0  0  0  0  0  0  0  0
  149.9736  139.5923  156.8968 H   0  0  0  0  0  0  0  0  0  0  0  0
  152.0188  140.7700  154.9728 H   0  0  0  0  0  0  0  0  0  0  0  0
  152.3861  140.1336  156.5484 H   0  0  0  0  0  0  0  0  0  0  0  0
  153.5101  137.5952  153.9547 H   0  0  0  0  0  0  0  0  0  0  0  0
  154.1081  138.7603  155.1289 H   0  0  0  0  0  0  0  0  0  0  0  0
  153.4079  139.3180  153.6207 H   0  0  0  0  0  0  0  0  0  0  0  0
  151.9090  136.5150  155.7347 H   0  0  0  0  0  0  0  0  0  0  0  0
  151.1066  137.5957  156.8695 H   0  0  0  0  0  0  0  0  0  0  0  0
  152.8347  137.5814  156.7752 H   0  0  0  0  0  0  0  0  0  0  0  0
  151.1756  138.9189  153.0947 H   0  0  0  0  0  0  0  0  0  0  0  0
  150.9110  137.3054  153.6398 H   0  0  0  0  0  0  0  0  0  0  0  0
  149.0680  137.7693  156.2129 H   0  0  0  0  0  0  0  0  0  0  0  0
  147.6284  137.7671  155.2291 H   0  0  0  0  0  0  0  0  0  0  0  0
  149.0489  136.3549  153.8091 H   0  0  0  0  0  0  0  0  0  0  0  0
  149.0278  139.3218  152.3493 H   0  0  0  0  0  0  0  0  0  0  0  0
  146.6975  138.4418  153.8837 H   0  0  0  0  0  0  0  0  0  0  0  0
  146.9425  139.9995  153.1109 H   0  0  0  0  0  0  0  0  0  0  0  0
  145.9148  139.1874  151.2422 H   0  0  0  0  0  0  0  0  0  0  0  0
  147.2276  138.0426  151.0383 H   0  0  0  0  0  0  0  0  0  0  0  0
  146.4955  135.5613  151.2426 H   0  0  0  0  0  0  0  0  0  0  0  0
  142.9205  136.1111  153.2199 H   0  0  0  0  0  0  0  0  0  0  0  0
  148.3030  140.3945  155.1956 H   0  0  0  0  0  0  0  0  0  0  0  0
  149.6272  140.8997  154.1877 H   0  0  0  0  0  0  0  0  0  0  0  0
  148.7243  137.7402  152.6178 H   0  0  0  0  0  0  0  0  0  0  0  0
  1  2  1  0  0  0  0
  1 20  1  0  0  0  0
  1 21  1  0  0  0  0
  1 22  1  0  0  0  0
  2 19  1  0  0  0  0
  2  3  1  0  0  0  0
  2 23  1  0  0  0  0
  3  4  1  0  0  0  0
  3 24  1  0  0  0  0
  3 25  1  0  0  0  0
  4  5  1  0  0  0  0
  4  6  1  0  0  0  0
  4  7  1  0  0  0  0
  5 26  1  0  0  0  0
  5 27  1  0  0  0  0
  5 28  1  0  0  0  0
  6 29  1  0  0  0  0
  6 30  1  0  0  0  0
  6 31  1  0  0  0  0
  7  8  1  0  0  0  0
  7 32  1  0  0  0  0
  7 33  1  0  0  0  0
  8  9  1  0  0  0  0
  8 11  1  0  0  0  0
  8 19  1  0  0  0  0
  9 10  1  0  0  0  0
  9 34  1  0  0  0  0
  9 35  1  0  0  0  0
 10 36  1  0  0  0  0
 11 12  1  0  0  0  0
 11 37  1  0  0  0  0
 11 46  1  0  0  0  0
 12 13  1  0  0  0  0
 12 38  1  0  0  0  0
 12 39  1  0  0  0  0
 13 14  1  0  0  0  0
 13 40  1  0  0  0  0
 13 41  1  0  0  0  0
 14 18  1  0  0  0  0
 14 15  1  0  0  0  0
 15 16  2  0  0  0  0
 15 42  1  0  0  0  0
 16 17  1  0  0  0  0
 17 18  2  0  0  0  0
 17 43  1  0  0  0  0
 19 44  1  0  0  0  0
 19 45  1  0  0  0  0
M  CHG  1  11   1
M  END
> <s_m_source_file>
AV-unprocessed.smi

> <i_m_source_file_index>
648

> <i_lp_mmshare_version>
43012

> <i_f3d_flags>
0

> <s_epik_input>
W0NIM11DMShbQ0gzXSlbQ0gyXVtDQEBIXShbQ0gzXSlbQ0gyXVtDQF0oW0NIMl0xKShbQ0gyXVtPSF0pW05IXVtDSDJdW0NIMl1uMltjSF1uW2NIXW4y

> <s_epik_cmdline>
J2VwaWtfcHl0aG9uJywgJy1waCcsICc3LjAnLCAnLXRuJywgJzgnLCAnLW1hJywgJzIwMCcsICctbWV0YWxfYmluZGluZycsICctaW1hZScsICc8aW5maWxlLm1hZT4nLCAnLW9tYWUnLCAnPG91dGZpbGUubWFlPic=

> <r_lp_tautomer_probability>
1

> <r_epik_Ionization_Penalty>
0.00942316

> <r_epik_Ionization_Penalty_Charging>
0.00942185

> <r_epik_Ionization_Penalty_Neutral>
1.31257e-06

> <r_epik_State_Penalty>
0.00715409

> <r_epik_Charging_Adjusted_Penalty>
0.0165759

> <i_epik_Tot_Q>
1

> <i_epik_Tot_abs_Q>
1

> <r_epik_Metal_State_Penalty>
0.00715563

> <b_epik_Metal_Only>
0

> <s_lp_Force_Field>
OPLS_2005

> <r_lp_Energy>
31.5344

> <b_lp_Chiralities_Consistent>
1

> <s_lp_Variant>
AV-unprocessed.smi:648-3

> <Gold.Version>
5.8.1

> <Gold.Id.Protein>
6NUR|6NUR_protein|mol2

> <Gold.PLP.Fitness>
47.7257

> <Gold.PLP.PLP>
-34.8621

> <Gold.PLP.part.hbond>
-2.7723

> <Gold.PLP.part.metal>
0.0000

> <Gold.PLP.part.buried>
-2.8397

> <Gold.PLP.part.nonpolar>
-30.3521

> <Gold.PLP.part.repulsive>
1.3873

> <Gold.PLP.ligand.clash>
0.0000

> <Gold.PLP.ligand.torsion>
0.6486

> <Gold.PLP.Chemscore.Hbond>
3.8775

> <Gold.PLP.Chemscore.CHOScore>
0.8359

> <Gold.PLP.Chemscore.Metal>
0.0000

> <Gold.Chemscore.Hbonds>
donor molecule, donor type, donor heavy atom, donor atom, acceptor molecule, acceptor atom, score
      L1  H    10    36       P1  7948  1.00
      L1  H    11    37       P1  7957  0.91
      L1  H    11    46       P1  7948  2.00
      L1  C    15    42       P1  7948  0.74

> <Gold.PLP.Chemscore.Internal.Correction>
0.0206

> <Gold.Rescore>
     Score         DG    S(hbond)    S(metal)    S(lipo)     H(rot)  DE(clash)    DE(int)     intcor
     15.86     -16.68       2.94        0.00      81.20       3.17       0.08       0.74       ----

> <Gold.Chemscore.Fitness>
15.8616

> <Gold.Chemscore.DG>
-16.6847

> <Gold.Chemscore.ZeroCoef>
-5.4800

> <Gold.Chemscore.Hbond>
2.9438

> <Gold.Chemscore.Metal>
0.0000

> <Gold.Chemscore.Lipo>
81.1989

> <Gold.Chemscore.Internal_Hbond>
0.0000

> <Gold.Chemscore.DEClash>
0.0839

> <Gold.Chemscore.DEInternal>
0.7392

> <Gold.Chemscore.Rot>
3.1750

> <Gold.Chemscore.Internal.Correction>
   9.000000E+99

> <Gold.Chemscore.Hbonds>
donor molecule, donor type, donor heavy atom, donor atom, acceptor molecule, acceptor atom, score
      L1  H    10    36       P1  7948  0.98
      L1  H    11    37       P1  7957  0.89
      L1  H    11    46       P1  7948  1.00

> <Gold.Chemscore.Hbond.Weighted>
-9.8323

> <Gold.Chemscore.Metal.Weighted>
-0.0000

> <Gold.Chemscore.Lipo.Weighted>
-9.5003

> <Gold.Chemscore.Internal_Hbond.Weighted>
0.0000

> <Gold.Chemscore.DEClash.Weighted>
0.0839

> <Gold.Chemscore.DEInternal.Weighted>
0.7392

> <Gold.Chemscore.Rot.Weighted>
8.1279

> <Gold.Chemscore.Internal.Correction.Weighted>
   9.000000E+99

> <Gold.Protein.RotatedTorsions>
[ 6907 6896 6895 6894 ] final  124.30 input  -60.11 | X-H torsion
[ 7974 7965 7964 7962 ] final  146.27 input  175.53 | X-H torsion
[ 8008 7997 7996 7995 ] final  -96.68 input   59.86 | X-H torsion
[ 10167 10162 10161 10158 ] final  -77.40 input  -65.29 | X-H torsion
[ 10718 10713 10712 10709 ] final  143.61 input   66.30 | X-H torsion
[ 10763 10752 10751 10750 ] final  -70.65 input  -60.55 | X-H torsion
[ 11005 11000 10999 10996 ] final  -63.49 input  -57.11 | X-H torsion

> <Gold.Protein.ActiveResidues>
 VAL166  LYS551  ARG553  GLY616  TRP617  ASP618  TYR619  PRO620  LYS621  CYS622 
 ASP623  PHE694  ASN695  SER759  ASP760  ASP761  ALA762  ILE779  LEU786  VAL792 
 PHE793  MET794  SER795  GLU796  ALA797  LYS798  CYS799  TRP800  GLU811  SER814 

> <Gold.Protein.RotatedAtoms>
  152.4090  133.6933  159.6380 H   0  0  0  0  0  0  0  0  0  0  0  0  # atno 6907 bound_to 6896
  150.7972  133.8658  159.3253 H   0  0  0  0  0  0  0  0  0  0  0  0  # atno 6908 bound_to 6896
  151.6405  135.1015  160.0192 H   0  0  0  0  0  0  0  0  0  0  0  0  # atno 6909 bound_to 6896
  144.8685  139.5884  143.5898 H   0  0  0  0  0  0  0  0  0  0  0  0  # atno 7974 bound_to 7965
  154.7777  140.0469  157.1102 H   0  0  0  0  0  0  0  0  0  0  0  0  # atno 8008 bound_to 7997
  154.9743  140.3093  155.4954 H   0  0  0  0  0  0  0  0  0  0  0  0  # atno 8009 bound_to 7997
  156.2931  140.2247  156.4838 H   0  0  0  0  0  0  0  0  0  0  0  0  # atno 8010 bound_to 7997
  140.4773  143.2411  151.8113 H   0  0  0  0  0  0  0  0  0  0  0  0  # atno 10167 bound_to 10162
  157.3669  131.0973  151.0864 H   0  0  0  0  0  0  0  0  0  0  0  0  # atno 10718 bound_to 10713
  154.4206  135.5987  153.6008 H   0  0  0  0  0  0  0  0  0  0  0  0  # atno 10763 bound_to 10752
  152.9794  135.5951  154.3959 H   0  0  0  0  0  0  0  0  0  0  0  0  # atno 10764 bound_to 10752
  154.3784  135.2841  155.2204 H   0  0  0  0  0  0  0  0  0  0  0  0  # atno 10765 bound_to 10752
  141.1395  133.6652  156.5688 H   0  0  0  0  0  0  0  0  0  0  0  0  # atno 11005 bound_to 11000
  146.2913  139.7147  142.9159 LP  0  0  0  0  0  0  0  0  0  0  0  0  # atno 17320 bound_to 7965
  145.4176  141.0403  143.2982 LP  0  0  0  0  0  0  0  0  0  0  0  0  # atno 17321 bound_to 7965
  139.4827  144.4817  151.9298 LP  0  0  0  0  0  0  0  0  0  0  0  0  # atno 17342 bound_to 10162
  140.3902  144.2625  150.5900 LP  0  0  0  0  0  0  0  0  0  0  0  0  # atno 17343 bound_to 10162
  157.1983  130.6383  149.5729 LP  0  0  0  0  0  0  0  0  0  0  0  0  # atno 17370 bound_to 10713
  155.9748  130.4699  150.6412 LP  0  0  0  0  0  0  0  0  0  0  0  0  # atno 17371 bound_to 10713
  140.3929  134.7424  157.4732 LP  0  0  0  0  0  0  0  0  0  0  0  0  # atno 17394 bound_to 11000
  140.0553  134.6073  155.8813 LP  0  0  0  0  0  0  0  0  0  0  0  0  # atno 17395 bound_to 11000

$$$$
