#       Name:                AV-unprocessed.smi:177
#       Creating user name   scv26
#       Creation time:       Thu Mar 26 19:22:10 2020


#       File generated by GOLD software.
#

@<TRIPOS>MOLECULE
AV-unprocessed.smi:177
    73    77     1
SMALL
NO_CHARGES


@<TRIPOS>ATOM
      1 ****        -2.4751   2.8309   4.9268 C.3            1 S1                 0.0000
      2 ****        -3.5397   1.9563   4.5862 O.3            1 S1                 0.0000
      3 ****        -3.8584   1.9293   3.2003 C.3            1 S1                 0.0000
      4 ****        -5.2872   1.3737   3.0709 C.3            1 S1                 0.0000
      5 ****        -5.6987   1.2203   1.5993 C.3            1 S1                 0.0000
      6 ****        -4.6929   0.3386   0.8452 C.3            1 S1                 0.0000
      7 ****        -5.0935   0.2307  -0.5157 O.3            1 S1                 0.0000
      8 ****        -4.2524  -0.6599  -1.2385 C.3            1 S1                 0.0000
      9 ****        -2.8140  -0.1204  -1.2343 C.3            1 S1                 0.0000
     10 ****        -2.3480   0.1087   0.1307 N.3            1 S1                 0.0000
     11 ****        -1.0362   0.4498   0.1217 C.ar           1 S1                 0.0000
     12 ****        -0.6636   1.7578   0.1308 N.ar           1 S1                 0.0000
     13 ****         0.6317   2.0856   0.1042 C.ar           1 S1                 0.0000
     14 ****         1.6959   1.2814   0.0546 N.ar           1 S1                 0.0000
     15 ****         1.3244  -0.0311   0.0263 C.ar           1 S1                 0.0000
     16 ****        -0.0083  -0.5286   0.0576 C.ar           1 S1                 0.0000
     17 ****        -0.0003  -1.9168   0.0217 N.2            1 S1                 0.0000
     18 ****         1.2676  -2.2237  -0.0255 C.2            1 S1                 0.0000
     19 ****         2.1338  -1.1526  -0.0430 N.pl3          1 S1                 0.0000
     20 ****         3.5887  -1.2082  -0.0813 C.3            1 S1                 0.0000
     21 ****         4.2311  -1.2499  -1.5027 C.3            1 S1                 0.0000
     22 ****         5.7757  -1.2339  -1.3165 C.3            1 S1                 0.0000
     23 ****         6.2484  -2.3659  -0.6132 O.3            1 S1                 0.0000
     24 ****         3.7717  -2.4983  -2.3012 C.3            1 S1                 0.0000
     25 ****         4.2356  -2.4650  -3.7690 C.3            1 S1                 0.0000
     26 ****         3.7517  -1.2869  -4.4022 O.3            1 S1                 0.0000
     27 ****         4.2436  -0.0927  -3.8066 C.3            1 S1                 0.0000
     28 ****         3.7973  -0.0145  -2.3342 C.3            1 S1                 0.0000
     29 ****        -3.2675   0.9348   0.9238 C.3            1 S1                 0.0000
     30 ****        -2.8558   1.0580   2.4120 C.3            1 S1                 0.0000
     31 ****        -2.3410   2.8323   6.0083 H              1 S1                 0.0000
     32 ****        -2.6894   3.8545   4.6177 H              1 S1                 0.0000
     33 ****        -1.5321   2.5197   4.4784 H              1 S1                 0.0000
     34 ****        -3.8525   2.9454   2.8014 H              1 S1                 0.0000
     35 ****        -5.3502   0.4042   3.5670 H              1 S1                 0.0000
     36 ****        -5.9902   2.0296   3.5855 H              1 S1                 0.0000
     37 ****        -6.6964   0.7853   1.5369 H              1 S1                 0.0000
     38 ****        -5.7571   2.2024   1.1284 H              1 S1                 0.0000
     39 ****        -4.7030  -0.6570   1.2944 H              1 S1                 0.0000
     40 ****        -4.2951  -1.6592  -0.8024 H              1 S1                 0.0000
     41 ****        -4.6195  -0.7436  -2.2614 H              1 S1                 0.0000
     42 ****        -2.1604  -0.8285  -1.7455 H              1 S1                 0.0000
     43 ****        -2.7691   0.8163  -1.7923 H              1 S1                 0.0000
     44 ****         0.8454   3.1442   0.1235 H              1 S1                 0.0000
     45 ****         1.6095  -3.2481  -0.0538 H              1 S1                 0.0000
     46 ****         3.9675  -0.3460   0.4695 H              1 S1                 0.0000
     47 ****         3.8916  -2.0829   0.4952 H              1 S1                 0.0000
     48 ****         6.3060  -1.1981  -2.2661 H              1 S1                 0.0000
     49 ****         6.0798  -0.3426  -0.7667 H              1 S1                 0.0000
     50 ****         7.1857  -2.2906  -0.5185 H              1 S1                 0.0000
     51 ****         4.1157  -3.4145  -1.8208 H              1 S1                 0.0000
     52 ****         2.6840  -2.5562  -2.3116 H              1 S1                 0.0000
     53 ****         5.3213  -2.5217  -3.8512 H              1 S1                 0.0000
     54 ****         3.8395  -3.3300  -4.3011 H              1 S1                 0.0000
     55 ****         5.3274  -0.0386  -3.9075 H              1 S1                 0.0000
     56 ****         3.8417   0.7578  -4.3574 H              1 S1                 0.0000
     57 ****         2.7114   0.0723  -2.3397 H              1 S1                 0.0000
     58 ****         4.1726   0.9021  -1.8780 H              1 S1                 0.0000
     59 ****        -3.2905   1.9327   0.4823 H              1 S1                 0.0000
     60 ****        -1.8597   1.4885   2.4970 H              1 S1                 0.0000
     61 ****        -2.7994   0.0657   2.8617 H              1 S1                 0.0000
     62 ****        -4.3545   2.2451   5.0888 LP             1 S1                 0.0000
     63 ****        -3.2857   1.0306   4.8667 LP             1 S1                 0.0000
     64 ****        -5.0495   1.1352  -0.9399 LP             1 S1                 0.0000
     65 ****        -6.0333  -0.1091  -0.5517 LP             1 S1                 0.0000
     66 ****        -2.3774  -0.7445   0.6515 LP             1 S1                 0.0000
     67 ****        -1.3598   2.4751   0.1574 LP             1 S1                 0.0000
     68 ****         2.6437   1.5999   0.0400 LP             1 S1                 0.0000
     69 ****        -0.7842  -2.5376   0.0300 LP             1 S1                 0.0000
     70 ****         6.0267  -3.1969  -1.1235 LP             1 S1                 0.0000
     71 ****         5.8203  -2.4051   0.2896 LP             1 S1                 0.0000
     72 ****         2.7533  -1.2827  -4.3467 LP             1 S1                 0.0000
     73 ****         4.0321  -1.3031  -5.3620 LP             1 S1                 0.0000
@<TRIPOS>BOND
    1    1    2 1     
    2    1   31 1     
    3    1   32 1     
    4    1   33 1     
    5    2    3 1     
    6    3   30 1     
    7    3    4 1     
    8    3   34 1     
    9    4    5 1     
   10    4   35 1     
   11    4   36 1     
   12    5    6 1     
   13    5   37 1     
   14    5   38 1     
   15    6   29 1     
   16    6    7 1     
   17    6   39 1     
   18    7    8 1     
   19    8    9 1     
   20    8   40 1     
   21    8   41 1     
   22    9   10 1     
   23    9   42 1     
   24    9   43 1     
   25   10   11 1     
   26   10   29 1     
   27   11   16 ar    
   28   11   12 ar    
   29   12   13 ar    
   30   13   14 ar    
   31   13   44 1     
   32   14   15 ar    
   33   15   19 1     
   34   15   16 ar    
   35   16   17 1     
   36   17   18 2     
   37   18   19 1     
   38   18   45 1     
   39   19   20 1     
   40   20   21 1     
   41   20   46 1     
   42   20   47 1     
   43   21   28 1     
   44   21   22 1     
   45   21   24 1     
   46   22   23 1     
   47   22   48 1     
   48   22   49 1     
   49   23   50 1     
   50   24   25 1     
   51   24   51 1     
   52   24   52 1     
   53   25   26 1     
   54   25   53 1     
   55   25   54 1     
   56   26   27 1     
   57   27   28 1     
   58   27   55 1     
   59   27   56 1     
   60   28   57 1     
   61   28   58 1     
   62   29   30 1     
   63   29   59 1     
   64   30   60 1     
   65   30   61 1     
   66    2   62 1     
   67    2   63 1     
   68    7   64 1     
   69    7   65 1     
   70   10   66 1     
   71   12   67 1     
   72   14   68 1     
   73   17   69 1     
   74   23   70 1     
   75   23   71 1     
   76   26   72 1     
   77   26   73 1     
@<TRIPOS>SUBSTRUCTURE
      1 S1             1
@<TRIPOS>SET
LONE_PAIRS      STATIC     ATOMS    <user>   **** ""
12 62 63 64 65 66 67 68 69 70 71 72 73
DONOR_HYDROGENS      STATIC     ATOMS    <user>   **** ""
1 50
ATOM$BLUE        STATIC     ATOMS    COLORGROUP SYSTEM
12 62 63 64 65 66 67 68 69 70 71 72 73
ATOM$RED        STATIC     ATOMS    COLORGROUP SYSTEM
1 50
