AV-unprocessed.smi:3097|AV-procd|sdf|11799|dock10
  -GOLD-   2272017173D 1   1.00000     0.00000
 Structure written by MMmdl.
 35 35  0  0  0  0  0  0  0  0  2 V2000
  146.1995  142.6204  155.1985 C   0  0  0  0  0  0  0  0  0  0  0  0
  147.1995  142.2910  154.0857 C   0  0  0  0  0  0  0  0  0  0  0  0
  148.2969  141.3270  154.5522 C   0  0  0  0  0  0  0  0  0  0  0  0
  149.2068  141.9797  155.5013 N   0  0  0  0  0  0  0  0  0  0  0  0
  150.3907  141.4940  155.9222 C   0  0  0  0  0  0  0  0  0  0  0  0
  150.8223  140.2986  155.4749 N   0  3  0  0  0  0  0  0  0  0  0  0
  152.0864  139.6520  155.8465 C   0  0  0  0  0  0  0  0  0  0  0  0
  151.1469  142.1999  156.7869 N   0  0  0  0  0  0  0  0  0  0  0  0
  150.8287  143.5255  157.3404 C   0  0  0  0  0  0  0  0  0  0  0  0
  152.0616  144.1899  157.9749 C   0  0  0  0  0  0  0  0  0  0  0  0
  152.1624  143.9222  159.3976 N   0  0  0  0  0  0  0  0  0  0  0  0
  151.8864  144.7683  160.4513 C   0  0  0  0  0  0  0  0  0  0  0  0
  152.1251  144.0739  161.6025 C   0  0  0  0  0  0  0  0  0  0  0  0
  152.5566  142.7977  161.1446 C   0  0  0  0  0  0  0  0  0  0  0  0
  152.5735  142.7085  159.8242 N   0  0  0  0  0  0  0  0  0  0  0  0
  145.4314  143.3060  154.8404 H   0  0  0  0  0  0  0  0  0  0  0  0
  146.6959  143.0915  156.0473 H   0  0  0  0  0  0  0  0  0  0  0  0
  145.7005  141.7201  155.5583 H   0  0  0  0  0  0  0  0  0  0  0  0
  146.6643  141.8568  153.2410 H   0  0  0  0  0  0  0  0  0  0  0  0
  147.6517  143.2146  153.7221 H   0  0  0  0  0  0  0  0  0  0  0  0
  147.8521  140.4540  155.0308 H   0  0  0  0  0  0  0  0  0  0  0  0
  148.8742  140.9714  153.6981 H   0  0  0  0  0  0  0  0  0  0  0  0
  148.9189  142.8863  155.8427 H   0  0  0  0  0  0  0  0  0  0  0  0
  152.1826  138.6938  155.3359 H   0  0  0  0  0  0  0  0  0  0  0  0
  152.1226  139.4757  156.9217 H   0  0  0  0  0  0  0  0  0  0  0  0
  152.9327  140.2794  155.5659 H   0  0  0  0  0  0  0  0  0  0  0  0
  152.0357  141.8074  157.0627 H   0  0  0  0  0  0  0  0  0  0  0  0
  150.3781  144.1653  156.5815 H   0  0  0  0  0  0  0  0  0  0  0  0
  150.0698  143.3814  158.1095 H   0  0  0  0  0  0  0  0  0  0  0  0
  152.9709  143.8324  157.4903 H   0  0  0  0  0  0  0  0  0  0  0  0
  152.0327  145.2698  157.8240 H   0  0  0  0  0  0  0  0  0  0  0  0
  151.5443  145.7811  160.2962 H   0  0  0  0  0  0  0  0  0  0  0  0
  152.0128  144.4254  162.6176 H   0  0  0  0  0  0  0  0  0  0  0  0
  152.8513  141.9381  161.7281 H   0  0  0  0  0  0  0  0  0  0  0  0
  150.2342  139.7929  154.8280 H   0  0  0  0  0  0  0  0  0  0  0  0
  1  2  1  0  0  0  0
  1 16  1  0  0  0  0
  1 17  1  0  0  0  0
  1 18  1  0  0  0  0
  2  3  1  0  0  0  0
  2 19  1  0  0  0  0
  2 20  1  0  0  0  0
  3  4  1  0  0  0  0
  3 21  1  0  0  0  0
  3 22  1  0  0  0  0
  4  5  1  0  0  0  0
  4 23  1  0  0  0  0
  5  6  2  0  0  0  0
  5  8  1  0  0  0  0
  6  7  1  0  0  0  0
  6 35  1  0  0  0  0
  7 24  1  0  0  0  0
  7 25  1  0  0  0  0
  7 26  1  0  0  0  0
  8  9  1  0  0  0  0
  8 27  1  0  0  0  0
  9 10  1  0  0  0  0
  9 28  1  0  0  0  0
  9 29  1  0  0  0  0
 10 11  1  0  0  0  0
 10 30  1  0  0  0  0
 10 31  1  0  0  0  0
 11 15  1  0  0  0  0
 11 12  1  0  0  0  0
 12 13  2  0  0  0  0
 12 32  1  0  0  0  0
 13 14  1  0  0  0  0
 13 33  1  0  0  0  0
 14 15  2  0  0  0  0
 14 34  1  0  0  0  0
M  CHG  1   6   1
M  END
> <s_m_source_file>
AV-unprocessed.smi

> <i_m_source_file_index>
3097

> <i_lp_mmshare_version>
43012

> <i_f3d_flags>
0

> <s_epik_input>
W0NIM11bQ0gyXVtDSDJdW05IXS9DKD1OXFtDSDNdKVtOSF1bQ0gyXVtDSDJdbjFbY0hdW2NIXVtjSF1uMQ==

> <s_epik_cmdline>
J2VwaWtfcHl0aG9uJywgJy1waCcsICc3LjAnLCAnLXRuJywgJzgnLCAnLW1hJywgJzIwMCcsICctbWV0YWxfYmluZGluZycsICctaW1hZScsICc8aW5maWxlLm1hZT4nLCAnLW9tYWUnLCAnPG91dGZpbGUubWFlPic=

> <r_lp_tautomer_probability>
1

> <r_epik_Ionization_Penalty>
4.40305e-05

> <r_epik_Ionization_Penalty_Charging>
1.64417e-07

> <r_epik_Ionization_Penalty_Neutral>
4.38661e-05

> <r_epik_State_Penalty>
-0

> <r_epik_Charging_Adjusted_Penalty>
1.64417e-07

> <i_epik_Tot_Q>
1

> <i_epik_Tot_abs_Q>
1

> <r_epik_Metal_State_Penalty>
-0

> <b_epik_Metal_Only>
0

> <s_epik_Chemistry_Notes>
This compound has an imine and may undergo hydrolysis.

> <s_lp_Force_Field>
OPLS_2005

> <r_lp_Energy>
5.03608

> <b_lp_Chiralities_Consistent>
1

> <s_lp_Variant>
AV-unprocessed.smi:3097-2

> <Gold.Version>
5.8.1

> <Gold.Id.Protein>
6NUR|6NUR_protein|mol2

> <Gold.PLP.Fitness>
43.6311

> <Gold.PLP.PLP>
-38.8638

> <Gold.PLP.part.hbond>
-1.0000

> <Gold.PLP.part.metal>
0.0000

> <Gold.PLP.part.buried>
-3.2543

> <Gold.PLP.part.nonpolar>
-35.6344

> <Gold.PLP.part.repulsive>
0.6554

> <Gold.PLP.ligand.clash>
0.0000

> <Gold.PLP.ligand.torsion>
0.5982

> <Gold.PLP.Chemscore.Hbond>
1.9840

> <Gold.PLP.Chemscore.CHOScore>
0.0000

> <Gold.PLP.Chemscore.Metal>
0.0000

> <Gold.Chemscore.Hbonds>
donor molecule, donor type, donor heavy atom, donor atom, acceptor molecule, acceptor atom, score
      L1  H     4    23       P1  8028  1.98

> <Gold.PLP.Chemscore.Internal.Correction>
0.0116

> <Gold.Rescore>
     Score         DG    S(hbond)    S(metal)    S(lipo)     H(rot)  DE(clash)    DE(int)     intcor
     13.09     -13.72       0.88        0.00      85.97       1.86       0.06       0.57       ----

> <Gold.Chemscore.Fitness>
13.0942

> <Gold.Chemscore.DG>
-13.7185

> <Gold.Chemscore.ZeroCoef>
-5.4800

> <Gold.Chemscore.Hbond>
0.8777

> <Gold.Chemscore.Metal>
0.0000

> <Gold.Chemscore.Lipo>
85.9730

> <Gold.Chemscore.Internal_Hbond>
0.0000

> <Gold.Chemscore.DEClash>
0.0572

> <Gold.Chemscore.DEInternal>
0.5671

> <Gold.Chemscore.Rot>
1.8561

> <Gold.Chemscore.Internal.Correction>
   9.000000E+99

> <Gold.Chemscore.Hbonds>
donor molecule, donor type, donor heavy atom, donor atom, acceptor molecule, acceptor atom, score
      L1  H     4    23       P1  8028  0.94

> <Gold.Chemscore.Hbond.Weighted>
-2.9314

> <Gold.Chemscore.Metal.Weighted>
-0.0000

> <Gold.Chemscore.Lipo.Weighted>
-10.0588

> <Gold.Chemscore.Internal_Hbond.Weighted>
0.0000

> <Gold.Chemscore.DEClash.Weighted>
0.0572

> <Gold.Chemscore.DEInternal.Weighted>
0.5671

> <Gold.Chemscore.Rot.Weighted>
4.7517

> <Gold.Chemscore.Internal.Correction.Weighted>
   9.000000E+99

> <Gold.Protein.RotatedTorsions>
[ 6907 6896 6895 6894 ] final  -89.48 input  -60.11 | X-H torsion
[ 7974 7965 7964 7962 ] final  -75.26 input  175.53 | X-H torsion
[ 8008 7997 7996 7995 ] final -132.80 input   59.86 | X-H torsion
[ 10167 10162 10161 10158 ] final   29.01 input  -65.29 | X-H torsion
[ 10718 10713 10712 10709 ] final -179.82 input   66.30 | X-H torsion
[ 10763 10752 10751 10750 ] final   80.92 input  -60.55 | X-H torsion
[ 11005 11000 10999 10996 ] final  123.78 input  -57.11 | X-H torsion

> <Gold.Protein.ActiveResidues>
 VAL166  LYS551  ARG553  GLY616  TRP617  ASP618  TYR619  PRO620  LYS621  CYS622 
 ASP623  PHE694  ASN695  SER759  ASP760  ASP761  ALA762  ILE779  LEU786  VAL792 
 PHE793  MET794  SER795  GLU796  ALA797  LYS798  CYS799  TRP800  GLU811  SER814 

> <Gold.Protein.RotatedAtoms>
  150.6874  134.2580  159.4537 H   0  0  0  0  0  0  0  0  0  0  0  0  # atno 6907 bound_to 6896
  152.0512  134.9650  160.0584 H   0  0  0  0  0  0  0  0  0  0  0  0  # atno 6908 bound_to 6896
  152.1113  133.4268  159.4669 H   0  0  0  0  0  0  0  0  0  0  0  0  # atno 6909 bound_to 6896
  145.6284  140.9344  143.1100 H   0  0  0  0  0  0  0  0  0  0  0  0  # atno 7974 bound_to 7965
  155.3349  140.0469  157.3043 H   0  0  0  0  0  0  0  0  0  0  0  0  # atno 8008 bound_to 7997
  154.5308  140.2256  155.8773 H   0  0  0  0  0  0  0  0  0  0  0  0  # atno 8009 bound_to 7997
  156.1787  140.3079  155.9113 H   0  0  0  0  0  0  0  0  0  0  0  0  # atno 8010 bound_to 7997
  140.4803  144.0626  150.6263 H   0  0  0  0  0  0  0  0  0  0  0  0  # atno 10167 bound_to 10162
  156.8648  130.9764  151.3079 H   0  0  0  0  0  0  0  0  0  0  0  0  # atno 10718 bound_to 10713
  153.1073  135.4784  154.8974 H   0  0  0  0  0  0  0  0  0  0  0  0  # atno 10763 bound_to 10752
  154.7444  135.3090  154.8673 H   0  0  0  0  0  0  0  0  0  0  0  0  # atno 10764 bound_to 10752
  153.9272  135.6848  153.4800 H   0  0  0  0  0  0  0  0  0  0  0  0  # atno 10765 bound_to 10752
  139.9328  134.9641  156.8311 H   0  0  0  0  0  0  0  0  0  0  0  0  # atno 11005 bound_to 11000
  144.7203  139.8053  143.7384 LP  0  0  0  0  0  0  0  0  0  0  0  0  # atno 17320 bound_to 7965
  146.1376  139.4425  143.0129 LP  0  0  0  0  0  0  0  0  0  0  0  0  # atno 17321 bound_to 7965
  140.3866  143.2774  152.0109 LP  0  0  0  0  0  0  0  0  0  0  0  0  # atno 17342 bound_to 10162
  139.4832  144.6111  151.7431 LP  0  0  0  0  0  0  0  0  0  0  0  0  # atno 17343 bound_to 10162
  157.6230  130.8669  149.9140 LP  0  0  0  0  0  0  0  0  0  0  0  0  # atno 17370 bound_to 10713
  156.0758  130.3679  150.0682 LP  0  0  0  0  0  0  0  0  0  0  0  0  # atno 17371 bound_to 10713
  140.6155  134.0043  155.7595 LP  0  0  0  0  0  0  0  0  0  0  0  0  # atno 17394 bound_to 11000
  141.0927  133.9892  157.3211 LP  0  0  0  0  0  0  0  0  0  0  0  0  # atno 17395 bound_to 11000

$$$$
