AV-unprocessed.smi:2831|AV-procd|sdf|10908|dock10
  -GOLD-   2272015353D 1   1.00000     0.00000
 Structure written by MMmdl.
 30 31  0  0  0  0  0  0  0  0  1 V2000
  146.1028  134.2165  162.2493 C   0  0  0  0  0  0  0  0  0  0  0  0
  146.9847  135.1695  161.5175 C   0  0  0  0  0  0  0  0  0  0  0  0
  146.9550  136.4910  161.7288 N   0  0  0  0  0  0  0  0  0  0  0  0
  147.8605  137.1724  160.9275 N   0  0  0  0  0  0  0  0  0  0  0  0
  148.5473  136.3416  160.1312 C   0  0  0  0  0  0  0  0  0  0  0  0
  149.5345  136.7713  159.2054 N   0  0  0  0  0  0  0  0  0  0  0  0
  149.6267  137.9546  158.5738 C   0  0  0  0  0  0  0  0  0  0  0  0
  148.8451  138.8958  158.7113 O   0  0  0  0  0  0  0  0  0  0  0  0
  150.6952  137.9845  157.7601 N   0  0  0  0  0  0  0  0  0  0  0  0
  151.1393  139.1004  156.9165 C   0  0  1  0  0  0  0  0  0  0  0  0
  151.2960  140.3836  157.7609 C   0  0  0  0  0  0  0  0  0  0  0  0
  152.4700  138.7307  156.2438 C   0  0  0  0  0  0  0  0  0  0  0  0
  152.1462  138.6568  154.7540 C   0  0  0  0  0  0  0  0  0  0  0  0
  151.0682  139.5621  154.6139 O   0  0  0  0  0  0  0  0  0  0  0  0
  150.2018  139.3183  155.7089 C   0  0  0  0  0  0  0  0  0  0  0  0
  148.1406  134.6423  160.3001 S   0  0  0  0  0  0  0  0  0  0  0  0
  145.8409  134.6143  163.2302 H   0  0  0  0  0  0  0  0  0  0  0  0
  146.6111  133.2618  162.3857 H   0  0  0  0  0  0  0  0  0  0  0  0
  145.1869  134.0483  161.6827 H   0  0  0  0  0  0  0  0  0  0  0  0
  150.2543  136.0954  158.9964 H   0  0  0  0  0  0  0  0  0  0  0  0
  151.2666  137.1534  157.7219 H   0  0  0  0  0  0  0  0  0  0  0  0
  151.6648  141.2115  157.1543 H   0  0  0  0  0  0  0  0  0  0  0  0
  152.0008  140.2344  158.5796 H   0  0  0  0  0  0  0  0  0  0  0  0
  150.3487  140.7032  158.1953 H   0  0  0  0  0  0  0  0  0  0  0  0
  153.2169  139.5082  156.4095 H   0  0  0  0  0  0  0  0  0  0  0  0
  152.9009  137.7961  156.6057 H   0  0  0  0  0  0  0  0  0  0  0  0
  152.9915  138.9342  154.1240 H   0  0  0  0  0  0  0  0  0  0  0  0
  151.8215  137.6536  154.4734 H   0  0  0  0  0  0  0  0  0  0  0  0
  149.6161  138.4247  155.4856 H   0  0  0  0  0  0  0  0  0  0  0  0
  149.5037  140.1438  155.8510 H   0  0  0  0  0  0  0  0  0  0  0  0
  1  2  1  0  0  0  0
  1 17  1  0  0  0  0
  1 18  1  0  0  0  0
  1 19  1  0  0  0  0
  2 16  1  0  0  0  0
  2  3  2  0  0  0  0
  3  4  1  0  0  0  0
  4  5  2  0  0  0  0
  5  6  1  0  0  0  0
  5 16  1  0  0  0  0
  6  7  1  0  0  0  0
  6 20  1  0  0  0  0
  7  8  2  0  0  0  0
  7  9  1  0  0  0  0
  9 10  1  0  0  0  0
  9 21  1  0  0  0  0
 10 15  1  0  0  0  0
 10 11  1  0  0  0  0
 10 12  1  0  0  0  0
 11 22  1  0  0  0  0
 11 23  1  0  0  0  0
 11 24  1  0  0  0  0
 12 13  1  0  0  0  0
 12 25  1  0  0  0  0
 12 26  1  0  0  0  0
 13 14  1  0  0  0  0
 13 27  1  0  0  0  0
 13 28  1  0  0  0  0
 14 15  1  0  0  0  0
 15 29  1  0  0  0  0
 15 30  1  0  0  0  0
M  END
> <s_m_source_file>
AV-unprocessed.smi

> <i_m_source_file_index>
2831

> <i_lp_mmshare_version>
43012

> <i_f3d_flags>
0

> <s_epik_input>
W0NIM11jMW5uYyhzMSlbTkhdQyg9TylbTkhdW0NAQF0yKFtDSDNdKVtDSDJdW0NIMl1PW0NIMl0y

> <s_epik_cmdline>
J2VwaWtfcHl0aG9uJywgJy1waCcsICc3LjAnLCAnLXRuJywgJzgnLCAnLW1hJywgJzIwMCcsICctbWV0YWxfYmluZGluZycsICctaW1hZScsICc8aW5maWxlLm1hZT4nLCAnLW9tYWUnLCAnPG91dGZpbGUubWFlPic=

> <r_lp_tautomer_probability>
1

> <r_epik_Ionization_Penalty>
0.00277018

> <r_epik_Ionization_Penalty_Charging>
0

> <r_epik_Ionization_Penalty_Neutral>
0.00277018

> <r_epik_State_Penalty>
-0

> <r_epik_Charging_Adjusted_Penalty>
0

> <i_epik_Tot_Q>
0

> <i_epik_Tot_abs_Q>
0

> <r_epik_Metal_State_Penalty>
0.356997

> <b_epik_Metal_Only>
0

> <s_lp_Force_Field>
OPLS_2005

> <r_lp_Energy>
15.109

> <b_lp_Chiralities_Consistent>
1

> <s_lp_Variant>
AV-unprocessed.smi:2831-1

> <Gold.Version>
5.8.1

> <Gold.Id.Protein>
6NUR|6NUR_protein|mol2

> <Gold.PLP.Fitness>
31.3635

> <Gold.PLP.PLP>
-23.6196

> <Gold.PLP.part.hbond>
-4.1801

> <Gold.PLP.part.metal>
0.0000

> <Gold.PLP.part.buried>
-3.4092

> <Gold.PLP.part.nonpolar>
-16.7145

> <Gold.PLP.part.repulsive>
0.3302

> <Gold.PLP.ligand.clash>
0.0000

> <Gold.PLP.ligand.torsion>
0.2578

> <Gold.PLP.Chemscore.Hbond>
2.7440

> <Gold.PLP.Chemscore.CHOScore>
0.0000

> <Gold.PLP.Chemscore.Metal>
0.0000

> <Gold.Chemscore.Hbonds>
donor molecule, donor type, donor heavy atom, donor atom, acceptor molecule, acceptor atom, score
      P1  H  6931  6943       L1     4  0.91
      P1  H  6934  6947       L1     4  0.82
      P1  H  7989  7998       L1    14  1.00

> <Gold.PLP.Chemscore.Internal.Correction>
0.0275

> <Gold.Rescore>
     Score         DG    S(hbond)    S(metal)    S(lipo)     H(rot)  DE(clash)    DE(int)     intcor
     12.75     -15.60       2.13        0.00      47.45       1.00       0.09       2.76       ----

> <Gold.Chemscore.Fitness>
12.7465

> <Gold.Chemscore.DG>
-15.5955

> <Gold.Chemscore.ZeroCoef>
-5.4800

> <Gold.Chemscore.Hbond>
2.1328

> <Gold.Chemscore.Metal>
0.0000

> <Gold.Chemscore.Lipo>
47.4518

> <Gold.Chemscore.Internal_Hbond>
0.0000

> <Gold.Chemscore.DEClash>
0.0885

> <Gold.Chemscore.DEInternal>
2.7606

> <Gold.Chemscore.Rot>
1.0000

> <Gold.Chemscore.Internal.Correction>
   9.000000E+99

> <Gold.Chemscore.Hbonds>
donor molecule, donor type, donor heavy atom, donor atom, acceptor molecule, acceptor atom, score
      P1  H  6931  6943       L1     4  0.56
      P1  H  6934  6947       L1     4  0.36
      P1  H  7989  7998       L1    14  0.55

> <Gold.Chemscore.Hbond.Weighted>
-7.1237

> <Gold.Chemscore.Metal.Weighted>
-0.0000

> <Gold.Chemscore.Lipo.Weighted>
-5.5519

> <Gold.Chemscore.Internal_Hbond.Weighted>
0.0000

> <Gold.Chemscore.DEClash.Weighted>
0.0885

> <Gold.Chemscore.DEInternal.Weighted>
2.7606

> <Gold.Chemscore.Rot.Weighted>
2.5600

> <Gold.Chemscore.Internal.Correction.Weighted>
   9.000000E+99

> <Gold.Protein.RotatedTorsions>
[ 6907 6896 6895 6894 ] final  124.36 input  -60.11 | X-H torsion
[ 7974 7965 7964 7962 ] final   68.91 input  175.53 | X-H torsion
[ 8008 7997 7996 7995 ] final  147.60 input   59.86 | X-H torsion
[ 10167 10162 10161 10158 ] final -148.90 input  -65.29 | X-H torsion
[ 10718 10713 10712 10709 ] final   51.72 input   66.30 | X-H torsion
[ 10763 10752 10751 10750 ] final -134.82 input  -60.55 | X-H torsion
[ 11005 11000 10999 10996 ] final   77.69 input  -57.11 | X-H torsion

> <Gold.Protein.ActiveResidues>
 VAL166  LYS551  ARG553  GLY616  TRP617  ASP618  TYR619  PRO620  LYS621  CYS622 
 ASP623  PHE694  ASN695  SER759  ASP760  ASP761  ALA762  ILE779  LEU786  VAL792 
 PHE793  MET794  SER795  GLU796  ALA797  LYS798  CYS799  TRP800  GLU811  SER814 

> <Gold.Protein.RotatedAtoms>
  152.4084  133.6925  159.6376 H   0  0  0  0  0  0  0  0  0  0  0  0  # atno 6907 bound_to 6896
  150.7967  133.8667  159.3256 H   0  0  0  0  0  0  0  0  0  0  0  0  # atno 6908 bound_to 6896
  151.6416  135.1014  160.0194 H   0  0  0  0  0  0  0  0  0  0  0  0  # atno 6909 bound_to 6896
  145.7968  139.2962  143.1178 H   0  0  0  0  0  0  0  0  0  0  0  0  # atno 7974 bound_to 7965
  156.2819  140.2151  156.5564 H   0  0  0  0  0  0  0  0  0  0  0  0  # atno 8008 bound_to 7997
  154.7249  140.0500  157.0696 H   0  0  0  0  0  0  0  0  0  0  0  0  # atno 8009 bound_to 7997
  155.0429  140.3148  155.4721 H   0  0  0  0  0  0  0  0  0  0  0  0  # atno 8010 bound_to 7997
  139.7490  143.8547  152.2582 H   0  0  0  0  0  0  0  0  0  0  0  0  # atno 10167 bound_to 10162
  157.5007  130.8436  149.8313 H   0  0  0  0  0  0  0  0  0  0  0  0  # atno 10718 bound_to 10713
  154.8713  135.3722  154.4798 H   0  0  0  0  0  0  0  0  0  0  0  0  # atno 10763 bound_to 10752
  153.5452  135.7026  153.5622 H   0  0  0  0  0  0  0  0  0  0  0  0  # atno 10764 bound_to 10752
  153.3766  135.4007  155.1791 H   0  0  0  0  0  0  0  0  0  0  0  0  # atno 10765 bound_to 10752
  139.9244  134.7703  156.1554 H   0  0  0  0  0  0  0  0  0  0  0  0  # atno 11005 bound_to 11000
  145.9919  140.8595  143.0062 LP  0  0  0  0  0  0  0  0  0  0  0  0  # atno 17320 bound_to 7965
  144.6774  140.2228  143.7364 LP  0  0  0  0  0  0  0  0  0  0  0  0  # atno 17321 bound_to 7965
  139.8520  144.7160  150.9203 LP  0  0  0  0  0  0  0  0  0  0  0  0  # atno 17342 bound_to 10162
  140.7795  143.3891  151.1341 LP  0  0  0  0  0  0  0  0  0  0  0  0  # atno 17343 bound_to 10162
  156.0228  130.3790  150.1912 LP  0  0  0  0  0  0  0  0  0  0  0  0  # atno 17370 bound_to 10713
  157.0102  130.9948  151.3368 LP  0  0  0  0  0  0  0  0  0  0  0  0  # atno 17371 bound_to 10713
  141.0790  133.6763  156.2296 LP  0  0  0  0  0  0  0  0  0  0  0  0  # atno 17394 bound_to 11000
  140.6380  134.5195  157.5566 LP  0  0  0  0  0  0  0  0  0  0  0  0  # atno 17395 bound_to 11000

$$$$
