#       Name:                AV-unprocessed.smi:1475
#       Creating user name   scv26
#       Creation time:       Fri Mar 27 06:06:56 2020


#       File generated by GOLD software.
#

@<TRIPOS>MOLECULE
AV-unprocessed.smi:1475
    53    54     1
SMALL
NO_CHARGES


@<TRIPOS>ATOM
      1 ****        -4.8921  -1.8861   4.3421 C.3            1 S1                 0.0000
      2 ****        -4.7669  -0.8227   3.2914 C.2            1 S1                 0.0000
      3 ****        -5.0804   0.5610   3.3966 C.2            1 S1                 0.0000
      4 ****        -4.7815   1.0703   2.1643 C.2            1 S1                 0.0000
      5 ****        -4.8920   2.4676   1.6479 C.3            1 S1                 0.0000
      6 ****        -4.3207   0.0155   1.3957 N.pl3          1 S1                 0.0000
      7 ****        -3.8603   0.0162   0.0164 C.3            1 S1                 0.0000
      8 ****        -2.3604   0.3039  -0.0593 C.2            1 S1                 0.0000
      9 ****        -1.9598   1.4582  -0.2074 O.2            1 S1                 0.0000
     10 ****        -1.5413  -0.7536   0.0493 N.am           1 S1                 0.0000
     11 ****        -0.0850  -0.6877   0.0468 C.3            1 S1                 0.0000
     12 ****         0.4722  -0.4106  -1.3641 C.3            1 S1                 0.0000
     13 ****         1.9561  -0.3938  -1.3993 N.4            1 S1                 1.0000
     14 ****         2.4825  -0.6361  -2.7682 C.3            1 S1                 0.0000
     15 ****         4.0182  -0.7666  -2.7767 C.3            1 S1                 0.0000
     16 ****         4.4918  -2.0963  -2.1642 C.3            1 S1                 0.0000
     17 ****         4.6691   0.4639  -2.1184 C.3            1 S1                 0.0000
     18 ****         4.0806   0.7419  -0.7235 C.3            1 S1                 0.0000
     19 ****         4.6875   2.0085  -0.1031 C.3            1 S1                 0.0000
     20 ****         2.5442   0.8342  -0.8001 C.3            1 S1                 0.0000
     21 ****        -4.3120  -1.1431   2.0911 N.2            1 S1                 0.0000
     22 ****        -5.3146  -1.4824   5.2625 H              1 S1                 0.0000
     23 ****        -3.9196  -2.3154   4.5841 H              1 S1                 0.0000
     24 ****        -5.5409  -2.6956   4.0068 H              1 S1                 0.0000
     25 ****        -5.4659   1.0995   4.2497 H              1 S1                 0.0000
     26 ****        -5.2361   3.1454   2.4292 H              1 S1                 0.0000
     27 ****        -5.6014   2.5220   0.8221 H              1 S1                 0.0000
     28 ****        -3.9275   2.8308   1.2933 H              1 S1                 0.0000
     29 ****        -4.0845  -0.9488  -0.4414 H              1 S1                 0.0000
     30 ****        -4.4132   0.7683  -0.5475 H              1 S1                 0.0000
     31 ****        -1.9600  -1.6641   0.1776 H              1 S1                 0.0000
     32 ****         0.2294   0.0716   0.7630 H              1 S1                 0.0000
     33 ****         0.2963  -1.6401   0.4164 H              1 S1                 0.0000
     34 ****         0.1063  -1.1952  -2.0281 H              1 S1                 0.0000
     35 ****         0.0917   0.5307  -1.7634 H              1 S1                 0.0000
     36 ****         2.0400  -1.5416  -3.1855 H              1 S1                 0.0000
     37 ****         2.1765   0.1868  -3.4163 H              1 S1                 0.0000
     38 ****         4.3380  -0.7812  -3.8195 H              1 S1                 0.0000
     39 ****         4.1872  -2.1978  -1.1227 H              1 S1                 0.0000
     40 ****         5.5783  -2.1805  -2.2025 H              1 S1                 0.0000
     41 ****         4.0799  -2.9454  -2.7106 H              1 S1                 0.0000
     42 ****         5.7497   0.3302  -2.0563 H              1 S1                 0.0000
     43 ****         4.5076   1.3344  -2.7560 H              1 S1                 0.0000
     44 ****         4.3372  -0.0918  -0.0685 H              1 S1                 0.0000
     45 ****         4.4666   2.8909  -0.7047 H              1 S1                 0.0000
     46 ****         5.7717   1.9246  -0.0213 H              1 S1                 0.0000
     47 ****         4.2949   2.1826   0.8993 H              1 S1                 0.0000
     48 ****         2.2444   1.7040  -1.3872 H              1 S1                 0.0000
     49 ****         2.1537   0.9874   0.2050 H              1 S1                 0.0000
     50 ****         2.2642  -1.1741  -0.8369 H              1 S1                 0.0000
     51 ****        -2.6156   2.2098  -0.2784 LP             1 S1                 0.0000
     52 ****        -0.9785   1.6445  -0.2566 LP             1 S1                 0.0000
     53 ****        -4.0246  -2.0451   1.7690 LP             1 S1                 0.0000
@<TRIPOS>BOND
    1    1    2 1     
    2    1   22 1     
    3    1   23 1     
    4    1   24 1     
    5    2   21 2     
    6    2    3 1     
    7    3    4 2     
    8    3   25 1     
    9    4    5 1     
   10    4    6 1     
   11    5   26 1     
   12    5   27 1     
   13    5   28 1     
   14    6    7 1     
   15    6   21 1     
   16    7    8 1     
   17    7   29 1     
   18    7   30 1     
   19    8    9 2     
   20    8   10 am    
   21   10   11 1     
   22   10   31 1     
   23   11   12 1     
   24   11   32 1     
   25   11   33 1     
   26   12   13 1     
   27   12   34 1     
   28   12   35 1     
   29   13   20 1     
   30   13   14 1     
   31   13   50 1     
   32   14   15 1     
   33   14   36 1     
   34   14   37 1     
   35   15   16 1     
   36   15   17 1     
   37   15   38 1     
   38   16   39 1     
   39   16   40 1     
   40   16   41 1     
   41   17   18 1     
   42   17   42 1     
   43   17   43 1     
   44   18   19 1     
   45   18   20 1     
   46   18   44 1     
   47   19   45 1     
   48   19   46 1     
   49   19   47 1     
   50   20   48 1     
   51   20   49 1     
   52    9   51 1     
   53    9   52 1     
   54   21   53 1     
@<TRIPOS>SUBSTRUCTURE
      1 S1             1
@<TRIPOS>SET
LONE_PAIRS      STATIC     ATOMS    <user>   **** ""
3 51 52 53
DONOR_HYDROGENS      STATIC     ATOMS    <user>   **** ""
2 31 50
ATOM$BLUE        STATIC     ATOMS    COLORGROUP SYSTEM
3 51 52 53
ATOM$RED        STATIC     ATOMS    COLORGROUP SYSTEM
2 31 50
