AV-unprocessed.smi:1791|AV-procd|sdf|7218|dock3
  -GOLD-   22720 8463D 1   1.00000     0.00000
 Structure written by MMmdl.
 38 39  0  0  0  0  0  0  0  0  1 V2000
  149.8918  133.7288  156.0396 C   0  0  0  0  0  0  0  0  0  0  0  0
  151.0521  134.5418  155.9006 O   0  0  0  0  0  0  0  0  0  0  0  0
  151.1431  135.6885  156.6630 C   0  0  0  0  0  0  0  0  0  0  0  0
  149.9831  136.1667  157.3041 C   0  0  0  0  0  0  0  0  0  0  0  0
  150.0655  137.3411  158.0771 C   0  0  0  0  0  0  0  0  0  0  0  0
  151.3109  138.0067  158.1787 C   0  0  0  0  0  0  0  0  0  0  0  0
  151.5350  139.1942  158.9274 N   0  0  0  0  0  0  0  0  0  0  0  0
  152.6717  139.8943  159.0834 C   0  0  0  0  0  0  0  0  0  0  0  0
  153.7493  139.6357  158.5488 O   0  0  0  0  0  0  0  0  0  0  0  0
  152.4849  140.9270  159.9181 N   0  0  0  0  0  0  0  0  0  0  0  0
  153.4999  141.8946  160.3317 C   0  0  2  0  0  0  0  0  0  0  0  0
  153.5947  141.8889  161.8644 C   0  0  0  0  0  0  0  0  0  0  0  0
  153.1550  143.2933  159.7835 C   0  0  2  0  0  0  0  0  0  0  0  0
  151.9794  143.9870  160.4755 C   0  0  0  0  0  0  0  0  0  0  0  0
  151.4459  144.9375  159.4146 C   0  0  0  0  0  0  0  0  0  0  0  0
  152.1105  144.4643  158.1190 C   0  0  0  0  0  0  0  0  0  0  0  0
  152.6995  143.2130  158.4420 O   0  0  0  0  0  0  0  0  0  0  0  0
  152.4145  137.4365  157.5117 C   0  0  0  0  0  0  0  0  0  0  0  0
  152.3422  136.3119  156.7694 N   0  0  0  0  0  0  0  0  0  0  0  0
  149.9776  132.8617  155.3851 H   0  0  0  0  0  0  0  0  0  0  0  0
  148.9890  134.2708  155.7541 H   0  0  0  0  0  0  0  0  0  0  0  0
  149.7812  133.3620  157.0610 H   0  0  0  0  0  0  0  0  0  0  0  0
  149.0448  135.6409  157.2055 H   0  0  0  0  0  0  0  0  0  0  0  0
  149.1784  137.6948  158.5778 H   0  0  0  0  0  0  0  0  0  0  0  0
  150.7468  139.5121  159.4722 H   0  0  0  0  0  0  0  0  0  0  0  0
  151.5620  141.0543  160.3065 H   0  0  0  0  0  0  0  0  0  0  0  0
  154.4765  141.6033  159.9415 H   0  0  0  0  0  0  0  0  0  0  0  0
  154.3588  142.5833  162.2148 H   0  0  0  0  0  0  0  0  0  0  0  0
  153.8581  140.8985  162.2370 H   0  0  0  0  0  0  0  0  0  0  0  0
  152.6485  142.1776  162.3234 H   0  0  0  0  0  0  0  0  0  0  0  0
  154.0341  143.9405  159.8166 H   0  0  0  0  0  0  0  0  0  0  0  0
  151.2089  143.2579  160.7306 H   0  0  0  0  0  0  0  0  0  0  0  0
  152.2737  144.4977  161.3928 H   0  0  0  0  0  0  0  0  0  0  0  0
  150.3587  144.8786  159.3541 H   0  0  0  0  0  0  0  0  0  0  0  0
  151.7148  145.9721  159.6296 H   0  0  0  0  0  0  0  0  0  0  0  0
  151.4029  144.3657  157.2957 H   0  0  0  0  0  0  0  0  0  0  0  0
  152.8934  145.1600  157.8136 H   0  0  0  0  0  0  0  0  0  0  0  0
  153.3886  137.9002  157.5688 H   0  0  0  0  0  0  0  0  0  0  0  0
  1  2  1  0  0  0  0
  1 20  1  0  0  0  0
  1 21  1  0  0  0  0
  1 22  1  0  0  0  0
  2  3  1  0  0  0  0
  3 19  1  0  0  0  0
  3  4  2  0  0  0  0
  4  5  1  0  0  0  0
  4 23  1  0  0  0  0
  5  6  2  0  0  0  0
  5 24  1  0  0  0  0
  6  7  1  0  0  0  0
  6 18  1  0  0  0  0
  7  8  1  0  0  0  0
  7 25  1  0  0  0  0
  8  9  2  0  0  0  0
  8 10  1  0  0  0  0
 10 11  1  0  0  0  0
 10 26  1  0  0  0  0
 11 12  1  0  0  0  0
 11 13  1  0  0  0  0
 11 27  1  0  0  0  0
 12 28  1  0  0  0  0
 12 29  1  0  0  0  0
 12 30  1  0  0  0  0
 13 17  1  0  0  0  0
 13 14  1  0  0  0  0
 13 31  1  0  0  0  0
 14 15  1  0  0  0  0
 14 32  1  0  0  0  0
 14 33  1  0  0  0  0
 15 16  1  0  0  0  0
 15 34  1  0  0  0  0
 15 35  1  0  0  0  0
 16 17  1  0  0  0  0
 16 36  1  0  0  0  0
 16 37  1  0  0  0  0
 18 19  2  0  0  0  0
 18 38  1  0  0  0  0
M  END
> <s_m_source_file>
AV-unprocessed.smi

> <i_m_source_file_index>
1791

> <i_lp_mmshare_version>
43012

> <i_f3d_flags>
0

> <s_epik_input>
W0NIM11PYzFbY0hdW2NIXWMoW2NIXW4xKVtOSF1DKD1PKVtOSF1bQ0BIXShbQ0gzXSlbQ0BASF0yW0NIMl1bQ0gyXVtDSDJdTzI=

> <s_epik_cmdline>
J2VwaWtfcHl0aG9uJywgJy1waCcsICc3LjAnLCAnLXRuJywgJzgnLCAnLW1hJywgJzIwMCcsICctbWV0YWxfYmluZGluZycsICctaW1hZScsICc8aW5maWxlLm1hZT4nLCAnLW9tYWUnLCAnPG91dGZpbGUubWFlPic=

> <r_lp_tautomer_probability>
1

> <r_epik_Ionization_Penalty>
9.18737e-05

> <r_epik_Ionization_Penalty_Charging>
0

> <r_epik_Ionization_Penalty_Neutral>
9.18737e-05

> <r_epik_State_Penalty>
-0

> <r_epik_Charging_Adjusted_Penalty>
0

> <i_epik_Tot_Q>
0

> <i_epik_Tot_abs_Q>
0

> <r_epik_Metal_State_Penalty>
-0

> <b_epik_Metal_Only>
0

> <s_lp_Force_Field>
OPLS_2005

> <r_lp_Energy>
20.7661

> <b_lp_Chiralities_Consistent>
1

> <s_lp_Variant>
AV-unprocessed.smi:1791-1

> <Gold.Version>
5.8.1

> <Gold.Id.Protein>
6NUR|6NUR_protein|mol2

> <Gold.PLP.Fitness>
39.7406

> <Gold.PLP.PLP>
-34.6007

> <Gold.PLP.part.hbond>
-2.4223

> <Gold.PLP.part.metal>
0.0000

> <Gold.PLP.part.buried>
-5.4982

> <Gold.PLP.part.nonpolar>
-27.3249

> <Gold.PLP.part.repulsive>
0.3473

> <Gold.PLP.ligand.clash>
0.0781

> <Gold.PLP.ligand.torsion>
0.4155

> <Gold.PLP.Chemscore.Hbond>
2.0000

> <Gold.PLP.Chemscore.CHOScore>
0.0000

> <Gold.PLP.Chemscore.Metal>
0.0000

> <Gold.Chemscore.Hbonds>
donor molecule, donor type, donor heavy atom, donor atom, acceptor molecule, acceptor atom, score
      P1  H  7997  8009       L1     9  1.00
      P1  H 10752 10765       L1    19  0.88

> <Gold.PLP.Chemscore.Internal.Correction>
0.0490

> <Gold.Rescore>
     Score         DG    S(hbond)    S(metal)    S(lipo)     H(rot)  DE(clash)    DE(int)     intcor
     16.33     -18.16       1.94        0.00      85.15       1.47       0.01       1.83       ----

> <Gold.Chemscore.Fitness>
16.3297

> <Gold.Chemscore.DG>
-18.1650

> <Gold.Chemscore.ZeroCoef>
-5.4800

> <Gold.Chemscore.Hbond>
1.9412

> <Gold.Chemscore.Metal>
0.0000

> <Gold.Chemscore.Lipo>
85.1504

> <Gold.Chemscore.Internal_Hbond>
0.0000

> <Gold.Chemscore.DEClash>
0.0060

> <Gold.Chemscore.DEInternal>
1.8293

> <Gold.Chemscore.Rot>
1.4693

> <Gold.Chemscore.Internal.Correction>
   9.000000E+99

> <Gold.Chemscore.Hbonds>
donor molecule, donor type, donor heavy atom, donor atom, acceptor molecule, acceptor atom, score
      P1  H  7997  8009       L1     9  1.00
      P1  H 10752 10765       L1    19  0.17

> <Gold.Chemscore.Hbond.Weighted>
-6.4837

> <Gold.Chemscore.Metal.Weighted>
-0.0000

> <Gold.Chemscore.Lipo.Weighted>
-9.9626

> <Gold.Chemscore.Internal_Hbond.Weighted>
0.0000

> <Gold.Chemscore.DEClash.Weighted>
0.0060

> <Gold.Chemscore.DEInternal.Weighted>
1.8293

> <Gold.Chemscore.Rot.Weighted>
3.7613

> <Gold.Chemscore.Internal.Correction.Weighted>
   9.000000E+99

> <Gold.Protein.RotatedTorsions>
[ 6907 6896 6895 6894 ] final   -1.49 input  -60.11 | X-H torsion
[ 7974 7965 7964 7962 ] final  -71.10 input  175.53 | X-H torsion
[ 8008 7997 7996 7995 ] final  148.56 input   59.86 | X-H torsion
[ 10167 10162 10161 10158 ] final  174.26 input  -65.29 | X-H torsion
[ 10718 10713 10712 10709 ] final   58.48 input   66.30 | X-H torsion
[ 10763 10752 10751 10750 ] final -142.15 input  -60.55 | X-H torsion
[ 11005 11000 10999 10996 ] final  142.73 input  -57.11 | X-H torsion

> <Gold.Protein.ActiveResidues>
 VAL166  LYS551  ARG553  GLY616  TRP617  ASP618  TYR619  PRO620  LYS621  CYS622 
 ASP623  PHE694  ASN695  SER759  ASP760  ASP761  ALA762  ILE779  LEU786  VAL792 
 PHE793  MET794  SER795  GLU796  ALA797  LYS798  CYS799  TRP800  GLU811  SER814 

> <Gold.Protein.RotatedAtoms>
  151.5452  135.1068  159.9935 H   0  0  0  0  0  0  0  0  0  0  0  0  # atno 6907 bound_to 6896
  152.4517  133.7638  159.6772 H   0  0  0  0  0  0  0  0  0  0  0  0  # atno 6908 bound_to 6896
  150.8447  133.7813  159.3072 H   0  0  0  0  0  0  0  0  0  0  0  0  # atno 6909 bound_to 6896
  145.6825  140.9183  143.0825 H   0  0  0  0  0  0  0  0  0  0  0  0  # atno 7974 bound_to 7965
  156.2787  140.2125  156.5717 H   0  0  0  0  0  0  0  0  0  0  0  0  # atno 8008 bound_to 7997
  154.7130  140.0510  157.0591 H   0  0  0  0  0  0  0  0  0  0  0  0  # atno 8009 bound_to 7997
  155.0580  140.3163  155.4673 H   0  0  0  0  0  0  0  0  0  0  0  0  # atno 8010 bound_to 7997
  139.5136  144.3167  152.0241 H   0  0  0  0  0  0  0  0  0  0  0  0  # atno 10167 bound_to 10162
  157.5599  130.8828  149.9095 H   0  0  0  0  0  0  0  0  0  0  0  0  # atno 10718 bound_to 10713
  154.8519  135.3504  154.5982 H   0  0  0  0  0  0  0  0  0  0  0  0  # atno 10763 bound_to 10752
  153.6591  135.6990  153.5188 H   0  0  0  0  0  0  0  0  0  0  0  0  # atno 10764 bound_to 10752
  153.2832  135.4257  155.1055 H   0  0  0  0  0  0  0  0  0  0  0  0  # atno 10765 bound_to 10752
  140.0499  134.9261  157.0998 H   0  0  0  0  0  0  0  0  0  0  0  0  # atno 11005 bound_to 11000
  144.7022  139.8715  143.7441 LP  0  0  0  0  0  0  0  0  0  0  0  0  # atno 17320 bound_to 7965
  146.0952  139.3944  143.0381 LP  0  0  0  0  0  0  0  0  0  0  0  0  # atno 17321 bound_to 7965
  140.2610  144.4067  150.6186 LP  0  0  0  0  0  0  0  0  0  0  0  0  # atno 17342 bound_to 10162
  140.6157  143.2172  151.6796 LP  0  0  0  0  0  0  0  0  0  0  0  0  # atno 17343 bound_to 10162
  156.0653  130.3693  150.0891 LP  0  0  0  0  0  0  0  0  0  0  0  0  # atno 17370 bound_to 10713
  156.9056  130.9635  151.3570 LP  0  0  0  0  0  0  0  0  0  0  0  0  # atno 17371 bound_to 10713
  140.3934  134.2160  155.7165 LP  0  0  0  0  0  0  0  0  0  0  0  0  # atno 17394 bound_to 11000
  141.1925  133.8171  157.0836 LP  0  0  0  0  0  0  0  0  0  0  0  0  # atno 17395 bound_to 11000

$$$$
