AV-unprocessed.smi:240|AV-procd|sdf|1834|dock3
  -GOLD-   2262020443D 1   1.00000     0.00000
 Structure written by MMmdl.
 55 59  0  0  0  0  0  0  0  0  1 V2000
  149.0880  138.6859  156.7719 O   0  0  0  0  0  0  0  0  0  0  0  0
  149.0332  137.4068  156.1745 C   0  0  2  0  0  0  0  0  0  0  0  0
  150.1472  136.5187  156.7609 C   0  0  0  0  0  0  0  0  0  0  0  0
  150.7973  135.8165  155.5672 C   0  0  0  0  0  0  0  0  0  0  0  0
  150.6480  136.8180  154.4253 C   0  0  0  0  0  0  0  0  0  0  0  0
  149.2432  137.3973  154.6375 C   0  0  2  0  0  0  0  0  0  0  0  0
  148.8884  138.6708  153.8049 C   0  0  2  0  0  0  0  0  0  0  0  0
  149.8108  139.8890  154.0746 C   0  0  0  0  0  0  0  0  0  0  0  0
  149.4280  140.9917  153.2607 O   0  0  0  0  0  0  0  0  0  0  0  0
  148.1002  141.4176  153.5326 C   0  0  0  0  0  0  0  0  0  0  0  0
  147.1352  140.2759  153.1899 C   0  0  0  0  0  0  0  0  0  0  0  0
  147.4819  139.0765  153.9429 N   0  0  0  0  0  0  0  0  0  0  0  0
  146.5374  138.1223  153.7817 C   0  0  0  0  0  0  0  0  0  0  0  0
  145.8354  137.7641  154.8846 N   0  0  0  0  0  0  0  0  0  0  0  0
  144.8886  136.8253  154.7981 C   0  0  0  0  0  0  0  0  0  0  0  0
  144.4890  136.1390  153.7254 N   0  0  0  0  0  0  0  0  0  0  0  0
  145.1824  136.5095  152.6106 C   0  0  0  0  0  0  0  0  0  0  0  0
  146.2167  137.4853  152.5490 C   0  0  0  0  0  0  0  0  0  0  0  0
  146.6902  137.5909  151.2469 N   0  0  0  0  0  0  0  0  0  0  0  0
  145.9819  136.7221  150.5789 C   0  0  0  0  0  0  0  0  0  0  0  0
  145.0438  136.0358  151.3171 N   0  0  0  0  0  0  0  0  0  0  0  0
  144.1207  135.0201  150.8318 C   0  0  0  0  0  0  0  0  0  0  0  0
  144.3779  133.6106  151.4195 C   0  0  2  0  0  0  0  0  0  0  0  0
  144.1961  133.6560  152.8229 O   0  0  0  0  0  0  0  0  0  0  0  0
  145.7890  133.0998  151.1177 C   0  0  0  0  0  0  0  0  0  0  0  0
  145.5607  131.9894  150.0991 C   0  0  0  0  0  0  0  0  0  0  0  0
  144.3278  131.4326  150.5180 O   0  0  0  0  0  0  0  0  0  0  0  0
  143.4655  132.5176  150.8274 C   0  0  0  0  0  0  0  0  0  0  0  0
  149.9821  138.9916  156.7386 H   0  0  0  0  0  0  0  0  0  0  0  0
  148.0566  136.9795  156.4058 H   0  0  0  0  0  0  0  0  0  0  0  0
  150.9012  137.1294  157.2605 H   0  0  0  0  0  0  0  0  0  0  0  0
  149.7673  135.8103  157.4976 H   0  0  0  0  0  0  0  0  0  0  0  0
  151.8367  135.5454  155.7553 H   0  0  0  0  0  0  0  0  0  0  0  0
  150.2506  134.9025  155.3310 H   0  0  0  0  0  0  0  0  0  0  0  0
  151.4155  137.5834  154.5322 H   0  0  0  0  0  0  0  0  0  0  0  0
  150.7671  136.3554  153.4451 H   0  0  0  0  0  0  0  0  0  0  0  0
  148.5845  136.6074  154.2732 H   0  0  0  0  0  0  0  0  0  0  0  0
  149.0444  138.4143  152.7570 H   0  0  0  0  0  0  0  0  0  0  0  0
  149.8025  140.1956  155.1198 H   0  0  0  0  0  0  0  0  0  0  0  0
  150.8442  139.6540  153.8240 H   0  0  0  0  0  0  0  0  0  0  0  0
  148.0022  141.7154  154.5779 H   0  0  0  0  0  0  0  0  0  0  0  0
  147.8757  142.2948  152.9259 H   0  0  0  0  0  0  0  0  0  0  0  0
  146.1122  140.5792  153.4169 H   0  0  0  0  0  0  0  0  0  0  0  0
  147.1784  140.0616  152.1210 H   0  0  0  0  0  0  0  0  0  0  0  0
  144.3777  136.5907  155.7202 H   0  0  0  0  0  0  0  0  0  0  0  0
  146.1251  136.5607  149.5205 H   0  0  0  0  0  0  0  0  0  0  0  0
  143.1059  135.3441  151.0670 H   0  0  0  0  0  0  0  0  0  0  0  0
  144.1861  134.9917  149.7434 H   0  0  0  0  0  0  0  0  0  0  0  0
  143.6888  132.9025  153.0835 H   0  0  0  0  0  0  0  0  0  0  0  0
  146.4613  133.8726  150.7430 H   0  0  0  0  0  0  0  0  0  0  0  0
  146.2503  132.6722  152.0095 H   0  0  0  0  0  0  0  0  0  0  0  0
  145.4594  132.3954  149.0911 H   0  0  0  0  0  0  0  0  0  0  0  0
  146.3596  131.2477  150.0965 H   0  0  0  0  0  0  0  0  0  0  0  0
  142.6593  132.2105  151.4948 H   0  0  0  0  0  0  0  0  0  0  0  0
  143.0115  132.8482  149.8929 H   0  0  0  0  0  0  0  0  0  0  0  0
  1  2  1  0  0  0  0
  1 29  1  0  0  0  0
  2  6  1  0  0  0  0
  2  3  1  0  0  0  0
  2 30  1  0  0  0  0
  3  4  1  0  0  0  0
  3 31  1  0  0  0  0
  3 32  1  0  0  0  0
  4  5  1  0  0  0  0
  4 33  1  0  0  0  0
  4 34  1  0  0  0  0
  5  6  1  0  0  0  0
  5 35  1  0  0  0  0
  5 36  1  0  0  0  0
  6  7  1  0  0  0  0
  6 37  1  0  0  0  0
  7 12  1  0  0  0  0
  7  8  1  0  0  0  0
  7 38  1  0  0  0  0
  8  9  1  0  0  0  0
  8 39  1  0  0  0  0
  8 40  1  0  0  0  0
  9 10  1  0  0  0  0
 10 11  1  0  0  0  0
 10 41  1  0  0  0  0
 10 42  1  0  0  0  0
 11 12  1  0  0  0  0
 11 43  1  0  0  0  0
 11 44  1  0  0  0  0
 12 13  1  0  0  0  0
 13 18  1  0  0  0  0
 13 14  2  0  0  0  0
 14 15  1  0  0  0  0
 15 16  2  0  0  0  0
 15 45  1  0  0  0  0
 16 17  1  0  0  0  0
 17 21  1  0  0  0  0
 17 18  2  0  0  0  0
 18 19  1  0  0  0  0
 19 20  2  0  0  0  0
 20 21  1  0  0  0  0
 20 46  1  0  0  0  0
 21 22  1  0  0  0  0
 22 23  1  0  0  0  0
 22 47  1  0  0  0  0
 22 48  1  0  0  0  0
 23 28  1  0  0  0  0
 23 24  1  0  0  0  0
 23 25  1  0  0  0  0
 24 49  1  0  0  0  0
 25 26  1  0  0  0  0
 25 50  1  0  0  0  0
 25 51  1  0  0  0  0
 26 27  1  0  0  0  0
 26 52  1  0  0  0  0
 26 53  1  0  0  0  0
 27 28  1  0  0  0  0
 28 54  1  0  0  0  0
 28 55  1  0  0  0  0
M  END
> <s_m_source_file>
AV-unprocessed.smi

> <i_m_source_file_index>
240

> <i_lp_mmshare_version>
43012

> <i_f3d_flags>
0

> <s_epik_input>
W09IXVtDQEBIXTFbQ0gyXVtDSDJdW0NIMl1bQ0BIXTFbQ0BASF0yW0NIMl1PW0NIMl1bQ0gyXU4yYyhuW2NIXW4zKWMoYzM0KW5bY0hdbjRbQ0gyXVtDQEBdNShbT0hdKVtDSDJdW0NIMl1PW0NIMl01

> <s_epik_cmdline>
J2VwaWtfcHl0aG9uJywgJy1waCcsICc3LjAnLCAnLXRuJywgJzgnLCAnLW1hJywgJzIwMCcsICctbWV0YWxfYmluZGluZycsICctaW1hZScsICc8aW5maWxlLm1hZT4nLCAnLW9tYWUnLCAnPG91dGZpbGUubWFlPic=

> <r_lp_tautomer_probability>
1

> <r_epik_Ionization_Penalty>
0.000130618

> <r_epik_Ionization_Penalty_Charging>
0

> <r_epik_Ionization_Penalty_Neutral>
0.000130618

> <r_epik_State_Penalty>
-0

> <r_epik_Charging_Adjusted_Penalty>
0

> <i_epik_Tot_Q>
0

> <i_epik_Tot_abs_Q>
0

> <r_epik_Metal_State_Penalty>
-0

> <b_epik_Metal_Only>
0

> <s_lp_Force_Field>
OPLS_2005

> <r_lp_Energy>
66.7643

> <b_lp_Chiralities_Consistent>
1

> <s_lp_Variant>
AV-unprocessed.smi:240-11

> <Gold.Version>
5.8.1

> <Gold.Id.Protein>
6NUR|6NUR_protein|mol2

> <Gold.PLP.Fitness>
40.9725

> <Gold.PLP.PLP>
-33.5535

> <Gold.PLP.part.hbond>
-3.7266

> <Gold.PLP.part.metal>
0.0000

> <Gold.PLP.part.buried>
-5.4810

> <Gold.PLP.part.nonpolar>
-32.3940

> <Gold.PLP.part.repulsive>
6.0701

> <Gold.PLP.ligand.clash>
0.0000

> <Gold.PLP.ligand.torsion>
0.1570

> <Gold.PLP.Chemscore.Hbond>
1.8502

> <Gold.PLP.Chemscore.CHOScore>
0.6456

> <Gold.PLP.Chemscore.Metal>
0.0000

> <Gold.Chemscore.Hbonds>
donor molecule, donor type, donor heavy atom, donor atom, acceptor molecule, acceptor atom, score
      L1  H    24    49       P1 10957  0.37
      P1  H  7954  7966       L1    19  0.90
      P1  H  8011  8017       L1     9  0.65
      L1  C    20    46       P1  7921  0.98

> <Gold.PLP.Chemscore.Internal.Correction>
0.2456

> <Gold.Rescore>
     Score         DG    S(hbond)    S(metal)    S(lipo)     H(rot)  DE(clash)    DE(int)     intcor
      9.24     -12.36       1.66        0.00      77.19       3.00       2.02       1.09       ----

> <Gold.Chemscore.Fitness>
9.2419

> <Gold.Chemscore.DG>
-12.3580

> <Gold.Chemscore.ZeroCoef>
-5.4800

> <Gold.Chemscore.Hbond>
1.6576

> <Gold.Chemscore.Metal>
0.0000

> <Gold.Chemscore.Lipo>
77.1921

> <Gold.Chemscore.Internal_Hbond>
0.0000

> <Gold.Chemscore.DEClash>
2.0236

> <Gold.Chemscore.DEInternal>
1.0925

> <Gold.Chemscore.Rot>
3.0039

> <Gold.Chemscore.Internal.Correction>
   9.000000E+99

> <Gold.Chemscore.Hbonds>
donor molecule, donor type, donor heavy atom, donor atom, acceptor molecule, acceptor atom, score
      L1  H    24    49       P1 10957  0.18
      P1  H  7954  7966       L1    19  0.17
      P1  H  8011  8017       L1     9  0.06
      P1  H 10785 10796       L1    27  0.01

> <Gold.Chemscore.Hbond.Weighted>
-5.5364

> <Gold.Chemscore.Metal.Weighted>
-0.0000

> <Gold.Chemscore.Lipo.Weighted>
-9.0315

> <Gold.Chemscore.Internal_Hbond.Weighted>
0.0000

> <Gold.Chemscore.DEClash.Weighted>
2.0236

> <Gold.Chemscore.DEInternal.Weighted>
1.0925

> <Gold.Chemscore.Rot.Weighted>
7.6899

> <Gold.Chemscore.Internal.Correction.Weighted>
   9.000000E+99

> <Gold.Protein.RotatedTorsions>
[ 6907 6896 6895 6894 ] final   39.26 input  -60.11 | X-H torsion
[ 7974 7965 7964 7962 ] final -105.85 input  175.53 | X-H torsion
[ 8008 7997 7996 7995 ] final   56.32 input   59.86 | X-H torsion
[ 10167 10162 10161 10158 ] final  -16.84 input  -65.29 | X-H torsion
[ 10718 10713 10712 10709 ] final -111.95 input   66.30 | X-H torsion
[ 10763 10752 10751 10750 ] final  160.64 input  -60.55 | X-H torsion
[ 11005 11000 10999 10996 ] final  145.56 input  -57.11 | X-H torsion

> <Gold.Protein.ActiveResidues>
 VAL166  LYS551  ARG553  GLY616  TRP617  ASP618  TYR619  PRO620  LYS621  CYS622 
 ASP623  PHE694  ASN695  SER759  ASP760  ASP761  ALA762  ILE779  LEU786  VAL792 
 PHE793  MET794  SER795  GLU796  ALA797  LYS798  CYS799  TRP800  GLU811  SER814 

> <Gold.Protein.RotatedAtoms>
  152.1672  134.8864  160.0536 H   0  0  0  0  0  0  0  0  0  0  0  0  # atno 6907 bound_to 6896
  151.9838  133.3762  159.4126 H   0  0  0  0  0  0  0  0  0  0  0  0  # atno 6908 bound_to 6896
  150.6896  134.3933  159.5130 H   0  0  0  0  0  0  0  0  0  0  0  0  # atno 6909 bound_to 6896
  145.2252  140.9150  143.3236 H   0  0  0  0  0  0  0  0  0  0  0  0  # atno 7974 bound_to 7965
  155.5155  140.3478  155.4396 H   0  0  0  0  0  0  0  0  0  0  0  0  # atno 8008 bound_to 7997
  156.0820  140.1389  156.9727 H   0  0  0  0  0  0  0  0  0  0  0  0  # atno 8009 bound_to 7997
  154.4585  140.0944  156.6803 H   0  0  0  0  0  0  0  0  0  0  0  0  # atno 8010 bound_to 7997
  140.7239  143.5075  150.9791 H   0  0  0  0  0  0  0  0  0  0  0  0  # atno 10167 bound_to 10162
  156.0677  130.5894  150.8443 H   0  0  0  0  0  0  0  0  0  0  0  0  # atno 10718 bound_to 10713
  154.2506  135.2771  155.2818 H   0  0  0  0  0  0  0  0  0  0  0  0  # atno 10763 bound_to 10752
  154.5468  135.5686  153.6890 H   0  0  0  0  0  0  0  0  0  0  0  0  # atno 10764 bound_to 10752
  152.9981  135.6264  154.2653 H   0  0  0  0  0  0  0  0  0  0  0  0  # atno 10765 bound_to 10752
  140.0722  134.9145  157.1364 H   0  0  0  0  0  0  0  0  0  0  0  0  # atno 11005 bound_to 11000
  144.9727  139.3863  143.6301 LP  0  0  0  0  0  0  0  0  0  0  0  0  # atno 17320 bound_to 7965
  146.3366  139.8833  142.8821 LP  0  0  0  0  0  0  0  0  0  0  0  0  # atno 17321 bound_to 7965
  139.8787  143.7099  152.3159 LP  0  0  0  0  0  0  0  0  0  0  0  0  # atno 17342 bound_to 10162
  139.7374  144.7568  151.0706 LP  0  0  0  0  0  0  0  0  0  0  0  0  # atno 17343 bound_to 10162
  157.5729  131.0946  150.9390 LP  0  0  0  0  0  0  0  0  0  0  0  0  # atno 17370 bound_to 10713
  156.9602  130.5452  149.5285 LP  0  0  0  0  0  0  0  0  0  0  0  0  # atno 17371 bound_to 10713
  140.3610  134.2494  155.7187 LP  0  0  0  0  0  0  0  0  0  0  0  0  # atno 17394 bound_to 11000
  141.2016  133.7958  157.0432 LP  0  0  0  0  0  0  0  0  0  0  0  0  # atno 17395 bound_to 11000

$$$$
