#       Name:                AV-unprocessed.smi:2306
#       Creating user name   scv26
#       Creation time:       Fri Mar 27 12:46:46 2020


#       File generated by GOLD software.
#

@<TRIPOS>MOLECULE
AV-unprocessed.smi:2306
    48    49     1
SMALL
NO_CHARGES


@<TRIPOS>ATOM
      1 ****        -2.0890   5.4097  -0.7450 C.3            1 S1                 0.0000
      2 ****        -1.5443   4.0171  -1.0085 C.2            1 S1                 0.0000
      3 ****        -1.1426   3.7646  -2.3236 N.2            1 S1                 0.0000
      4 ****        -0.6776   2.6015  -2.6438 C.2            1 S1                 0.0000
      5 ****        -0.5616   1.5689  -1.6997 N.am           1 S1                 0.0000
      6 ****        -0.0190   0.2931  -2.1926 C.3            1 S1                 0.0000
      7 ****         1.4909   0.1511  -1.8901 C.3            1 S1                 0.0000
      8 ****         2.2260   0.5827  -3.0175 O.3            1 S1                 0.0000
      9 ****         1.8935  -1.3046  -1.6104 C.3            1 S1                 0.0000
     10 ****         1.3235  -1.6959  -0.3729 O.3            1 S1                 0.0000
     11 ****         1.6381  -3.0291  -0.0074 C.3            1 S1                 0.0000
     12 ****         1.0077  -3.4250   1.3155 C.ar           1 S1                 0.0000
     13 ****         0.7262  -2.4526   2.3002 C.ar           1 S1                 0.0000
     14 ****         0.1550  -2.8342   3.5299 C.ar           1 S1                 0.0000
     15 ****        -0.1313  -4.1893   3.7843 C.ar           1 S1                 0.0000
     16 ****         0.1564  -5.1635   2.8091 C.ar           1 S1                 0.0000
     17 ****         0.7271  -4.7825   1.5788 C.ar           1 S1                 0.0000
     18 ****        -0.9108   1.7361  -0.3910 C.2            1 S1                 0.0000
     19 ****        -0.7792   0.8304   0.4350 O.2            1 S1                 0.0000
     20 ****        -1.4465   3.0622  -0.0434 C.2            1 S1                 0.0000
     21 ****        -1.8720   3.2786   1.4035 C.3            1 S1                 0.0000
     22 ****        -1.4767   5.9253  -0.0048 H              1 S1                 0.0000
     23 ****        -3.1131   5.3556  -0.3750 H              1 S1                 0.0000
     24 ****        -2.0937   6.0136  -1.6534 H              1 S1                 0.0000
     25 ****        -0.3474   2.3541  -3.6542 H              1 S1                 0.0000
     26 ****        -0.5703  -0.5166  -1.7109 H              1 S1                 0.0000
     27 ****        -0.2184   0.1419  -3.2559 H              1 S1                 0.0000
     28 ****         1.7829   0.7629  -1.0353 H              1 S1                 0.0000
     29 ****         2.0509   1.5007  -3.1577 H              1 S1                 0.0000
     30 ****         1.5564  -1.9605  -2.4148 H              1 S1                 0.0000
     31 ****         2.9799  -1.3894  -1.5482 H              1 S1                 0.0000
     32 ****         1.2928  -3.7118  -0.7857 H              1 S1                 0.0000
     33 ****         2.7193  -3.1476   0.0763 H              1 S1                 0.0000
     34 ****         0.9455  -1.4103   2.1196 H              1 S1                 0.0000
     35 ****        -0.0616  -2.0866   4.2788 H              1 S1                 0.0000
     36 ****        -0.5684  -4.4813   4.7278 H              1 S1                 0.0000
     37 ****        -0.0595  -6.2034   3.0052 H              1 S1                 0.0000
     38 ****         0.9482  -5.5360   0.8371 H              1 S1                 0.0000
     39 ****        -2.6826   2.5963   1.6611 H              1 S1                 0.0000
     40 ****        -2.2190   4.2911   1.6027 H              1 S1                 0.0000
     41 ****        -1.0367   3.0814   2.0762 H              1 S1                 0.0000
     42 ****        -1.2148   4.4828  -3.0157 LP             1 S1                 0.0000
     43 ****         1.9465   0.0595  -3.8225 LP             1 S1                 0.0000
     44 ****         3.2033   0.4471  -2.8547 LP             1 S1                 0.0000
     45 ****         0.3294  -1.6114  -0.4405 LP             1 S1                 0.0000
     46 ****         1.6624  -1.0827   0.3407 LP             1 S1                 0.0000
     47 ****        -0.4084  -0.0542   0.1522 LP             1 S1                 0.0000
     48 ****        -1.0432   0.9804   1.3878 LP             1 S1                 0.0000
@<TRIPOS>BOND
    1    1    2 1     
    2    1   22 1     
    3    1   23 1     
    4    1   24 1     
    5    2   20 2     
    6    2    3 1     
    7    3    4 2     
    8    4    5 1     
    9    4   25 1     
   10    5    6 1     
   11    5   18 am    
   12    6    7 1     
   13    6   26 1     
   14    6   27 1     
   15    7    8 1     
   16    7    9 1     
   17    7   28 1     
   18    8   29 1     
   19    9   10 1     
   20    9   30 1     
   21    9   31 1     
   22   10   11 1     
   23   11   12 1     
   24   11   32 1     
   25   11   33 1     
   26   12   17 ar    
   27   12   13 ar    
   28   13   14 ar    
   29   13   34 1     
   30   14   15 ar    
   31   14   35 1     
   32   15   16 ar    
   33   15   36 1     
   34   16   17 ar    
   35   16   37 1     
   36   17   38 1     
   37   18   19 2     
   38   18   20 1     
   39   20   21 1     
   40   21   39 1     
   41   21   40 1     
   42   21   41 1     
   43    3   42 1     
   44    8   43 1     
   45    8   44 1     
   46   10   45 1     
   47   10   46 1     
   48   19   47 1     
   49   19   48 1     
@<TRIPOS>SUBSTRUCTURE
      1 S1             1
@<TRIPOS>SET
LONE_PAIRS      STATIC     ATOMS    <user>   **** ""
7 42 43 44 45 46 47 48
DONOR_HYDROGENS      STATIC     ATOMS    <user>   **** ""
1 29
ATOM$BLUE        STATIC     ATOMS    COLORGROUP SYSTEM
7 42 43 44 45 46 47 48
ATOM$RED        STATIC     ATOMS    COLORGROUP SYSTEM
1 29
