AV-unprocessed.smi:672|AV-procd|sdf|3295|dock7
  -GOLD-   22720 0253D 1   1.00000     0.00000
 Structure written by MMmdl.
 35 36  0  0  0  0  0  0  0  0  2 V2000
  147.8151  141.0635  153.8598 C   0  0  0  0  0  0  0  0  0  0  0  0
  149.1114  141.2763  154.6487 C   0  0  0  0  0  0  0  0  0  0  0  0
  149.9531  140.0458  154.7102 C   0  0  0  0  0  0  0  0  0  0  0  0
  151.2764  140.0799  154.8877 N   0  0  0  0  0  0  0  0  0  0  0  0
  151.8375  138.8113  154.8816 N   0  0  0  0  0  0  0  0  0  0  0  0
  150.9379  137.8399  154.6705 C   0  0  0  0  0  0  0  0  0  0  0  0
  151.2747  136.5405  154.6227 N   0  5  0  0  0  0  0  0  0  0  0  0
  150.4454  135.6092  155.1464 C   0  0  0  0  0  0  0  0  0  0  0  0
  150.5726  135.0485  156.2375 O   0  0  0  0  0  0  0  0  0  0  0  0
  149.4068  135.3047  154.3552 N   0  0  0  0  0  0  0  0  0  0  0  0
  148.3486  134.3447  154.6627 C   0  0  2  0  0  0  0  0  0  0  0  0
  148.8606  132.8905  154.6093 C   0  0  0  0  0  0  0  0  0  0  0  0
  148.2215  132.2642  153.3700 C   0  0  0  0  0  0  0  0  0  0  0  0
  146.8857  132.9898  153.2327 C   0  0  2  0  0  0  0  0  0  0  0  0
  146.1814  132.8397  151.5652 S   0  0  0  0  0  0  0  0  0  0  0  0
  145.6812  131.0981  151.5828 C   0  0  0  0  0  0  0  0  0  0  0  0
  147.2114  134.4342  153.6272 C   0  0  0  0  0  0  0  0  0  0  0  0
  149.2892  138.4362  154.4861 S   0  0  0  0  0  0  0  0  0  0  0  0
  147.2219  141.9775  153.8324 H   0  0  0  0  0  0  0  0  0  0  0  0
  147.2036  140.2826  154.3130 H   0  0  0  0  0  0  0  0  0  0  0  0
  148.0241  140.7699  152.8308 H   0  0  0  0  0  0  0  0  0  0  0  0
  149.6938  142.0804  154.1975 H   0  0  0  0  0  0  0  0  0  0  0  0
  148.8800  141.5918  155.6664 H   0  0  0  0  0  0  0  0  0  0  0  0
  149.3440  135.7848  153.4696 H   0  0  0  0  0  0  0  0  0  0  0  0
  147.9492  134.5528  155.6570 H   0  0  0  0  0  0  0  0  0  0  0  0
  149.9482  132.8112  154.5889 H   0  0  0  0  0  0  0  0  0  0  0  0
  148.5194  132.3589  155.4985 H   0  0  0  0  0  0  0  0  0  0  0  0
  148.8478  132.4637  152.4990 H   0  0  0  0  0  0  0  0  0  0  0  0
  148.1068  131.1835  153.4588 H   0  0  0  0  0  0  0  0  0  0  0  0
  146.1825  132.5684  153.9524 H   0  0  0  0  0  0  0  0  0  0  0  0
  145.2681  130.8178  150.6140 H   0  0  0  0  0  0  0  0  0  0  0  0
  144.9202  130.9247  152.3435 H   0  0  0  0  0  0  0  0  0  0  0  0
  146.5374  130.4571  151.7928 H   0  0  0  0  0  0  0  0  0  0  0  0
  146.3397  134.9562  154.0230 H   0  0  0  0  0  0  0  0  0  0  0  0
  147.5428  134.9856  152.7453 H   0  0  0  0  0  0  0  0  0  0  0  0
  1  2  1  0  0  0  0
  1 19  1  0  0  0  0
  1 20  1  0  0  0  0
  1 21  1  0  0  0  0
  2  3  1  0  0  0  0
  2 22  1  0  0  0  0
  2 23  1  0  0  0  0
  3 18  1  0  0  0  0
  3  4  2  0  0  0  0
  4  5  1  0  0  0  0
  5  6  2  0  0  0  0
  6  7  1  0  0  0  0
  6 18  1  0  0  0  0
  7  8  1  0  0  0  0
  8  9  2  0  0  0  0
  8 10  1  0  0  0  0
 10 11  1  0  0  0  0
 10 24  1  0  0  0  0
 11 17  1  0  0  0  0
 11 12  1  0  0  0  0
 11 25  1  0  0  0  0
 12 13  1  0  0  0  0
 12 26  1  0  0  0  0
 12 27  1  0  0  0  0
 13 14  1  0  0  0  0
 13 28  1  0  0  0  0
 13 29  1  0  0  0  0
 14 15  1  0  0  0  0
 14 17  1  0  0  0  0
 14 30  1  0  0  0  0
 15 16  1  0  0  0  0
 16 31  1  0  0  0  0
 16 32  1  0  0  0  0
 16 33  1  0  0  0  0
 17 34  1  0  0  0  0
 17 35  1  0  0  0  0
M  CHG  1   7  -1
M  END
> <s_m_source_file>
AV-unprocessed.smi

> <i_m_source_file_index>
672

> <i_lp_mmshare_version>
43012

> <i_f3d_flags>
0

> <s_epik_input>
W0NIM11bQ0gyXWMxbm5jKHMxKVtOSF1DKD1PKVtOSF1bQ0BASF0yW0NIMl1bQ0gyXVtDQEhdKFtDSDJdMilTW0NIM10=

> <s_epik_cmdline>
J2VwaWtfcHl0aG9uJywgJy1waCcsICc3LjAnLCAnLXRuJywgJzgnLCAnLW1hJywgJzIwMCcsICctbWV0YWxfYmluZGluZycsICctaW1hZScsICc8aW5maWxlLm1hZT4nLCAnLW9tYWUnLCAnPG91dGZpbGUubWFlPic=

> <r_lp_tautomer_probability>
1

> <r_epik_Ionization_Penalty>
4.49964

> <r_epik_Ionization_Penalty_Charging>
4.32991

> <r_epik_Ionization_Penalty_Neutral>
0.169727

> <r_epik_State_Penalty>
4.32952

> <r_epik_Charging_Adjusted_Penalty>
8.65943

> <i_epik_Tot_Q>
-1

> <i_epik_Tot_abs_Q>
1

> <r_epik_Metal_State_Penalty>
0.740482

> <b_epik_Metal_Only>
1

> <s_lp_Force_Field>
OPLS_2005

> <r_lp_Energy>
9.98036

> <b_lp_Chiralities_Consistent>
1

> <s_lp_Variant>
AV-unprocessed.smi:672-7

> <Gold.Version>
5.8.1

> <Gold.Id.Protein>
6NUR|6NUR_protein|mol2

> <Gold.PLP.Fitness>
41.2384

> <Gold.PLP.PLP>
-32.1631

> <Gold.PLP.part.hbond>
-3.0873

> <Gold.PLP.part.metal>
0.0000

> <Gold.PLP.part.buried>
-2.5420

> <Gold.PLP.part.nonpolar>
-27.5732

> <Gold.PLP.part.repulsive>
0.4284

> <Gold.PLP.ligand.clash>
0.0000

> <Gold.PLP.ligand.torsion>
1.4830

> <Gold.PLP.Chemscore.Hbond>
4.0000

> <Gold.PLP.Chemscore.CHOScore>
0.0000

> <Gold.PLP.Chemscore.Metal>
0.0000

> <Gold.Chemscore.Hbonds>
donor molecule, donor type, donor heavy atom, donor atom, acceptor molecule, acceptor atom, score
      L1  H    10    24       P1  7948  1.00
      P1  H  7989  7998       L1     4  0.85
      P1  H 10752 10765       L1     7  2.00

> <Gold.PLP.Chemscore.Internal.Correction>
0.0413

> <Gold.Rescore>
     Score         DG    S(hbond)    S(metal)    S(lipo)     H(rot)  DE(clash)    DE(int)     intcor
     15.10     -16.61       2.18        0.00      62.22       1.34       0.12       1.39       ----

> <Gold.Chemscore.Fitness>
15.1033

> <Gold.Chemscore.DG>
-16.6097

> <Gold.Chemscore.ZeroCoef>
-5.4800

> <Gold.Chemscore.Hbond>
2.1805

> <Gold.Chemscore.Metal>
0.0000

> <Gold.Chemscore.Lipo>
62.2201

> <Gold.Chemscore.Internal_Hbond>
0.0000

> <Gold.Chemscore.DEClash>
0.1176

> <Gold.Chemscore.DEInternal>
1.3888

> <Gold.Chemscore.Rot>
1.3410

> <Gold.Chemscore.Internal.Correction>
   9.000000E+99

> <Gold.Chemscore.Hbonds>
donor molecule, donor type, donor heavy atom, donor atom, acceptor molecule, acceptor atom, score
      L1  H    10    24       P1  7948  0.45
      P1  H  7989  7998       L1     4  0.11
      P1  H 10752 10765       L1     7  0.45

> <Gold.Chemscore.Hbond.Weighted>
-7.2828

> <Gold.Chemscore.Metal.Weighted>
-0.0000

> <Gold.Chemscore.Lipo.Weighted>
-7.2797

> <Gold.Chemscore.Internal_Hbond.Weighted>
0.0000

> <Gold.Chemscore.DEClash.Weighted>
0.1176

> <Gold.Chemscore.DEInternal.Weighted>
1.3888

> <Gold.Chemscore.Rot.Weighted>
3.4329

> <Gold.Chemscore.Internal.Correction.Weighted>
   9.000000E+99

> <Gold.Protein.RotatedTorsions>
[ 6907 6896 6895 6894 ] final   19.91 input  -60.11 | X-H torsion
[ 7974 7965 7964 7962 ] final  -41.86 input  175.53 | X-H torsion
[ 8008 7997 7996 7995 ] final  -75.91 input   59.86 | X-H torsion
[ 10167 10162 10161 10158 ] final -142.78 input  -65.29 | X-H torsion
[ 10718 10713 10712 10709 ] final  125.97 input   66.30 | X-H torsion
[ 10763 10752 10751 10750 ] final  170.74 input  -60.55 | X-H torsion
[ 11005 11000 10999 10996 ] final -111.49 input  -57.11 | X-H torsion

> <Gold.Protein.ActiveResidues>
 VAL166  LYS551  ARG553  GLY616  TRP617  ASP618  TYR619  PRO620  LYS621  CYS622 
 ASP623  PHE694  ASN695  SER759  ASP760  ASP761  ALA762  ILE779  LEU786  VAL792 
 PHE793  MET794  SER795  GLU796  ALA797  LYS798  CYS799  TRP800  GLU811  SER814 

> <Gold.Protein.RotatedAtoms>
  151.8882  135.0427  160.0495 H   0  0  0  0  0  0  0  0  0  0  0  0  # atno 6907 bound_to 6896
  152.2457  133.5168  159.5304 H   0  0  0  0  0  0  0  0  0  0  0  0  # atno 6908 bound_to 6896
  150.7067  134.0944  159.3986 H   0  0  0  0  0  0  0  0  0  0  0  0  # atno 6909 bound_to 6896
  146.0170  140.6895  142.9196 H   0  0  0  0  0  0  0  0  0  0  0  0  # atno 7974 bound_to 7965
  154.5458  140.0736  156.8587 H   0  0  0  0  0  0  0  0  0  0  0  0  # atno 8008 bound_to 7997
  155.3090  140.3389  155.4226 H   0  0  0  0  0  0  0  0  0  0  0  0  # atno 8009 bound_to 7997
  156.1917  140.1688  156.8065 H   0  0  0  0  0  0  0  0  0  0  0  0  # atno 8010 bound_to 7997
  139.8056  143.7773  152.2661 H   0  0  0  0  0  0  0  0  0  0  0  0  # atno 10167 bound_to 10162
  157.5459  131.1095  150.8783 H   0  0  0  0  0  0  0  0  0  0  0  0  # atno 10718 bound_to 10713
  154.4019  135.2755  155.2091 H   0  0  0  0  0  0  0  0  0  0  0  0  # atno 10763 bound_to 10752
  154.4113  135.6021  153.5958 H   0  0  0  0  0  0  0  0  0  0  0  0  # atno 10764 bound_to 10752
  152.9831  135.5950  154.4288 H   0  0  0  0  0  0  0  0  0  0  0  0  # atno 10765 bound_to 10752
  141.0731  133.9346  157.2444 H   0  0  0  0  0  0  0  0  0  0  0  0  # atno 11005 bound_to 11000
  144.6975  140.3499  143.7183 LP  0  0  0  0  0  0  0  0  0  0  0  0  # atno 17320 bound_to 7965
  145.7252  139.1721  143.2462 LP  0  0  0  0  0  0  0  0  0  0  0  0  # atno 17321 bound_to 7965
  139.7906  144.7411  150.9960 LP  0  0  0  0  0  0  0  0  0  0  0  0  # atno 17342 bound_to 10162
  140.7819  143.4446  151.0502 LP  0  0  0  0  0  0  0  0  0  0  0  0  # atno 17343 bound_to 10162
  156.9322  130.5354  149.5279 LP  0  0  0  0  0  0  0  0  0  0  0  0  # atno 17370 bound_to 10713
  156.0535  130.5600  150.9040 LP  0  0  0  0  0  0  0  0  0  0  0  0  # atno 17371 bound_to 10713
  139.9544  135.0169  156.9086 LP  0  0  0  0  0  0  0  0  0  0  0  0  # atno 17394 bound_to 11000
  140.5631  134.0516  155.7405 LP  0  0  0  0  0  0  0  0  0  0  0  0  # atno 17395 bound_to 11000

$$$$
