#       Name:                AV-unprocessed.smi:2246
#       Creating user name   scv26
#       Creation time:       Fri Mar 27 12:28:47 2020


#       File generated by GOLD software.
#

@<TRIPOS>MOLECULE
AV-unprocessed.smi:2246
    35    36     1
SMALL
NO_CHARGES


@<TRIPOS>ATOM
      1 ****         0.8720  -1.3126  -1.3828 O.2            1 S1                 0.0000
      2 ****         0.5780  -0.2084  -0.9261 C.2            1 S1                 0.0000
      3 ****        -0.8702   0.2410  -0.7305 C.3            1 S1                 0.0000
      4 ****        -1.5373  -0.6169   0.2779 N.am           1 S1                 0.0000
      5 ****        -1.2728  -0.5462   1.6408 C.2            1 S1                 0.0000
      6 ****        -1.8411  -1.3673   2.5562 C.2            1 S1                 0.0000
      7 ****        -1.4560  -1.2107   4.2327 Cl             1 S1                 0.0000
      8 ****        -2.7805  -2.4016   2.1281 C.2            1 S1                 0.0000
      9 ****        -3.3586  -3.1916   2.8719 O.2            1 S1                 0.0000
     10 ****        -2.9981  -2.4570   0.7490 N.am           1 S1                 0.0000
     11 ****        -2.4111  -1.6216  -0.2017 C.2            1 S1                 0.0000
     12 ****        -2.6680  -1.7864  -1.3939 O.2            1 S1                 0.0000
     13 ****        -0.6919   1.7004  -0.2538 C.3            1 S1                 0.0000
     14 ****         0.8033   1.9041   0.0192 C.3            1 S1                 0.0000
     15 ****         1.4477   0.7377  -0.5536 N.am           1 S1                 0.0000
     16 ****         2.9057   0.6415  -0.5980 C.3            1 S1                 0.0000
     17 ****         3.4726   0.9614  -1.9928 C.3            1 S1                 0.0000
     18 ****         4.8025   0.8973  -1.9457 F              1 S1                 0.0000
     19 ****         3.0393   0.0883  -2.9016 F              1 S1                 0.0000
     20 ****         3.1196   2.1920  -2.3642 F              1 S1                 0.0000
     21 ****        -3.6295  -3.1686   0.4105 H              1 S1                 0.0000
     22 ****        -1.3716   0.2583  -1.6999 H              1 S1                 0.0000
     23 ****        -0.5736   0.1927   2.0029 H              1 S1                 0.0000
     24 ****        -0.9966   2.3736  -1.0564 H              1 S1                 0.0000
     25 ****        -1.3087   1.9638   0.6060 H              1 S1                 0.0000
     26 ****         1.1748   2.8251  -0.4319 H              1 S1                 0.0000
     27 ****         1.0056   1.9419   1.0904 H              1 S1                 0.0000
     28 ****         3.3291   1.3292   0.1352 H              1 S1                 0.0000
     29 ****         3.2158  -0.3580  -0.2888 H              1 S1                 0.0000
     30 ****         1.8323  -1.5648  -1.5021 LP             1 S1                 0.0000
     31 ****         0.1506  -1.9578  -1.6346 LP             1 S1                 0.0000
     32 ****        -3.2002  -3.1566   3.8587 LP             1 S1                 0.0000
     33 ****        -3.9872  -3.8692   2.4902 LP             1 S1                 0.0000
     34 ****        -2.2508  -1.1928  -2.0820 LP             1 S1                 0.0000
     35 ****        -3.2940  -2.5140  -1.6745 LP             1 S1                 0.0000
@<TRIPOS>BOND
    1    1    2 2     
    2    2   15 am    
    3    2    3 1     
    4    3    4 1     
    5    3   13 1     
    6    3   22 1     
    7    4   11 1     
    8    4    5 1     
    9    5    6 2     
   10    5   23 1     
   11    6    7 1     
   12    6    8 1     
   13    8    9 2     
   14    8   10 1     
   15   10   21 1     
   16   10   11 1     
   17   11   12 2     
   18   13   14 1     
   19   13   24 1     
   20   13   25 1     
   21   14   15 1     
   22   14   26 1     
   23   14   27 1     
   24   15   16 1     
   25   16   17 1     
   26   16   28 1     
   27   16   29 1     
   28   17   18 1     
   29   17   19 1     
   30   17   20 1     
   31    1   30 1     
   32    1   31 1     
   33    9   32 1     
   34    9   33 1     
   35   12   34 1     
   36   12   35 1     
@<TRIPOS>SUBSTRUCTURE
      1 S1             1
@<TRIPOS>SET
LONE_PAIRS      STATIC     ATOMS    <user>   **** ""
6 30 31 32 33 34 35
DONOR_HYDROGENS      STATIC     ATOMS    <user>   **** ""
1 21
ATOM$BLUE        STATIC     ATOMS    COLORGROUP SYSTEM
6 30 31 32 33 34 35
ATOM$RED        STATIC     ATOMS    COLORGROUP SYSTEM
1 21
