#       Name:                AV-unprocessed.smi:200
#       Creating user name   scv26
#       Creation time:       Thu Mar 26 19:46:13 2020


#       File generated by GOLD software.
#

@<TRIPOS>MOLECULE
AV-unprocessed.smi:200
    66    69     1
SMALL
NO_CHARGES


@<TRIPOS>ATOM
      1 ****        -4.0689  -3.5717   0.7532 C.3            1 S1                 0.0000
      2 ****        -2.7088  -3.5211   0.3526 O.3            1 S1                 0.0000
      3 ****        -2.5142  -3.3702  -1.0477 C.3            1 S1                 0.0000
      4 ****        -2.8635  -1.9493  -1.5395 C.3            1 S1                 0.0000
      5 ****        -2.0903  -0.8952  -0.8797 N.3            1 S1                 0.0000
      6 ****        -0.7430  -1.0133  -0.9697 C.ar           1 S1                 0.0000
      7 ****        -0.1516  -1.1775  -2.1822 N.ar           1 S1                 0.0000
      8 ****         1.1776  -1.2849  -2.2672 C.ar           1 S1                 0.0000
      9 ****         2.0822  -1.2533  -1.2860 N.ar           1 S1                 0.0000
     10 ****         1.4902  -1.0946  -0.0675 C.ar           1 S1                 0.0000
     11 ****         0.0937  -0.9804   0.1776 C.ar           1 S1                 0.0000
     12 ****        -0.1446  -0.8571   1.5398 N.2            1 S1                 0.0000
     13 ****         1.0465  -0.8935   2.0715 C.2            1 S1                 0.0000
     14 ****         2.0893  -1.0082   1.1780 N.pl3          1 S1                 0.0000
     15 ****         3.5088  -1.0604   1.4980 C.3            1 S1                 0.0000
     16 ****         4.2035   0.3190   1.5585 C.3            1 S1                 0.0000
     17 ****         3.5328   1.2264   2.6037 C.3            1 S1                 0.0000
     18 ****         3.5995   0.6632   3.8981 O.3            1 S1                 0.0000
     19 ****         5.7360   0.2664   1.6239 C.3            1 S1                 0.0000
     20 ****         5.8813   0.7338   0.2666 O.3            1 S1                 0.0000
     21 ****         4.4630   0.9904   0.2018 C.3            1 S1                 0.0000
     22 ****        -2.6369   0.4647  -0.9823 C.3            1 S1                 0.0000
     23 ****        -2.6913   1.0483  -2.4031 C.3            1 S1                 0.0000
     24 ****        -2.7113   2.5756  -2.2221 C.3            1 S1                 0.0000
     25 ****        -2.5359   2.8445  -0.7168 C.3            1 S1                 0.0000
     26 ****        -1.7085   4.0974  -0.3998 C.3            1 S1                 0.0000
     27 ****        -1.9348   1.5527  -0.1591 C.3            1 S1                 0.0000
     28 ****        -4.1217  -3.7579   1.8257 H              1 S1                 0.0000
     29 ****        -4.6021  -4.3779   0.2481 H              1 S1                 0.0000
     30 ****        -4.5842  -2.6316   0.5580 H              1 S1                 0.0000
     31 ****        -1.4725  -3.6024  -1.2696 H              1 S1                 0.0000
     32 ****        -3.1042  -4.1119  -1.5878 H              1 S1                 0.0000
     33 ****        -2.7022  -1.8901  -2.6165 H              1 S1                 0.0000
     34 ****        -3.9259  -1.7561  -1.3919 H              1 S1                 0.0000
     35 ****         1.5736  -1.4115  -3.2640 H              1 S1                 0.0000
     36 ****         1.1994  -0.8248   3.1387 H              1 S1                 0.0000
     37 ****         3.6216  -1.5900   2.4447 H              1 S1                 0.0000
     38 ****         3.9942  -1.6950   0.7554 H              1 S1                 0.0000
     39 ****         4.0273   2.1976   2.6414 H              1 S1                 0.0000
     40 ****         2.4933   1.4328   2.3513 H              1 S1                 0.0000
     41 ****         3.1977   1.2632   4.5079 H              1 S1                 0.0000
     42 ****         6.1748   0.9617   2.3411 H              1 S1                 0.0000
     43 ****         6.1395  -0.7374   1.7624 H              1 S1                 0.0000
     44 ****         3.9968   0.4938  -0.6473 H              1 S1                 0.0000
     45 ****         4.2453   2.0592   0.1871 H              1 S1                 0.0000
     46 ****        -3.6623   0.4121  -0.6132 H              1 S1                 0.0000
     47 ****        -1.8077   0.7737  -2.9787 H              1 S1                 0.0000
     48 ****        -3.5610   0.6880  -2.9531 H              1 S1                 0.0000
     49 ****        -1.8978   3.0205  -2.7967 H              1 S1                 0.0000
     50 ****        -3.6406   3.0121  -2.5897 H              1 S1                 0.0000
     51 ****        -3.5286   2.9646  -0.2796 H              1 S1                 0.0000
     52 ****        -0.7037   4.0263  -0.8174 H              1 S1                 0.0000
     53 ****        -1.6120   4.2381   0.6770 H              1 S1                 0.0000
     54 ****        -2.1784   4.9910  -0.8110 H              1 S1                 0.0000
     55 ****        -2.1007   1.4406   0.9127 H              1 S1                 0.0000
     56 ****        -0.8587   1.5575  -0.3363 H              1 S1                 0.0000
     57 ****        -2.2663  -4.3705   0.6401 LP             1 S1                 0.0000
     58 ****        -2.2755  -2.7468   0.8138 LP             1 S1                 0.0000
     59 ****        -2.2453  -1.0909   0.0886 LP             1 S1                 0.0000
     60 ****        -0.7108  -1.2179  -3.0102 LP             1 S1                 0.0000
     61 ****         3.0689  -1.3355  -1.4265 LP             1 S1                 0.0000
     62 ****        -1.0246  -0.7624   2.0053 LP             1 S1                 0.0000
     63 ****         4.5551   0.5140   4.1520 LP             1 S1                 0.0000
     64 ****         3.1108  -0.2091   3.9118 LP             1 S1                 0.0000
     65 ****         6.1992   0.0348  -0.3739 LP             1 S1                 0.0000
     66 ****         6.4487   1.5522   0.1754 LP             1 S1                 0.0000
@<TRIPOS>BOND
    1    1    2 1     
    2    1   28 1     
    3    1   29 1     
    4    1   30 1     
    5    2    3 1     
    6    3    4 1     
    7    3   31 1     
    8    3   32 1     
    9    4    5 1     
   10    4   33 1     
   11    4   34 1     
   12    5    6 1     
   13    5   22 1     
   14    6   11 ar    
   15    6    7 ar    
   16    7    8 ar    
   17    8    9 ar    
   18    8   35 1     
   19    9   10 ar    
   20   10   14 1     
   21   10   11 ar    
   22   11   12 1     
   23   12   13 2     
   24   13   14 1     
   25   13   36 1     
   26   14   15 1     
   27   15   16 1     
   28   15   37 1     
   29   15   38 1     
   30   16   21 1     
   31   16   17 1     
   32   16   19 1     
   33   17   18 1     
   34   17   39 1     
   35   17   40 1     
   36   18   41 1     
   37   19   20 1     
   38   19   42 1     
   39   19   43 1     
   40   20   21 1     
   41   21   44 1     
   42   21   45 1     
   43   22   27 1     
   44   22   23 1     
   45   22   46 1     
   46   23   24 1     
   47   23   47 1     
   48   23   48 1     
   49   24   25 1     
   50   24   49 1     
   51   24   50 1     
   52   25   26 1     
   53   25   27 1     
   54   25   51 1     
   55   26   52 1     
   56   26   53 1     
   57   26   54 1     
   58   27   55 1     
   59   27   56 1     
   60    2   57 1     
   61    2   58 1     
   62    5   59 1     
   63    7   60 1     
   64    9   61 1     
   65   12   62 1     
   66   18   63 1     
   67   18   64 1     
   68   20   65 1     
   69   20   66 1     
@<TRIPOS>SUBSTRUCTURE
      1 S1             1
@<TRIPOS>SET
LONE_PAIRS      STATIC     ATOMS    <user>   **** ""
10 57 58 59 60 61 62 63 64 65 66
DONOR_HYDROGENS      STATIC     ATOMS    <user>   **** ""
1 41
ATOM$BLUE        STATIC     ATOMS    COLORGROUP SYSTEM
10 57 58 59 60 61 62 63 64 65 66
ATOM$RED        STATIC     ATOMS    COLORGROUP SYSTEM
1 41
