AV-unprocessed.smi:688|AV-procd|sdf|3357|dock7
  -GOLD-   22720 0333D 1   1.00000     0.00000
 Structure written by MMmdl.
 35 36  0  0  0  0  0  0  0  0  2 V2000
  151.4820  137.0738  159.6421 O   0  0  0  0  0  0  0  0  0  0  0  0
  151.2039  137.5370  158.5372 C   0  0  0  0  0  0  0  0  0  0  0  0
  152.1269  138.1565  157.7451 N   0  5  0  0  0  0  0  0  0  0  0  0
  151.8357  138.6847  156.5165 C   0  0  0  0  0  0  0  0  0  0  0  0
  152.6874  139.2387  155.8215 O   0  0  0  0  0  0  0  0  0  0  0  0
  150.5556  138.5951  156.0466 N   0  0  0  0  0  0  0  0  0  0  0  0
  150.1544  139.1506  154.7421 C   0  0  0  0  0  0  0  0  0  0  0  0
  150.0657  140.6940  154.7543 C   0  0  1  0  0  0  0  0  0  0  0  0
  149.4958  141.1156  153.5322 O   0  0  0  0  0  0  0  0  0  0  0  0
  149.2237  141.2582  155.9153 C   0  0  0  0  0  0  0  0  0  0  0  0
  150.0148  141.2706  157.0962 O   0  0  0  0  0  0  0  0  0  0  0  0
  150.9607  142.3295  157.1403 C   0  0  0  0  0  0  0  0  0  0  0  0
  151.4376  142.6277  158.5526 C   0  0  0  0  0  0  0  0  0  0  0  0
  151.2028  143.8966  159.1232 C   0  0  0  0  0  0  0  0  0  0  0  0
  151.6546  144.1819  160.4260 C   0  0  0  0  0  0  0  0  0  0  0  0
  152.3454  143.2005  161.1627 C   0  0  0  0  0  0  0  0  0  0  0  0
  152.9135  143.5547  162.7526 Cl  0  0  0  0  0  0  0  0  0  0  0  0
  152.5762  141.9306  160.5987 C   0  0  0  0  0  0  0  0  0  0  0  0
  152.1196  141.6429  159.2976 C   0  0  0  0  0  0  0  0  0  0  0  0
  149.5692  137.9590  156.8212 C   0  0  0  0  0  0  0  0  0  0  0  0
  149.8359  137.4376  158.0341 C   0  0  0  0  0  0  0  0  0  0  0  0
  148.5960  136.6849  158.9730 Cl  0  0  0  0  0  0  0  0  0  0  0  0
  150.8731  138.8276  153.9866 H   0  0  0  0  0  0  0  0  0  0  0  0
  149.2004  138.7296  154.4212 H   0  0  0  0  0  0  0  0  0  0  0  0
  151.0743  141.1058  154.8018 H   0  0  0  0  0  0  0  0  0  0  0  0
  149.4093  140.3610  152.9701 H   0  0  0  0  0  0  0  0  0  0  0  0
  148.8421  142.2574  155.6995 H   0  0  0  0  0  0  0  0  0  0  0  0
  148.3472  140.6324  156.0708 H   0  0  0  0  0  0  0  0  0  0  0  0
  151.8274  142.0352  156.5482 H   0  0  0  0  0  0  0  0  0  0  0  0
  150.5482  143.2235  156.6694 H   0  0  0  0  0  0  0  0  0  0  0  0
  150.6848  144.6587  158.5592 H   0  0  0  0  0  0  0  0  0  0  0  0
  151.4814  145.1586  160.8535 H   0  0  0  0  0  0  0  0  0  0  0  0
  153.1066  141.1770  161.1621 H   0  0  0  0  0  0  0  0  0  0  0  0
  152.3040  140.6677  158.8712 H   0  0  0  0  0  0  0  0  0  0  0  0
  148.5845  137.9332  156.3779 H   0  0  0  0  0  0  0  0  0  0  0  0
  1  2  2  0  0  0  0
  2 21  1  0  0  0  0
  2  3  1  0  0  0  0
  3  4  1  0  0  0  0
  4  5  2  0  0  0  0
  4  6  1  0  0  0  0
  6  7  1  0  0  0  0
  6 20  1  0  0  0  0
  7  8  1  0  0  0  0
  7 23  1  0  0  0  0
  7 24  1  0  0  0  0
  8  9  1  0  0  0  0
  8 10  1  0  0  0  0
  8 25  1  0  0  0  0
  9 26  1  0  0  0  0
 10 11  1  0  0  0  0
 10 27  1  0  0  0  0
 10 28  1  0  0  0  0
 11 12  1  0  0  0  0
 12 13  1  0  0  0  0
 12 29  1  0  0  0  0
 12 30  1  0  0  0  0
 13 19  1  0  0  0  0
 13 14  2  0  0  0  0
 14 15  1  0  0  0  0
 14 31  1  0  0  0  0
 15 16  2  0  0  0  0
 15 32  1  0  0  0  0
 16 17  1  0  0  0  0
 16 18  1  0  0  0  0
 18 19  2  0  0  0  0
 18 33  1  0  0  0  0
 19 34  1  0  0  0  0
 20 21  2  0  0  0  0
 20 35  1  0  0  0  0
 21 22  1  0  0  0  0
M  CHG  1   3  -1
M  END
> <s_m_source_file>
AV-unprocessed.smi

> <i_m_source_file_index>
688

> <i_lp_mmshare_version>
43012

> <i_f3d_flags>
0

> <s_epik_input>
Tz1jMVtuSF1jKD1PKW4oW2NIXWMxQ2wpW0NIMl1bQ0BIXShbT0hdKVtDSDJdT1tDSDJdYzJbY0hdW2NIXWMoQ2wpW2NIXVtjSF0y

> <s_epik_cmdline>
J2VwaWtfcHl0aG9uJywgJy1waCcsICc3LjAnLCAnLXRuJywgJzgnLCAnLW1hJywgJzIwMCcsICctbWV0YWxfYmluZGluZycsICctaW1hZScsICc8aW5maWxlLm1hZT4nLCAnLW9tYWUnLCAnPG91dGZpbGUubWFlPic=

> <r_epik_Ionization_Penalty>
1.82111

> <r_epik_Ionization_Penalty_Charging>
5.03334e-08

> <r_epik_Ionization_Penalty_Neutral>
1.82111

> <r_epik_State_Penalty>
1.93633

> <r_epik_Charging_Adjusted_Penalty>
1.93633

> <i_epik_Tot_Q>
-1

> <i_epik_Tot_abs_Q>
1

> <r_epik_Metal_State_Penalty>
0.0147818

> <b_epik_Metal_Only>
0

> <s_lp_Force_Field>
OPLS_2005

> <r_lp_Energy>
20.5354

> <b_lp_Chiralities_Consistent>
1

> <s_lp_Variant>
AV-unprocessed.smi:688-4

> <Gold.Version>
5.8.1

> <Gold.Id.Protein>
6NUR|6NUR_protein|mol2

> <Gold.PLP.Fitness>
52.3757

> <Gold.PLP.PLP>
-42.1342

> <Gold.PLP.part.hbond>
-5.0000

> <Gold.PLP.part.metal>
0.0000

> <Gold.PLP.part.buried>
-4.5779

> <Gold.PLP.part.nonpolar>
-32.1432

> <Gold.PLP.part.repulsive>
0.0555

> <Gold.PLP.ligand.clash>
0.0000

> <Gold.PLP.ligand.torsion>
0.5617

> <Gold.PLP.Chemscore.Hbond>
3.7273

> <Gold.PLP.Chemscore.CHOScore>
0.0000

> <Gold.PLP.Chemscore.Metal>
0.0000

> <Gold.Chemscore.Hbonds>
donor molecule, donor type, donor heavy atom, donor atom, acceptor molecule, acceptor atom, score
      L1  H     9    26       P1  7957  0.70
      P1  H  6896  6907       L1     1  1.00
      P1  H  7997  8008       L1     5  1.00
      P1  H  8011  8017       L1     9  1.00

> <Gold.PLP.Chemscore.Internal.Correction>
0.1831

> <Gold.Rescore>
     Score         DG    S(hbond)    S(metal)    S(lipo)     H(rot)  DE(clash)    DE(int)     intcor
     19.16     -22.69       3.40        0.00     112.61       2.85       1.71       1.82       ----

> <Gold.Chemscore.Fitness>
19.1556

> <Gold.Chemscore.DG>
-22.6906

> <Gold.Chemscore.ZeroCoef>
-5.4800

> <Gold.Chemscore.Hbond>
3.3959

> <Gold.Chemscore.Metal>
0.0000

> <Gold.Chemscore.Lipo>
112.6072

> <Gold.Chemscore.Internal_Hbond>
0.0000

> <Gold.Chemscore.DEClash>
1.7109

> <Gold.Chemscore.DEInternal>
1.8241

> <Gold.Chemscore.Rot>
2.8542

> <Gold.Chemscore.Internal.Correction>
   9.000000E+99

> <Gold.Chemscore.Hbonds>
donor molecule, donor type, donor heavy atom, donor atom, acceptor molecule, acceptor atom, score
      L1  H     9    26       P1  7957  0.70
      P1  H  6896  6907       L1     1  0.97
      P1  H  7997  8008       L1     5  0.99
      P1  H  8011  8017       L1     9  0.29

> <Gold.Chemscore.Hbond.Weighted>
-11.3423

> <Gold.Chemscore.Metal.Weighted>
-0.0000

> <Gold.Chemscore.Lipo.Weighted>
-13.1750

> <Gold.Chemscore.Internal_Hbond.Weighted>
0.0000

> <Gold.Chemscore.DEClash.Weighted>
1.7109

> <Gold.Chemscore.DEInternal.Weighted>
1.8241

> <Gold.Chemscore.Rot.Weighted>
7.3067

> <Gold.Chemscore.Internal.Correction.Weighted>
   9.000000E+99

> <Gold.Protein.RotatedTorsions>
[ 6907 6896 6895 6894 ] final  -12.24 input  -60.11 | X-H torsion
[ 7974 7965 7964 7962 ] final -164.86 input  175.53 | X-H torsion
[ 8008 7997 7996 7995 ] final  -25.50 input   59.86 | X-H torsion
[ 10167 10162 10161 10158 ] final  134.09 input  -65.29 | X-H torsion
[ 10718 10713 10712 10709 ] final  127.19 input   66.30 | X-H torsion
[ 10763 10752 10751 10750 ] final -136.06 input  -60.55 | X-H torsion
[ 11005 11000 10999 10996 ] final -163.53 input  -57.11 | X-H torsion

> <Gold.Protein.ActiveResidues>
 VAL166  LYS551  ARG553  GLY616  TRP617  ASP618  TYR619  PRO620  LYS621  CYS622 
 ASP623  PHE694  ASN695  SER759  ASP760  ASP761  ALA762  ILE779  LEU786  VAL792 
 PHE793  MET794  SER795  GLU796  ALA797  LYS798  CYS799  TRP800  GLU811  SER814 

> <Gold.Protein.RotatedAtoms>
  151.3736  135.0927  159.9473 H   0  0  0  0  0  0  0  0  0  0  0  0  # atno 6907 bound_to 6896
  152.5128  133.9140  159.7512 H   0  0  0  0  0  0  0  0  0  0  0  0  # atno 6908 bound_to 6896
  150.9559  133.6443  159.2792 H   0  0  0  0  0  0  0  0  0  0  0  0  # atno 6909 bound_to 6896
  144.7285  140.2899  143.6222 H   0  0  0  0  0  0  0  0  0  0  0  0  # atno 7974 bound_to 7965
  154.4472  140.1925  156.0630 H   0  0  0  0  0  0  0  0  0  0  0  0  # atno 8008 bound_to 7997
  156.0569  140.3301  155.7388 H   0  0  0  0  0  0  0  0  0  0  0  0  # atno 8009 bound_to 7997
  155.5472  140.0591  157.2848 H   0  0  0  0  0  0  0  0  0  0  0  0  # atno 8010 bound_to 7997
  139.5270  144.6584  151.5090 H   0  0  0  0  0  0  0  0  0  0  0  0  # atno 10167 bound_to 10162
  157.5354  131.1098  150.8943 H   0  0  0  0  0  0  0  0  0  0  0  0  # atno 10718 bound_to 10713
  154.8691  135.3684  154.5000 H   0  0  0  0  0  0  0  0  0  0  0  0  # atno 10763 bound_to 10752
  153.5642  135.7022  153.5539 H   0  0  0  0  0  0  0  0  0  0  0  0  # atno 10764 bound_to 10752
  153.3601  135.4049  155.1675 H   0  0  0  0  0  0  0  0  0  0  0  0  # atno 10765 bound_to 10752
  140.5971  134.4986  157.5200 H   0  0  0  0  0  0  0  0  0  0  0  0  # atno 11005 bound_to 11000
  145.7865  139.1911  143.2127 LP  0  0  0  0  0  0  0  0  0  0  0  0  # atno 17320 bound_to 7965
  146.0791  140.7784  142.9650 LP  0  0  0  0  0  0  0  0  0  0  0  0  # atno 17321 bound_to 7965
  140.6420  143.8869  150.6701 LP  0  0  0  0  0  0  0  0  0  0  0  0  # atno 17342 bound_to 10162
  140.2207  143.3811  152.1645 LP  0  0  0  0  0  0  0  0  0  0  0  0  # atno 17343 bound_to 10162
  156.9511  130.5420  149.5282 LP  0  0  0  0  0  0  0  0  0  0  0  0  # atno 17370 bound_to 10713
  156.0455  130.5532  150.8870 LP  0  0  0  0  0  0  0  0  0  0  0  0  # atno 17371 bound_to 10713
  139.9249  134.8076  156.1100 LP  0  0  0  0  0  0  0  0  0  0  0  0  # atno 17394 bound_to 11000
  141.0897  133.6719  156.2513 LP  0  0  0  0  0  0  0  0  0  0  0  0  # atno 17395 bound_to 11000

$$$$
