AV-unprocessed.smi:72|AV-procd|sdf|678|dock5
  -GOLD-   2262016583D 1   1.00000     0.00000
 Structure written by MMmdl.
 29 30  0  0  0  0  0  0  0  0  1 V2000
  147.5614  143.2733  160.0104 N   0  0  0  0  0  0  0  0  0  0  0  0
  148.0609  142.8370  158.9095 C   0  0  0  0  0  0  0  0  0  0  0  0
  147.3380  142.2060  157.8855 N   0  0  0  0  0  0  0  0  0  0  0  0
  147.9769  141.8018  156.8310 C   0  0  0  0  0  0  0  0  0  0  0  0
  149.4125  141.9781  156.6796 N   0  0  0  0  0  0  0  0  0  0  0  0
  150.1269  141.4956  155.4384 C   0  0  1  0  0  0  0  0  0  0  0  0
  151.1872  140.6709  155.8219 O   0  0  0  0  0  0  0  0  0  0  0  0
  151.2241  139.5173  154.9890 C   0  0  1  0  0  0  0  0  0  0  0  0
  151.9149  138.3637  155.7323 C   0  0  0  0  0  0  0  0  0  0  0  0
  153.2529  138.7060  156.0238 O   0  0  0  0  0  0  0  0  0  0  0  0
  149.7404  139.2668  154.7125 C   0  0  2  0  0  0  0  0  0  0  0  0
  149.5163  138.4350  153.5894 O   0  0  0  0  0  0  0  0  0  0  0  0
  149.1808  140.6771  154.5454 C   0  0  2  0  0  0  0  0  0  0  0  0
  149.2361  141.1301  153.2053 O   0  0  0  0  0  0  0  0  0  0  0  0
  150.1525  142.6407  157.6887 C   0  0  0  0  0  0  0  0  0  0  0  0
  151.3608  142.8548  157.5942 O   0  0  0  0  0  0  0  0  0  0  0  0
  149.4416  143.0343  158.7678 N   0  0  0  0  0  0  0  0  0  0  0  0
  150.5409  142.3765  154.9452 H   0  0  0  0  0  0  0  0  0  0  0  0
  151.7382  139.7580  154.0560 H   0  0  0  0  0  0  0  0  0  0  0  0
  149.2808  138.8045  155.5874 H   0  0  0  0  0  0  0  0  0  0  0  0
  148.1488  140.7462  154.8923 H   0  0  0  0  0  0  0  0  0  0  0  0
  146.5679  143.0983  160.0443 H   0  0  0  0  0  0  0  0  0  0  0  0
  147.4820  141.3092  155.9931 H   0  0  0  0  0  0  0  0  0  0  0  0
  151.3805  138.1047  156.6470 H   0  0  0  0  0  0  0  0  0  0  0  0
  151.9355  137.4719  155.1054 H   0  0  0  0  0  0  0  0  0  0  0  0
  153.8175  138.0300  155.6817 H   0  0  0  0  0  0  0  0  0  0  0  0
  149.5872  138.9609  152.8076 H   0  0  0  0  0  0  0  0  0  0  0  0
  149.1512  140.3833  152.6324 H   0  0  0  0  0  0  0  0  0  0  0  0
  149.9424  143.5033  159.5081 H   0  0  0  0  0  0  0  0  0  0  0  0
  1  2  2  0  0  0  0
  1 22  1  0  0  0  0
  2 17  1  0  0  0  0
  2  3  1  0  0  0  0
  3  4  2  0  0  0  0
  4  5  1  0  0  0  0
  4 23  1  0  0  0  0
  5  6  1  0  0  0  0
  5 15  1  0  0  0  0
  6 18  1  0  0  0  0
  6 13  1  0  0  0  0
  6  7  1  0  0  0  0
  7  8  1  0  0  0  0
  8 19  1  0  0  0  0
  8  9  1  0  0  0  0
  8 11  1  0  0  0  0
  9 10  1  0  0  0  0
  9 24  1  0  0  0  0
  9 25  1  0  0  0  0
 10 26  1  0  0  0  0
 11 20  1  0  0  0  0
 11 12  1  0  0  0  0
 11 13  1  0  0  0  0
 12 27  1  0  0  0  0
 13 21  1  0  0  0  0
 13 14  1  0  0  0  0
 14 28  1  0  0  0  0
 15 16  2  0  0  0  0
 15 17  1  0  0  0  0
 17 29  1  0  0  0  0
M  END
> <s_m_source_file>
AV-unprocessed.smi

> <i_m_source_file_index>
72

> <i_lp_mmshare_version>
43012

> <i_f3d_flags>
0

> <s_epik_input>
W05IMl1jMW5bY0hdbihjKD1PKW4xKVtDQEBIXTJPW0NASF0oW0NIMl1bT0hdKVtDQEBIXShbT0hdKVtDQEhdMltPSF0=

> <s_epik_cmdline>
J2VwaWtfcHl0aG9uJywgJy1waCcsICc3LjAnLCAnLXRuJywgJzgnLCAnLW1hJywgJzIwMCcsICctbWV0YWxfYmluZGluZycsICctaW1hZScsICc8aW5maWxlLm1hZT4nLCAnLW9tYWUnLCAnPG91dGZpbGUubWFlPic=

> <r_lp_tautomer_probability>
7.17554e-07

> <r_epik_Ionization_Penalty>
0.0066451

> <r_epik_Ionization_Penalty_Charging>
0.00663793

> <r_epik_Ionization_Penalty_Neutral>
7.17052e-06

> <r_epik_State_Penalty>
0.419231

> <r_epik_Charging_Adjusted_Penalty>
0.425868

> <i_epik_Tot_Q>
0

> <i_epik_Tot_abs_Q>
0

> <r_epik_Metal_State_Penalty>
1.44144

> <b_epik_Metal_Only>
0

> <s_epik_Chemistry_Notes>
This compound contains an acetal/aminal-like group ( X-CH(R)-Y where X, Y are N, S, or O) that may be acid/base labile, releasing an aldehyde.

> <s_lp_Force_Field>
OPLS_2005

> <r_lp_Energy>
43.4665

> <b_lp_Chiralities_Consistent>
1

> <s_lp_Variant>
AV-unprocessed.smi:72-16

> <Gold.Version>
5.8.1

> <Gold.Id.Protein>
6NUR|6NUR_protein|mol2

> <Gold.PLP.Fitness>
38.3427

> <Gold.PLP.PLP>
-24.3494

> <Gold.PLP.part.hbond>
-6.8688

> <Gold.PLP.part.metal>
0.0000

> <Gold.PLP.part.buried>
-1.3510

> <Gold.PLP.part.nonpolar>
-16.6563

> <Gold.PLP.part.repulsive>
0.3712

> <Gold.PLP.ligand.clash>
0.0000

> <Gold.PLP.ligand.torsion>
0.0842

> <Gold.PLP.Chemscore.Hbond>
4.7159

> <Gold.PLP.Chemscore.CHOScore>
0.0000

> <Gold.PLP.Chemscore.Metal>
0.0000

> <Gold.Chemscore.Hbonds>
donor molecule, donor type, donor heavy atom, donor atom, acceptor molecule, acceptor atom, score
      L1  H    12    27       P1  7957  1.00
      L1  H    14    28       P1  7957  0.70
      P1  H  6933  6944       L1     1  1.00
      P1  H  7997  8008       L1    10  1.00
      P1  H  8011  8017       L1    14  1.00

> <Gold.PLP.Chemscore.Internal.Correction>
0.0140

> <Gold.Rescore>
     Score         DG    S(hbond)    S(metal)    S(lipo)     H(rot)  DE(clash)    DE(int)     intcor
      8.19      -9.97       3.46        0.00      28.40       4.06       0.08       1.70       ----

> <Gold.Chemscore.Fitness>
8.1900

> <Gold.Chemscore.DG>
-9.9696

> <Gold.Chemscore.ZeroCoef>
-5.4800

> <Gold.Chemscore.Hbond>
3.4612

> <Gold.Chemscore.Metal>
0.0000

> <Gold.Chemscore.Lipo>
28.4010

> <Gold.Chemscore.Internal_Hbond>
0.0000

> <Gold.Chemscore.DEClash>
0.0830

> <Gold.Chemscore.DEInternal>
1.6966

> <Gold.Chemscore.Rot>
4.0600

> <Gold.Chemscore.Internal.Correction>
   9.000000E+99

> <Gold.Chemscore.Hbonds>
donor molecule, donor type, donor heavy atom, donor atom, acceptor molecule, acceptor atom, score
      L1  H    12    27       P1  7957  0.93
      L1  H    14    28       P1  7957  0.68
      P1  H  6933  6944       L1     1  0.43
      P1  H  7997  8008       L1    10  0.37
      P1  H  8011  8017       L1    14  0.69

> <Gold.Chemscore.Hbond.Weighted>
-11.5603

> <Gold.Chemscore.Metal.Weighted>
-0.0000

> <Gold.Chemscore.Lipo.Weighted>
-3.3229

> <Gold.Chemscore.Internal_Hbond.Weighted>
0.0000

> <Gold.Chemscore.DEClash.Weighted>
0.0830

> <Gold.Chemscore.DEInternal.Weighted>
1.6966

> <Gold.Chemscore.Rot.Weighted>
10.3936

> <Gold.Chemscore.Internal.Correction.Weighted>
   9.000000E+99

> <Gold.Protein.RotatedTorsions>
[ 6907 6896 6895 6894 ] final  -89.76 input  -60.11 | X-H torsion
[ 7974 7965 7964 7962 ] final   24.71 input  175.53 | X-H torsion
[ 8008 7997 7996 7995 ] final  -37.45 input   59.86 | X-H torsion
[ 10167 10162 10161 10158 ] final -131.07 input  -65.29 | X-H torsion
[ 10718 10713 10712 10709 ] final -151.20 input   66.30 | X-H torsion
[ 10763 10752 10751 10750 ] final    8.42 input  -60.55 | X-H torsion
[ 11005 11000 10999 10996 ] final  104.29 input  -57.11 | X-H torsion

> <Gold.Protein.ActiveResidues>
 VAL166  LYS551  ARG553  GLY616  TRP617  ASP618  TYR619  PRO620  LYS621  CYS622 
 ASP623  PHE694  ASN695  SER759  ASP760  ASP761  ALA762  ILE779  LEU786  VAL792 
 PHE793  MET794  SER795  GLU796  ALA797  LYS798  CYS799  TRP800  GLU811  SER814 

> <Gold.Protein.RotatedAtoms>
  150.6876  134.2538  159.4521 H   0  0  0  0  0  0  0  0  0  0  0  0  # atno 6907 bound_to 6896
  152.0473  134.9672  160.0583 H   0  0  0  0  0  0  0  0  0  0  0  0  # atno 6908 bound_to 6896
  152.1151  133.4287  159.4686 H   0  0  0  0  0  0  0  0  0  0  0  0  # atno 6909 bound_to 6896
  146.1924  139.7567  142.8822 H   0  0  0  0  0  0  0  0  0  0  0  0  # atno 7974 bound_to 7965
  154.4053  140.1604  156.2539 H   0  0  0  0  0  0  0  0  0  0  0  0  # atno 8008 bound_to 7997
  155.9095  140.3428  155.6065 H   0  0  0  0  0  0  0  0  0  0  0  0  # atno 8009 bound_to 7997
  155.7353  140.0785  157.2261 H   0  0  0  0  0  0  0  0  0  0  0  0  # atno 8010 bound_to 7997
  139.9227  143.6363  152.2549 H   0  0  0  0  0  0  0  0  0  0  0  0  # atno 10167 bound_to 10162
  156.4561  130.8191  151.2422 H   0  0  0  0  0  0  0  0  0  0  0  0  # atno 10718 bound_to 10713
  153.2253  135.6886  153.7953 H   0  0  0  0  0  0  0  0  0  0  0  0  # atno 10763 bound_to 10752
  153.7137  135.3278  155.3253 H   0  0  0  0  0  0  0  0  0  0  0  0  # atno 10764 bound_to 10752
  154.8288  135.4596  154.1116 H   0  0  0  0  0  0  0  0  0  0  0  0  # atno 10765 bound_to 10752
  139.8790  134.9295  156.5338 H   0  0  0  0  0  0  0  0  0  0  0  0  # atno 11005 bound_to 11000
  145.3749  141.0349  143.3210 LP  0  0  0  0  0  0  0  0  0  0  0  0  # atno 17320 bound_to 7965
  144.8513  139.5317  143.6855 LP  0  0  0  0  0  0  0  0  0  0  0  0  # atno 17321 bound_to 7965
  139.6848  144.7652  151.1544 LP  0  0  0  0  0  0  0  0  0  0  0  0  # atno 17342 bound_to 10162
  140.7658  143.5673  150.9033 LP  0  0  0  0  0  0  0  0  0  0  0  0  # atno 17343 bound_to 10162
  157.7500  131.0122  150.3376 LP  0  0  0  0  0  0  0  0  0  0  0  0  # atno 17370 bound_to 10713
  156.3765  130.3873  149.7134 LP  0  0  0  0  0  0  0  0  0  0  0  0  # atno 17371 bound_to 10713
  140.8361  133.8241  155.9030 LP  0  0  0  0  0  0  0  0  0  0  0  0  # atno 17394 bound_to 11000
  140.9282  134.2055  157.4881 LP  0  0  0  0  0  0  0  0  0  0  0  0  # atno 17395 bound_to 11000

$$$$
