#       Name:                AV-unprocessed.smi:2620
#       Creating user name   scv26
#       Creation time:       Fri Mar 27 14:22:58 2020


#       File generated by GOLD software.
#

@<TRIPOS>MOLECULE
AV-unprocessed.smi:2620
    45    46     1
SMALL
NO_CHARGES


@<TRIPOS>ATOM
      1 ****        -5.8766   0.7171  -0.6627 C.3            1 S1                 0.0000
      2 ****        -5.1103  -0.3648  -0.1633 O.3            1 S1                 0.0000
      3 ****        -3.7367  -0.2567  -0.4956 C.3            1 S1                 0.0000
      4 ****        -2.9903  -1.4723   0.0744 C.3            1 S1                 0.0000
      5 ****        -1.5488  -1.3921  -0.1965 N.am           1 S1                 0.0000
      6 ****        -0.7453  -0.8119   0.8043 C.2            1 S1                 0.0000
      7 ****         0.5861  -0.6722   0.6635 C.2            1 S1                 0.0000
      8 ****         1.3959  -0.0479   1.7373 C.2            1 S1                 0.0000
      9 ****         1.0532  -0.1249   2.9180 O.2            1 S1                 0.0000
     10 ****         2.6536   0.6617   1.3609 C.ar           1 S1                 0.0000
     11 ****         3.8220   0.3747   2.1030 C.ar           1 S1                 0.0000
     12 ****         5.0436   1.0006   1.7909 C.ar           1 S1                 0.0000
     13 ****         5.1089   1.9279   0.7357 C.ar           1 S1                 0.0000
     14 ****         3.9500   2.2341  -0.0011 C.ar           1 S1                 0.0000
     15 ****         2.7224   1.6127   0.3065 C.ar           1 S1                 0.0000
     16 ****         1.6186   1.9758  -0.4146 O.3            1 S1                 0.0000
     17 ****         1.1881  -1.1574  -0.5630 C.2            1 S1                 0.0000
     18 ****         0.4233  -1.7052  -1.5279 C.2            1 S1                 0.0000
     19 ****         0.9950  -2.1835  -2.7429 C.1            1 S1                 0.0000
     20 ****         1.4823  -2.5612  -3.7224 N.1            1 S1                 0.0000
     21 ****        -1.0328  -1.8401  -1.3812 C.2            1 S1                 0.0000
     22 ****        -1.7479  -2.3230  -2.2608 O.2            1 S1                 0.0000
     23 ****        -6.9202   0.5904  -0.3756 H              1 S1                 0.0000
     24 ****        -5.8303   0.7628  -1.7512 H              1 S1                 0.0000
     25 ****        -5.5296   1.6682  -0.2571 H              1 S1                 0.0000
     26 ****        -3.6182  -0.2127  -1.5794 H              1 S1                 0.0000
     27 ****        -3.3256   0.6654  -0.0810 H              1 S1                 0.0000
     28 ****        -3.1665  -1.5362   1.1491 H              1 S1                 0.0000
     29 ****        -3.4100  -2.3929  -0.3349 H              1 S1                 0.0000
     30 ****        -1.2866  -0.4785   1.6788 H              1 S1                 0.0000
     31 ****         3.7919  -0.3389   2.9142 H              1 S1                 0.0000
     32 ****         5.9308   0.7679   2.3612 H              1 S1                 0.0000
     33 ****         6.0453   2.4094   0.4957 H              1 S1                 0.0000
     34 ****         4.0051   2.9565  -0.8024 H              1 S1                 0.0000
     35 ****         1.8025   2.6354  -1.0660 H              1 S1                 0.0000
     36 ****         2.2557  -1.0871  -0.7137 H              1 S1                 0.0000
     37 ****        -5.4674  -1.2156  -0.5489 LP             1 S1                 0.0000
     38 ****        -5.1984  -0.3874   0.8325 LP             1 S1                 0.0000
     39 ****         0.2169  -0.6144   3.1650 LP             1 S1                 0.0000
     40 ****         1.6113   0.3021   3.6295 LP             1 S1                 0.0000
     41 ****         0.9301   2.3341   0.2159 LP             1 S1                 0.0000
     42 ****         1.2585   1.1647  -0.8756 LP             1 S1                 0.0000
     43 ****         1.9034  -2.8876  -4.5687 LP             1 S1                 0.0000
     44 ****        -2.7350  -2.3959  -2.1187 LP             1 S1                 0.0000
     45 ****        -1.3411  -2.6421  -3.1168 LP             1 S1                 0.0000
@<TRIPOS>BOND
    1    1    2 1     
    2    1   23 1     
    3    1   24 1     
    4    1   25 1     
    5    2    3 1     
    6    3    4 1     
    7    3   26 1     
    8    3   27 1     
    9    4    5 1     
   10    4   28 1     
   11    4   29 1     
   12    5   21 am    
   13    5    6 1     
   14    6    7 2     
   15    6   30 1     
   16    7    8 1     
   17    7   17 1     
   18    8    9 2     
   19    8   10 1     
   20   10   15 ar    
   21   10   11 ar    
   22   11   12 ar    
   23   11   31 1     
   24   12   13 ar    
   25   12   32 1     
   26   13   14 ar    
   27   13   33 1     
   28   14   15 ar    
   29   14   34 1     
   30   15   16 1     
   31   16   35 1     
   32   17   18 2     
   33   17   36 1     
   34   18   19 1     
   35   18   21 1     
   36   19   20 3     
   37   21   22 2     
   38    2   37 1     
   39    2   38 1     
   40    9   39 1     
   41    9   40 1     
   42   16   41 1     
   43   16   42 1     
   44   20   43 1     
   45   22   44 1     
   46   22   45 1     
@<TRIPOS>SUBSTRUCTURE
      1 S1             1
@<TRIPOS>SET
LONE_PAIRS      STATIC     ATOMS    <user>   **** ""
9 37 38 39 40 41 42 43 44 45
DONOR_HYDROGENS      STATIC     ATOMS    <user>   **** ""
1 35
ATOM$BLUE        STATIC     ATOMS    COLORGROUP SYSTEM
9 37 38 39 40 41 42 43 44 45
ATOM$RED        STATIC     ATOMS    COLORGROUP SYSTEM
1 35
