AV-unprocessed.smi:1586|AV-procd|sdf|6379|dock1
  -GOLD-   22720 7 13D 1   1.00000     0.00000
 Structure written by MMmdl.
 46 47  0  0  0  0  0  0  0  0  3 V2000
  151.7370  144.8829  158.6149 C   0  0  0  0  0  0  0  0  0  0  0  0
  150.4925  144.0286  158.8945 C   0  0  0  0  0  0  0  0  0  0  0  0
  150.1713  143.1037  157.7792 N   0  3  0  0  0  0  0  0  0  0  0  0
  149.1058  142.1368  158.1410 C   0  0  0  0  0  0  0  0  0  0  0  0
  148.7817  141.2129  156.9480 C   0  0  0  0  0  0  0  0  0  0  0  0
  149.9616  140.4527  156.5105 N   0  0  0  0  0  0  0  0  0  0  0  0
  150.4683  139.4461  157.4726 C   0  0  2  0  0  0  0  0  0  0  0  0
  151.9044  139.0097  157.0938 C   0  0  0  0  0  0  0  0  0  0  0  0
  149.5227  138.2168  157.5530 C   0  0  0  0  0  0  0  0  0  0  0  0
  148.8180  138.1382  158.8303 N   0  0  0  0  0  0  0  0  0  0  0  0
  148.6438  137.0421  159.5828 C   0  0  0  0  0  0  0  0  0  0  0  0
  149.1022  135.9589  159.2133 O   0  0  0  0  0  0  0  0  0  0  0  0
  147.9585  137.2764  160.7253 N   0  5  0  0  0  0  0  0  0  0  0  0
  147.1689  136.3252  161.2474 C   0  0  0  0  0  0  0  0  0  0  0  0
  145.9401  136.5428  161.9284 C   0  0  0  0  0  0  0  0  0  0  0  0
  145.5266  135.2783  162.2382 C   0  0  0  0  0  0  0  0  0  0  0  0
  144.3273  134.7527  162.9506 C   0  0  0  0  0  0  0  0  0  0  0  0
  146.4215  134.3631  161.7781 O   0  0  0  0  0  0  0  0  0  0  0  0
  147.4668  135.0413  161.1396 N   0  0  0  0  0  0  0  0  0  0  0  0
  150.9445  141.4570  156.0777 C   0  0  0  0  0  0  0  0  0  0  0  0
  151.3568  142.3946  157.2331 C   0  0  0  0  0  0  0  0  0  0  0  0
  151.8859  145.6131  159.4105 H   0  0  0  0  0  0  0  0  0  0  0  0
  151.6362  145.4322  157.6785 H   0  0  0  0  0  0  0  0  0  0  0  0
  152.6429  144.2802  158.5582 H   0  0  0  0  0  0  0  0  0  0  0  0
  150.6116  143.4680  159.8229 H   0  0  0  0  0  0  0  0  0  0  0  0
  149.6504  144.7047  159.0476 H   0  0  0  0  0  0  0  0  0  0  0  0
  149.3979  141.5608  159.0200 H   0  0  0  0  0  0  0  0  0  0  0  0
  148.2055  142.6864  158.4178 H   0  0  0  0  0  0  0  0  0  0  0  0
  147.9457  140.5571  157.1820 H   0  0  0  0  0  0  0  0  0  0  0  0
  148.4288  141.8185  156.1119 H   0  0  0  0  0  0  0  0  0  0  0  0
  150.5136  139.8859  158.4679 H   0  0  0  0  0  0  0  0  0  0  0  0
  152.2793  138.2309  157.7562 H   0  0  0  0  0  0  0  0  0  0  0  0
  152.6249  139.8214  157.1802 H   0  0  0  0  0  0  0  0  0  0  0  0
  151.9462  138.6206  156.0758 H   0  0  0  0  0  0  0  0  0  0  0  0
  148.7270  138.2811  156.8138 H   0  0  0  0  0  0  0  0  0  0  0  0
  150.0694  137.2972  157.3378 H   0  0  0  0  0  0  0  0  0  0  0  0
  148.4215  138.9977  159.1808 H   0  0  0  0  0  0  0  0  0  0  0  0
  145.4457  137.4755  162.1544 H   0  0  0  0  0  0  0  0  0  0  0  0
  143.4237  134.9367  162.3696 H   0  0  0  0  0  0  0  0  0  0  0  0
  144.2114  135.2385  163.9194 H   0  0  0  0  0  0  0  0  0  0  0  0
  144.4083  133.6785  163.1191 H   0  0  0  0  0  0  0  0  0  0  0  0
  151.8194  140.9917  155.6280 H   0  0  0  0  0  0  0  0  0  0  0  0
  150.5053  142.0504  155.2745 H   0  0  0  0  0  0  0  0  0  0  0  0
  152.0738  143.1196  156.8495 H   0  0  0  0  0  0  0  0  0  0  0  0
  151.8686  141.8446  158.0235 H   0  0  0  0  0  0  0  0  0  0  0  0
  149.7956  143.6661  157.0292 H   0  0  0  0  0  0  0  0  0  0  0  0
  1  2  1  0  0  0  0
  1 22  1  0  0  0  0
  1 23  1  0  0  0  0
  1 24  1  0  0  0  0
  2  3  1  0  0  0  0
  2 25  1  0  0  0  0
  2 26  1  0  0  0  0
  3 21  1  0  0  0  0
  3  4  1  0  0  0  0
  3 46  1  0  0  0  0
  4  5  1  0  0  0  0
  4 27  1  0  0  0  0
  4 28  1  0  0  0  0
  5  6  1  0  0  0  0
  5 29  1  0  0  0  0
  5 30  1  0  0  0  0
  6  7  1  0  0  0  0
  6 20  1  0  0  0  0
  7  8  1  0  0  0  0
  7  9  1  0  0  0  0
  7 31  1  0  0  0  0
  8 32  1  0  0  0  0
  8 33  1  0  0  0  0
  8 34  1  0  0  0  0
  9 10  1  0  0  0  0
  9 35  1  0  0  0  0
  9 36  1  0  0  0  0
 10 11  1  0  0  0  0
 10 37  1  0  0  0  0
 11 12  2  0  0  0  0
 11 13  1  0  0  0  0
 13 14  1  0  0  0  0
 14 19  2  0  0  0  0
 14 15  1  0  0  0  0
 15 16  2  0  0  0  0
 15 38  1  0  0  0  0
 16 17  1  0  0  0  0
 16 18  1  0  0  0  0
 17 39  1  0  0  0  0
 17 40  1  0  0  0  0
 17 41  1  0  0  0  0
 18 19  1  0  0  0  0
 20 21  1  0  0  0  0
 20 42  1  0  0  0  0
 20 43  1  0  0  0  0
 21 44  1  0  0  0  0
 21 45  1  0  0  0  0
M  CHG  1   3   1
M  CHG  1  13  -1
M  END
> <s_m_source_file>
AV-unprocessed.smi

> <i_m_source_file_index>
1586

> <i_lp_mmshare_version>
43012

> <i_f3d_flags>
0

> <s_epik_input>
W0NIM11bQ0gyXU4xW0NIMl1bQ0gyXU4oW0NIMl1bQ0gyXTEpW0NASF0oW0NIM10pW0NIMl1bTkhdQyg9TylbTkhdYzJbY0hdYyhbQ0gzXSlvbjI=

> <s_epik_cmdline>
J2VwaWtfcHl0aG9uJywgJy1waCcsICc3LjAnLCAnLXRuJywgJzgnLCAnLW1hJywgJzIwMCcsICctbWV0YWxfYmluZGluZycsICctaW1hZScsICc8aW5maWxlLm1hZT4nLCAnLW9tYWUnLCAnPG91dGZpbGUubWFlPic=

> <r_epik_Ionization_Penalty>
6.66134

> <r_epik_Ionization_Penalty_Charging>
6.66063

> <r_epik_Ionization_Penalty_Neutral>
0.000714131

> <r_epik_State_Penalty>
6.77843

> <r_epik_Charging_Adjusted_Penalty>
13.4391

> <i_epik_Tot_Q>
0

> <i_epik_Tot_abs_Q>
2

> <r_epik_Metal_State_Penalty>
2.70494

> <b_epik_Metal_Only>
1

> <s_lp_Force_Field>
OPLS_2005

> <r_lp_Energy>
11.4851

> <b_lp_Chiralities_Consistent>
1

> <s_lp_Variant>
AV-unprocessed.smi:1586-7

> <Gold.Version>
5.8.1

> <Gold.Id.Protein>
6NUR|6NUR_protein|mol2

> <Gold.PLP.Fitness>
48.2656

> <Gold.PLP.PLP>
-32.7148

> <Gold.PLP.part.hbond>
-4.0000

> <Gold.PLP.part.metal>
0.0000

> <Gold.PLP.part.buried>
-6.5030

> <Gold.PLP.part.nonpolar>
-22.6516

> <Gold.PLP.part.repulsive>
0.2796

> <Gold.PLP.ligand.clash>
0.0000

> <Gold.PLP.ligand.torsion>
1.6015

> <Gold.PLP.Chemscore.Hbond>
6.1874

> <Gold.PLP.Chemscore.CHOScore>
0.0000

> <Gold.PLP.Chemscore.Metal>
0.0000

> <Gold.Chemscore.Hbonds>
donor molecule, donor type, donor heavy atom, donor atom, acceptor molecule, acceptor atom, score
      L1  H     3    46       P1  8028  2.00
      P1  H  6896  6909       L1    12  0.84
      P1  H  6931  6943       L1    13  1.60
      P1  H  6934  6947       L1    13  1.54

> <Gold.PLP.Chemscore.Internal.Correction>
0.1917

> <Gold.Rescore>
     Score         DG    S(hbond)    S(metal)    S(lipo)     H(rot)  DE(clash)    DE(int)     intcor
     17.28     -20.49       3.04        0.00      79.20       1.73       0.08       3.13       ----

> <Gold.Chemscore.Fitness>
17.2783

> <Gold.Chemscore.DG>
-20.4914

> <Gold.Chemscore.ZeroCoef>
-5.4800

> <Gold.Chemscore.Hbond>
3.0424

> <Gold.Chemscore.Metal>
0.0000

> <Gold.Chemscore.Lipo>
79.1965

> <Gold.Chemscore.Internal_Hbond>
0.0000

> <Gold.Chemscore.DEClash>
0.0789

> <Gold.Chemscore.DEInternal>
3.1342

> <Gold.Chemscore.Rot>
1.7250

> <Gold.Chemscore.Internal.Correction>
   9.000000E+99

> <Gold.Chemscore.Hbonds>
donor molecule, donor type, donor heavy atom, donor atom, acceptor molecule, acceptor atom, score
      L1  H     3    46       P1  8028  0.95
      P1  H  6896  6909       L1    12  0.84
      P1  H  6931  6943       L1    13  0.53
      P1  H  6934  6947       L1    13  0.57

> <Gold.Chemscore.Hbond.Weighted>
-10.1615

> <Gold.Chemscore.Metal.Weighted>
-0.0000

> <Gold.Chemscore.Lipo.Weighted>
-9.2660

> <Gold.Chemscore.Internal_Hbond.Weighted>
0.0000

> <Gold.Chemscore.DEClash.Weighted>
0.0789

> <Gold.Chemscore.DEInternal.Weighted>
3.1342

> <Gold.Chemscore.Rot.Weighted>
4.4161

> <Gold.Chemscore.Internal.Correction.Weighted>
   9.000000E+99

> <Gold.Protein.RotatedTorsions>
[ 6907 6896 6895 6894 ] final   66.40 input  -60.11 | X-H torsion
[ 7974 7965 7964 7962 ] final  132.90 input  175.53 | X-H torsion
[ 8008 7997 7996 7995 ] final  138.13 input   59.86 | X-H torsion
[ 10167 10162 10161 10158 ] final  162.32 input  -65.29 | X-H torsion
[ 10718 10713 10712 10709 ] final  -28.07 input   66.30 | X-H torsion
[ 10763 10752 10751 10750 ] final  177.89 input  -60.55 | X-H torsion
[ 11005 11000 10999 10996 ] final  -93.02 input  -57.11 | X-H torsion

> <Gold.Protein.ActiveResidues>
 VAL166  LYS551  ARG553  GLY616  TRP617  ASP618  TYR619  PRO620  LYS621  CYS622 
 ASP623  PHE694  ASN695  SER759  ASP760  ASP761  ALA762  ILE779  LEU786  VAL792 
 PHE793  MET794  SER795  GLU796  ALA797  LYS798  CYS799  TRP800  GLU811  SER814 

> <Gold.Protein.RotatedAtoms>
  152.4478  134.5457  159.9851 H   0  0  0  0  0  0  0  0  0  0  0  0  # atno 6907 bound_to 6896
  151.5538  133.3407  159.2966 H   0  0  0  0  0  0  0  0  0  0  0  0  # atno 6908 bound_to 6896
  150.8399  134.7719  159.6987 H   0  0  0  0  0  0  0  0  0  0  0  0  # atno 6909 bound_to 6896
  144.9920  139.4397  143.5334 H   0  0  0  0  0  0  0  0  0  0  0  0  # atno 7974 bound_to 7965
  156.2999  140.2401  156.4023 H   0  0  0  0  0  0  0  0  0  0  0  0  # atno 8008 bound_to 7997
  154.8516  140.0424  157.1628 H   0  0  0  0  0  0  0  0  0  0  0  0  # atno 8009 bound_to 7997
  154.8992  140.2974  155.5331 H   0  0  0  0  0  0  0  0  0  0  0  0  # atno 8010 bound_to 7997
  139.4859  144.4449  151.8905 H   0  0  0  0  0  0  0  0  0  0  0  0  # atno 10167 bound_to 10162
  156.4300  130.4443  149.7124 H   0  0  0  0  0  0  0  0  0  0  0  0  # atno 10718 bound_to 10713
  154.5005  135.2783  155.1424 H   0  0  0  0  0  0  0  0  0  0  0  0  # atno 10763 bound_to 10752
  154.3060  135.6238  153.5448 H   0  0  0  0  0  0  0  0  0  0  0  0  # atno 10764 bound_to 10752
  152.9901  135.5708  154.5447 H   0  0  0  0  0  0  0  0  0  0  0  0  # atno 10765 bound_to 10752
  141.1508  133.7859  157.0101 H   0  0  0  0  0  0  0  0  0  0  0  0  # atno 11005 bound_to 11000
  146.3433  139.9258  142.8760 LP  0  0  0  0  0  0  0  0  0  0  0  0  # atno 17320 bound_to 7965
  145.2272  140.9958  143.4012 LP  0  0  0  0  0  0  0  0  0  0  0  0  # atno 17321 bound_to 7965
  140.3903  144.2624  150.5900 LP  0  0  0  0  0  0  0  0  0  0  0  0  # atno 17342 bound_to 10162
  140.5152  143.2280  151.8473 LP  0  0  0  0  0  0  0  0  0  0  0  0  # atno 17343 bound_to 10162
  156.4031  130.7684  151.2693 LP  0  0  0  0  0  0  0  0  0  0  0  0  # atno 17370 bound_to 10713
  157.7508  131.0234  150.3832 LP  0  0  0  0  0  0  0  0  0  0  0  0  # atno 17371 bound_to 10713
  140.0883  134.9607  157.1736 LP  0  0  0  0  0  0  0  0  0  0  0  0  # atno 17394 bound_to 11000
  140.3480  134.2630  155.7202 LP  0  0  0  0  0  0  0  0  0  0  0  0  # atno 17395 bound_to 11000

$$$$
