AV-unprocessed.smi:366|AV-procd|sdf|2430|dock2
  -GOLD-   2262022373D 1   1.00000     0.00000
 Structure written by MMmdl.
 50 51  0  0  0  0  0  0  0  0  1 V2000
  148.0523  134.5016  159.1284 C   0  0  0  0  0  0  0  0  0  0  0  0
  147.7029  134.9712  157.7201 C   0  0  0  0  0  0  0  0  0  0  0  0
  146.5736  135.3953  157.4774 O   0  0  0  0  0  0  0  0  0  0  0  0
  148.6798  134.8948  156.8019 N   0  0  0  0  0  0  0  0  0  0  0  0
  148.5636  135.3075  155.4016 C   0  0  1  0  0  0  0  0  0  0  0  0
  149.8581  136.0385  154.9966 C   0  0  0  0  0  0  0  0  0  0  0  0
  150.9339  135.4381  154.9668 O   0  0  0  0  0  0  0  0  0  0  0  0
  149.7321  137.3325  154.6699 N   0  0  0  0  0  0  0  0  0  0  0  0
  150.8332  138.1881  154.2544 C   0  0  0  0  0  0  0  0  0  0  0  0
  151.1471  139.2390  155.2995 C   0  0  0  0  0  0  0  0  0  0  0  0
  150.4422  140.4574  155.3358 C   0  0  0  0  0  0  0  0  0  0  0  0
  150.7762  141.4082  156.3188 C   0  0  0  0  0  0  0  0  0  0  0  0
  151.8129  141.1175  157.2384 C   0  0  0  0  0  0  0  0  0  0  0  0
  152.1666  142.0571  158.2315 N   0  0  0  0  0  0  0  0  0  0  0  0
  151.5933  143.3989  158.1411 C   0  0  0  0  0  0  0  0  0  0  0  0
  152.3047  144.3541  159.1141 C   0  0  0  0  0  0  0  0  0  0  0  0
  152.2515  143.8211  160.4329 O   0  0  0  0  0  0  0  0  0  0  0  0
  152.9155  142.5651  160.5226 C   0  0  0  0  0  0  0  0  0  0  0  0
  152.2287  141.5447  159.5985 C   0  0  0  0  0  0  0  0  0  0  0  0
  152.4856  139.9399  157.1988 N   0  0  0  0  0  0  0  0  0  0  0  0
  152.1616  139.0315  156.2547 C   0  0  0  0  0  0  0  0  0  0  0  0
  148.3674  134.0415  154.5162 C   0  0  0  0  0  0  0  0  0  0  0  0
  146.9959  133.3656  154.7250 C   0  0  0  0  0  0  0  0  0  0  0  0
  149.4809  133.0006  154.7464 C   0  0  0  0  0  0  0  0  0  0  0  0
  148.9694  133.9110  159.1364 H   0  0  0  0  0  0  0  0  0  0  0  0
  147.2483  133.8865  159.5332 H   0  0  0  0  0  0  0  0  0  0  0  0
  148.1912  135.3602  159.7853 H   0  0  0  0  0  0  0  0  0  0  0  0
  149.5784  134.5409  157.0957 H   0  0  0  0  0  0  0  0  0  0  0  0
  147.7046  135.9714  155.2819 H   0  0  0  0  0  0  0  0  0  0  0  0
  148.8149  137.7522  154.7184 H   0  0  0  0  0  0  0  0  0  0  0  0
  151.7237  137.5846  154.0709 H   0  0  0  0  0  0  0  0  0  0  0  0
  150.5798  138.6772  153.3125 H   0  0  0  0  0  0  0  0  0  0  0  0
  149.6559  140.6622  154.6241 H   0  0  0  0  0  0  0  0  0  0  0  0
  150.2271  142.3366  156.3637 H   0  0  0  0  0  0  0  0  0  0  0  0
  151.6888  143.7835  157.1248 H   0  0  0  0  0  0  0  0  0  0  0  0
  150.5288  143.3529  158.3750 H   0  0  0  0  0  0  0  0  0  0  0  0
  153.3421  144.5131  158.8153 H   0  0  0  0  0  0  0  0  0  0  0  0
  151.8183  145.3293  159.1053 H   0  0  0  0  0  0  0  0  0  0  0  0
  153.9689  142.6787  160.2611 H   0  0  0  0  0  0  0  0  0  0  0  0
  152.8806  142.2188  161.5553 H   0  0  0  0  0  0  0  0  0  0  0  0
  151.2134  141.3507  159.9466 H   0  0  0  0  0  0  0  0  0  0  0  0
  152.7676  140.6002  159.6541 H   0  0  0  0  0  0  0  0  0  0  0  0
  152.7309  138.1136  156.2617 H   0  0  0  0  0  0  0  0  0  0  0  0
  148.4230  134.3397  153.4676 H   0  0  0  0  0  0  0  0  0  0  0  0
  146.8488  133.0859  155.7686 H   0  0  0  0  0  0  0  0  0  0  0  0
  146.9107  132.4591  154.1251 H   0  0  0  0  0  0  0  0  0  0  0  0
  146.1683  134.0123  154.4335 H   0  0  0  0  0  0  0  0  0  0  0  0
  149.5125  132.6805  155.7880 H   0  0  0  0  0  0  0  0  0  0  0  0
  150.4655  133.3908  154.4886 H   0  0  0  0  0  0  0  0  0  0  0  0
  149.3222  132.1136  154.1324 H   0  0  0  0  0  0  0  0  0  0  0  0
  1  2  1  0  0  0  0
  1 25  1  0  0  0  0
  1 26  1  0  0  0  0
  1 27  1  0  0  0  0
  2  3  2  0  0  0  0
  2  4  1  0  0  0  0
  4  5  1  0  0  0  0
  4 28  1  0  0  0  0
  5  6  1  0  0  0  0
  5 22  1  0  0  0  0
  5 29  1  0  0  0  0
  6  7  2  0  0  0  0
  6  8  1  0  0  0  0
  8  9  1  0  0  0  0
  8 30  1  0  0  0  0
  9 10  1  0  0  0  0
  9 31  1  0  0  0  0
  9 32  1  0  0  0  0
 10 21  1  0  0  0  0
 10 11  2  0  0  0  0
 11 12  1  0  0  0  0
 11 33  1  0  0  0  0
 12 13  2  0  0  0  0
 12 34  1  0  0  0  0
 13 14  1  0  0  0  0
 13 20  1  0  0  0  0
 14 19  1  0  0  0  0
 14 15  1  0  0  0  0
 15 16  1  0  0  0  0
 15 35  1  0  0  0  0
 15 36  1  0  0  0  0
 16 17  1  0  0  0  0
 16 37  1  0  0  0  0
 16 38  1  0  0  0  0
 17 18  1  0  0  0  0
 18 19  1  0  0  0  0
 18 39  1  0  0  0  0
 18 40  1  0  0  0  0
 19 41  1  0  0  0  0
 19 42  1  0  0  0  0
 20 21  2  0  0  0  0
 21 43  1  0  0  0  0
 22 23  1  0  0  0  0
 22 24  1  0  0  0  0
 22 44  1  0  0  0  0
 23 45  1  0  0  0  0
 23 46  1  0  0  0  0
 23 47  1  0  0  0  0
 24 48  1  0  0  0  0
 24 49  1  0  0  0  0
 24 50  1  0  0  0  0
M  END
> <s_m_source_file>
AV-unprocessed.smi

> <i_m_source_file_index>
366

> <i_lp_mmshare_version>
43012

> <i_f3d_flags>
0

> <s_epik_input>
W0NIM11DKD1PKVtOSF1bQ0BASF0oW0NIXShbQ0gzXSlbQ0gzXSlDKD1PKVtOSF1bQ0gyXWMxW2NIXVtjSF1jKG5bY0hdMSlOMltDSDJdW0NIMl1PW0NIMl1bQ0gyXTI=

> <s_epik_cmdline>
J2VwaWtfcHl0aG9uJywgJy1waCcsICc3LjAnLCAnLXRuJywgJzgnLCAnLW1hJywgJzIwMCcsICctbWV0YWxfYmluZGluZycsICctaW1hZScsICc8aW5maWxlLm1hZT4nLCAnLW9tYWUnLCAnPG91dGZpbGUubWFlPic=

> <r_lp_tautomer_probability>
1

> <r_epik_Ionization_Penalty>
0.00485188

> <r_epik_Ionization_Penalty_Charging>
0

> <r_epik_Ionization_Penalty_Neutral>
0.00485188

> <r_epik_State_Penalty>
0.00351951

> <r_epik_Charging_Adjusted_Penalty>
0.00351951

> <i_epik_Tot_Q>
0

> <i_epik_Tot_abs_Q>
0

> <r_epik_Metal_State_Penalty>
-0

> <b_epik_Metal_Only>
0

> <s_lp_Force_Field>
OPLS_2005

> <r_lp_Energy>
20.5125

> <b_lp_Chiralities_Consistent>
1

> <s_lp_Variant>
AV-unprocessed.smi:366-2

> <Gold.Version>
5.8.1

> <Gold.Id.Protein>
6NUR|6NUR_protein|mol2

> <Gold.PLP.Fitness>
43.9226

> <Gold.PLP.PLP>
-39.3110

> <Gold.PLP.part.hbond>
-2.7657

> <Gold.PLP.part.metal>
0.0000

> <Gold.PLP.part.buried>
-3.6600

> <Gold.PLP.part.nonpolar>
-32.9902

> <Gold.PLP.part.repulsive>
0.2675

> <Gold.PLP.ligand.clash>
0.0000

> <Gold.PLP.ligand.torsion>
0.9160

> <Gold.PLP.Chemscore.Hbond>
1.9920

> <Gold.PLP.Chemscore.CHOScore>
0.0000

> <Gold.PLP.Chemscore.Metal>
0.0000

> <Gold.Chemscore.Hbonds>
donor molecule, donor type, donor heavy atom, donor atom, acceptor molecule, acceptor atom, score
      P1  H  7997  8010       L1    20  0.99
      P1  H 10752 10764       L1     7  0.99

> <Gold.PLP.Chemscore.Internal.Correction>
0.4677

> <Gold.Rescore>
     Score         DG    S(hbond)    S(metal)    S(lipo)     H(rot)  DE(clash)    DE(int)     intcor
     12.78     -15.04       1.00        0.00     100.81       2.18       0.01       2.25       ----

> <Gold.Chemscore.Fitness>
12.7834

> <Gold.Chemscore.DG>
-15.0391

> <Gold.Chemscore.ZeroCoef>
-5.4800

> <Gold.Chemscore.Hbond>
1.0027

> <Gold.Chemscore.Metal>
0.0000

> <Gold.Chemscore.Lipo>
100.8062

> <Gold.Chemscore.Internal_Hbond>
0.0000

> <Gold.Chemscore.DEClash>
0.0086

> <Gold.Chemscore.DEInternal>
2.2471

> <Gold.Chemscore.Rot>
2.1813

> <Gold.Chemscore.Internal.Correction>
   9.000000E+99

> <Gold.Chemscore.Hbonds>
donor molecule, donor type, donor heavy atom, donor atom, acceptor molecule, acceptor atom, score
      P1  H  7997  8010       L1    20  0.21
      P1  H 10752 10764       L1     7  0.90

> <Gold.Chemscore.Hbond.Weighted>
-3.3489

> <Gold.Chemscore.Metal.Weighted>
-0.0000

> <Gold.Chemscore.Lipo.Weighted>
-11.7943

> <Gold.Chemscore.Internal_Hbond.Weighted>
0.0000

> <Gold.Chemscore.DEClash.Weighted>
0.0086

> <Gold.Chemscore.DEInternal.Weighted>
2.2471

> <Gold.Chemscore.Rot.Weighted>
5.5842

> <Gold.Chemscore.Internal.Correction.Weighted>
   9.000000E+99

> <Gold.Protein.RotatedTorsions>
[ 6907 6896 6895 6894 ] final -154.02 input  -60.11 | X-H torsion
[ 7974 7965 7964 7962 ] final -126.97 input  175.53 | X-H torsion
[ 8008 7997 7996 7995 ] final   44.10 input   59.86 | X-H torsion
[ 10167 10162 10161 10158 ] final -163.97 input  -65.29 | X-H torsion
[ 10718 10713 10712 10709 ] final -159.53 input   66.30 | X-H torsion
[ 10763 10752 10751 10750 ] final  -53.28 input  -60.55 | X-H torsion
[ 11005 11000 10999 10996 ] final   39.58 input  -57.11 | X-H torsion

> <Gold.Protein.ActiveResidues>
 VAL166  LYS551  ARG553  GLY616  TRP617  ASP618  TYR619  PRO620  LYS621  CYS622 
 ASP623  PHE694  ASN695  SER759  ASP760  ASP761  ALA762  ILE779  LEU786  VAL792 
 PHE793  MET794  SER795  GLU796  ALA797  LYS798  CYS799  TRP800  GLU811  SER814 

> <Gold.Protein.RotatedAtoms>
  151.2513  133.4349  159.2611 H   0  0  0  0  0  0  0  0  0  0  0  0  # atno 6907 bound_to 6896
  151.0615  134.9740  159.8273 H   0  0  0  0  0  0  0  0  0  0  0  0  # atno 6908 bound_to 6896
  152.5399  134.2463  159.8934 H   0  0  0  0  0  0  0  0  0  0  0  0  # atno 6909 bound_to 6896
  144.9818  140.7648  143.4607 H   0  0  0  0  0  0  0  0  0  0  0  0  # atno 7974 bound_to 7965
  155.3137  140.3392  155.4243 H   0  0  0  0  0  0  0  0  0  0  0  0  # atno 8008 bound_to 7997
  156.1943  140.1709  156.8068 H   0  0  0  0  0  0  0  0  0  0  0  0  # atno 8009 bound_to 7997
  154.5479  140.0711  156.8603 H   0  0  0  0  0  0  0  0  0  0  0  0  # atno 8010 bound_to 7997
  139.6283  144.0489  152.1994 H   0  0  0  0  0  0  0  0  0  0  0  0  # atno 10167 bound_to 10162
  156.5693  130.8681  151.2833 H   0  0  0  0  0  0  0  0  0  0  0  0  # atno 10718 bound_to 10713
  154.1563  135.6482  153.4975 H   0  0  0  0  0  0  0  0  0  0  0  0  # atno 10763 bound_to 10752
  153.0123  135.5350  154.6756 H   0  0  0  0  0  0  0  0  0  0  0  0  # atno 10764 bound_to 10752
  154.6058  135.2948  155.0458 H   0  0  0  0  0  0  0  0  0  0  0  0  # atno 10765 bound_to 10752
  140.2014  134.3866  155.8094 H   0  0  0  0  0  0  0  0  0  0  0  0  # atno 11005 bound_to 11000
  145.2410  139.2073  143.4993 LP  0  0  0  0  0  0  0  0  0  0  0  0  # atno 17320 bound_to 7965
  146.3410  140.2305  142.8593 LP  0  0  0  0  0  0  0  0  0  0  0  0  # atno 17321 bound_to 7965
  140.0148  144.6197  150.7616 LP  0  0  0  0  0  0  0  0  0  0  0  0  # atno 17342 bound_to 10162
  140.7424  143.2831  151.3540 LP  0  0  0  0  0  0  0  0  0  0  0  0  # atno 17343 bound_to 10162
  157.7351  130.9757  150.2066 LP  0  0  0  0  0  0  0  0  0  0  0  0  # atno 17370 bound_to 10713
  156.2728  130.3724  149.8014 LP  0  0  0  0  0  0  0  0  0  0  0  0  # atno 17371 bound_to 10713
  141.2227  133.7096  156.8263 LP  0  0  0  0  0  0  0  0  0  0  0  0  # atno 17394 bound_to 11000
  140.2050  134.8869  157.3212 LP  0  0  0  0  0  0  0  0  0  0  0  0  # atno 17395 bound_to 11000

$$$$
