AV-unprocessed.smi:3241|AV-procd|sdf|12388|dock5
  -GOLD-   2272018253D 1   1.00000     0.00000
 Structure written by MMmdl.
 44 45  0  0  0  0  0  0  0  0  2 V2000
  150.8293  137.5667  154.4010 C   0  0  0  0  0  0  0  0  0  0  0  0
  150.1715  138.8173  155.0074 C   0  0  1  0  0  0  0  0  0  0  0  0
  151.2420  139.8428  155.4322 C   0  0  0  0  0  0  0  0  0  0  0  0
  150.6129  141.1085  156.0339 C   0  0  0  0  0  0  0  0  0  0  0  0
  149.6150  141.7456  155.0572 C   0  0  0  0  0  0  0  0  0  0  0  0
  148.5366  140.7363  154.6367 C   0  0  0  0  0  0  0  0  0  0  0  0
  149.1582  139.4595  154.0328 C   0  0  2  0  0  0  0  0  0  0  0  0
  148.1313  138.5084  153.7807 O   0  0  0  0  0  0  0  0  0  0  0  0
  147.1516  138.9358  152.8463 C   0  0  0  0  0  0  0  0  0  0  0  0
  146.1130  137.8212  152.6858 C   0  0  0  0  0  0  0  0  0  0  0  0
  146.1700  137.2405  151.3306 N   0  3  0  0  0  0  0  0  0  0  0  0
  145.2434  136.1111  151.1153 C   0  0  0  0  0  0  0  0  0  0  0  0
  145.8274  134.7912  151.6437 C   0  0  0  0  0  0  0  0  0  0  0  0
  145.4036  133.6477  150.8559 N   0  0  0  0  0  0  0  0  0  0  0  0
  146.1865  132.7216  150.1995 C   0  0  0  0  0  0  0  0  0  0  0  0
  145.3438  131.8286  149.6020 C   0  0  0  0  0  0  0  0  0  0  0  0
  144.0478  132.2988  149.9530 C   0  0  0  0  0  0  0  0  0  0  0  0
  144.0869  133.3861  150.7066 N   0  0  0  0  0  0  0  0  0  0  0  0
  151.3669  137.8073  153.4833 H   0  0  0  0  0  0  0  0  0  0  0  0
  150.0888  136.8033  154.1620 H   0  0  0  0  0  0  0  0  0  0  0  0
  151.5420  137.1221  155.0963 H   0  0  0  0  0  0  0  0  0  0  0  0
  149.6325  138.5070  155.9038 H   0  0  0  0  0  0  0  0  0  0  0  0
  151.9204  139.3941  156.1587 H   0  0  0  0  0  0  0  0  0  0  0  0
  151.8519  140.1176  154.5703 H   0  0  0  0  0  0  0  0  0  0  0  0
  150.1047  140.8576  156.9659 H   0  0  0  0  0  0  0  0  0  0  0  0
  151.3926  141.8265  156.2898 H   0  0  0  0  0  0  0  0  0  0  0  0
  149.1494  142.6173  155.5178 H   0  0  0  0  0  0  0  0  0  0  0  0
  150.1443  142.1069  154.1744 H   0  0  0  0  0  0  0  0  0  0  0  0
  147.9314  140.4728  155.5050 H   0  0  0  0  0  0  0  0  0  0  0  0
  147.8620  141.2093  153.9235 H   0  0  0  0  0  0  0  0  0  0  0  0
  149.6821  139.7083  153.1076 H   0  0  0  0  0  0  0  0  0  0  0  0
  146.6612  139.8430  153.1998 H   0  0  0  0  0  0  0  0  0  0  0  0
  147.6115  139.1651  151.8837 H   0  0  0  0  0  0  0  0  0  0  0  0
  146.2768  137.0416  153.4309 H   0  0  0  0  0  0  0  0  0  0  0  0
  145.1144  138.2260  152.8554 H   0  0  0  0  0  0  0  0  0  0  0  0
  145.9518  137.9631  150.6587 H   0  0  0  0  0  0  0  0  0  0  0  0
  144.3044  136.3241  151.6274 H   0  0  0  0  0  0  0  0  0  0  0  0
  145.0150  136.0220  150.0521 H   0  0  0  0  0  0  0  0  0  0  0  0
  146.9178  134.8303  151.6607 H   0  0  0  0  0  0  0  0  0  0  0  0
  145.5058  134.6311  152.6734 H   0  0  0  0  0  0  0  0  0  0  0  0
  147.2654  132.7738  150.2125 H   0  0  0  0  0  0  0  0  0  0  0  0
  145.6119  130.9707  149.0034 H   0  0  0  0  0  0  0  0  0  0  0  0
  143.0867  131.8846  149.6862 H   0  0  0  0  0  0  0  0  0  0  0  0
  147.1128  136.9203  151.1597 H   0  0  0  0  0  0  0  0  0  0  0  0
  1  2  1  0  0  0  0
  1 19  1  0  0  0  0
  1 20  1  0  0  0  0
  1 21  1  0  0  0  0
  2  7  1  0  0  0  0
  2  3  1  0  0  0  0
  2 22  1  0  0  0  0
  3  4  1  0  0  0  0
  3 23  1  0  0  0  0
  3 24  1  0  0  0  0
  4  5  1  0  0  0  0
  4 25  1  0  0  0  0
  4 26  1  0  0  0  0
  5  6  1  0  0  0  0
  5 27  1  0  0  0  0
  5 28  1  0  0  0  0
  6  7  1  0  0  0  0
  6 29  1  0  0  0  0
  6 30  1  0  0  0  0
  7  8  1  0  0  0  0
  7 31  1  0  0  0  0
  8  9  1  0  0  0  0
  9 10  1  0  0  0  0
  9 32  1  0  0  0  0
  9 33  1  0  0  0  0
 10 11  1  0  0  0  0
 10 34  1  0  0  0  0
 10 35  1  0  0  0  0
 11 12  1  0  0  0  0
 11 36  1  0  0  0  0
 11 44  1  0  0  0  0
 12 13  1  0  0  0  0
 12 37  1  0  0  0  0
 12 38  1  0  0  0  0
 13 14  1  0  0  0  0
 13 39  1  0  0  0  0
 13 40  1  0  0  0  0
 14 18  1  0  0  0  0
 14 15  1  0  0  0  0
 15 16  2  0  0  0  0
 15 41  1  0  0  0  0
 16 17  1  0  0  0  0
 16 42  1  0  0  0  0
 17 18  2  0  0  0  0
 17 43  1  0  0  0  0
M  CHG  1  11   1
M  END
> <s_m_source_file>
AV-unprocessed.smi

> <i_m_source_file_index>
3241

> <i_lp_mmshare_version>
43012

> <i_f3d_flags>
0

> <s_epik_input>
W0NIM11bQ0BASF0xW0NIMl1bQ0gyXVtDSDJdW0NIMl1bQ0BIXTFPW0NIMl1bQ0gyXVtOSF1bQ0gyXVtDSDJdbjJbY0hdW2NIXVtjSF1uMg==

> <s_epik_cmdline>
J2VwaWtfcHl0aG9uJywgJy1waCcsICc3LjAnLCAnLXRuJywgJzgnLCAnLW1hJywgJzIwMCcsICctbWV0YWxfYmluZGluZycsICctaW1hZScsICc8aW5maWxlLm1hZT4nLCAnLW9tYWUnLCAnPG91dGZpbGUubWFlPic=

> <r_lp_tautomer_probability>
1

> <r_epik_Ionization_Penalty>
0.00924946

> <r_epik_Ionization_Penalty_Charging>
0.00924645

> <r_epik_Ionization_Penalty_Neutral>
3.00629e-06

> <r_epik_State_Penalty>
0.0070118

> <r_epik_Charging_Adjusted_Penalty>
0.0162583

> <i_epik_Tot_Q>
1

> <i_epik_Tot_abs_Q>
1

> <r_epik_Metal_State_Penalty>
0.00702523

> <b_epik_Metal_Only>
0

> <s_lp_Force_Field>
OPLS_2005

> <r_lp_Energy>
14.0519

> <b_lp_Chiralities_Consistent>
1

> <s_lp_Variant>
AV-unprocessed.smi:3241-4

> <Gold.Version>
5.8.1

> <Gold.Id.Protein>
6NUR|6NUR_protein|mol2

> <Gold.PLP.Fitness>
47.7814

> <Gold.PLP.PLP>
-38.0353

> <Gold.PLP.part.hbond>
-1.8088

> <Gold.PLP.part.metal>
0.0000

> <Gold.PLP.part.buried>
-1.2302

> <Gold.PLP.part.nonpolar>
-37.3104

> <Gold.PLP.part.repulsive>
0.8401

> <Gold.PLP.ligand.clash>
0.0000

> <Gold.PLP.ligand.torsion>
0.7004

> <Gold.PLP.Chemscore.Hbond>
2.1521

> <Gold.PLP.Chemscore.CHOScore>
1.5208

> <Gold.PLP.Chemscore.Metal>
0.0000

> <Gold.Chemscore.Hbonds>
donor molecule, donor type, donor heavy atom, donor atom, acceptor molecule, acceptor atom, score
      L1  H    11    36       P1 10171  0.16
      L1  H    11    44       P1  7948  1.95
      L1  C    15    41       P1 10747  0.93
      L1  C    17    43       P1 10952  0.48

> <Gold.PLP.Chemscore.Internal.Correction>
0.1282

> <Gold.Rescore>
     Score         DG    S(hbond)    S(metal)    S(lipo)     H(rot)  DE(clash)    DE(int)     intcor
     14.72     -15.78       1.01        0.00     100.66       1.89       0.37       0.69       ----

> <Gold.Chemscore.Fitness>
14.7156

> <Gold.Chemscore.DG>
-15.7752

> <Gold.Chemscore.ZeroCoef>
-5.4800

> <Gold.Chemscore.Hbond>
1.0055

> <Gold.Chemscore.Metal>
0.0000

> <Gold.Chemscore.Lipo>
100.6579

> <Gold.Chemscore.Internal_Hbond>
0.0000

> <Gold.Chemscore.DEClash>
0.3668

> <Gold.Chemscore.DEInternal>
0.6928

> <Gold.Chemscore.Rot>
1.8906

> <Gold.Chemscore.Internal.Correction>
   9.000000E+99

> <Gold.Chemscore.Hbonds>
donor molecule, donor type, donor heavy atom, donor atom, acceptor molecule, acceptor atom, score
      L1  H    11    36       P1 10171  0.17
      L1  H    11    44       P1  7948  0.88

> <Gold.Chemscore.Hbond.Weighted>
-3.3583

> <Gold.Chemscore.Metal.Weighted>
-0.0000

> <Gold.Chemscore.Lipo.Weighted>
-11.7770

> <Gold.Chemscore.Internal_Hbond.Weighted>
0.0000

> <Gold.Chemscore.DEClash.Weighted>
0.3668

> <Gold.Chemscore.DEInternal.Weighted>
0.6928

> <Gold.Chemscore.Rot.Weighted>
4.8400

> <Gold.Chemscore.Internal.Correction.Weighted>
   9.000000E+99

> <Gold.Protein.RotatedTorsions>
[ 6907 6896 6895 6894 ] final  -45.88 input  -60.11 | X-H torsion
[ 7974 7965 7964 7962 ] final  -22.49 input  175.53 | X-H torsion
[ 8008 7997 7996 7995 ] final  -94.71 input   59.86 | X-H torsion
[ 10167 10162 10161 10158 ] final  -37.06 input  -65.29 | X-H torsion
[ 10718 10713 10712 10709 ] final   73.79 input   66.30 | X-H torsion
[ 10763 10752 10751 10750 ] final  -15.07 input  -60.55 | X-H torsion
[ 11005 11000 10999 10996 ] final   21.03 input  -57.11 | X-H torsion

> <Gold.Protein.ActiveResidues>
 VAL166  LYS551  ARG553  GLY616  TRP617  ASP618  TYR619  PRO620  LYS621  CYS622 
 ASP623  PHE694  ASN695  SER759  ASP760  ASP761  ALA762  ILE779  LEU786  VAL792 
 PHE793  MET794  SER795  GLU796  ALA797  LYS798  CYS799  TRP800  GLU811  SER814 

> <Gold.Protein.RotatedAtoms>
  150.9172  134.8590  159.7464 H   0  0  0  0  0  0  0  0  0  0  0  0  # atno 6907 bound_to 6896
  152.4974  134.4271  159.9510 H   0  0  0  0  0  0  0  0  0  0  0  0  # atno 6908 bound_to 6896
  151.4308  133.3631  159.2803 H   0  0  0  0  0  0  0  0  0  0  0  0  # atno 6909 bound_to 6896
  146.1673  140.4486  142.8547 H   0  0  0  0  0  0  0  0  0  0  0  0  # atno 7974 bound_to 7965
  154.7519  140.0487  157.0900 H   0  0  0  0  0  0  0  0  0  0  0  0  # atno 8008 bound_to 7997
  155.0046  140.3129  155.4834 H   0  0  0  0  0  0  0  0  0  0  0  0  # atno 8009 bound_to 7997
  156.2887  140.2195  156.5158 H   0  0  0  0  0  0  0  0  0  0  0  0  # atno 8010 bound_to 7997
  140.7127  143.3367  151.2448 H   0  0  0  0  0  0  0  0  0  0  0  0  # atno 10167 bound_to 10162
  157.6563  130.9646  150.1119 H   0  0  0  0  0  0  0  0  0  0  0  0  # atno 10718 bound_to 10713
  153.5378  135.7013  153.5651 H   0  0  0  0  0  0  0  0  0  0  0  0  # atno 10763 bound_to 10752
  153.3631  135.3964  155.1733 H   0  0  0  0  0  0  0  0  0  0  0  0  # atno 10764 bound_to 10752
  154.8677  135.3793  154.4880 H   0  0  0  0  0  0  0  0  0  0  0  0  # atno 10765 bound_to 10752
  140.3961  134.1768  155.7663 H   0  0  0  0  0  0  0  0  0  0  0  0  # atno 11005 bound_to 11000
  144.8110  140.6386  143.6415 LP  0  0  0  0  0  0  0  0  0  0  0  0  # atno 17320 bound_to 7965
  145.4435  139.1532  143.3957 LP  0  0  0  0  0  0  0  0  0  0  0  0  # atno 17321 bound_to 7965
  139.6863  143.9767  152.2836 LP  0  0  0  0  0  0  0  0  0  0  0  0  # atno 17342 bound_to 10162
  139.9414  144.6679  150.8262 LP  0  0  0  0  0  0  0  0  0  0  0  0  # atno 17343 bound_to 10162
  156.2013  130.3660  149.8784 LP  0  0  0  0  0  0  0  0  0  0  0  0  # atno 17370 bound_to 10713
  156.6687  130.8811  151.3559 LP  0  0  0  0  0  0  0  0  0  0  0  0  # atno 17371 bound_to 10713
  141.1874  133.8283  157.1035 LP  0  0  0  0  0  0  0  0  0  0  0  0  # atno 17394 bound_to 11000
  140.0371  134.9873  157.0891 LP  0  0  0  0  0  0  0  0  0  0  0  0  # atno 17395 bound_to 11000

$$$$
