AV-unprocessed.smi:496|AV-procd|sdf|2721|dock3
  -GOLD-   2262023163D 1   1.00000     0.00000
 Structure written by MMmdl.
 41 43  0  0  0  0  0  0  0  0  2 V2000
  148.8306  140.6808  153.7824 C   0  0  0  0  0  0  0  0  0  0  0  0
  150.1546  140.4872  154.2552 O   0  0  0  0  0  0  0  0  0  0  0  0
  150.4328  141.1619  155.4738 C   0  0  0  0  0  0  0  0  0  0  0  0
  149.6321  140.5690  156.6467 C   0  0  0  0  0  0  0  0  0  0  0  0
  150.4673  140.3865  157.8351 N   0  0  0  0  0  0  0  0  0  0  0  0
  150.7214  139.2644  158.5779 C   0  0  0  0  0  0  0  0  0  0  0  0
  150.1305  137.8928  158.2954 C   0  0  1  0  0  0  0  0  0  0  0  0
  151.2214  136.8196  158.1644 C   0  0  0  0  0  0  0  0  0  0  0  0
  149.1679  137.4849  159.3205 N   0  5  0  0  0  0  0  0  0  0  0  0
  148.6927  136.2143  159.4586 C   0  0  0  0  0  0  0  0  0  0  0  0
  148.9545  135.1994  158.8032 O   0  0  0  0  0  0  0  0  0  0  0  0
  147.7229  136.0929  160.5725 C   0  0  0  0  0  0  0  0  0  0  0  0
  147.1225  134.9797  161.0985 C   0  0  0  0  0  0  0  0  0  0  0  0
  146.2762  135.4262  162.1509 C   0  0  0  0  0  0  0  0  0  0  0  0
  146.4177  136.7831  162.1958 C   0  0  0  0  0  0  0  0  0  0  0  0
  147.2938  137.2054  161.2449 O   0  0  0  0  0  0  0  0  0  0  0  0
  151.5268  139.4539  159.6286 N   0  0  0  0  0  0  0  0  0  0  0  0
  151.8361  140.7954  159.5558 C   0  0  0  0  0  0  0  0  0  0  0  0
  152.6564  141.5933  160.3851 C   0  0  0  0  0  0  0  0  0  0  0  0
  152.8301  142.9652  160.1098 C   0  0  0  0  0  0  0  0  0  0  0  0
  152.1874  143.5565  159.0033 C   0  0  0  0  0  0  0  0  0  0  0  0
  151.3656  142.7780  158.1655 C   0  0  0  0  0  0  0  0  0  0  0  0
  151.1939  141.4081  158.4450 C   0  0  0  0  0  0  0  0  0  0  0  0
  148.6848  140.1071  152.8673 H   0  0  0  0  0  0  0  0  0  0  0  0
  148.6275  141.7265  153.5524 H   0  0  0  0  0  0  0  0  0  0  0  0
  148.0974  140.3356  154.5125 H   0  0  0  0  0  0  0  0  0  0  0  0
  151.5045  141.1620  155.6782 H   0  0  0  0  0  0  0  0  0  0  0  0
  150.1462  142.2056  155.3420 H   0  0  0  0  0  0  0  0  0  0  0  0
  148.8086  141.2370  156.8992 H   0  0  0  0  0  0  0  0  0  0  0  0
  149.1619  139.6225  156.3838 H   0  0  0  0  0  0  0  0  0  0  0  0
  149.6451  137.9337  157.3202 H   0  0  0  0  0  0  0  0  0  0  0  0
  151.9296  137.0803  157.3775 H   0  0  0  0  0  0  0  0  0  0  0  0
  150.7920  135.8496  157.9120 H   0  0  0  0  0  0  0  0  0  0  0  0
  151.7836  136.7025  159.0916 H   0  0  0  0  0  0  0  0  0  0  0  0
  147.2748  133.9642  160.7635 H   0  0  0  0  0  0  0  0  0  0  0  0
  145.6440  134.8307  162.7922 H   0  0  0  0  0  0  0  0  0  0  0  0
  145.9925  137.5634  162.8093 H   0  0  0  0  0  0  0  0  0  0  0  0
  153.1523  141.1468  161.2342 H   0  0  0  0  0  0  0  0  0  0  0  0
  153.4594  143.5658  160.7499 H   0  0  0  0  0  0  0  0  0  0  0  0
  152.3249  144.6078  158.7981 H   0  0  0  0  0  0  0  0  0  0  0  0
  150.8734  143.2307  157.3178 H   0  0  0  0  0  0  0  0  0  0  0  0
  1  2  1  0  0  0  0
  1 24  1  0  0  0  0
  1 25  1  0  0  0  0
  1 26  1  0  0  0  0
  2  3  1  0  0  0  0
  3  4  1  0  0  0  0
  3 27  1  0  0  0  0
  3 28  1  0  0  0  0
  4  5  1  0  0  0  0
  4 29  1  0  0  0  0
  4 30  1  0  0  0  0
  5 23  1  0  0  0  0
  5  6  1  0  0  0  0
  6  7  1  0  0  0  0
  6 17  2  0  0  0  0
  7  8  1  0  0  0  0
  7  9  1  0  0  0  0
  7 31  1  0  0  0  0
  8 32  1  0  0  0  0
  8 33  1  0  0  0  0
  8 34  1  0  0  0  0
  9 10  1  0  0  0  0
 10 11  2  0  0  0  0
 10 12  1  0  0  0  0
 12 16  1  0  0  0  0
 12 13  2  0  0  0  0
 13 14  1  0  0  0  0
 13 35  1  0  0  0  0
 14 15  2  0  0  0  0
 14 36  1  0  0  0  0
 15 16  1  0  0  0  0
 15 37  1  0  0  0  0
 17 18  1  0  0  0  0
 18 23  2  0  0  0  0
 18 19  1  0  0  0  0
 19 20  2  0  0  0  0
 19 38  1  0  0  0  0
 20 21  1  0  0  0  0
 20 39  1  0  0  0  0
 21 22  2  0  0  0  0
 21 40  1  0  0  0  0
 22 23  1  0  0  0  0
 22 41  1  0  0  0  0
M  CHG  1   9  -1
M  END
> <s_m_source_file>
AV-unprocessed.smi

> <i_m_source_file_index>
496

> <i_lp_mmshare_version>
43012

> <i_f3d_flags>
0

> <s_epik_input>
W2NIXTFbY0hdW2NIXVtjSF1jKGMxMiluKFtDSDJdW0NIMl1PW0NIM10pYyhuMilbQ0BIXShbQ0gzXSlbTkhdQyg9TyljM1tjSF1bY0hdW2NIXW8z

> <s_epik_cmdline>
J2VwaWtfcHl0aG9uJywgJy1waCcsICc3LjAnLCAnLXRuJywgJzgnLCAnLW1hJywgJzIwMCcsICctbWV0YWxfYmluZGluZycsICctaW1hZScsICc8aW5maWxlLm1hZT4nLCAnLW9tYWUnLCAnPG91dGZpbGUubWFlPic=

> <r_epik_Ionization_Penalty>
7.3423

> <r_epik_Ionization_Penalty_Charging>
6.43826

> <r_epik_Ionization_Penalty_Neutral>
0.90404

> <r_epik_State_Penalty>
6.54438

> <r_epik_Charging_Adjusted_Penalty>
12.9826

> <i_epik_Tot_Q>
-1

> <i_epik_Tot_abs_Q>
1

> <r_epik_Metal_State_Penalty>
2.56942

> <b_epik_Metal_Only>
1

> <s_lp_Force_Field>
OPLS_2005

> <r_lp_Energy>
16.0483

> <b_lp_Chiralities_Consistent>
1

> <s_lp_Variant>
AV-unprocessed.smi:496-6

> <Gold.Version>
5.8.1

> <Gold.Id.Protein>
6NUR|6NUR_protein|mol2

> <Gold.PLP.Fitness>
57.0223

> <Gold.PLP.PLP>
-48.0949

> <Gold.PLP.part.hbond>
-5.0000

> <Gold.PLP.part.metal>
0.0000

> <Gold.PLP.part.buried>
-4.6783

> <Gold.PLP.part.nonpolar>
-38.8208

> <Gold.PLP.part.repulsive>
0.1350

> <Gold.PLP.ligand.clash>
0.0000

> <Gold.PLP.ligand.torsion>
0.6561

> <Gold.PLP.Chemscore.Hbond>
3.3592

> <Gold.PLP.Chemscore.CHOScore>
0.0000

> <Gold.PLP.Chemscore.Metal>
0.0000

> <Gold.Chemscore.Hbonds>
donor molecule, donor type, donor heavy atom, donor atom, acceptor molecule, acceptor atom, score
      P1  H  6896  6908       L1    11  1.00
      P1  H  6931  6943       L1    16  0.63
      P1  H  6934  6947       L1    16  1.00
      P1  H  7989  7998       L1     2  0.72

> <Gold.PLP.Chemscore.Internal.Correction>
0.1620

> <Gold.Rescore>
     Score         DG    S(hbond)    S(metal)    S(lipo)     H(rot)  DE(clash)    DE(int)     intcor
     19.49     -21.63       2.27        0.00     112.18       1.78       0.07       2.07       ----

> <Gold.Chemscore.Fitness>
19.4895

> <Gold.Chemscore.DG>
-21.6308

> <Gold.Chemscore.ZeroCoef>
-5.4800

> <Gold.Chemscore.Hbond>
2.2717

> <Gold.Chemscore.Metal>
0.0000

> <Gold.Chemscore.Lipo>
112.1787

> <Gold.Chemscore.Internal_Hbond>
0.0000

> <Gold.Chemscore.DEClash>
0.0727

> <Gold.Chemscore.DEInternal>
2.0685

> <Gold.Chemscore.Rot>
1.7819

> <Gold.Chemscore.Internal.Correction>
   9.000000E+99

> <Gold.Chemscore.Hbonds>
donor molecule, donor type, donor heavy atom, donor atom, acceptor molecule, acceptor atom, score
      P1  H  6896  6908       L1    11  0.29
      P1  H  6931  6943       L1    16  0.38
      P1  H  6934  6947       L1    16  0.79
      P1  H  7989  7998       L1     2  0.12

> <Gold.Chemscore.Hbond.Weighted>
-7.5875

> <Gold.Chemscore.Metal.Weighted>
-0.0000

> <Gold.Chemscore.Lipo.Weighted>
-13.1249

> <Gold.Chemscore.Internal_Hbond.Weighted>
0.0000

> <Gold.Chemscore.DEClash.Weighted>
0.0727

> <Gold.Chemscore.DEInternal.Weighted>
2.0685

> <Gold.Chemscore.Rot.Weighted>
4.5617

> <Gold.Chemscore.Internal.Correction.Weighted>
   9.000000E+99

> <Gold.Protein.RotatedTorsions>
[ 6907 6896 6895 6894 ] final  177.43 input  -60.11 | X-H torsion
[ 7974 7965 7964 7962 ] final  125.91 input  175.53 | X-H torsion
[ 8008 7997 7996 7995 ] final  128.93 input   59.86 | X-H torsion
[ 10167 10162 10161 10158 ] final  -96.87 input  -65.29 | X-H torsion
[ 10718 10713 10712 10709 ] final   27.96 input   66.30 | X-H torsion
[ 10763 10752 10751 10750 ] final   15.80 input  -60.55 | X-H torsion
[ 11005 11000 10999 10996 ] final  -59.37 input  -57.11 | X-H torsion

> <Gold.Protein.ActiveResidues>
 VAL166  LYS551  ARG553  GLY616  TRP617  ASP618  TYR619  PRO620  LYS621  CYS622 
 ASP623  PHE694  ASN695  SER759  ASP760  ASP761  ALA762  ILE779  LEU786  VAL792 
 PHE793  MET794  SER795  GLU796  ALA797  LYS798  CYS799  TRP800  GLU811  SER814 

> <Gold.Protein.RotatedAtoms>
  151.7041  133.3311  159.3273 H   0  0  0  0  0  0  0  0  0  0  0  0  # atno 6907 bound_to 6896
  150.7723  134.6590  159.6338 H   0  0  0  0  0  0  0  0  0  0  0  0  # atno 6908 bound_to 6896
  152.3752  134.6677  160.0214 H   0  0  0  0  0  0  0  0  0  0  0  0  # atno 6909 bound_to 6896
  145.0677  139.3755  143.4974 H   0  0  0  0  0  0  0  0  0  0  0  0  # atno 7974 bound_to 7965
  156.2925  140.2633  156.2515 H   0  0  0  0  0  0  0  0  0  0  0  0  # atno 8008 bound_to 7997
  154.9878  140.0389  157.2324 H   0  0  0  0  0  0  0  0  0  0  0  0  # atno 8009 bound_to 7997
  154.7714  140.2778  155.6140 H   0  0  0  0  0  0  0  0  0  0  0  0  # atno 8010 bound_to 7997
  140.2893  143.3232  152.0362 H   0  0  0  0  0  0  0  0  0  0  0  0  # atno 10167 bound_to 10162
  157.2271  130.7006  149.6296 H   0  0  0  0  0  0  0  0  0  0  0  0  # atno 10718 bound_to 10713
  153.1491  135.6775  153.8909 H   0  0  0  0  0  0  0  0  0  0  0  0  # atno 10763 bound_to 10752
  153.8342  135.3114  155.3422 H   0  0  0  0  0  0  0  0  0  0  0  0  # atno 10764 bound_to 10752
  154.7848  135.4868  154.0008 H   0  0  0  0  0  0  0  0  0  0  0  0  # atno 10765 bound_to 10752
  141.1245  133.6616  156.5061 H   0  0  0  0  0  0  0  0  0  0  0  0  # atno 11005 bound_to 11000
  146.3527  140.0406  142.8643 LP  0  0  0  0  0  0  0  0  0  0  0  0  # atno 17320 bound_to 7965
  145.1331  140.9529  143.4532 LP  0  0  0  0  0  0  0  0  0  0  0  0  # atno 17321 bound_to 7965
  139.4942  144.6536  151.6621 LP  0  0  0  0  0  0  0  0  0  0  0  0  # atno 17342 bound_to 10162
  140.5746  144.0050  150.6235 LP  0  0  0  0  0  0  0  0  0  0  0  0  # atno 17343 bound_to 10162
  155.9678  130.4501  150.5683 LP  0  0  0  0  0  0  0  0  0  0  0  0  # atno 17370 bound_to 10713
  157.3516  131.0734  151.1708 LP  0  0  0  0  0  0  0  0  0  0  0  0  # atno 17371 bound_to 10713
  140.4406  134.7019  157.4990 LP  0  0  0  0  0  0  0  0  0  0  0  0  # atno 17394 bound_to 11000
  140.0231  134.6517  155.9210 LP  0  0  0  0  0  0  0  0  0  0  0  0  # atno 17395 bound_to 11000

$$$$
