AV-unprocessed.smi:2171|AV-procd|sdf|8832|dock9
  -GOLD-   2272012 23D 1   1.00000     0.00000
 Structure written by MMmdl.
 39 41  0  0  0  0  0  0  0  0  2 V2000
  149.6270  140.8969  157.9631 O   0  0  0  0  0  0  0  0  0  0  0  0
  149.8879  142.0280  157.5519 C   0  0  0  0  0  0  0  0  0  0  0  0
  150.2334  143.1553  158.5300 C   0  0  0  0  0  0  0  0  0  0  0  0
  151.3262  142.7925  159.4164 N   0  0  0  0  0  0  0  0  0  0  0  0
  152.5987  142.3765  159.0833 C   0  0  0  0  0  0  0  0  0  0  0  0
  153.2724  142.1538  160.2498 C   0  0  0  0  0  0  0  0  0  0  0  0
  152.3162  142.4647  161.2567 C   0  0  0  0  0  0  0  0  0  0  0  0
  151.1533  142.8485  160.7552 N   0  0  0  0  0  0  0  0  0  0  0  0
  149.8743  142.3533  156.2501 N   0  0  0  0  0  0  0  0  0  0  0  0
  149.5651  141.4264  155.1644 C   0  0  2  0  0  0  0  0  0  0  0  0
  148.3120  140.5972  155.4146 C   0  0  0  0  0  0  0  0  0  0  0  0
  148.4662  139.4334  154.4296 C   0  0  0  0  0  0  0  0  0  0  0  0
  149.9208  139.2605  154.1918 N   0  3  2  0  0  0  0  0  0  0  0  0
  150.4201  137.8859  154.4651 C   0  0  0  0  0  0  0  0  0  0  0  0
  151.9501  137.8726  154.5985 C   0  0  0  0  0  0  0  0  0  0  0  0
  152.4195  138.7407  155.7814 C   0  0  0  0  0  0  0  0  0  0  0  0
  151.4038  139.8411  156.1445 C   0  0  0  0  0  0  0  0  0  0  0  0
  150.6427  140.3571  154.8981 C   0  0  2  0  0  0  0  0  0  0  0  0
  150.5179  144.0580  157.9873 H   0  0  0  0  0  0  0  0  0  0  0  0
  149.3504  143.4008  159.1221 H   0  0  0  0  0  0  0  0  0  0  0  0
  152.9149  142.2747  158.0555 H   0  0  0  0  0  0  0  0  0  0  0  0
  154.2928  141.8200  160.3665 H   0  0  0  0  0  0  0  0  0  0  0  0
  152.4321  142.4248  162.3298 H   0  0  0  0  0  0  0  0  0  0  0  0
  150.0965  143.3048  155.9945 H   0  0  0  0  0  0  0  0  0  0  0  0
  149.4058  141.9991  154.2481 H   0  0  0  0  0  0  0  0  0  0  0  0
  148.3068  140.2168  156.4373 H   0  0  0  0  0  0  0  0  0  0  0  0
  147.3909  141.1604  155.2605 H   0  0  0  0  0  0  0  0  0  0  0  0
  147.9799  138.5294  154.7989 H   0  0  0  0  0  0  0  0  0  0  0  0
  147.9995  139.6856  153.4769 H   0  0  0  0  0  0  0  0  0  0  0  0
  149.9786  137.5004  155.3858 H   0  0  0  0  0  0  0  0  0  0  0  0
  150.0981  137.2250  153.6597 H   0  0  0  0  0  0  0  0  0  0  0  0
  152.3164  136.8524  154.7163 H   0  0  0  0  0  0  0  0  0  0  0  0
  152.3890  138.2487  153.6732 H   0  0  0  0  0  0  0  0  0  0  0  0
  152.5926  138.1170  156.6591 H   0  0  0  0  0  0  0  0  0  0  0  0
  153.3835  139.1869  155.5336 H   0  0  0  0  0  0  0  0  0  0  0  0
  150.6869  139.4466  156.8659 H   0  0  0  0  0  0  0  0  0  0  0  0
  151.9280  140.6514  156.6513 H   0  0  0  0  0  0  0  0  0  0  0  0
  151.3828  140.7688  154.2102 H   0  0  0  0  0  0  0  0  0  0  0  0
  150.0673  139.4291  153.2067 H   0  0  0  0  0  0  0  0  0  0  0  0
  1  2  2  0  0  0  0
  2  3  1  0  0  0  0
  2  9  1  0  0  0  0
  3  4  1  0  0  0  0
  3 19  1  0  0  0  0
  3 20  1  0  0  0  0
  4  8  1  0  0  0  0
  4  5  1  0  0  0  0
  5  6  2  0  0  0  0
  5 21  1  0  0  0  0
  6  7  1  0  0  0  0
  6 22  1  0  0  0  0
  7  8  2  0  0  0  0
  7 23  1  0  0  0  0
  9 10  1  0  0  0  0
  9 24  1  0  0  0  0
 10 18  1  0  0  0  0
 10 11  1  0  0  0  0
 10 25  1  0  0  0  0
 11 12  1  0  0  0  0
 11 26  1  0  0  0  0
 11 27  1  0  0  0  0
 12 13  1  0  0  0  0
 12 28  1  0  0  0  0
 12 29  1  0  0  0  0
 13 18  1  0  0  0  0
 13 14  1  0  0  0  0
 13 39  1  0  0  0  0
 14 15  1  0  0  0  0
 14 30  1  0  0  0  0
 14 31  1  0  0  0  0
 15 16  1  0  0  0  0
 15 32  1  0  0  0  0
 15 33  1  0  0  0  0
 16 17  1  0  0  0  0
 16 34  1  0  0  0  0
 16 35  1  0  0  0  0
 17 18  1  0  0  0  0
 17 36  1  0  0  0  0
 17 37  1  0  0  0  0
 18 38  1  0  0  0  0
M  CHG  1  13   1
M  END
> <s_m_source_file>
AV-unprocessed.smi

> <i_m_source_file_index>
2171

> <i_lp_mmshare_version>
43012

> <i_f3d_flags>
0

> <s_epik_input>
bjFbY0hdW2NIXVtjSF1uMVtDSDJdQyg9TylbTkhdW0NASF0oW0NIMl1bQ0gyXTIpW0NAQEhdKE4yMylbQ0gyXVtDSDJdW0NIMl1bQ0gyXTM=

> <s_epik_cmdline>
J2VwaWtfcHl0aG9uJywgJy1waCcsICc3LjAnLCAnLXRuJywgJzgnLCAnLW1hJywgJzIwMCcsICctbWV0YWxfYmluZGluZycsICctaW1hZScsICc8aW5maWxlLm1hZT4nLCAnLW9tYWUnLCAnPG91dGZpbGUubWFlPic=

> <r_lp_tautomer_probability>
1

> <r_epik_Ionization_Penalty>
0.00204179

> <r_epik_Ionization_Penalty_Charging>
0.00203239

> <r_epik_Ionization_Penalty_Neutral>
9.40205e-06

> <r_epik_State_Penalty>
0.00138983

> <r_epik_Charging_Adjusted_Penalty>
0.00342221

> <i_epik_Tot_Q>
1

> <i_epik_Tot_abs_Q>
1

> <r_epik_Metal_State_Penalty>
-0

> <b_epik_Metal_Only>
0

> <s_lp_Force_Field>
OPLS_2005

> <r_lp_Energy>
41.0306

> <b_lp_Chiralities_Consistent>
1

> <s_lp_Variant>
AV-unprocessed.smi:2171-7

> <Gold.Version>
5.8.1

> <Gold.Id.Protein>
6NUR|6NUR_protein|mol2

> <Gold.PLP.Fitness>
40.8832

> <Gold.PLP.PLP>
-36.0272

> <Gold.PLP.part.hbond>
-3.0000

> <Gold.PLP.part.metal>
0.0000

> <Gold.PLP.part.buried>
-2.0959

> <Gold.PLP.part.nonpolar>
-32.4312

> <Gold.PLP.part.repulsive>
0.3116

> <Gold.PLP.ligand.clash>
0.0000

> <Gold.PLP.ligand.torsion>
0.1723

> <Gold.PLP.Chemscore.Hbond>
1.7325

> <Gold.PLP.Chemscore.CHOScore>
0.0000

> <Gold.PLP.Chemscore.Metal>
0.0000

> <Gold.Chemscore.Hbonds>
donor molecule, donor type, donor heavy atom, donor atom, acceptor molecule, acceptor atom, score
      L1  H     9    24       P1  8028  0.56
      L1  H    13    39       P1  7957  0.63
      P1  H  6933  6945       L1     8  0.05

> <Gold.PLP.Chemscore.Internal.Correction>
0.0031

> <Gold.Rescore>
     Score         DG    S(hbond)    S(metal)    S(lipo)     H(rot)  DE(clash)    DE(int)     intcor
     14.63     -18.25       1.61        0.00      94.90       1.44       1.76       1.87       ----

> <Gold.Chemscore.Fitness>
14.6271

> <Gold.Chemscore.DG>
-18.2550

> <Gold.Chemscore.ZeroCoef>
-5.4800

> <Gold.Chemscore.Hbond>
1.6051

> <Gold.Chemscore.Metal>
0.0000

> <Gold.Chemscore.Lipo>
94.8967

> <Gold.Chemscore.Internal_Hbond>
0.0000

> <Gold.Chemscore.DEClash>
1.7596

> <Gold.Chemscore.DEInternal>
1.8683

> <Gold.Chemscore.Rot>
1.4410

> <Gold.Chemscore.Internal.Correction>
   9.000000E+99

> <Gold.Chemscore.Hbonds>
donor molecule, donor type, donor heavy atom, donor atom, acceptor molecule, acceptor atom, score
      L1  H     9    24       P1  8028  0.56
      L1  H    13    39       P1  7957  0.61
      P1  H  6933  6945       L1     8  0.01

> <Gold.Chemscore.Hbond.Weighted>
-5.3610

> <Gold.Chemscore.Metal.Weighted>
-0.0000

> <Gold.Chemscore.Lipo.Weighted>
-11.1029

> <Gold.Chemscore.Internal_Hbond.Weighted>
0.0000

> <Gold.Chemscore.DEClash.Weighted>
1.7596

> <Gold.Chemscore.DEInternal.Weighted>
1.8683

> <Gold.Chemscore.Rot.Weighted>
3.6889

> <Gold.Chemscore.Internal.Correction.Weighted>
   9.000000E+99

> <Gold.Protein.RotatedTorsions>
[ 6907 6896 6895 6894 ] final -116.38 input  -60.11 | X-H torsion
[ 7974 7965 7964 7962 ] final  106.89 input  175.53 | X-H torsion
[ 8008 7997 7996 7995 ] final   69.34 input   59.86 | X-H torsion
[ 10167 10162 10161 10158 ] final  -62.68 input  -65.29 | X-H torsion
[ 10718 10713 10712 10709 ] final  -71.79 input   66.30 | X-H torsion
[ 10763 10752 10751 10750 ] final   38.78 input  -60.55 | X-H torsion
[ 11005 11000 10999 10996 ] final  172.84 input  -57.11 | X-H torsion

> <Gold.Protein.ActiveResidues>
 VAL166  LYS551  ARG553  GLY616  TRP617  ASP618  TYR619  PRO620  LYS621  CYS622 
 ASP623  PHE694  ASN695  SER759  ASP760  ASP761  ALA762  ILE779  LEU786  VAL792 
 PHE793  MET794  SER795  GLU796  ALA797  LYS798  CYS799  TRP800  GLU811  SER814 

> <Gold.Protein.RotatedAtoms>
  150.8051  133.8525  159.3209 H   0  0  0  0  0  0  0  0  0  0  0  0  # atno 6907 bound_to 6896
  151.6326  135.1019  160.0134 H   0  0  0  0  0  0  0  0  0  0  0  0  # atno 6908 bound_to 6896
  152.4141  133.6970  159.6459 H   0  0  0  0  0  0  0  0  0  0  0  0  # atno 6909 bound_to 6896
  145.3007  139.2570  143.3815 H   0  0  0  0  0  0  0  0  0  0  0  0  # atno 7974 bound_to 7965
  155.7221  140.3493  155.5021 H   0  0  0  0  0  0  0  0  0  0  0  0  # atno 8008 bound_to 7997
  155.9260  140.1075  157.1191 H   0  0  0  0  0  0  0  0  0  0  0  0  # atno 8009 bound_to 7997
  154.4077  140.1240  156.4727 H   0  0  0  0  0  0  0  0  0  0  0  0  # atno 8010 bound_to 7997
  140.5922  143.2344  151.6114 H   0  0  0  0  0  0  0  0  0  0  0  0  # atno 10167 bound_to 10162
  156.0347  130.4358  150.2496 H   0  0  0  0  0  0  0  0  0  0  0  0  # atno 10718 bound_to 10713
  152.9989  135.6239  154.2360 H   0  0  0  0  0  0  0  0  0  0  0  0  # atno 10763 bound_to 10752
  154.2102  135.2800  155.2963 H   0  0  0  0  0  0  0  0  0  0  0  0  # atno 10764 bound_to 10752
  154.5613  135.5704  153.7069 H   0  0  0  0  0  0  0  0  0  0  0  0  # atno 10765 bound_to 10752
  140.3340  134.7333  157.4155 H   0  0  0  0  0  0  0  0  0  0  0  0  # atno 11005 bound_to 11000
  146.3153  140.3520  142.8657 LP  0  0  0  0  0  0  0  0  0  0  0  0  # atno 17320 bound_to 7965
  144.9096  140.7741  143.5816 LP  0  0  0  0  0  0  0  0  0  0  0  0  # atno 17321 bound_to 7965
  139.5235  144.3131  152.0975 LP  0  0  0  0  0  0  0  0  0  0  0  0  # atno 17342 bound_to 10162
  140.2298  144.4380  150.6305 LP  0  0  0  0  0  0  0  0  0  0  0  0  # atno 17343 bound_to 10162
  157.0596  131.0086  151.3227 LP  0  0  0  0  0  0  0  0  0  0  0  0  # atno 17370 bound_to 10713
  157.5080  130.7921  149.7674 LP  0  0  0  0  0  0  0  0  0  0  0  0  # atno 17371 bound_to 10713
  140.0836  134.5697  155.8515 LP  0  0  0  0  0  0  0  0  0  0  0  0  # atno 17394 bound_to 11000
  141.2056  133.6648  156.6190 LP  0  0  0  0  0  0  0  0  0  0  0  0  # atno 17395 bound_to 11000

$$$$
