AV-unprocessed.smi:651|AV-procd|sdf|3189|dock5
  -GOLD-   22720 0113D 1   1.00000     0.00000
 Structure written by MMmdl.
 39 40  0  0  0  0  0  0  0  0  2 V2000
  152.1608  145.3259  158.6188 C   0  0  0  0  0  0  0  0  0  0  0  0
  151.9926  143.8569  158.2935 C   0  0  0  0  0  0  0  0  0  0  0  0
  152.7916  142.8566  158.8877 C   0  0  0  0  0  0  0  0  0  0  0  0
  152.5791  141.5071  158.5373 C   0  0  0  0  0  0  0  0  0  0  0  0
  151.5713  141.1840  157.6014 C   0  0  0  0  0  0  0  0  0  0  0  0
  151.3115  139.7384  157.2106 C   0  0  0  0  0  0  0  0  0  0  0  0
  150.5371  139.6522  155.8928 C   0  0  0  0  0  0  0  0  0  0  0  0
  150.9374  140.2662  154.9048 O   0  0  0  0  0  0  0  0  0  0  0  0
  149.4247  138.9008  155.8962 N   0  0  0  0  0  0  0  0  0  0  0  0
  148.5284  138.7015  154.7562 C   0  0  1  0  0  0  0  0  0  0  0  0
  147.3447  137.7919  155.1418 C   0  0  0  0  0  0  0  0  0  0  0  0
  146.0712  138.4776  154.6355 C   0  0  0  0  0  0  0  0  0  0  0  0
  146.5466  139.5513  153.6552 C   0  0  0  0  0  0  0  0  0  0  0  0
  147.9186  140.0074  154.1747 C   0  0  1  0  0  0  0  0  0  0  0  0
  147.7637  141.1697  155.1801 C   0  0  0  0  0  0  0  0  0  0  0  0
  148.4260  142.2968  154.9081 N   0  0  0  0  0  0  0  0  0  0  0  0
  147.0673  141.0525  156.1875 O   0  0  0  0  0  0  0  0  0  0  0  0
  150.8067  142.2281  157.0364 C   0  0  0  0  0  0  0  0  0  0  0  0
  151.0412  143.5082  157.3987 N   0  3  0  0  0  0  0  0  0  0  0  0
  152.7908  145.4627  159.4984 H   0  0  0  0  0  0  0  0  0  0  0  0
  151.1936  145.7874  158.8201 H   0  0  0  0  0  0  0  0  0  0  0  0
  152.6248  145.8477  157.7814 H   0  0  0  0  0  0  0  0  0  0  0  0
  153.5573  143.1166  159.6043 H   0  0  0  0  0  0  0  0  0  0  0  0
  153.1800  140.7293  158.9862 H   0  0  0  0  0  0  0  0  0  0  0  0
  152.2545  139.1998  157.1087 H   0  0  0  0  0  0  0  0  0  0  0  0
  150.7494  139.2442  158.0044 H   0  0  0  0  0  0  0  0  0  0  0  0
  149.1643  138.4446  156.7583 H   0  0  0  0  0  0  0  0  0  0  0  0
  149.0767  138.2009  153.9555 H   0  0  0  0  0  0  0  0  0  0  0  0
  147.4620  136.8121  154.6775 H   0  0  0  0  0  0  0  0  0  0  0  0
  147.2789  137.6277  156.2184 H   0  0  0  0  0  0  0  0  0  0  0  0
  145.3778  137.7748  154.1728 H   0  0  0  0  0  0  0  0  0  0  0  0
  145.5491  138.9455  155.4710 H   0  0  0  0  0  0  0  0  0  0  0  0
  146.6648  139.1139  152.6630 H   0  0  0  0  0  0  0  0  0  0  0  0
  145.8259  140.3653  153.5614 H   0  0  0  0  0  0  0  0  0  0  0  0
  148.5315  140.3579  153.3423 H   0  0  0  0  0  0  0  0  0  0  0  0
  148.3625  143.0845  155.5370 H   0  0  0  0  0  0  0  0  0  0  0  0
  148.9940  142.3559  154.0752 H   0  0  0  0  0  0  0  0  0  0  0  0
  150.0167  142.0798  156.3144 H   0  0  0  0  0  0  0  0  0  0  0  0
  150.4743  144.2451  156.9784 H   0  0  0  0  0  0  0  0  0  0  0  0
  1  2  1  0  0  0  0
  1 20  1  0  0  0  0
  1 21  1  0  0  0  0
  1 22  1  0  0  0  0
  2 19  1  0  0  0  0
  2  3  2  0  0  0  0
  3  4  1  0  0  0  0
  3 23  1  0  0  0  0
  4  5  2  0  0  0  0
  4 24  1  0  0  0  0
  5  6  1  0  0  0  0
  5 18  1  0  0  0  0
  6  7  1  0  0  0  0
  6 25  1  0  0  0  0
  6 26  1  0  0  0  0
  7  8  2  0  0  0  0
  7  9  1  0  0  0  0
  9 10  1  0  0  0  0
  9 27  1  0  0  0  0
 10 14  1  0  0  0  0
 10 11  1  0  0  0  0
 10 28  1  0  0  0  0
 11 12  1  0  0  0  0
 11 29  1  0  0  0  0
 11 30  1  0  0  0  0
 12 13  1  0  0  0  0
 12 31  1  0  0  0  0
 12 32  1  0  0  0  0
 13 14  1  0  0  0  0
 13 33  1  0  0  0  0
 13 34  1  0  0  0  0
 14 15  1  0  0  0  0
 14 35  1  0  0  0  0
 15 16  1  0  0  0  0
 15 17  2  0  0  0  0
 16 36  1  0  0  0  0
 16 37  1  0  0  0  0
 18 19  2  0  0  0  0
 18 38  1  0  0  0  0
 19 39  1  0  0  0  0
M  CHG  1  19   1
M  END
> <s_m_source_file>
AV-unprocessed.smi

> <i_m_source_file_index>
651

> <i_lp_mmshare_version>
43012

> <i_f3d_flags>
0

> <s_epik_input>
W0NIM11jMVtjSF1bY0hdYyhbY0hdbjEpW0NIMl1DKD1PKVtOSF1bQ0BASF0yW0NIMl1bQ0gyXVtDSDJdW0NASF0yQyg9TylbTkgyXQ==

> <s_epik_cmdline>
J2VwaWtfcHl0aG9uJywgJy1waCcsICc3LjAnLCAnLXRuJywgJzgnLCAnLW1hJywgJzIwMCcsICctbWV0YWxfYmluZGluZycsICctaW1hZScsICc8aW5maWxlLm1hZT4nLCAnLW9tYWUnLCAnPG91dGZpbGUubWFlPic=

> <r_epik_Ionization_Penalty>
2.14971

> <r_epik_Ionization_Penalty_Charging>
2.14971

> <r_epik_Ionization_Penalty_Neutral>
1.65229e-07

> <r_epik_State_Penalty>
2.28946

> <r_epik_Charging_Adjusted_Penalty>
4.43917

> <i_epik_Tot_Q>
1

> <i_epik_Tot_abs_Q>
1

> <r_epik_Metal_State_Penalty>
2.30508

> <b_epik_Metal_Only>
0

> <s_lp_Force_Field>
OPLS_2005

> <r_lp_Energy>
19.7283

> <b_lp_Chiralities_Consistent>
1

> <s_lp_Variant>
AV-unprocessed.smi:651-6

> <Gold.Version>
5.8.1

> <Gold.Id.Protein>
6NUR|6NUR_protein|mol2

> <Gold.PLP.Fitness>
44.5754

> <Gold.PLP.PLP>
-33.3083

> <Gold.PLP.part.hbond>
-3.0000

> <Gold.PLP.part.metal>
0.0000

> <Gold.PLP.part.buried>
-3.5330

> <Gold.PLP.part.nonpolar>
-28.2692

> <Gold.PLP.part.repulsive>
0.9979

> <Gold.PLP.ligand.clash>
0.0000

> <Gold.PLP.ligand.torsion>
0.3405

> <Gold.PLP.Chemscore.Hbond>
3.9745

> <Gold.PLP.Chemscore.CHOScore>
0.0000

> <Gold.PLP.Chemscore.Metal>
0.0000

> <Gold.Chemscore.Hbonds>
donor molecule, donor type, donor heavy atom, donor atom, acceptor molecule, acceptor atom, score
      L1  H    16    36       P1  8028  0.80
      L1  H    19    39       P1  8028  1.62
      P1  H  7989  7998       L1     8  1.00

> <Gold.PLP.Chemscore.Internal.Correction>
0.0245

> <Gold.Rescore>
     Score         DG    S(hbond)    S(metal)    S(lipo)     H(rot)  DE(clash)    DE(int)     intcor
     17.61     -19.49       2.86        0.00      82.69       2.04       0.35       1.54       ----

> <Gold.Chemscore.Fitness>
17.6098

> <Gold.Chemscore.DG>
-19.4923

> <Gold.Chemscore.ZeroCoef>
-5.4800

> <Gold.Chemscore.Hbond>
2.8612

> <Gold.Chemscore.Metal>
0.0000

> <Gold.Chemscore.Lipo>
82.6892

> <Gold.Chemscore.Internal_Hbond>
0.0000

> <Gold.Chemscore.DEClash>
0.3462

> <Gold.Chemscore.DEInternal>
1.5363

> <Gold.Chemscore.Rot>
2.0386

> <Gold.Chemscore.Internal.Correction>
   9.000000E+99

> <Gold.Chemscore.Hbonds>
donor molecule, donor type, donor heavy atom, donor atom, acceptor molecule, acceptor atom, score
      L1  H    16    36       P1  8028  0.78
      L1  H    19    39       P1  8028  0.73
      P1  H  7989  7998       L1     8  0.99

> <Gold.Chemscore.Hbond.Weighted>
-9.5564

> <Gold.Chemscore.Metal.Weighted>
-0.0000

> <Gold.Chemscore.Lipo.Weighted>
-9.6746

> <Gold.Chemscore.Internal_Hbond.Weighted>
0.0000

> <Gold.Chemscore.DEClash.Weighted>
0.3462

> <Gold.Chemscore.DEInternal.Weighted>
1.5363

> <Gold.Chemscore.Rot.Weighted>
5.2188

> <Gold.Chemscore.Internal.Correction.Weighted>
   9.000000E+99

> <Gold.Protein.RotatedTorsions>
[ 6907 6896 6895 6894 ] final  -41.50 input  -60.11 | X-H torsion
[ 7974 7965 7964 7962 ] final  171.23 input  175.53 | X-H torsion
[ 8008 7997 7996 7995 ] final  157.24 input   59.86 | X-H torsion
[ 10167 10162 10161 10158 ] final  144.44 input  -65.29 | X-H torsion
[ 10718 10713 10712 10709 ] final  -54.06 input   66.30 | X-H torsion
[ 10763 10752 10751 10750 ] final   19.44 input  -60.55 | X-H torsion
[ 11005 11000 10999 10996 ] final  135.18 input  -57.11 | X-H torsion

> <Gold.Protein.ActiveResidues>
 VAL166  LYS551  ARG553  GLY616  TRP617  ASP618  TYR619  PRO620  LYS621  CYS622 
 ASP623  PHE694  ASN695  SER759  ASP760  ASP761  ALA762  ILE779  LEU786  VAL792 
 PHE793  MET794  SER795  GLU796  ALA797  LYS798  CYS799  TRP800  GLU811  SER814 

> <Gold.Protein.RotatedAtoms>
  150.9660  134.9041  159.7758 H   0  0  0  0  0  0  0  0  0  0  0  0  # atno 6907 bound_to 6896
  152.5173  134.3607  159.9293 H   0  0  0  0  0  0  0  0  0  0  0  0  # atno 6908 bound_to 6896
  151.3617  133.3846  159.2725 H   0  0  0  0  0  0  0  0  0  0  0  0  # atno 6909 bound_to 6896
  144.7301  139.9319  143.6425 H   0  0  0  0  0  0  0  0  0  0  0  0  # atno 7974 bound_to 7965
  156.2376  140.1891  156.7078 H   0  0  0  0  0  0  0  0  0  0  0  0  # atno 8008 bound_to 7997
  154.6135  140.0618  156.9551 H   0  0  0  0  0  0  0  0  0  0  0  0  # atno 8009 bound_to 7997
  155.1977  140.3289  155.4350 H   0  0  0  0  0  0  0  0  0  0  0  0  # atno 8010 bound_to 7997
  139.4947  144.5972  151.6558 H   0  0  0  0  0  0  0  0  0  0  0  0  # atno 10167 bound_to 10162
  156.1483  130.4152  149.9988 H   0  0  0  0  0  0  0  0  0  0  0  0  # atno 10718 bound_to 10713
  153.1162  135.6708  153.9415 H   0  0  0  0  0  0  0  0  0  0  0  0  # atno 10763 bound_to 10752
  153.8944  135.3043  155.3449 H   0  0  0  0  0  0  0  0  0  0  0  0  # atno 10764 bound_to 10752
  154.7578  135.5003  153.9485 H   0  0  0  0  0  0  0  0  0  0  0  0  # atno 10765 bound_to 10752
  139.9963  134.9496  156.9971 H   0  0  0  0  0  0  0  0  0  0  0  0  # atno 11005 bound_to 11000
  146.0851  139.3839  143.0440 LP  0  0  0  0  0  0  0  0  0  0  0  0  # atno 17320 bound_to 7965
  145.7788  140.9865  143.1110 LP  0  0  0  0  0  0  0  0  0  0  0  0  # atno 17321 bound_to 7965
  140.5613  144.0264  150.6171 LP  0  0  0  0  0  0  0  0  0  0  0  0  # atno 17342 bound_to 10162
  140.3351  143.3054  152.0647 LP  0  0  0  0  0  0  0  0  0  0  0  0  # atno 17343 bound_to 10162
  156.7853  130.9236  151.3646 LP  0  0  0  0  0  0  0  0  0  0  0  0  # atno 17370 bound_to 10713
  157.6635  130.8987  149.9881 LP  0  0  0  0  0  0  0  0  0  0  0  0  # atno 17371 bound_to 10713
  140.4812  134.1287  155.7217 LP  0  0  0  0  0  0  0  0  0  0  0  0  # atno 17394 bound_to 11000
  141.1607  133.8798  157.1856 LP  0  0  0  0  0  0  0  0  0  0  0  0  # atno 17395 bound_to 11000

$$$$
