AV-unprocessed.smi:12|AV-procd|sdf|67|dock3
  -GOLD-   2262015183D 1   1.00000     0.00000
 Structure written by MMmdl.
 41 44  0  0  0  0  0  0  0  0  1 V2000
  151.8725  142.2781  159.4882 C   0  0  0  0  0  0  0  0  0  0  0  0
  151.4697  141.6980  158.1445 C   0  0  0  0  0  0  0  0  0  0  0  0
  150.4652  142.2322  157.4101 C   0  0  0  0  0  0  0  0  0  0  0  0
  150.1386  141.6674  156.2090 N   0  0  0  0  0  0  0  0  0  0  0  0
  150.8564  140.5465  155.7456 C   0  0  0  0  0  0  0  0  0  0  0  0
  151.8281  139.9762  156.3876 N   0  0  0  0  0  0  0  0  0  0  0  0
  152.2023  140.5114  157.6351 C   0  0  0  0  0  0  0  0  0  0  0  0
  153.1171  140.0044  158.2830 O   0  0  0  0  0  0  0  0  0  0  0  0
  150.3629  140.1849  154.5310 O   0  0  0  0  0  0  0  0  0  0  0  0
  149.3408  141.1064  154.1118 C   0  0  1  0  0  0  0  0  0  0  0  0
  147.9785  140.4393  153.9796 C   0  0  1  0  0  0  0  0  0  0  0  0
  148.0686  139.1556  153.3946 O   0  0  0  0  0  0  0  0  0  0  0  0
  147.4490  140.4635  155.4132 C   0  0  2  0  0  0  0  0  0  0  0  0
  145.9258  140.3277  155.5341 C   0  0  0  0  0  0  0  0  0  0  0  0
  145.3108  141.5518  155.1662 O   0  0  0  0  0  0  0  0  0  0  0  0
  145.1371  142.5238  156.0825 C   0  0  0  0  0  0  0  0  0  0  0  0
  145.3479  142.3712  157.2873 O   0  0  0  0  0  0  0  0  0  0  0  0
  144.6627  143.8055  155.4846 C   0  0  0  0  0  0  0  0  0  0  0  0
  144.8177  144.0212  154.0951 C   0  0  0  0  0  0  0  0  0  0  0  0
  144.3793  145.2210  153.5019 C   0  0  0  0  0  0  0  0  0  0  0  0
  143.7800  146.2198  154.2910 C   0  0  0  0  0  0  0  0  0  0  0  0
  143.6197  146.0176  155.6741 C   0  0  0  0  0  0  0  0  0  0  0  0
  144.0577  144.8185  156.2695 C   0  0  0  0  0  0  0  0  0  0  0  0
  147.8486  141.7639  155.8370 O   0  0  0  0  0  0  0  0  0  0  0  0
  149.0899  142.0893  155.2771 C   0  0  1  0  0  0  0  0  0  0  0  0
  151.2623  143.1442  159.7461 H   0  0  0  0  0  0  0  0  0  0  0  0
  152.9158  142.5948  159.4697 H   0  0  0  0  0  0  0  0  0  0  0  0
  151.7517  141.5333  160.2755 H   0  0  0  0  0  0  0  0  0  0  0  0
  149.9155  143.0936  157.7610 H   0  0  0  0  0  0  0  0  0  0  0  0
  149.6452  141.6382  153.2096 H   0  0  0  0  0  0  0  0  0  0  0  0
  147.3395  141.0613  153.3508 H   0  0  0  0  0  0  0  0  0  0  0  0
  148.7474  139.1720  152.7371 H   0  0  0  0  0  0  0  0  0  0  0  0
  147.9530  139.7180  156.0310 H   0  0  0  0  0  0  0  0  0  0  0  0
  145.5712  139.5355  154.8735 H   0  0  0  0  0  0  0  0  0  0  0  0
  145.6482  140.0542  156.5530 H   0  0  0  0  0  0  0  0  0  0  0  0
  145.2749  143.2688  153.4687 H   0  0  0  0  0  0  0  0  0  0  0  0
  144.5035  145.3747  152.4402 H   0  0  0  0  0  0  0  0  0  0  0  0
  143.4438  147.1397  153.8355 H   0  0  0  0  0  0  0  0  0  0  0  0
  143.1598  146.7838  156.2806 H   0  0  0  0  0  0  0  0  0  0  0  0
  143.9189  144.6965  157.3339 H   0  0  0  0  0  0  0  0  0  0  0  0
  149.2593  143.1477  155.0769 H   0  0  0  0  0  0  0  0  0  0  0  0
  1  2  1  0  0  0  0
  1 26  1  0  0  0  0
  1 27  1  0  0  0  0
  1 28  1  0  0  0  0
  2  7  1  0  0  0  0
  2  3  2  0  0  0  0
  3  4  1  0  0  0  0
  3 29  1  0  0  0  0
  4 25  1  0  0  0  0
  4  5  1  0  0  0  0
  5  6  2  0  0  0  0
  5  9  1  0  0  0  0
  6  7  1  0  0  0  0
  7  8  2  0  0  0  0
  9 10  1  0  0  0  0
 10 25  1  0  0  0  0
 10 11  1  0  0  0  0
 10 30  1  0  0  0  0
 11 12  1  0  0  0  0
 11 13  1  0  0  0  0
 11 31  1  0  0  0  0
 12 32  1  0  0  0  0
 13 14  1  0  0  0  0
 13 24  1  0  0  0  0
 13 33  1  0  0  0  0
 14 15  1  0  0  0  0
 14 34  1  0  0  0  0
 14 35  1  0  0  0  0
 15 16  1  0  0  0  0
 16 17  2  0  0  0  0
 16 18  1  0  0  0  0
 18 23  1  0  0  0  0
 18 19  2  0  0  0  0
 19 20  1  0  0  0  0
 19 36  1  0  0  0  0
 20 21  2  0  0  0  0
 20 37  1  0  0  0  0
 21 22  1  0  0  0  0
 21 38  1  0  0  0  0
 22 23  2  0  0  0  0
 22 39  1  0  0  0  0
 23 40  1  0  0  0  0
 24 25  1  0  0  0  0
 25 41  1  0  0  0  0
M  END
> <s_m_source_file>
AV-unprocessed.smi

> <i_m_source_file_index>
12

> <i_lp_mmshare_version>
43012

> <i_f3d_flags>
0

> <s_epik_input>
W0NIM11jKFtjSF0xKWMoPU8pbmMobjEyKU9bQ0BIXTNbQ0BASF0yT1tDQEBIXShbQ0BASF0zW09IXSlbQ0gyXU9DKD1PKWM0W2NIXVtjSF1bY0hdW2NIXVtjSF00

> <s_epik_cmdline>
J2VwaWtfcHl0aG9uJywgJy1waCcsICc3LjAnLCAnLXRuJywgJzgnLCAnLW1hJywgJzIwMCcsICctbWV0YWxfYmluZGluZycsICctaW1hZScsICc8aW5maWxlLm1hZT4nLCAnLW9tYWUnLCAnPG91dGZpbGUubWFlPic=

> <r_lp_tautomer_probability>
0.933681

> <r_epik_Ionization_Penalty>
0.00399549

> <r_epik_Ionization_Penalty_Charging>
3.09373e-09

> <r_epik_Ionization_Penalty_Neutral>
0.00399549

> <r_epik_State_Penalty>
0.00284953

> <r_epik_Charging_Adjusted_Penalty>
0.00284953

> <i_epik_Tot_Q>
0

> <i_epik_Tot_abs_Q>
0

> <r_epik_Metal_State_Penalty>
-0

> <b_epik_Metal_Only>
0

> <s_epik_Chemistry_Notes>
This compound has an ester and may undergo hydrolysis at high or low pH. This compound contains an acetal/aminal-like group ( X-CH(R)-Y where X, Y are N, S, or O) that may be acid/base labile, releasing an aldehyde.

> <s_lp_Force_Field>
OPLS_2005

> <r_lp_Energy>
46.3609

> <b_lp_Chiralities_Consistent>
1

> <s_lp_Variant>
AV-unprocessed.smi:12-7

> <Gold.Version>
5.8.1

> <Gold.Id.Protein>
6NUR|6NUR_protein|mol2

> <Gold.PLP.Fitness>
43.8138

> <Gold.PLP.PLP>
-36.1538

> <Gold.PLP.part.hbond>
-3.0000

> <Gold.PLP.part.metal>
0.0000

> <Gold.PLP.part.buried>
2.7968

> <Gold.PLP.part.nonpolar>
-35.6069

> <Gold.PLP.part.repulsive>
0.4747

> <Gold.PLP.ligand.clash>
0.0000

> <Gold.PLP.ligand.torsion>
0.5424

> <Gold.PLP.Chemscore.Hbond>
2.7500

> <Gold.PLP.Chemscore.CHOScore>
0.1592

> <Gold.PLP.Chemscore.Metal>
0.0000

> <Gold.Chemscore.Hbonds>
donor molecule, donor type, donor heavy atom, donor atom, acceptor molecule, acceptor atom, score
      L1  H    12    32       P1  7957  1.00
      P1  H  7989  7998       L1     9  0.75
      P1  H  7997  8010       L1     8  1.00
      L1  C     3    29       P1  8028  0.16

> <Gold.PLP.Chemscore.Internal.Correction>
0.0173

> <Gold.Rescore>
     Score         DG    S(hbond)    S(metal)    S(lipo)     H(rot)  DE(clash)    DE(int)     intcor
     10.64     -14.53       1.82        0.00      73.05       2.18       1.56       2.33       ----

> <Gold.Chemscore.Fitness>
10.6385

> <Gold.Chemscore.DG>
-14.5325

> <Gold.Chemscore.ZeroCoef>
-5.4800

> <Gold.Chemscore.Hbond>
1.8224

> <Gold.Chemscore.Metal>
0.0000

> <Gold.Chemscore.Lipo>
73.0463

> <Gold.Chemscore.Internal_Hbond>
0.0000

> <Gold.Chemscore.DEClash>
1.5632

> <Gold.Chemscore.DEInternal>
2.3308

> <Gold.Chemscore.Rot>
2.1800

> <Gold.Chemscore.Internal.Correction>
   9.000000E+99

> <Gold.Chemscore.Hbonds>
donor molecule, donor type, donor heavy atom, donor atom, acceptor molecule, acceptor atom, score
      L1  H    12    32       P1  7957  0.92
      P1  H  7989  7998       L1     9  0.02
      P1  H  7997  8010       L1     8  0.38

> <Gold.Chemscore.Hbond.Weighted>
-6.0868

> <Gold.Chemscore.Metal.Weighted>
-0.0000

> <Gold.Chemscore.Lipo.Weighted>
-8.5464

> <Gold.Chemscore.Internal_Hbond.Weighted>
0.0000

> <Gold.Chemscore.DEClash.Weighted>
1.5632

> <Gold.Chemscore.DEInternal.Weighted>
2.3308

> <Gold.Chemscore.Rot.Weighted>
5.5807

> <Gold.Chemscore.Internal.Correction.Weighted>
   9.000000E+99

> <Gold.Protein.RotatedTorsions>
[ 6907 6896 6895 6894 ] final -176.97 input  -60.11 | X-H torsion
[ 7974 7965 7964 7962 ] final  161.09 input  175.53 | X-H torsion
[ 8008 7997 7996 7995 ] final   32.29 input   59.86 | X-H torsion
[ 10167 10162 10161 10158 ] final  -22.04 input  -65.29 | X-H torsion
[ 10718 10713 10712 10709 ] final  125.23 input   66.30 | X-H torsion
[ 10763 10752 10751 10750 ] final   47.70 input  -60.55 | X-H torsion
[ 11005 11000 10999 10996 ] final  120.51 input  -57.11 | X-H torsion

> <Gold.Protein.ActiveResidues>
 VAL166  LYS551  ARG553  GLY616  TRP617  ASP618  TYR619  PRO620  LYS621  CYS622 
 ASP623  PHE694  ASN695  SER759  ASP760  ASP761  ALA762  ILE779  LEU786  VAL792 
 PHE793  MET794  SER795  GLU796  ALA797  LYS798  CYS799  TRP800  GLU811  SER814 

> <Gold.Protein.RotatedAtoms>
  151.6134  133.3345  159.3072 H   0  0  0  0  0  0  0  0  0  0  0  0  # atno 6907 bound_to 6896
  150.8144  134.7321  159.6728 H   0  0  0  0  0  0  0  0  0  0  0  0  # atno 6908 bound_to 6896
  152.4240  134.5907  160.0025 H   0  0  0  0  0  0  0  0  0  0  0  0  # atno 6909 bound_to 6896
  144.7703  139.7849  143.6299 H   0  0  0  0  0  0  0  0  0  0  0  0  # atno 7974 bound_to 7965
  155.1202  140.3247  155.4499 H   0  0  0  0  0  0  0  0  0  0  0  0  # atno 8008 bound_to 7997
  156.2665  140.2028  156.6272 H   0  0  0  0  0  0  0  0  0  0  0  0  # atno 8009 bound_to 7997
  154.6690  140.0538  157.0131 H   0  0  0  0  0  0  0  0  0  0  0  0  # atno 8010 bound_to 7997
  140.7284  143.4572  151.0432 H   0  0  0  0  0  0  0  0  0  0  0  0  # atno 10167 bound_to 10162
  157.5520  131.1093  150.8685 H   0  0  0  0  0  0  0  0  0  0  0  0  # atno 10718 bound_to 10713
  152.9797  135.5968  154.3806 H   0  0  0  0  0  0  0  0  0  0  0  0  # atno 10763 bound_to 10752
  154.3471  135.2767  155.2394 H   0  0  0  0  0  0  0  0  0  0  0  0  # atno 10764 bound_to 10752
  154.4450  135.6004  153.6209 H   0  0  0  0  0  0  0  0  0  0  0  0  # atno 10765 bound_to 10752
  139.9188  134.9635  156.7818 H   0  0  0  0  0  0  0  0  0  0  0  0  # atno 11005 bound_to 11000
  146.1845  139.5053  142.9845 LP  0  0  0  0  0  0  0  0  0  0  0  0  # atno 17320 bound_to 7965
  145.6343  141.0297  143.1846 LP  0  0  0  0  0  0  0  0  0  0  0  0  # atno 17321 bound_to 7965
  139.8253  143.7764  152.3178 LP  0  0  0  0  0  0  0  0  0  0  0  0  # atno 17342 bound_to 10162
  139.7861  144.7427  151.0020 LP  0  0  0  0  0  0  0  0  0  0  0  0  # atno 17343 bound_to 10162
  156.9207  130.5314  149.5279 LP  0  0  0  0  0  0  0  0  0  0  0  0  # atno 17370 bound_to 10713
  156.0585  130.5642  150.9143 LP  0  0  0  0  0  0  0  0  0  0  0  0  # atno 17371 bound_to 10713
  140.6538  133.9707  155.7769 LP  0  0  0  0  0  0  0  0  0  0  0  0  # atno 17394 bound_to 11000
  141.0690  134.0234  157.3553 LP  0  0  0  0  0  0  0  0  0  0  0  0  # atno 17395 bound_to 11000

$$$$
