#       Name:                AV-unprocessed.smi:2329
#       Creating user name   scv26
#       Creation time:       Fri Mar 27 12:52:49 2020


#       File generated by GOLD software.
#

@<TRIPOS>MOLECULE
AV-unprocessed.smi:2329
    50    53     1
SMALL
NO_CHARGES


@<TRIPOS>ATOM
      1 ****        -5.8903   2.6734   0.3988 C.3            1 S1                 0.0000
      2 ****        -5.1276   1.3883   0.1553 C.ar           1 S1                 0.0000
      3 ****        -5.8011   0.1573   0.0296 C.ar           1 S1                 0.0000
      4 ****        -5.0325  -0.9983  -0.1977 C.ar           1 S1                 0.0000
      5 ****        -3.6326  -0.8767  -0.2887 C.ar           1 S1                 0.0000
      6 ****        -3.0356   0.3964  -0.1502 C.ar           1 S1                 0.0000
      7 ****        -1.6204   0.4103  -0.2576 N.am           1 S1                 0.0000
      8 ****        -0.7804   1.4564  -0.1268 C.2            1 S1                 0.0000
      9 ****        -1.1279   2.6145   0.0972 O.2            1 S1                 0.0000
     10 ****         0.5179   1.1302  -0.2513 N.am           1 S1                 0.0000
     11 ****         1.6778   2.0320  -0.1619 C.3            1 S1                 0.0000
     12 ****         1.9510   2.8365  -1.4382 C.3            1 S1                 0.0000
     13 ****         1.1596   3.2426  -2.6295 C.3            1 S1                 0.0000
     14 ****         2.2520   2.9663  -3.6957 C.3            1 S1                 0.0000
     15 ****         3.3146   2.2624  -3.0044 O.3            1 S1                 0.0000
     16 ****         2.6572   1.5960  -1.9434 C.3            1 S1                 0.0000
     17 ****         3.0623   1.3427  -0.4716 C.3            1 S1                 0.0000
     18 ****         4.3465   2.0382   0.0262 C.3            1 S1                 0.0000
     19 ****         5.1952   1.0088   0.7748 C.3            1 S1                 0.0000
     20 ****         4.7306  -0.3347   0.2326 C.3            1 S1                 0.0000
     21 ****         3.2457  -0.1177  -0.0412 C.3            1 S1                 0.0000
     22 ****        -3.7851   1.5054   0.0686 N.ar           1 S1                 0.0000
     23 ****        -6.9610   2.4874   0.4877 H              1 S1                 0.0000
     24 ****        -5.7325   3.3689  -0.4261 H              1 S1                 0.0000
     25 ****        -5.5501   3.1486   1.3193 H              1 S1                 0.0000
     26 ****        -6.8770   0.0970   0.1043 H              1 S1                 0.0000
     27 ****        -5.5078  -1.9626  -0.3008 H              1 S1                 0.0000
     28 ****        -3.0270  -1.7545  -0.4628 H              1 S1                 0.0000
     29 ****        -1.1898  -0.4847  -0.4368 H              1 S1                 0.0000
     30 ****         0.7278   0.1538  -0.4017 H              1 S1                 0.0000
     31 ****         1.6972   2.6326   0.7488 H              1 S1                 0.0000
     32 ****         2.6526   3.6390  -1.1885 H              1 S1                 0.0000
     33 ****         0.2797   2.6151  -2.7770 H              1 S1                 0.0000
     34 ****         0.8535   4.2885  -2.5996 H              1 S1                 0.0000
     35 ****         1.8556   2.3546  -4.5071 H              1 S1                 0.0000
     36 ****         2.6441   3.8882  -4.1262 H              1 S1                 0.0000
     37 ****         1.9873   0.8238  -2.3353 H              1 S1                 0.0000
     38 ****         4.9188   2.4219  -0.8193 H              1 S1                 0.0000
     39 ****         4.1308   2.8931   0.6680 H              1 S1                 0.0000
     40 ****         6.2658   1.1689   0.6435 H              1 S1                 0.0000
     41 ****         4.9789   1.0642   1.8424 H              1 S1                 0.0000
     42 ****         5.2493  -0.5539  -0.7016 H              1 S1                 0.0000
     43 ****         4.9177  -1.1579   0.9227 H              1 S1                 0.0000
     44 ****         2.6854  -0.3085   0.8751 H              1 S1                 0.0000
     45 ****         2.8776  -0.8224  -0.7873 H              1 S1                 0.0000
     46 ****        -2.0982   2.8351   0.1959 LP             1 S1                 0.0000
     47 ****        -0.4401   3.3356   0.1806 LP             1 S1                 0.0000
     48 ****         3.9950   2.9050  -2.6520 LP             1 S1                 0.0000
     49 ****         3.7600   1.6061  -3.6134 LP             1 S1                 0.0000
     50 ****        -3.3484   2.3998   0.1647 LP             1 S1                 0.0000
@<TRIPOS>BOND
    1    1    2 1     
    2    1   23 1     
    3    1   24 1     
    4    1   25 1     
    5    2   22 ar    
    6    2    3 ar    
    7    3    4 ar    
    8    3   26 1     
    9    4    5 ar    
   10    4   27 1     
   11    5    6 ar    
   12    5   28 1     
   13    6    7 1     
   14    6   22 ar    
   15    7    8 am    
   16    7   29 1     
   17    8    9 2     
   18    8   10 am    
   19   10   11 1     
   20   10   30 1     
   21   11   17 1     
   22   11   12 1     
   23   11   31 1     
   24   12   16 1     
   25   12   13 1     
   26   12   32 1     
   27   13   14 1     
   28   13   33 1     
   29   13   34 1     
   30   14   15 1     
   31   14   35 1     
   32   14   36 1     
   33   15   16 1     
   34   16   17 1     
   35   16   37 1     
   36   17   21 1     
   37   17   18 1     
   38   18   19 1     
   39   18   38 1     
   40   18   39 1     
   41   19   20 1     
   42   19   40 1     
   43   19   41 1     
   44   20   21 1     
   45   20   42 1     
   46   20   43 1     
   47   21   44 1     
   48   21   45 1     
   49    9   46 1     
   50    9   47 1     
   51   15   48 1     
   52   15   49 1     
   53   22   50 1     
@<TRIPOS>SUBSTRUCTURE
      1 S1             1
@<TRIPOS>SET
LONE_PAIRS      STATIC     ATOMS    <user>   **** ""
5 46 47 48 49 50
DONOR_HYDROGENS      STATIC     ATOMS    <user>   **** ""
2 29 30
ATOM$BLUE        STATIC     ATOMS    COLORGROUP SYSTEM
5 46 47 48 49 50
ATOM$RED        STATIC     ATOMS    COLORGROUP SYSTEM
2 29 30
