AV-unprocessed.smi:520|AV-procd|sdf|2798|dock1
  -GOLD-   2262023273D 1   1.00000     0.00000
 Structure written by MMmdl.
 40 42  0  0  0  0  0  0  0  0  2 V2000
  153.1047  141.5908  160.7079 C   0  0  0  0  0  0  0  0  0  0  0  0
  152.4497  142.6402  159.8292 C   0  0  0  0  0  0  0  0  0  0  0  0
  152.4855  143.9957  160.2185 C   0  0  0  0  0  0  0  0  0  0  0  0
  151.8780  144.9798  159.4179 C   0  0  0  0  0  0  0  0  0  0  0  0
  151.2328  144.6105  158.2244 C   0  0  0  0  0  0  0  0  0  0  0  0
  151.1965  143.2596  157.8298 C   0  0  0  0  0  0  0  0  0  0  0  0
  151.8062  142.2587  158.6286 C   0  0  0  0  0  0  0  0  0  0  0  0
  151.8126  140.9185  158.3029 O   0  0  0  0  0  0  0  0  0  0  0  0
  150.8117  140.4260  157.4223 C   0  0  0  0  0  0  0  0  0  0  0  0
  151.2687  140.6169  155.9686 C   0  0  0  0  0  0  0  0  0  0  0  0
  150.3676  139.9614  155.0087 N   0  0  0  0  0  0  0  0  0  0  0  0
  150.5332  138.8106  154.2956 C   0  0  0  0  0  0  0  0  0  0  0  0
  151.7230  137.9054  154.3338 C   0  0  0  0  0  0  0  0  0  0  0  0
  151.4179  136.5674  153.9989 O   0  0  0  0  0  0  0  0  0  0  0  0
  149.4106  138.6417  153.5395 N   0  3  0  0  0  0  0  0  0  0  0  0
  148.5232  139.6939  153.7659 C   0  0  0  0  0  0  0  0  0  0  0  0
  147.2678  139.9592  153.2276 C   0  0  0  0  0  0  0  0  0  0  0  0
  146.6245  141.1334  153.6709 C   0  0  0  0  0  0  0  0  0  0  0  0
  147.2285  141.9898  154.6141 C   0  0  0  0  0  0  0  0  0  0  0  0
  148.4999  141.7080  155.1554 C   0  0  0  0  0  0  0  0  0  0  0  0
  149.1307  140.5463  154.7104 C   0  0  0  0  0  0  0  0  0  0  0  0
  153.5205  142.0312  161.6145 H   0  0  0  0  0  0  0  0  0  0  0  0
  153.9131  141.0964  160.1686 H   0  0  0  0  0  0  0  0  0  0  0  0
  152.3756  140.8359  161.0036 H   0  0  0  0  0  0  0  0  0  0  0  0
  152.9791  144.2870  161.1340 H   0  0  0  0  0  0  0  0  0  0  0  0
  151.9069  146.0166  159.7193 H   0  0  0  0  0  0  0  0  0  0  0  0
  150.7651  145.3647  157.6087 H   0  0  0  0  0  0  0  0  0  0  0  0
  150.6942  143.0178  156.9057 H   0  0  0  0  0  0  0  0  0  0  0  0
  150.6336  139.3663  157.6114 H   0  0  0  0  0  0  0  0  0  0  0  0
  149.8736  140.9600  157.5801 H   0  0  0  0  0  0  0  0  0  0  0  0
  151.2995  141.6790  155.7241 H   0  0  0  0  0  0  0  0  0  0  0  0
  152.2815  140.2407  155.8241 H   0  0  0  0  0  0  0  0  0  0  0  0
  152.4786  138.2780  153.6419 H   0  0  0  0  0  0  0  0  0  0  0  0
  152.1574  137.9290  155.3334 H   0  0  0  0  0  0  0  0  0  0  0  0
  151.2815  136.5148  153.0651 H   0  0  0  0  0  0  0  0  0  0  0  0
  146.8040  139.3051  152.5038 H   0  0  0  0  0  0  0  0  0  0  0  0
  145.6493  141.3828  153.2787 H   0  0  0  0  0  0  0  0  0  0  0  0
  146.7069  142.8825  154.9279 H   0  0  0  0  0  0  0  0  0  0  0  0
  148.9556  142.3756  155.8715 H   0  0  0  0  0  0  0  0  0  0  0  0
  149.2715  137.8608  152.9110 H   0  0  0  0  0  0  0  0  0  0  0  0
  1  2  1  0  0  0  0
  1 22  1  0  0  0  0
  1 23  1  0  0  0  0
  1 24  1  0  0  0  0
  2  7  1  0  0  0  0
  2  3  2  0  0  0  0
  3  4  1  0  0  0  0
  3 25  1  0  0  0  0
  4  5  2  0  0  0  0
  4 26  1  0  0  0  0
  5  6  1  0  0  0  0
  5 27  1  0  0  0  0
  6  7  2  0  0  0  0
  6 28  1  0  0  0  0
  7  8  1  0  0  0  0
  8  9  1  0  0  0  0
  9 10  1  0  0  0  0
  9 29  1  0  0  0  0
  9 30  1  0  0  0  0
 10 11  1  0  0  0  0
 10 31  1  0  0  0  0
 10 32  1  0  0  0  0
 11 21  1  0  0  0  0
 11 12  1  0  0  0  0
 12 13  1  0  0  0  0
 12 15  2  0  0  0  0
 13 14  1  0  0  0  0
 13 33  1  0  0  0  0
 13 34  1  0  0  0  0
 14 35  1  0  0  0  0
 15 16  1  0  0  0  0
 15 40  1  0  0  0  0
 16 21  2  0  0  0  0
 16 17  1  0  0  0  0
 17 18  2  0  0  0  0
 17 36  1  0  0  0  0
 18 19  1  0  0  0  0
 18 37  1  0  0  0  0
 19 20  2  0  0  0  0
 19 38  1  0  0  0  0
 20 21  1  0  0  0  0
 20 39  1  0  0  0  0
M  CHG  1  15   1
M  END
> <s_m_source_file>
AV-unprocessed.smi

> <i_m_source_file_index>
520

> <i_lp_mmshare_version>
43012

> <i_f3d_flags>
0

> <s_epik_input>
W0NIM11jMVtjSF1bY0hdW2NIXVtjSF1jMU9bQ0gyXVtDSDJdbihjKG4yKVtDSDJdW09IXSljKGMyMylbY0hdW2NIXVtjSF1bY0hdMw==

> <s_epik_cmdline>
J2VwaWtfcHl0aG9uJywgJy1waCcsICc3LjAnLCAnLXRuJywgJzgnLCAnLW1hJywgJzIwMCcsICctbWV0YWxfYmluZGluZycsICctaW1hZScsICc8aW5maWxlLm1hZT4nLCAnLW9tYWUnLCAnPG91dGZpbGUubWFlPic=

> <r_lp_tautomer_probability>
1

> <r_epik_Ionization_Penalty>
1.50718

> <r_epik_Ionization_Penalty_Charging>
1.50632

> <r_epik_Ionization_Penalty_Neutral>
0.000855784

> <r_epik_State_Penalty>
1.59697

> <r_epik_Charging_Adjusted_Penalty>
3.1033

> <i_epik_Tot_Q>
1

> <i_epik_Tot_abs_Q>
1

> <r_epik_Metal_State_Penalty>
5.64835

> <b_epik_Metal_Only>
0

> <s_lp_Force_Field>
OPLS_2005

> <r_lp_Energy>
16.7784

> <b_lp_Chiralities_Consistent>
1

> <s_lp_Variant>
AV-unprocessed.smi:520-2

> <Gold.Version>
5.8.1

> <Gold.Id.Protein>
6NUR|6NUR_protein|mol2

> <Gold.PLP.Fitness>
64.8741

> <Gold.PLP.PLP>
-54.8945

> <Gold.PLP.part.hbond>
-4.3773

> <Gold.PLP.part.metal>
0.0000

> <Gold.PLP.part.buried>
0.7770

> <Gold.PLP.part.nonpolar>
-51.1460

> <Gold.PLP.part.repulsive>
0.0755

> <Gold.PLP.ligand.clash>
0.0000

> <Gold.PLP.ligand.torsion>
1.0456

> <Gold.PLP.Chemscore.Hbond>
4.0000

> <Gold.PLP.Chemscore.CHOScore>
0.0000

> <Gold.PLP.Chemscore.Metal>
0.0000

> <Gold.Chemscore.Hbonds>
donor molecule, donor type, donor heavy atom, donor atom, acceptor molecule, acceptor atom, score
      L1  H    14    35       P1  7949  1.00
      L1  H    15    40       P1  7948  2.00
      P1  H 10752 10764       L1    14  1.00

> <Gold.PLP.Chemscore.Internal.Correction>
0.0709

> <Gold.Rescore>
     Score         DG    S(hbond)    S(metal)    S(lipo)     H(rot)  DE(clash)    DE(int)     intcor
     23.30     -24.43       2.72        0.00     132.94       2.23       0.28       0.85       ----

> <Gold.Chemscore.Fitness>
23.2960

> <Gold.Chemscore.DG>
-24.4255

> <Gold.Chemscore.ZeroCoef>
-5.4800

> <Gold.Chemscore.Hbond>
2.7214

> <Gold.Chemscore.Metal>
0.0000

> <Gold.Chemscore.Lipo>
132.9431

> <Gold.Chemscore.Internal_Hbond>
0.0000

> <Gold.Chemscore.DEClash>
0.2831

> <Gold.Chemscore.DEInternal>
0.8465

> <Gold.Chemscore.Rot>
2.2258

> <Gold.Chemscore.Internal.Correction>
   9.000000E+99

> <Gold.Chemscore.Hbonds>
donor molecule, donor type, donor heavy atom, donor atom, acceptor molecule, acceptor atom, score
      L1  H    14    35       P1  7949  0.65
      L1  H    15    40       P1  7948  0.96
      P1  H 10752 10764       L1    14  0.30

> <Gold.Chemscore.Hbond.Weighted>
-9.0894

> <Gold.Chemscore.Metal.Weighted>
-0.0000

> <Gold.Chemscore.Lipo.Weighted>
-15.5543

> <Gold.Chemscore.Internal_Hbond.Weighted>
0.0000

> <Gold.Chemscore.DEClash.Weighted>
0.2831

> <Gold.Chemscore.DEInternal.Weighted>
0.8465

> <Gold.Chemscore.Rot.Weighted>
5.6982

> <Gold.Chemscore.Internal.Correction.Weighted>
   9.000000E+99

> <Gold.Protein.RotatedTorsions>
[ 6907 6896 6895 6894 ] final  101.63 input  -60.11 | X-H torsion
[ 7974 7965 7964 7962 ] final    3.82 input  175.53 | X-H torsion
[ 8008 7997 7996 7995 ] final   68.16 input   59.86 | X-H torsion
[ 10167 10162 10161 10158 ] final  -20.98 input  -65.29 | X-H torsion
[ 10718 10713 10712 10709 ] final   70.23 input   66.30 | X-H torsion
[ 10763 10752 10751 10750 ] final  -71.44 input  -60.55 | X-H torsion
[ 11005 11000 10999 10996 ] final   76.87 input  -57.11 | X-H torsion

> <Gold.Protein.ActiveResidues>
 VAL166  LYS551  ARG553  GLY616  TRP617  ASP618  TYR619  PRO620  LYS621  CYS622 
 ASP623  PHE694  ASN695  SER759  ASP760  ASP761  ALA762  ILE779  LEU786  VAL792 
 PHE793  MET794  SER795  GLU796  ALA797  LYS798  CYS799  TRP800  GLU811  SER814 

> <Gold.Protein.RotatedAtoms>
  152.5344  134.0096  159.7932 H   0  0  0  0  0  0  0  0  0  0  0  0  # atno 6907 bound_to 6896
  151.0301  133.5790  159.2669 H   0  0  0  0  0  0  0  0  0  0  0  0  # atno 6908 bound_to 6896
  151.2798  135.0717  159.9218 H   0  0  0  0  0  0  0  0  0  0  0  0  # atno 6909 bound_to 6896
  146.2445  140.0628  142.8367 H   0  0  0  0  0  0  0  0  0  0  0  0  # atno 7974 bound_to 7965
  155.7041  140.3495  155.4945 H   0  0  0  0  0  0  0  0  0  0  0  0  # atno 8008 bound_to 7997
  155.9414  140.1102  157.1074 H   0  0  0  0  0  0  0  0  0  0  0  0  # atno 8009 bound_to 7997
  154.4103  140.1212  156.4919 H   0  0  0  0  0  0  0  0  0  0  0  0  # atno 8010 bound_to 7997
  140.7279  143.4671  151.0299 H   0  0  0  0  0  0  0  0  0  0  0  0  # atno 10167 bound_to 10162
  157.6389  130.9466  150.0622 H   0  0  0  0  0  0  0  0  0  0  0  0  # atno 10718 bound_to 10713
  154.4318  135.5962  153.6073 H   0  0  0  0  0  0  0  0  0  0  0  0  # atno 10763 bound_to 10752
  152.9799  135.5977  154.3830 H   0  0  0  0  0  0  0  0  0  0  0  0  # atno 10764 bound_to 10752
  154.3669  135.2841  155.2267 H   0  0  0  0  0  0  0  0  0  0  0  0  # atno 10765 bound_to 10752
  139.9279  134.7636  156.1450 H   0  0  0  0  0  0  0  0  0  0  0  0  # atno 11005 bound_to 11000
  145.0885  140.9269  143.4783 LP  0  0  0  0  0  0  0  0  0  0  0  0  # atno 17320 bound_to 7965
  145.0795  139.2970  143.5790 LP  0  0  0  0  0  0  0  0  0  0  0  0  # atno 17321 bound_to 7965
  139.8360  143.7627  152.3180 LP  0  0  0  0  0  0  0  0  0  0  0  0  # atno 17342 bound_to 10162
  139.7759  144.7461  151.0157 LP  0  0  0  0  0  0  0  0  0  0  0  0  # atno 17343 bound_to 10162
  156.1651  130.3645  149.9243 LP  0  0  0  0  0  0  0  0  0  0  0  0  # atno 17370 bound_to 10713
  156.7232  130.9015  151.3620 LP  0  0  0  0  0  0  0  0  0  0  0  0  # atno 17371 bound_to 10713
  141.0849  133.6738  156.2415 LP  0  0  0  0  0  0  0  0  0  0  0  0  # atno 17394 bound_to 11000
  140.6284  134.5290  157.5556 LP  0  0  0  0  0  0  0  0  0  0  0  0  # atno 17395 bound_to 11000

$$$$
