AV-unprocessed.smi:947|AV-procd|sdf|4238|dock4
  -GOLD-   22720 2153D 1   1.00000     0.00000
 Structure written by MMmdl.
 25 26  0  0  0  0  0  0  0  0  2 V2000
  154.8258  139.8876  160.2449 C   0  0  0  0  0  0  0  0  0  0  0  0
  153.9466  141.1022  160.2972 C   0  0  0  0  0  0  0  0  0  0  0  0
  153.7003  141.9652  161.4017 C   0  0  0  0  0  0  0  0  0  0  0  0
  152.8313  142.8997  160.9135 C   0  0  0  0  0  0  0  0  0  0  0  0
  152.1940  144.0694  161.5892 C   0  0  0  0  0  0  0  0  0  0  0  0
  152.6069  142.5810  159.5867 N   0  0  0  0  0  0  0  0  0  0  0  0
  151.7602  143.2600  158.6453 C   0  0  0  0  0  0  0  0  0  0  0  0
  151.7447  144.7855  158.5140 C   0  0  0  0  0  0  0  0  0  0  0  0
  150.3238  144.6821  158.2088 N   0  3  0  0  0  0  0  0  0  0  0  0
  150.2649  143.4093  158.9172 C   0  0  0  0  0  0  0  0  0  0  0  0
  153.2850  141.4749  159.2136 N   0  0  0  0  0  0  0  0  0  0  0  0
  155.3596  139.7471  161.1850 H   0  0  0  0  0  0  0  0  0  0  0  0
  155.5690  139.9737  159.4519 H   0  0  0  0  0  0  0  0  0  0  0  0
  154.2400  138.9871  160.0590 H   0  0  0  0  0  0  0  0  0  0  0  0
  154.0998  141.9046  162.4034 H   0  0  0  0  0  0  0  0  0  0  0  0
  152.4957  144.1253  162.6354 H   0  0  0  0  0  0  0  0  0  0  0  0
  151.1071  143.9927  161.5581 H   0  0  0  0  0  0  0  0  0  0  0  0
  152.4842  145.0032  161.1079 H   0  0  0  0  0  0  0  0  0  0  0  0
  151.9378  142.7938  157.6735 H   0  0  0  0  0  0  0  0  0  0  0  0
  151.9164  145.3198  159.4506 H   0  0  0  0  0  0  0  0  0  0  0  0
  152.3470  145.1840  157.6970 H   0  0  0  0  0  0  0  0  0  0  0  0
  149.7599  145.4107  158.6234 H   0  0  0  0  0  0  0  0  0  0  0  0
  149.6313  142.6628  158.4376 H   0  0  0  0  0  0  0  0  0  0  0  0
  150.0250  143.5363  159.9747 H   0  0  0  0  0  0  0  0  0  0  0  0
  150.1668  144.5624  157.2183 H   0  0  0  0  0  0  0  0  0  0  0  0
  1  2  1  0  0  0  0
  1 12  1  0  0  0  0
  1 13  1  0  0  0  0
  1 14  1  0  0  0  0
  2 11  2  0  0  0  0
  2  3  1  0  0  0  0
  3  4  2  0  0  0  0
  3 15  1  0  0  0  0
  4  5  1  0  0  0  0
  4  6  1  0  0  0  0
  5 16  1  0  0  0  0
  5 17  1  0  0  0  0
  5 18  1  0  0  0  0
  6  7  1  0  0  0  0
  6 11  1  0  0  0  0
  7 10  1  0  0  0  0
  7  8  1  0  0  0  0
  7 19  1  0  0  0  0
  8  9  1  0  0  0  0
  8 20  1  0  0  0  0
  8 21  1  0  0  0  0
  9 10  1  0  0  0  0
  9 22  1  0  0  0  0
  9 25  1  0  0  0  0
 10 23  1  0  0  0  0
 10 24  1  0  0  0  0
M  CHG  1   9   1
M  END
> <s_m_source_file>
AV-unprocessed.smi

> <i_m_source_file_index>
947

> <i_lp_mmshare_version>
43012

> <i_f3d_flags>
0

> <s_epik_input>
W0NIM11jMVtjSF1jKFtDSDNdKW4objEpW0NIXTJbQ0gyXVtOSF1bQ0gyXTI=

> <s_epik_cmdline>
J2VwaWtfcHl0aG9uJywgJy1waCcsICc3LjAnLCAnLXRuJywgJzgnLCAnLW1hJywgJzIwMCcsICctbWV0YWxfYmluZGluZycsICctaW1hZScsICc8aW5maWxlLm1hZT4nLCAnLW9tYWUnLCAnPG91dGZpbGUubWFlPic=

> <r_lp_tautomer_probability>
1

> <r_epik_Ionization_Penalty>
0.0172231

> <r_epik_Ionization_Penalty_Charging>
0.0170392

> <r_epik_Ionization_Penalty_Neutral>
0.000183908

> <r_epik_State_Penalty>
0.00361255

> <r_epik_Charging_Adjusted_Penalty>
0.0206517

> <i_epik_Tot_Q>
1

> <i_epik_Tot_abs_Q>
1

> <r_epik_Metal_State_Penalty>
-0

> <b_epik_Metal_Only>
0

> <s_lp_Force_Field>
OPLS_2005

> <r_lp_Energy>
12.8102

> <b_lp_Chiralities_Consistent>
1

> <s_lp_Variant>
AV-unprocessed.smi:947-1

> <Gold.Version>
5.8.1

> <Gold.Id.Protein>
6NUR|6NUR_protein|mol2

> <Gold.PLP.Fitness>
37.8402

> <Gold.PLP.PLP>
-32.3594

> <Gold.PLP.part.hbond>
-2.0000

> <Gold.PLP.part.metal>
0.0000

> <Gold.PLP.part.buried>
-2.7086

> <Gold.PLP.part.nonpolar>
-27.0759

> <Gold.PLP.part.repulsive>
0.1422

> <Gold.PLP.ligand.clash>
0.0000

> <Gold.PLP.ligand.torsion>
0.2058

> <Gold.PLP.Chemscore.Hbond>
1.8822

> <Gold.PLP.Chemscore.CHOScore>
0.0000

> <Gold.PLP.Chemscore.Metal>
0.0000

> <Gold.Chemscore.Hbonds>
donor molecule, donor type, donor heavy atom, donor atom, acceptor molecule, acceptor atom, score
      L1  H     9    22       P1  8029  0.10
      L1  H     9    25       P1  8028  1.89

> <Gold.PLP.Chemscore.Internal.Correction>
0.2457

> <Gold.Rescore>
     Score         DG    S(hbond)    S(metal)    S(lipo)     H(rot)  DE(clash)    DE(int)     intcor
     14.98     -15.52       0.86        0.00      83.02       1.00       0.33       0.21       ----

> <Gold.Chemscore.Fitness>
14.9751

> <Gold.Chemscore.DG>
-15.5216

> <Gold.Chemscore.ZeroCoef>
-5.4800

> <Gold.Chemscore.Hbond>
0.8647

> <Gold.Chemscore.Metal>
0.0000

> <Gold.Chemscore.Lipo>
83.0202

> <Gold.Chemscore.Internal_Hbond>
0.0000

> <Gold.Chemscore.DEClash>
0.3326

> <Gold.Chemscore.DEInternal>
0.2138

> <Gold.Chemscore.Rot>
1.0000

> <Gold.Chemscore.Internal.Correction>
   9.000000E+99

> <Gold.Chemscore.Hbonds>
donor molecule, donor type, donor heavy atom, donor atom, acceptor molecule, acceptor atom, score
      L1  H     9    22       P1  8029  0.04
      L1  H     9    25       P1  8028  0.40

> <Gold.Chemscore.Hbond.Weighted>
-2.8882

> <Gold.Chemscore.Metal.Weighted>
-0.0000

> <Gold.Chemscore.Lipo.Weighted>
-9.7134

> <Gold.Chemscore.Internal_Hbond.Weighted>
0.0000

> <Gold.Chemscore.DEClash.Weighted>
0.3326

> <Gold.Chemscore.DEInternal.Weighted>
0.2138

> <Gold.Chemscore.Rot.Weighted>
2.5600

> <Gold.Chemscore.Internal.Correction.Weighted>
   9.000000E+99

> <Gold.Protein.RotatedTorsions>
[ 6907 6896 6895 6894 ] final  -80.98 input  -60.11 | X-H torsion
[ 7974 7965 7964 7962 ] final  124.51 input  175.53 | X-H torsion
[ 8008 7997 7996 7995 ] final   76.64 input   59.86 | X-H torsion
[ 10167 10162 10161 10158 ] final -179.40 input  -65.29 | X-H torsion
[ 10718 10713 10712 10709 ] final  -20.92 input   66.30 | X-H torsion
[ 10763 10752 10751 10750 ] final  -68.43 input  -60.55 | X-H torsion
[ 11005 11000 10999 10996 ] final   49.40 input  -57.11 | X-H torsion

> <Gold.Protein.ActiveResidues>
 VAL166  LYS551  ARG553  GLY616  TRP617  ASP618  TYR619  PRO620  LYS621  CYS622 
 ASP623  PHE694  ASN695  SER759  ASP760  ASP761  ALA762  ILE779  LEU786  VAL792 
 PHE793  MET794  SER795  GLU796  ALA797  LYS798  CYS799  TRP800  GLU811  SER814 

> <Gold.Protein.RotatedAtoms>
  150.6920  134.3887  159.5066 H   0  0  0  0  0  0  0  0  0  0  0  0  # atno 6907 bound_to 6896
  152.1679  134.8856  160.0546 H   0  0  0  0  0  0  0  0  0  0  0  0  # atno 6908 bound_to 6896
  151.9893  133.3750  159.4175 H   0  0  0  0  0  0  0  0  0  0  0  0  # atno 6909 bound_to 6896
  145.0835  139.3639  143.4897 H   0  0  0  0  0  0  0  0  0  0  0  0  # atno 7974 bound_to 7965
  155.8303  140.3466  155.5568 H   0  0  0  0  0  0  0  0  0  0  0  0  # atno 8008 bound_to 7997
  155.8249  140.0918  157.1847 H   0  0  0  0  0  0  0  0  0  0  0  0  # atno 8009 bound_to 7997
  154.4004  140.1423  156.3532 H   0  0  0  0  0  0  0  0  0  0  0  0  # atno 8010 bound_to 7997
  139.5388  144.2421  152.0852 H   0  0  0  0  0  0  0  0  0  0  0  0  # atno 10167 bound_to 10162
  156.5253  130.4642  149.6575 H   0  0  0  0  0  0  0  0  0  0  0  0  # atno 10718 bound_to 10713
  154.3890  135.6057  153.5832 H   0  0  0  0  0  0  0  0  0  0  0  0  # atno 10763 bound_to 10752
  152.9787  135.5879  154.4320 H   0  0  0  0  0  0  0  0  0  0  0  0  # atno 10764 bound_to 10752
  154.4101  135.2844  155.2020 H   0  0  0  0  0  0  0  0  0  0  0  0  # atno 10765 bound_to 10752
  140.1106  134.4959  155.8681 H   0  0  0  0  0  0  0  0  0  0  0  0  # atno 11005 bound_to 11000
  146.3531  140.0637  142.8627 LP  0  0  0  0  0  0  0  0  0  0  0  0  # atno 17320 bound_to 7965
  145.1150  140.9428  143.4634 LP  0  0  0  0  0  0  0  0  0  0  0  0  # atno 17321 bound_to 7965
  140.1896  144.4765  150.6486 LP  0  0  0  0  0  0  0  0  0  0  0  0  # atno 17342 bound_to 10162
  140.6608  143.2251  151.5860 LP  0  0  0  0  0  0  0  0  0  0  0  0  # atno 17343 bound_to 10162
  156.3111  130.7229  151.2122 LP  0  0  0  0  0  0  0  0  0  0  0  0  # atno 17370 bound_to 10713
  157.7430  131.0481  150.4978 LP  0  0  0  0  0  0  0  0  0  0  0  0  # atno 17371 bound_to 10713
  141.2129  133.6726  156.6698 LP  0  0  0  0  0  0  0  0  0  0  0  0  # atno 17394 bound_to 11000
  140.3096  134.8097  157.4165 LP  0  0  0  0  0  0  0  0  0  0  0  0  # atno 17395 bound_to 11000

$$$$
