#       Name:                AV-unprocessed.smi:2162
#       Creating user name   scv26
#       Creation time:       Fri Mar 27 11:58:39 2020


#       File generated by GOLD software.
#

@<TRIPOS>MOLECULE
AV-unprocessed.smi:2162
    46    47     1
SMALL
NO_CHARGES


@<TRIPOS>ATOM
      1 ****        -3.8695   2.1512  -5.0586 C.3            1 S1                 0.0000
      2 ****        -3.4246   2.2976  -3.6439 C.2            1 S1                 0.0000
      3 ****        -3.8060   1.4792  -2.6597 N.2            1 S1                 0.0000
      4 ****        -3.2499   1.8269  -1.4248 C.2            1 S1                 0.0000
      5 ****        -3.5605   1.0087  -0.2047 C.3            1 S1                 0.0000
      6 ****        -2.8183  -0.3386  -0.1650 C.3            1 S1                 0.0000
      7 ****        -1.3833  -0.1660  -0.3681 N.am           1 S1                 0.0000
      8 ****        -0.4193  -0.8821   0.2275 C.2            1 S1                 0.0000
      9 ****        -0.6450  -1.7871   1.0315 O.2            1 S1                 0.0000
     10 ****         1.0273  -0.5153  -0.1405 C.3            1 S1                 0.0000
     11 ****         1.7783  -1.7126  -0.7517 C.3            1 S1                 0.0000
     12 ****         2.7888  -2.0948   0.3171 C.2            1 S1                 0.0000
     13 ****         3.4886  -3.1033   0.2354 O.2            1 S1                 0.0000
     14 ****         2.7839  -1.2160   1.3282 N.am           1 S1                 0.0000
     15 ****         3.5891  -1.3209   2.5527 C.3            1 S1                 0.0000
     16 ****         2.8766  -2.2157   3.5795 C.3            1 S1                 0.0000
     17 ****         3.9530   0.0526   3.1453 C.3            1 S1                 0.0000
     18 ****         1.8613  -0.1123   1.0929 C.3            1 S1                 0.0000
     19 ****        -2.4373   2.9315  -1.4892 C.2            1 S1                 0.0000
     20 ****        -2.3378   3.5720  -3.1058 S.3            1 S1                 0.0000
     21 ****        -4.5627   1.3153  -5.1599 H              1 S1                 0.0000
     22 ****        -3.0086   1.9715  -5.7026 H              1 S1                 0.0000
     23 ****        -4.3698   3.0621  -5.3877 H              1 S1                 0.0000
     24 ****        -3.3055   1.5770   0.6907 H              1 S1                 0.0000
     25 ****        -4.6342   0.8282  -0.1406 H              1 S1                 0.0000
     26 ****        -3.0307  -0.8404   0.7803 H              1 S1                 0.0000
     27 ****        -3.1922  -0.9890  -0.9566 H              1 S1                 0.0000
     28 ****        -1.1032   0.5539  -1.0186 H              1 S1                 0.0000
     29 ****         1.0125   0.3111  -0.8537 H              1 S1                 0.0000
     30 ****         1.1339  -2.5601  -0.9915 H              1 S1                 0.0000
     31 ****         2.3054  -1.4229  -1.6611 H              1 S1                 0.0000
     32 ****         4.5319  -1.8049   2.2919 H              1 S1                 0.0000
     33 ****         3.4793  -2.3357   4.4800 H              1 S1                 0.0000
     34 ****         2.6901  -3.2113   3.1755 H              1 S1                 0.0000
     35 ****         1.9164  -1.7916   3.8751 H              1 S1                 0.0000
     36 ****         4.6221  -0.0604   3.9987 H              1 S1                 0.0000
     37 ****         3.0723   0.5929   3.4937 H              1 S1                 0.0000
     38 ****         4.4642   0.6763   2.4115 H              1 S1                 0.0000
     39 ****         2.4253   0.7981   0.8860 H              1 S1                 0.0000
     40 ****         1.2468   0.0726   1.9758 H              1 S1                 0.0000
     41 ****        -1.8898   3.4030  -0.6866 H              1 S1                 0.0000
     42 ****        -4.4220   0.7026  -2.7915 LP             1 S1                 0.0000
     43 ****        -1.5877  -2.0204   1.2702 LP             1 S1                 0.0000
     44 ****         0.1144  -2.2888   1.4458 LP             1 S1                 0.0000
     45 ****         3.4042  -3.7076  -0.5568 LP             1 S1                 0.0000
     46 ****         4.1419  -3.3188   0.9613 LP             1 S1                 0.0000
@<TRIPOS>BOND
    1    1    2 1     
    2    1   21 1     
    3    1   22 1     
    4    1   23 1     
    5    2   20 1     
    6    2    3 2     
    7    3    4 1     
    8    4    5 1     
    9    4   19 2     
   10    5    6 1     
   11    5   24 1     
   12    5   25 1     
   13    6    7 1     
   14    6   26 1     
   15    6   27 1     
   16    7    8 am    
   17    7   28 1     
   18    8    9 2     
   19    8   10 1     
   20   10   18 1     
   21   10   11 1     
   22   10   29 1     
   23   11   12 1     
   24   11   30 1     
   25   11   31 1     
   26   12   13 2     
   27   12   14 am    
   28   14   15 1     
   29   14   18 1     
   30   15   16 1     
   31   15   17 1     
   32   15   32 1     
   33   16   33 1     
   34   16   34 1     
   35   16   35 1     
   36   17   36 1     
   37   17   37 1     
   38   17   38 1     
   39   18   39 1     
   40   18   40 1     
   41   19   20 1     
   42   19   41 1     
   43    3   42 1     
   44    9   43 1     
   45    9   44 1     
   46   13   45 1     
   47   13   46 1     
@<TRIPOS>SUBSTRUCTURE
      1 S1             1
@<TRIPOS>SET
LONE_PAIRS      STATIC     ATOMS    <user>   **** ""
5 42 43 44 45 46
DONOR_HYDROGENS      STATIC     ATOMS    <user>   **** ""
1 28
ATOM$BLUE        STATIC     ATOMS    COLORGROUP SYSTEM
5 42 43 44 45 46
ATOM$RED        STATIC     ATOMS    COLORGROUP SYSTEM
1 28
