AV-unprocessed.smi:2079|AV-procd|sdf|8475|dock2
  -GOLD-   2272011173D 1   1.00000     0.00000
 Structure written by MMmdl.
 42 43  0  0  0  0  0  0  0  0  2 V2000
  151.4644  140.5210  158.3278 C   0  0  0  0  0  0  0  0  0  0  0  0
  151.1638  140.1832  156.9078 C   0  0  0  0  0  0  0  0  0  0  0  0
  150.0066  139.8749  156.2494 C   0  0  0  0  0  0  0  0  0  0  0  0
  150.4435  139.6732  154.9130 C   0  0  0  0  0  0  0  0  0  0  0  0
  149.5233  139.3351  153.8881 N   0  0  0  0  0  0  0  0  0  0  0  0
  148.2638  138.8902  154.0364 C   0  0  0  0  0  0  0  0  0  0  0  0
  147.6906  138.7262  155.1139 O   0  0  0  0  0  0  0  0  0  0  0  0
  147.6871  138.6408  152.8515 N   0  0  0  0  0  0  0  0  0  0  0  0
  146.3353  138.1192  152.6820 C   0  0  0  0  0  0  0  0  0  0  0  0
  146.0206  137.0125  153.7112 C   0  0  0  0  0  0  0  0  0  0  0  0
  146.4991  135.6607  153.2992 N   0  3  2  0  0  0  0  0  0  0  0  0
  145.6234  135.0513  152.2555 C   0  0  0  0  0  0  0  0  0  0  0  0
  146.1812  133.7179  151.7379 C   0  0  0  0  0  0  0  0  0  0  0  0
  146.3752  132.7328  152.8896 C   0  0  0  0  0  0  0  0  0  0  0  0
  147.2797  133.3676  153.9477 C   0  0  0  0  0  0  0  0  0  0  0  0
  146.7238  134.7196  154.4472 C   0  0  1  0  0  0  0  0  0  0  0  0
  147.6824  135.2774  155.5205 C   0  0  0  0  0  0  0  0  0  0  0  0
  151.7493  139.8392  154.7696 N   0  0  0  0  0  0  0  0  0  0  0  0
  152.2177  140.1677  156.0472 O   0  0  0  0  0  0  0  0  0  0  0  0
  150.6079  140.3104  158.9684 H   0  0  0  0  0  0  0  0  0  0  0  0
  151.7103  141.5781  158.4280 H   0  0  0  0  0  0  0  0  0  0  0  0
  152.3111  139.9400  158.6937 H   0  0  0  0  0  0  0  0  0  0  0  0
  149.0100  139.8086  156.6605 H   0  0  0  0  0  0  0  0  0  0  0  0
  149.8667  139.4273  152.9437 H   0  0  0  0  0  0  0  0  0  0  0  0
  148.2257  138.8023  152.0127 H   0  0  0  0  0  0  0  0  0  0  0  0
  145.6627  138.9681  152.7954 H   0  0  0  0  0  0  0  0  0  0  0  0
  146.2051  137.7469  151.6642 H   0  0  0  0  0  0  0  0  0  0  0  0
  146.5015  137.3078  154.6402 H   0  0  0  0  0  0  0  0  0  0  0  0
  144.9496  136.9758  153.9159 H   0  0  0  0  0  0  0  0  0  0  0  0
  144.6213  134.9047  152.6618 H   0  0  0  0  0  0  0  0  0  0  0  0
  145.5216  135.7138  151.3983 H   0  0  0  0  0  0  0  0  0  0  0  0
  145.5045  133.2936  150.9956 H   0  0  0  0  0  0  0  0  0  0  0  0
  147.1319  133.8872  151.2304 H   0  0  0  0  0  0  0  0  0  0  0  0
  145.4104  132.4755  153.3287 H   0  0  0  0  0  0  0  0  0  0  0  0
  146.8134  131.8039  152.5234 H   0  0  0  0  0  0  0  0  0  0  0  0
  147.3914  132.6758  154.7835 H   0  0  0  0  0  0  0  0  0  0  0  0
  148.2787  133.5101  153.5328 H   0  0  0  0  0  0  0  0  0  0  0  0
  145.7585  134.5352  154.9219 H   0  0  0  0  0  0  0  0  0  0  0  0
  147.9500  134.5049  156.2420 H   0  0  0  0  0  0  0  0  0  0  0  0
  147.2349  136.0835  156.1010 H   0  0  0  0  0  0  0  0  0  0  0  0
  148.6082  135.6453  155.0767 H   0  0  0  0  0  0  0  0  0  0  0  0
  147.4039  135.8004  152.8723 H   0  0  0  0  0  0  0  0  0  0  0  0
  1  2  1  0  0  0  0
  1 20  1  0  0  0  0
  1 21  1  0  0  0  0
  1 22  1  0  0  0  0
  2 19  1  0  0  0  0
  2  3  2  0  0  0  0
  3  4  1  0  0  0  0
  3 23  1  0  0  0  0
  4  5  1  0  0  0  0
  4 18  2  0  0  0  0
  5  6  1  0  0  0  0
  5 24  1  0  0  0  0
  6  7  2  0  0  0  0
  6  8  1  0  0  0  0
  8  9  1  0  0  0  0
  8 25  1  0  0  0  0
  9 10  1  0  0  0  0
  9 26  1  0  0  0  0
  9 27  1  0  0  0  0
 10 11  1  0  0  0  0
 10 28  1  0  0  0  0
 10 29  1  0  0  0  0
 11 16  1  0  0  0  0
 11 12  1  0  0  0  0
 11 42  1  0  0  0  0
 12 13  1  0  0  0  0
 12 30  1  0  0  0  0
 12 31  1  0  0  0  0
 13 14  1  0  0  0  0
 13 32  1  0  0  0  0
 13 33  1  0  0  0  0
 14 15  1  0  0  0  0
 14 34  1  0  0  0  0
 14 35  1  0  0  0  0
 15 16  1  0  0  0  0
 15 36  1  0  0  0  0
 15 37  1  0  0  0  0
 16 17  1  0  0  0  0
 16 38  1  0  0  0  0
 17 39  1  0  0  0  0
 17 40  1  0  0  0  0
 17 41  1  0  0  0  0
 18 19  1  0  0  0  0
M  CHG  1  11   1
M  END
> <s_m_source_file>
AV-unprocessed.smi

> <i_m_source_file_index>
2079

> <i_lp_mmshare_version>
43012

> <i_f3d_flags>
0

> <s_epik_input>
W0NIM11jMVtjSF1jKG5vMSlbTkhdQyg9TylbTkhdW0NIMl1bQ0gyXU4yW0NIMl1bQ0gyXVtDSDJdW0NIMl1bQ0BIXTJbQ0gzXQ==

> <s_epik_cmdline>
J2VwaWtfcHl0aG9uJywgJy1waCcsICc3LjAnLCAnLXRuJywgJzgnLCAnLW1hJywgJzIwMCcsICctbWV0YWxfYmluZGluZycsICctaW1hZScsICc8aW5maWxlLm1hZT4nLCAnLW9tYWUnLCAnPG91dGZpbGUubWFlPic=

> <r_epik_Ionization_Penalty>
0.00265971

> <r_epik_Ionization_Penalty_Charging>
0.00262393

> <r_epik_Ionization_Penalty_Neutral>
3.57846e-05

> <r_epik_State_Penalty>
0.00182566

> <r_epik_Charging_Adjusted_Penalty>
0.00444959

> <i_epik_Tot_Q>
1

> <i_epik_Tot_abs_Q>
1

> <r_epik_Metal_State_Penalty>
0.0216344

> <b_epik_Metal_Only>
0

> <s_lp_Force_Field>
OPLS_2005

> <r_lp_Energy>
17.1717

> <b_lp_Chiralities_Consistent>
1

> <s_lp_Variant>
AV-unprocessed.smi:2079-1

> <Gold.Version>
5.8.1

> <Gold.Id.Protein>
6NUR|6NUR_protein|mol2

> <Gold.PLP.Fitness>
44.8892

> <Gold.PLP.PLP>
-27.8796

> <Gold.PLP.part.hbond>
-6.0000

> <Gold.PLP.part.metal>
0.0000

> <Gold.PLP.part.buried>
-4.1566

> <Gold.PLP.part.nonpolar>
-19.1070

> <Gold.PLP.part.repulsive>
0.2939

> <Gold.PLP.ligand.clash>
0.0000

> <Gold.PLP.ligand.torsion>
0.5047

> <Gold.PLP.Chemscore.Hbond>
6.0000

> <Gold.PLP.Chemscore.CHOScore>
0.0000

> <Gold.PLP.Chemscore.Metal>
0.0000

> <Gold.Chemscore.Hbonds>
donor molecule, donor type, donor heavy atom, donor atom, acceptor molecule, acceptor atom, score
      L1  H     5    24       P1  7957  1.00
      L1  H     8    25       P1  7957  0.90
      L1  H    11    42       P1  7948  2.00
      P1  H  7989  7998       L1    18  0.85
      P1  H  7997  8008       L1    19  0.75

> <Gold.PLP.Chemscore.Internal.Correction>
0.0191

> <Gold.Rescore>
     Score         DG    S(hbond)    S(metal)    S(lipo)     H(rot)  DE(clash)    DE(int)     intcor
     18.79     -21.98       4.40        0.00      49.67       1.57       0.07       3.13       ----

> <Gold.Chemscore.Fitness>
18.7882

> <Gold.Chemscore.DG>
-21.9816

> <Gold.Chemscore.ZeroCoef>
-5.4800

> <Gold.Chemscore.Hbond>
4.4039

> <Gold.Chemscore.Metal>
0.0000

> <Gold.Chemscore.Lipo>
49.6660

> <Gold.Chemscore.Internal_Hbond>
0.0000

> <Gold.Chemscore.DEClash>
0.0676

> <Gold.Chemscore.DEInternal>
3.1258

> <Gold.Chemscore.Rot>
1.5697

> <Gold.Chemscore.Internal.Correction>
   9.000000E+99

> <Gold.Chemscore.Hbonds>
donor molecule, donor type, donor heavy atom, donor atom, acceptor molecule, acceptor atom, score
      L1  H     5    24       P1  7957  0.94
      L1  H     8    25       P1  7957  0.78
      L1  H    11    42       P1  7948  1.00
      P1  H  7989  7998       L1    18  0.14
      P1  H  7997  8008       L1    19  0.69

> <Gold.Chemscore.Hbond.Weighted>
-14.7091

> <Gold.Chemscore.Metal.Weighted>
-0.0000

> <Gold.Chemscore.Lipo.Weighted>
-5.8109

> <Gold.Chemscore.Internal_Hbond.Weighted>
0.0000

> <Gold.Chemscore.DEClash.Weighted>
0.0676

> <Gold.Chemscore.DEInternal.Weighted>
3.1258

> <Gold.Chemscore.Rot.Weighted>
4.0185

> <Gold.Chemscore.Internal.Correction.Weighted>
   9.000000E+99

> <Gold.Protein.RotatedTorsions>
[ 6907 6896 6895 6894 ] final   86.96 input  -60.11 | X-H torsion
[ 7974 7965 7964 7962 ] final  106.89 input  175.53 | X-H torsion
[ 8008 7997 7996 7995 ] final  -39.97 input   59.86 | X-H torsion
[ 10167 10162 10161 10158 ] final  176.80 input  -65.29 | X-H torsion
[ 10718 10713 10712 10709 ] final  109.03 input   66.30 | X-H torsion
[ 10763 10752 10751 10750 ] final  -45.06 input  -60.55 | X-H torsion
[ 11005 11000 10999 10996 ] final -137.43 input  -57.11 | X-H torsion

> <Gold.Protein.ActiveResidues>
 VAL166  LYS551  ARG553  GLY616  TRP617  ASP618  TYR619  PRO620  LYS621  CYS622 
 ASP623  PHE694  ASN695  SER759  ASP760  ASP761  ALA762  ILE779  LEU786  VAL792 
 PHE793  MET794  SER795  GLU796  ALA797  LYS798  CYS799  TRP800  GLU811  SER814 

> <Gold.Protein.RotatedAtoms>
  152.5403  134.2350  159.8839 H   0  0  0  0  0  0  0  0  0  0  0  0  # atno 6907 bound_to 6896
  151.2320  133.4438  159.2611 H   0  0  0  0  0  0  0  0  0  0  0  0  # atno 6908 bound_to 6896
  151.0706  134.9809  159.8363 H   0  0  0  0  0  0  0  0  0  0  0  0  # atno 6909 bound_to 6896
  145.3007  139.2570  143.3815 H   0  0  0  0  0  0  0  0  0  0  0  0  # atno 7974 bound_to 7965
  154.4017  140.1537  156.2950 H   0  0  0  0  0  0  0  0  0  0  0  0  # atno 8008 bound_to 7997
  155.8751  140.3447  155.5827 H   0  0  0  0  0  0  0  0  0  0  0  0  # atno 8009 bound_to 7997
  155.7730  140.0833  157.2089 H   0  0  0  0  0  0  0  0  0  0  0  0  # atno 8010 bound_to 7997
  139.5228  144.2873  152.0495 H   0  0  0  0  0  0  0  0  0  0  0  0  # atno 10167 bound_to 10162
  157.6560  131.0905  150.6393 H   0  0  0  0  0  0  0  0  0  0  0  0  # atno 10718 bound_to 10713
  154.0224  135.6667  153.4773 H   0  0  0  0  0  0  0  0  0  0  0  0  # atno 10763 bound_to 10752
  153.0574  135.5047  154.8010 H   0  0  0  0  0  0  0  0  0  0  0  0  # atno 10764 bound_to 10752
  154.6929  135.3064  154.9418 H   0  0  0  0  0  0  0  0  0  0  0  0  # atno 10765 bound_to 10752
  140.8711  134.2049  157.4650 H   0  0  0  0  0  0  0  0  0  0  0  0  # atno 11005 bound_to 11000
  146.3153  140.3520  142.8657 LP  0  0  0  0  0  0  0  0  0  0  0  0  # atno 17320 bound_to 7965
  144.9096  140.7741  143.5816 LP  0  0  0  0  0  0  0  0  0  0  0  0  # atno 17321 bound_to 7965
  140.2325  144.4353  150.6294 LP  0  0  0  0  0  0  0  0  0  0  0  0  # atno 17342 bound_to 10162
  140.6345  143.2192  151.6424 LP  0  0  0  0  0  0  0  0  0  0  0  0  # atno 17343 bound_to 10162
  156.6700  130.4536  149.5660 LP  0  0  0  0  0  0  0  0  0  0  0  0  # atno 17370 bound_to 10713
  156.2005  130.6616  151.1161 LP  0  0  0  0  0  0  0  0  0  0  0  0  # atno 17371 bound_to 10713
  139.8712  134.9775  156.4960 LP  0  0  0  0  0  0  0  0  0  0  0  0  # atno 17394 bound_to 11000
  140.8572  133.8087  155.9228 LP  0  0  0  0  0  0  0  0  0  0  0  0  # atno 17395 bound_to 11000

$$$$
