AV-unprocessed.smi:110|AV-procd|sdf|1077|dock3
  -GOLD-   2262018163D 1   1.00000     0.00000
 Structure written by MMmdl.
 46 50  0  0  0  0  0  0  0  0  1 V2000
  147.2965  136.0855  155.5816 O   0  0  0  0  0  0  0  0  0  0  0  0
  147.2031  136.8485  154.3976 C   0  0  0  0  0  0  0  0  0  0  0  0
  147.6440  138.2990  154.6645 C   0  0  1  0  0  0  0  0  0  0  0  0
  149.0636  138.3914  154.7800 O   0  0  0  0  0  0  0  0  0  0  0  0
  149.5162  139.6441  154.3574 C   0  0  2  0  0  0  0  0  0  0  0  0
  150.1589  140.3315  155.5225 N   0  0  0  0  0  0  0  0  0  0  0  0
  149.8004  141.5444  156.0660 C   0  0  0  0  0  0  0  0  0  0  0  0
  150.5169  141.9376  157.0828 N   0  0  0  0  0  0  0  0  0  0  0  0
  151.4619  140.9320  157.2447 C   0  0  0  0  0  0  0  0  0  0  0  0
  152.5376  140.7108  158.1519 C   0  0  0  0  0  0  0  0  0  0  0  0
  152.8823  141.5481  159.1574 N   0  0  0  0  0  0  0  0  0  0  0  0
  153.3514  140.9626  160.4219 C   0  0  0  0  0  0  0  0  0  0  0  0
  153.1506  142.0143  161.5295 C   0  0  0  0  0  0  0  0  0  0  0  0
  152.6219  143.1655  160.7373 C   0  0  0  0  0  0  0  0  0  0  0  0
  152.2888  144.4460  161.2118 C   0  0  0  0  0  0  0  0  0  0  0  0
  151.8217  145.3990  160.2814 C   0  0  0  0  0  0  0  0  0  0  0  0
  151.7049  145.0640  158.9122 C   0  0  0  0  0  0  0  0  0  0  0  0
  152.0472  143.7713  158.4581 C   0  0  0  0  0  0  0  0  0  0  0  0
  152.4950  142.8186  159.3961 C   0  0  0  0  0  0  0  0  0  0  0  0
  153.2333  139.5518  158.0339 N   0  0  0  0  0  0  0  0  0  0  0  0
  152.9265  138.6819  157.0687 C   0  0  0  0  0  0  0  0  0  0  0  0
  151.9663  138.7650  156.1469 N   0  0  0  0  0  0  0  0  0  0  0  0
  151.2417  139.9137  156.2730 C   0  0  0  0  0  0  0  0  0  0  0  0
  148.3048  140.4278  153.8317 C   0  0  1  0  0  0  0  0  0  0  0  0
  148.5818  141.1797  152.6648 O   0  0  0  0  0  0  0  0  0  0  0  0
  147.3046  139.3091  153.5607 C   0  0  1  0  0  0  0  0  0  0  0  0
  147.4792  138.7259  152.2785 O   0  0  0  0  0  0  0  0  0  0  0  0
  147.1884  138.6522  155.5895 H   0  0  0  0  0  0  0  0  0  0  0  0
  150.3106  139.5156  153.6209 H   0  0  0  0  0  0  0  0  0  0  0  0
  147.9164  141.0861  154.6090 H   0  0  0  0  0  0  0  0  0  0  0  0
  146.2757  139.6620  153.6376 H   0  0  0  0  0  0  0  0  0  0  0  0
  147.2369  135.1701  155.3545 H   0  0  0  0  0  0  0  0  0  0  0  0
  147.7961  136.3910  153.6051 H   0  0  0  0  0  0  0  0  0  0  0  0
  146.1605  136.8260  154.0789 H   0  0  0  0  0  0  0  0  0  0  0  0
  148.9773  142.1324  155.6864 H   0  0  0  0  0  0  0  0  0  0  0  0
  152.7991  140.0499  160.6510 H   0  0  0  0  0  0  0  0  0  0  0  0
  154.4054  140.6989  160.3297 H   0  0  0  0  0  0  0  0  0  0  0  0
  152.4210  141.6928  162.2730 H   0  0  0  0  0  0  0  0  0  0  0  0
  154.0853  142.2748  162.0264 H   0  0  0  0  0  0  0  0  0  0  0  0
  152.3911  144.6950  162.2577 H   0  0  0  0  0  0  0  0  0  0  0  0
  151.5586  146.3917  160.6157 H   0  0  0  0  0  0  0  0  0  0  0  0
  151.3552  145.8035  158.2072 H   0  0  0  0  0  0  0  0  0  0  0  0
  151.9679  143.5249  157.4095 H   0  0  0  0  0  0  0  0  0  0  0  0
  153.5354  137.7908  157.0308 H   0  0  0  0  0  0  0  0  0  0  0  0
  147.9034  141.0059  152.0300 H   0  0  0  0  0  0  0  0  0  0  0  0
  148.1529  138.0657  152.3432 H   0  0  0  0  0  0  0  0  0  0  0  0
  1  2  1  0  0  0  0
  1 32  1  0  0  0  0
  2  3  1  0  0  0  0
  2 33  1  0  0  0  0
  2 34  1  0  0  0  0
  3 28  1  0  0  0  0
  3 26  1  0  0  0  0
  3  4  1  0  0  0  0
  4  5  1  0  0  0  0
  5 29  1  0  0  0  0
  5  6  1  0  0  0  0
  5 24  1  0  0  0  0
  6 23  1  0  0  0  0
  6  7  1  0  0  0  0
  7  8  2  0  0  0  0
  7 35  1  0  0  0  0
  8  9  1  0  0  0  0
  9 23  2  0  0  0  0
  9 10  1  0  0  0  0
 10 11  1  0  0  0  0
 10 20  2  0  0  0  0
 11 19  1  0  0  0  0
 11 12  1  0  0  0  0
 12 13  1  0  0  0  0
 12 36  1  0  0  0  0
 12 37  1  0  0  0  0
 13 14  1  0  0  0  0
 13 38  1  0  0  0  0
 13 39  1  0  0  0  0
 14 19  2  0  0  0  0
 14 15  1  0  0  0  0
 15 16  2  0  0  0  0
 15 40  1  0  0  0  0
 16 17  1  0  0  0  0
 16 41  1  0  0  0  0
 17 18  2  0  0  0  0
 17 42  1  0  0  0  0
 18 19  1  0  0  0  0
 18 43  1  0  0  0  0
 20 21  1  0  0  0  0
 21 22  2  0  0  0  0
 21 44  1  0  0  0  0
 22 23  1  0  0  0  0
 24 30  1  0  0  0  0
 24 25  1  0  0  0  0
 24 26  1  0  0  0  0
 25 45  1  0  0  0  0
 26 31  1  0  0  0  0
 26 27  1  0  0  0  0
 27 46  1  0  0  0  0
M  END
> <s_m_source_file>
AV-unprocessed.smi

> <i_m_source_file_index>
110

> <i_lp_mmshare_version>
43012

> <i_f3d_flags>
0

> <s_epik_input>
W09IXVtDSDJdW0NASF0xT1tDQEhdKFtDQEhdKFtPSF0pW0NAQEhdMVtPSF0pbihbY0hdbjIpYyhjMjMpbltjSF1uYzNOKFtDSDJdW0NIMl00KWMoYzQ1KVtjSF1bY0hdW2NIXVtjSF01

> <s_epik_cmdline>
J2VwaWtfcHl0aG9uJywgJy1waCcsICc3LjAnLCAnLXRuJywgJzgnLCAnLW1hJywgJzIwMCcsICctbWV0YWxfYmluZGluZycsICctaW1hZScsICc8aW5maWxlLm1hZT4nLCAnLW9tYWUnLCAnPG91dGZpbGUubWFlPic=

> <r_lp_tautomer_probability>
1

> <r_epik_Ionization_Penalty>
0.00068475

> <r_epik_Ionization_Penalty_Charging>
0

> <r_epik_Ionization_Penalty_Neutral>
0.00068475

> <r_epik_State_Penalty>
0.000417442

> <r_epik_Charging_Adjusted_Penalty>
0.000417442

> <i_epik_Tot_Q>
0

> <i_epik_Tot_abs_Q>
0

> <r_epik_Metal_State_Penalty>
-0

> <b_epik_Metal_Only>
0

> <s_epik_Chemistry_Notes>
This compound contains an acetal/aminal-like group ( X-CH(R)-Y where X, Y are N, S, or O) that may be acid/base labile, releasing an aldehyde.

> <s_lp_Force_Field>
OPLS_2005

> <r_lp_Energy>
64.5887

> <b_lp_Chiralities_Consistent>
1

> <s_lp_Variant>
AV-unprocessed.smi:110-15

> <Gold.Version>
5.8.1

> <Gold.Id.Protein>
6NUR|6NUR_protein|mol2

> <Gold.PLP.Fitness>
61.0723

> <Gold.PLP.PLP>
-51.7382

> <Gold.PLP.part.hbond>
-3.5169

> <Gold.PLP.part.metal>
0.0000

> <Gold.PLP.part.buried>
-2.0410

> <Gold.PLP.part.nonpolar>
-46.2391

> <Gold.PLP.part.repulsive>
0.2230

> <Gold.PLP.ligand.clash>
0.0000

> <Gold.PLP.ligand.torsion>
0.3871

> <Gold.PLP.Chemscore.Hbond>
2.6333

> <Gold.PLP.Chemscore.CHOScore>
0.6895

> <Gold.PLP.Chemscore.Metal>
0.0000

> <Gold.Chemscore.Hbonds>
donor molecule, donor type, donor heavy atom, donor atom, acceptor molecule, acceptor atom, score
      L1  H    27    46       P1  7948  0.99
      P1  H  7997  8009       L1    20  0.60
      P1  H  8011  8017       L1    25  0.99
      L1  C     7    35       P1  8028  0.79

> <Gold.PLP.Chemscore.Internal.Correction>
0.1402

> <Gold.Rescore>
     Score         DG    S(hbond)    S(metal)    S(lipo)     H(rot)  DE(clash)    DE(int)     intcor
     14.00     -16.50       1.86        0.00     115.05       3.38       0.50       2.00       ----

> <Gold.Chemscore.Fitness>
13.9979

> <Gold.Chemscore.DG>
-16.5033

> <Gold.Chemscore.ZeroCoef>
-5.4800

> <Gold.Chemscore.Hbond>
1.8637

> <Gold.Chemscore.Metal>
0.0000

> <Gold.Chemscore.Lipo>
115.0473

> <Gold.Chemscore.Internal_Hbond>
0.0000

> <Gold.Chemscore.DEClash>
0.5042

> <Gold.Chemscore.DEInternal>
2.0012

> <Gold.Chemscore.Rot>
3.3837

> <Gold.Chemscore.Internal.Correction>
   9.000000E+99

> <Gold.Chemscore.Hbonds>
donor molecule, donor type, donor heavy atom, donor atom, acceptor molecule, acceptor atom, score
      L1  H    27    46       P1  7948  0.89
      P1  H  7997  8009       L1    20  0.02
      P1  H  8011  8017       L1    25  0.90

> <Gold.Chemscore.Hbond.Weighted>
-6.2249

> <Gold.Chemscore.Metal.Weighted>
-0.0000

> <Gold.Chemscore.Lipo.Weighted>
-13.4605

> <Gold.Chemscore.Internal_Hbond.Weighted>
0.0000

> <Gold.Chemscore.DEClash.Weighted>
0.5042

> <Gold.Chemscore.DEInternal.Weighted>
2.0012

> <Gold.Chemscore.Rot.Weighted>
8.6622

> <Gold.Chemscore.Internal.Correction.Weighted>
   9.000000E+99

> <Gold.Protein.RotatedTorsions>
[ 6907 6896 6895 6894 ] final   81.49 input  -60.11 | X-H torsion
[ 7974 7965 7964 7962 ] final   64.60 input  175.53 | X-H torsion
[ 8008 7997 7996 7995 ] final  138.34 input   59.86 | X-H torsion
[ 10167 10162 10161 10158 ] final  -49.75 input  -65.29 | X-H torsion
[ 10718 10713 10712 10709 ] final -106.24 input   66.30 | X-H torsion
[ 10763 10752 10751 10750 ] final -158.50 input  -60.55 | X-H torsion
[ 11005 11000 10999 10996 ] final  -59.65 input  -57.11 | X-H torsion

> <Gold.Protein.ActiveResidues>
 VAL166  LYS551  ARG553  GLY616  TRP617  ASP618  TYR619  PRO620  LYS621  CYS622 
 ASP623  PHE694  ASN695  SER759  ASP760  ASP761  ALA762  ILE779  LEU786  VAL792 
 PHE793  MET794  SER795  GLU796  ALA797  LYS798  CYS799  TRP800  GLU811  SER814 

> <Gold.Protein.RotatedAtoms>
  152.5270  134.3196  159.9143 H   0  0  0  0  0  0  0  0  0  0  0  0  # atno 6907 bound_to 6896
  151.3145  133.4059  159.2657 H   0  0  0  0  0  0  0  0  0  0  0  0  # atno 6908 bound_to 6896
  151.0010  134.9339  159.8011 H   0  0  0  0  0  0  0  0  0  0  0  0  # atno 6909 bound_to 6896
  145.8483  139.3238  143.0890 H   0  0  0  0  0  0  0  0  0  0  0  0  # atno 7974 bound_to 7965
  156.2998  140.2396  156.4057 H   0  0  0  0  0  0  0  0  0  0  0  0  # atno 8008 bound_to 7997
  154.8486  140.0425  157.1609 H   0  0  0  0  0  0  0  0  0  0  0  0  # atno 8009 bound_to 7997
  154.9023  140.2978  155.5314 H   0  0  0  0  0  0  0  0  0  0  0  0  # atno 8010 bound_to 7997
  140.6670  143.2685  151.4260 H   0  0  0  0  0  0  0  0  0  0  0  0  # atno 10167 bound_to 10162
  156.0381  130.5603  150.7653 H   0  0  0  0  0  0  0  0  0  0  0  0  # atno 10718 bound_to 10713
  154.7551  135.3102  154.8484 H   0  0  0  0  0  0  0  0  0  0  0  0  # atno 10763 bound_to 10752
  153.9260  135.6790  153.4750 H   0  0  0  0  0  0  0  0  0  0  0  0  # atno 10764 bound_to 10752
  153.1149  135.4849  154.9027 H   0  0  0  0  0  0  0  0  0  0  0  0  # atno 10765 bound_to 10752
  141.1256  133.6617  156.5104 H   0  0  0  0  0  0  0  0  0  0  0  0  # atno 11005 bound_to 11000
  145.9387  140.8995  143.0319 LP  0  0  0  0  0  0  0  0  0  0  0  0  # atno 17320 bound_to 7965
  144.6730  140.1518  143.7429 LP  0  0  0  0  0  0  0  0  0  0  0  0  # atno 17321 bound_to 7965
  139.5923  144.1472  152.2103 LP  0  0  0  0  0  0  0  0  0  0  0  0  # atno 17342 bound_to 10162
  140.0830  144.5684  150.7108 LP  0  0  0  0  0  0  0  0  0  0  0  0  # atno 17343 bound_to 10162
  157.5161  131.0928  151.0137 LP  0  0  0  0  0  0  0  0  0  0  0  0  # atno 17370 bound_to 10713
  157.0480  130.5775  149.5366 LP  0  0  0  0  0  0  0  0  0  0  0  0  # atno 17371 bound_to 10713
  140.4374  134.7047  157.4974 LP  0  0  0  0  0  0  0  0  0  0  0  0  # atno 17394 bound_to 11000
  140.0252  134.6487  155.9182 LP  0  0  0  0  0  0  0  0  0  0  0  0  # atno 17395 bound_to 11000

$$$$
