AV-unprocessed.smi:2100|AV-procd|sdf|8573|dock4
  -GOLD-   2272011303D 1   1.00000     0.00000
 Structure written by MMmdl.
 41 42  0  0  0  0  0  0  0  0  1 V2000
  152.1456  138.6313  154.6728 C   0  0  0  0  0  0  0  0  0  0  0  0
  150.7052  139.0572  154.9766 C   0  0  2  0  0  0  0  0  0  0  0  0
  149.6927  137.9586  154.6111 C   0  0  0  0  0  0  0  0  0  0  0  0
  148.3125  138.4380  154.7870 N   0  0  0  0  0  0  0  0  0  0  0  0
  147.0472  137.2576  154.7666 S   0  0  0  0  0  0  0  0  0  0  0  0
  147.5546  136.0053  155.3482 O   0  0  0  0  0  0  0  0  0  0  0  0
  145.8152  137.8812  155.2731 O   0  0  0  0  0  0  0  0  0  0  0  0
  146.8997  137.0306  153.0614 N   0  0  0  0  0  0  0  0  0  0  0  0
  145.5840  136.7827  152.4691 C   0  0  0  0  0  0  0  0  0  0  0  0
  145.7028  136.2367  151.0372 C   0  0  0  0  0  0  0  0  0  0  0  0
  145.4643  134.7398  150.9767 C   0  0  0  0  0  0  0  0  0  0  0  0
  144.2323  134.2233  150.5216 C   0  0  0  0  0  0  0  0  0  0  0  0
  144.0667  132.8253  150.4768 C   0  0  0  0  0  0  0  0  0  0  0  0
  145.1340  132.0023  150.8850 C   0  0  0  0  0  0  0  0  0  0  0  0
  146.3247  132.6165  151.3220 C   0  0  0  0  0  0  0  0  0  0  0  0
  146.4937  133.9555  151.3690 N   0  0  0  0  0  0  0  0  0  0  0  0
  148.0519  139.7056  154.0876 C   0  0  0  0  0  0  0  0  0  0  0  0
  149.1205  140.7658  154.4174 C   0  0  1  0  0  0  0  0  0  0  0  0
  148.9437  141.3959  155.8108 C   0  0  0  0  0  0  0  0  0  0  0  0
  150.4305  140.2361  154.2287 O   0  0  0  0  0  0  0  0  0  0  0  0
  152.4160  137.7339  155.2299 H   0  0  0  0  0  0  0  0  0  0  0  0
  152.8498  139.4171  154.9474 H   0  0  0  0  0  0  0  0  0  0  0  0
  152.2798  138.4200  153.6115 H   0  0  0  0  0  0  0  0  0  0  0  0
  150.6390  139.2727  156.0432 H   0  0  0  0  0  0  0  0  0  0  0  0
  149.8261  137.6475  153.5739 H   0  0  0  0  0  0  0  0  0  0  0  0
  149.8652  137.0786  155.2302 H   0  0  0  0  0  0  0  0  0  0  0  0
  147.6306  136.4266  152.6862 H   0  0  0  0  0  0  0  0  0  0  0  0
  145.0575  136.0614  153.0947 H   0  0  0  0  0  0  0  0  0  0  0  0
  145.0011  137.7044  152.4873 H   0  0  0  0  0  0  0  0  0  0  0  0
  144.9816  136.7243  150.3805 H   0  0  0  0  0  0  0  0  0  0  0  0
  146.6902  136.4620  150.6313 H   0  0  0  0  0  0  0  0  0  0  0  0
  143.4327  134.8805  150.2123 H   0  0  0  0  0  0  0  0  0  0  0  0
  143.1382  132.3923  150.1348 H   0  0  0  0  0  0  0  0  0  0  0  0
  145.0430  130.9265  150.8636 H   0  0  0  0  0  0  0  0  0  0  0  0
  147.1636  132.0165  151.6422 H   0  0  0  0  0  0  0  0  0  0  0  0
  148.0428  139.5106  153.0143 H   0  0  0  0  0  0  0  0  0  0  0  0
  147.0612  140.0791  154.3472 H   0  0  0  0  0  0  0  0  0  0  0  0
  149.0173  141.5746  153.6934 H   0  0  0  0  0  0  0  0  0  0  0  0
  147.9937  141.9268  155.8763 H   0  0  0  0  0  0  0  0  0  0  0  0
  149.7372  142.1147  156.0166 H   0  0  0  0  0  0  0  0  0  0  0  0
  148.9507  140.6506  156.6057 H   0  0  0  0  0  0  0  0  0  0  0  0
  1  2  1  0  0  0  0
  1 21  1  0  0  0  0
  1 22  1  0  0  0  0
  1 23  1  0  0  0  0
  2 20  1  0  0  0  0
  2  3  1  0  0  0  0
  2 24  1  0  0  0  0
  3  4  1  0  0  0  0
  3 25  1  0  0  0  0
  3 26  1  0  0  0  0
  4  5  1  0  0  0  0
  4 17  1  0  0  0  0
  5  6  2  0  0  0  0
  5  7  2  0  0  0  0
  5  8  1  0  0  0  0
  8  9  1  0  0  0  0
  8 27  1  0  0  0  0
  9 10  1  0  0  0  0
  9 28  1  0  0  0  0
  9 29  1  0  0  0  0
 10 11  1  0  0  0  0
 10 30  1  0  0  0  0
 10 31  1  0  0  0  0
 11 16  1  0  0  0  0
 11 12  2  0  0  0  0
 12 13  1  0  0  0  0
 12 32  1  0  0  0  0
 13 14  2  0  0  0  0
 13 33  1  0  0  0  0
 14 15  1  0  0  0  0
 14 34  1  0  0  0  0
 15 16  2  0  0  0  0
 15 35  1  0  0  0  0
 17 18  1  0  0  0  0
 17 36  1  0  0  0  0
 17 37  1  0  0  0  0
 18 19  1  0  0  0  0
 18 20  1  0  0  0  0
 18 38  1  0  0  0  0
 19 39  1  0  0  0  0
 19 40  1  0  0  0  0
 19 41  1  0  0  0  0
M  END
> <s_m_source_file>
AV-unprocessed.smi

> <i_m_source_file_index>
2100

> <i_lp_mmshare_version>
43012

> <i_f3d_flags>
0

> <s_epik_input>
W0NIM11bQ0BASF0xW0NIMl1OKFtDSDJdW0NASF0oTzEpW0NIM10pUyg9TykoPU8pW05IXVtDSDJdW0NIMl1jMltjSF1bY0hdW2NIXVtjSF1uMg==

> <s_epik_cmdline>
J2VwaWtfcHl0aG9uJywgJy1waCcsICc3LjAnLCAnLXRuJywgJzgnLCAnLW1hJywgJzIwMCcsICctbWV0YWxfYmluZGluZycsICctaW1hZScsICc8aW5maWxlLm1hZT4nLCAnLW9tYWUnLCAnPG91dGZpbGUubWFlPic=

> <r_epik_Ionization_Penalty>
0.085378

> <r_epik_Ionization_Penalty_Charging>
0

> <r_epik_Ionization_Penalty_Neutral>
0.085378

> <r_epik_State_Penalty>
0.0441186

> <r_epik_Charging_Adjusted_Penalty>
0.0441186

> <i_epik_Tot_Q>
0

> <i_epik_Tot_abs_Q>
0

> <r_epik_Metal_State_Penalty>
0.24397

> <b_epik_Metal_Only>
0

> <s_lp_Force_Field>
OPLS_2005

> <r_lp_Energy>
7.96462

> <b_lp_Chiralities_Consistent>
1

> <s_lp_Variant>
AV-unprocessed.smi:2100-1

> <Gold.Version>
5.8.1

> <Gold.Id.Protein>
6NUR|6NUR_protein|mol2

> <Gold.PLP.Fitness>
39.9210

> <Gold.PLP.PLP>
-33.2427

> <Gold.PLP.part.hbond>
-1.6495

> <Gold.PLP.part.metal>
0.0000

> <Gold.PLP.part.buried>
-5.7463

> <Gold.PLP.part.nonpolar>
-28.5711

> <Gold.PLP.part.repulsive>
0.5377

> <Gold.PLP.ligand.clash>
0.0000

> <Gold.PLP.ligand.torsion>
1.5316

> <Gold.PLP.Chemscore.Hbond>
2.0000

> <Gold.PLP.Chemscore.CHOScore>
1.0000

> <Gold.PLP.Chemscore.Metal>
0.0000

> <Gold.Chemscore.Hbonds>
donor molecule, donor type, donor heavy atom, donor atom, acceptor molecule, acceptor atom, score
      L1  H     8    27       P1  7948  1.00
      P1  H  7989  7998       L1    20  1.00
      L1  C    15    35       P1 10747  0.95

> <Gold.PLP.Chemscore.Internal.Correction>
0.7415

> <Gold.Rescore>
     Score         DG    S(hbond)    S(metal)    S(lipo)     H(rot)  DE(clash)    DE(int)     intcor
     16.58     -18.01       1.89        0.00      90.51       1.71       0.05       1.37       ----

> <Gold.Chemscore.Fitness>
16.5794

> <Gold.Chemscore.DG>
-18.0060

> <Gold.Chemscore.ZeroCoef>
-5.4800

> <Gold.Chemscore.Hbond>
1.8873

> <Gold.Chemscore.Metal>
0.0000

> <Gold.Chemscore.Lipo>
90.5112

> <Gold.Chemscore.Internal_Hbond>
0.0000

> <Gold.Chemscore.DEClash>
0.0530

> <Gold.Chemscore.DEInternal>
1.3737

> <Gold.Chemscore.Rot>
1.7060

> <Gold.Chemscore.Internal.Correction>
   9.000000E+99

> <Gold.Chemscore.Hbonds>
donor molecule, donor type, donor heavy atom, donor atom, acceptor molecule, acceptor atom, score
      L1  H     8    27       P1  7948  0.92
      P1  H  7989  7998       L1    20  0.86

> <Gold.Chemscore.Hbond.Weighted>
-6.3036

> <Gold.Chemscore.Metal.Weighted>
-0.0000

> <Gold.Chemscore.Lipo.Weighted>
-10.5898

> <Gold.Chemscore.Internal_Hbond.Weighted>
0.0000

> <Gold.Chemscore.DEClash.Weighted>
0.0530

> <Gold.Chemscore.DEInternal.Weighted>
1.3737

> <Gold.Chemscore.Rot.Weighted>
4.3674

> <Gold.Chemscore.Internal.Correction.Weighted>
   9.000000E+99

> <Gold.Protein.RotatedTorsions>
[ 6907 6896 6895 6894 ] final   12.75 input  -60.11 | X-H torsion
[ 7974 7965 7964 7962 ] final   28.52 input  175.53 | X-H torsion
[ 8008 7997 7996 7995 ] final  166.55 input   59.86 | X-H torsion
[ 10167 10162 10161 10158 ] final  -66.28 input  -65.29 | X-H torsion
[ 10718 10713 10712 10709 ] final  -41.78 input   66.30 | X-H torsion
[ 10763 10752 10751 10750 ] final  143.91 input  -60.55 | X-H torsion
[ 11005 11000 10999 10996 ] final  -63.91 input  -57.11 | X-H torsion

> <Gold.Protein.ActiveResidues>
 VAL166  LYS551  ARG553  GLY616  TRP617  ASP618  TYR619  PRO620  LYS621  CYS622 
 ASP623  PHE694  ASN695  SER759  ASP760  ASP761  ALA762  ILE779  LEU786  VAL792 
 PHE793  MET794  SER795  GLU796  ALA797  LYS798  CYS799  TRP800  GLU811  SER814 

> <Gold.Protein.RotatedAtoms>
  151.7754  135.0775  160.0365 H   0  0  0  0  0  0  0  0  0  0  0  0  # atno 6907 bound_to 6896
  152.3260  133.5901  159.5785 H   0  0  0  0  0  0  0  0  0  0  0  0  # atno 6908 bound_to 6896
  150.7396  133.9856  159.3632 H   0  0  0  0  0  0  0  0  0  0  0  0  # atno 6909 bound_to 6896
  146.1724  139.7045  142.8958 H   0  0  0  0  0  0  0  0  0  0  0  0  # atno 7974 bound_to 7965
  156.1708  140.1640  156.8450 H   0  0  0  0  0  0  0  0  0  0  0  0  # atno 8008 bound_to 7997
  154.5255  140.0768  156.8285 H   0  0  0  0  0  0  0  0  0  0  0  0  # atno 8009 bound_to 7997
  155.3515  140.3390  155.4241 H   0  0  0  0  0  0  0  0  0  0  0  0  # atno 8010 bound_to 7997
  140.5669  143.2315  151.6617 H   0  0  0  0  0  0  0  0  0  0  0  0  # atno 10167 bound_to 10162
  156.2666  130.4202  149.8483 H   0  0  0  0  0  0  0  0  0  0  0  0  # atno 10718 bound_to 10713
  153.9801  135.2942  155.3421 H   0  0  0  0  0  0  0  0  0  0  0  0  # atno 10763 bound_to 10752
  154.7274  135.5083  153.8911 H   0  0  0  0  0  0  0  0  0  0  0  0  # atno 10764 bound_to 10752
  153.0858  135.6693  154.0066 H   0  0  0  0  0  0  0  0  0  0  0  0  # atno 10765 bound_to 10752
  141.1408  133.6658  156.5752 H   0  0  0  0  0  0  0  0  0  0  0  0  # atno 11005 bound_to 11000
  145.4304  141.0414  143.2914 LP  0  0  0  0  0  0  0  0  0  0  0  0  # atno 17320 bound_to 7965
  144.8183  139.5836  143.6998 LP  0  0  0  0  0  0  0  0  0  0  0  0  # atno 17321 bound_to 7965
  139.5097  144.3567  152.0601 LP  0  0  0  0  0  0  0  0  0  0  0  0  # atno 17342 bound_to 10162
  140.2700  144.3975  150.6155 LP  0  0  0  0  0  0  0  0  0  0  0  0  # atno 17343 bound_to 10162
  156.5980  130.8534  151.3424 LP  0  0  0  0  0  0  0  0  0  0  0  0  # atno 17370 bound_to 10713
  157.7269  130.9636  150.1677 LP  0  0  0  0  0  0  0  0  0  0  0  0  # atno 17371 bound_to 10713
  140.3881  134.7464  157.4704 LP  0  0  0  0  0  0  0  0  0  0  0  0  # atno 17394 bound_to 11000
  140.0586  134.6027  155.8775 LP  0  0  0  0  0  0  0  0  0  0  0  0  # atno 17395 bound_to 11000

$$$$
