AV-unprocessed.smi:160|AV-procd|sdf|1350|dock8
  -GOLD-   2262019 53D 1   1.00000     0.00000
 Structure written by MMmdl.
 29 30  0  0  0  0  0  0  0  0  1 V2000
  146.1834  137.7348  157.4246 N   0  0  0  0  0  0  0  0  0  0  0  0
  146.4529  138.9472  157.9200 C   0  0  0  0  0  0  0  0  0  0  0  0
  145.8955  139.3868  158.9244 O   0  0  0  0  0  0  0  0  0  0  0  0
  147.4809  139.7549  157.1773 C   0  0  0  0  0  0  0  0  0  0  0  0
  147.6880  141.0736  157.4666 N   0  0  0  0  0  0  0  0  0  0  0  0
  148.6496  141.3304  156.5892 C   0  0  0  0  0  0  0  0  0  0  0  0
  148.9946  140.2848  155.8306 N   0  0  0  0  0  0  0  0  0  0  0  0
  150.0411  140.1835  154.7589 C   0  0  1  0  0  0  0  0  0  0  0  0
  151.2846  140.2883  155.3797 O   0  0  0  0  0  0  0  0  0  0  0  0
  151.9622  139.0308  155.4073 C   0  0  1  0  0  0  0  0  0  0  0  0
  152.4576  138.7325  156.8318 C   0  0  0  0  0  0  0  0  0  0  0  0
  153.2091  139.8220  157.3227 O   0  0  0  0  0  0  0  0  0  0  0  0
  150.9569  137.9938  154.8800 C   0  0  2  0  0  0  0  0  0  0  0  0
  151.6166  137.0233  154.0913 O   0  0  0  0  0  0  0  0  0  0  0  0
  150.0154  138.8311  154.0274 C   0  0  1  0  0  0  0  0  0  0  0  0
  148.7279  138.2477  153.9407 O   0  0  0  0  0  0  0  0  0  0  0  0
  148.2380  139.2259  156.2150 N   0  0  0  0  0  0  0  0  0  0  0  0
  149.8446  141.0367  154.1085 H   0  0  0  0  0  0  0  0  0  0  0  0
  152.8037  139.1012  154.7152 H   0  0  0  0  0  0  0  0  0  0  0  0
  150.4228  137.5132  155.7009 H   0  0  0  0  0  0  0  0  0  0  0  0
  150.4296  138.9850  153.0298 H   0  0  0  0  0  0  0  0  0  0  0  0
  145.5006  137.1458  157.8782 H   0  0  0  0  0  0  0  0  0  0  0  0
  146.6655  137.4173  156.5961 H   0  0  0  0  0  0  0  0  0  0  0  0
  149.1121  142.3023  156.4972 H   0  0  0  0  0  0  0  0  0  0  0  0
  151.6296  138.5087  157.5046 H   0  0  0  0  0  0  0  0  0  0  0  0
  153.1140  137.8618  156.8258 H   0  0  0  0  0  0  0  0  0  0  0  0
  153.2688  139.7470  158.2629 H   0  0  0  0  0  0  0  0  0  0  0  0
  151.0887  136.8467  153.3279 H   0  0  0  0  0  0  0  0  0  0  0  0
  148.7835  137.4722  153.4037 H   0  0  0  0  0  0  0  0  0  0  0  0
  1  2  1  0  0  0  0
  1 22  1  0  0  0  0
  1 23  1  0  0  0  0
  2  3  2  0  0  0  0
  2  4  1  0  0  0  0
  4 17  2  0  0  0  0
  4  5  1  0  0  0  0
  5  6  2  0  0  0  0
  6  7  1  0  0  0  0
  6 24  1  0  0  0  0
  7  8  1  0  0  0  0
  7 17  1  0  0  0  0
  8 18  1  0  0  0  0
  8 15  1  0  0  0  0
  8  9  1  0  0  0  0
  9 10  1  0  0  0  0
 10 19  1  0  0  0  0
 10 11  1  0  0  0  0
 10 13  1  0  0  0  0
 11 12  1  0  0  0  0
 11 25  1  0  0  0  0
 11 26  1  0  0  0  0
 12 27  1  0  0  0  0
 13 20  1  0  0  0  0
 13 14  1  0  0  0  0
 13 15  1  0  0  0  0
 14 28  1  0  0  0  0
 15 21  1  0  0  0  0
 15 16  1  0  0  0  0
 16 29  1  0  0  0  0
M  END
> <s_m_source_file>
AV-unprocessed.smi

> <i_m_source_file_index>
160

> <i_lp_mmshare_version>
43012

> <i_f3d_flags>
0

> <s_epik_input>
W05IMl1DKD1PKWMxbltjSF1uKG4xKVtDQEBIXTJPW0NASF0oW0NIMl1bT0hdKVtDQEBIXShbT0hdKVtDQEhdMltPSF0=

> <s_epik_cmdline>
J2VwaWtfcHl0aG9uJywgJy1waCcsICc3LjAnLCAnLXRuJywgJzgnLCAnLW1hJywgJzIwMCcsICctbWV0YWxfYmluZGluZycsICctaW1hZScsICc8aW5maWxlLm1hZT4nLCAnLW9tYWUnLCAnPG91dGZpbGUubWFlPic=

> <r_lp_tautomer_probability>
1

> <r_epik_Ionization_Penalty>
1.06932e-05

> <r_epik_Ionization_Penalty_Charging>
0

> <r_epik_Ionization_Penalty_Neutral>
1.06932e-05

> <r_epik_State_Penalty>
-0

> <r_epik_Charging_Adjusted_Penalty>
0

> <i_epik_Tot_Q>
0

> <i_epik_Tot_abs_Q>
0

> <r_epik_Metal_State_Penalty>
0.0142097

> <b_epik_Metal_Only>
0

> <s_epik_Chemistry_Notes>
This compound contains an acetal/aminal-like group ( X-CH(R)-Y where X, Y are N, S, or O) that may be acid/base labile, releasing an aldehyde.

> <s_lp_Force_Field>
OPLS_2005

> <r_lp_Energy>
40.695

> <b_lp_Chiralities_Consistent>
1

> <s_lp_Variant>
AV-unprocessed.smi:160-8

> <Gold.Version>
5.8.1

> <Gold.Id.Protein>
6NUR|6NUR_protein|mol2

> <Gold.PLP.Fitness>
34.5169

> <Gold.PLP.PLP>
-20.2706

> <Gold.PLP.part.hbond>
-6.4262

> <Gold.PLP.part.metal>
0.0000

> <Gold.PLP.part.buried>
-0.7490

> <Gold.PLP.part.nonpolar>
-13.5563

> <Gold.PLP.part.repulsive>
0.0850

> <Gold.PLP.ligand.clash>
0.0000

> <Gold.PLP.ligand.torsion>
0.2146

> <Gold.PLP.Chemscore.Hbond>
3.8882

> <Gold.PLP.Chemscore.CHOScore>
1.0000

> <Gold.PLP.Chemscore.Metal>
0.0000

> <Gold.Chemscore.Hbonds>
donor molecule, donor type, donor heavy atom, donor atom, acceptor molecule, acceptor atom, score
      L1  H    14    28       P1  7949  0.85
      L1  H    16    29       P1  7948  1.00
      P1  H  7997  8009       L1    12  0.63
      P1  H 10752 10765       L1    14  1.00
      L1  C     6    24       P1  8028  0.91

> <Gold.PLP.Chemscore.Internal.Correction>
0.0110

> <Gold.Rescore>
     Score         DG    S(hbond)    S(metal)    S(lipo)     H(rot)  DE(clash)    DE(int)     intcor
      6.34      -8.43       3.07        0.00      26.28       4.06       0.26       1.83       ----

> <Gold.Chemscore.Fitness>
6.3360

> <Gold.Chemscore.DG>
-8.4261

> <Gold.Chemscore.ZeroCoef>
-5.4800

> <Gold.Chemscore.Hbond>
3.0735

> <Gold.Chemscore.Metal>
0.0000

> <Gold.Chemscore.Lipo>
26.2759

> <Gold.Chemscore.Internal_Hbond>
0.0000

> <Gold.Chemscore.DEClash>
0.2563

> <Gold.Chemscore.DEInternal>
1.8338

> <Gold.Chemscore.Rot>
4.0600

> <Gold.Chemscore.Internal.Correction>
   9.000000E+99

> <Gold.Chemscore.Hbonds>
donor molecule, donor type, donor heavy atom, donor atom, acceptor molecule, acceptor atom, score
      L1  H    14    28       P1  7949  0.31
      L1  H    16    29       P1  7948  0.98
      P1  H  6934  6947       L1     3  0.01
      P1  H  7997  8009       L1    12  0.54
      P1  H 10752 10765       L1    14  0.55

> <Gold.Chemscore.Hbond.Weighted>
-10.2654

> <Gold.Chemscore.Metal.Weighted>
-0.0000

> <Gold.Chemscore.Lipo.Weighted>
-3.0743

> <Gold.Chemscore.Internal_Hbond.Weighted>
0.0000

> <Gold.Chemscore.DEClash.Weighted>
0.2563

> <Gold.Chemscore.DEInternal.Weighted>
1.8338

> <Gold.Chemscore.Rot.Weighted>
10.3936

> <Gold.Chemscore.Internal.Correction.Weighted>
   9.000000E+99

> <Gold.Protein.RotatedTorsions>
[ 6907 6896 6895 6894 ] final -129.55 input  -60.11 | X-H torsion
[ 7974 7965 7964 7962 ] final   55.25 input  175.53 | X-H torsion
[ 8008 7997 7996 7995 ] final -177.75 input   59.86 | X-H torsion
[ 10167 10162 10161 10158 ] final   29.82 input  -65.29 | X-H torsion
[ 10718 10713 10712 10709 ] final   44.64 input   66.30 | X-H torsion
[ 10763 10752 10751 10750 ] final  150.60 input  -60.55 | X-H torsion
[ 11005 11000 10999 10996 ] final   25.41 input  -57.11 | X-H torsion

> <Gold.Protein.ActiveResidues>
 VAL166  LYS551  ARG553  GLY616  TRP617  ASP618  TYR619  PRO620  LYS621  CYS622 
 ASP623  PHE694  ASN695  SER759  ASP760  ASP761  ALA762  ILE779  LEU786  VAL792 
 PHE793  MET794  SER795  GLU796  ALA797  LYS798  CYS799  TRP800  GLU811  SER814 

> <Gold.Protein.RotatedAtoms>
  150.9299  133.6779  159.2812 H   0  0  0  0  0  0  0  0  0  0  0  0  # atno 6907 bound_to 6896
  151.4205  135.0996  159.9622 H   0  0  0  0  0  0  0  0  0  0  0  0  # atno 6908 bound_to 6896
  152.5021  133.8752  159.7373 H   0  0  0  0  0  0  0  0  0  0  0  0  # atno 6909 bound_to 6896
  145.9523  139.3983  143.0298 H   0  0  0  0  0  0  0  0  0  0  0  0  # atno 7974 bound_to 7965
  156.0106  140.1240  157.0457 H   0  0  0  0  0  0  0  0  0  0  0  0  # atno 8008 bound_to 7997
  154.4274  140.1088  156.5894 H   0  0  0  0  0  0  0  0  0  0  0  0  # atno 8009 bound_to 7997
  155.6085  140.3471  155.4617 H   0  0  0  0  0  0  0  0  0  0  0  0  # atno 8010 bound_to 7997
  140.4732  144.0731  150.6243 H   0  0  0  0  0  0  0  0  0  0  0  0  # atno 10167 bound_to 10162
  157.4290  130.8013  149.7585 H   0  0  0  0  0  0  0  0  0  0  0  0  # atno 10718 bound_to 10713
  154.0901  135.2853  155.3273 H   0  0  0  0  0  0  0  0  0  0  0  0  # atno 10763 bound_to 10752
  154.6626  135.5329  153.8040 H   0  0  0  0  0  0  0  0  0  0  0  0  # atno 10764 bound_to 10752
  153.0417  135.6537  154.1070 H   0  0  0  0  0  0  0  0  0  0  0  0  # atno 10765 bound_to 10752
  140.3481  134.2258  155.7682 H   0  0  0  0  0  0  0  0  0  0  0  0  # atno 11005 bound_to 11000
  145.8154  140.9705  143.0927 LP  0  0  0  0  0  0  0  0  0  0  0  0  # atno 17320 bound_to 7965
  144.6798  139.9973  143.7484 LP  0  0  0  0  0  0  0  0  0  0  0  0  # atno 17321 bound_to 7965
  140.3951  143.2732  152.0014 LP  0  0  0  0  0  0  0  0  0  0  0  0  # atno 17342 bound_to 10162
  139.4821  144.6045  151.7547 LP  0  0  0  0  0  0  0  0  0  0  0  0  # atno 17343 bound_to 10162
  155.9906  130.3943  150.3019 LP  0  0  0  0  0  0  0  0  0  0  0  0  # atno 17370 bound_to 10713
  157.1174  131.0237  151.3023 LP  0  0  0  0  0  0  0  0  0  0  0  0  # atno 17371 bound_to 10713
  141.2020  133.7949  157.0414 LP  0  0  0  0  0  0  0  0  0  0  0  0  # atno 17394 bound_to 11000
  140.0725  134.9694  157.1491 LP  0  0  0  0  0  0  0  0  0  0  0  0  # atno 17395 bound_to 11000

$$$$
