AV-unprocessed.smi:645|AV-procd|sdf|3159|dock2
  -GOLD-   22720 0 83D 1   1.00000     0.00000
 Structure written by MMmdl.
 23 24  0  0  0  0  0  0  0  0  1 V2000
  145.5202  134.5179  154.1063 C   0  0  0  0  0  0  0  0  0  0  0  0
  144.2883  134.4542  153.1808 C   0  0  1  0  0  0  0  0  0  0  0  0
  144.4475  133.4096  152.0648 C   0  0  0  0  0  0  0  0  0  0  0  0
  143.4126  133.1334  151.1382 C   0  0  0  0  0  0  0  0  0  0  0  0
  143.6279  132.1566  150.1456 C   0  0  0  0  0  0  0  0  0  0  0  0
  144.7763  131.4590  150.0257 N   0  0  0  0  0  0  0  0  0  0  0  0
  145.7629  131.7192  150.9081 C   0  0  0  0  0  0  0  0  0  0  0  0
  145.6490  132.6742  151.9372 C   0  0  0  0  0  0  0  0  0  0  0  0
  143.0805  134.2799  153.9780 N   0  0  0  0  0  0  0  0  0  0  0  0
  142.2064  135.2847  153.8342 C   0  0  0  0  0  0  0  0  0  0  0  0
  141.1054  135.3675  154.3731 O   0  0  0  0  0  0  0  0  0  0  0  0
  142.7487  136.1842  153.0091 N   0  0  0  0  0  0  0  0  0  0  0  0
  143.9591  135.8222  152.5875 C   0  0  0  0  0  0  0  0  0  0  0  0
  144.7018  136.4722  151.8528 O   0  0  0  0  0  0  0  0  0  0  0  0
  146.4290  134.7720  153.5603 H   0  0  0  0  0  0  0  0  0  0  0  0
  145.6889  133.5586  154.5966 H   0  0  0  0  0  0  0  0  0  0  0  0
  145.3947  135.2675  154.8892 H   0  0  0  0  0  0  0  0  0  0  0  0
  142.4649  133.6494  151.1697 H   0  0  0  0  0  0  0  0  0  0  0  0
  142.8537  131.9292  149.4277 H   0  0  0  0  0  0  0  0  0  0  0  0
  146.6725  131.1491  150.7914 H   0  0  0  0  0  0  0  0  0  0  0  0
  146.4773  132.8386  152.6103 H   0  0  0  0  0  0  0  0  0  0  0  0
  142.9194  133.4641  154.5505 H   0  0  0  0  0  0  0  0  0  0  0  0
  142.2984  137.0490  152.7474 H   0  0  0  0  0  0  0  0  0  0  0  0
  1  2  1  0  0  0  0
  1 15  1  0  0  0  0
  1 16  1  0  0  0  0
  1 17  1  0  0  0  0
  2 13  1  0  0  0  0
  2  3  1  0  0  0  0
  2  9  1  0  0  0  0
  3  8  1  0  0  0  0
  3  4  2  0  0  0  0
  4  5  1  0  0  0  0
  4 18  1  0  0  0  0
  5  6  2  0  0  0  0
  5 19  1  0  0  0  0
  6  7  1  0  0  0  0
  7  8  2  0  0  0  0
  7 20  1  0  0  0  0
  8 21  1  0  0  0  0
  9 10  1  0  0  0  0
  9 22  1  0  0  0  0
 10 11  2  0  0  0  0
 10 12  1  0  0  0  0
 12 13  1  0  0  0  0
 12 23  1  0  0  0  0
 13 14  2  0  0  0  0
M  END
> <s_m_source_file>
AV-unprocessed.smi

> <i_m_source_file_index>
645

> <i_lp_mmshare_version>
43012

> <i_f3d_flags>
0

> <s_epik_input>
Tz1DMVtOSF1DKD1PKVtOSF1bQ0BAXTEoW0NIM10pYzJbY0hdW2NIXW5bY0hdW2NIXTI=

> <s_epik_cmdline>
J2VwaWtfcHl0aG9uJywgJy1waCcsICc3LjAnLCAnLXRuJywgJzgnLCAnLW1hJywgJzIwMCcsICctbWV0YWxfYmluZGluZycsICctaW1hZScsICc8aW5maWxlLm1hZT4nLCAnLW9tYWUnLCAnPG91dGZpbGUubWFlPic=

> <r_lp_tautomer_probability>
1

> <r_epik_Ionization_Penalty>
0.0327402

> <r_epik_Ionization_Penalty_Charging>
0

> <r_epik_Ionization_Penalty_Neutral>
0.0327402

> <r_epik_State_Penalty>
0.022996

> <r_epik_Charging_Adjusted_Penalty>
0.022996

> <i_epik_Tot_Q>
0

> <i_epik_Tot_abs_Q>
0

> <r_epik_Metal_State_Penalty>
0.426243

> <b_epik_Metal_Only>
0

> <s_lp_Force_Field>
OPLS_2005

> <r_lp_Energy>
18.0362

> <b_lp_Chiralities_Consistent>
1

> <s_lp_Variant>
AV-unprocessed.smi:645-1

> <Gold.Version>
5.8.1

> <Gold.Id.Protein>
6NUR|6NUR_protein|mol2

> <Gold.PLP.Fitness>
32.2221

> <Gold.PLP.PLP>
-20.3565

> <Gold.PLP.part.hbond>
-2.9561

> <Gold.PLP.part.metal>
0.0000

> <Gold.PLP.part.buried>
-3.7488

> <Gold.PLP.part.nonpolar>
-16.1232

> <Gold.PLP.part.repulsive>
1.9207

> <Gold.PLP.ligand.clash>
0.0000

> <Gold.PLP.ligand.torsion>
0.0843

> <Gold.PLP.Chemscore.Hbond>
1.9920

> <Gold.PLP.Chemscore.CHOScore>
1.9799

> <Gold.PLP.Chemscore.Metal>
0.0000

> <Gold.Chemscore.Hbonds>
donor molecule, donor type, donor heavy atom, donor atom, acceptor molecule, acceptor atom, score
      L1  H     9    22       P1 10957  1.00
      P1  H 11000 11005       L1    11  0.86
      L1  C     5    19       P1 10952  0.88
      L1  C     7    20       P1 10747  1.00

> <Gold.PLP.Chemscore.Internal.Correction>
0.1187

> <Gold.Rescore>
     Score         DG    S(hbond)    S(metal)    S(lipo)     H(rot)  DE(clash)    DE(int)     intcor
     14.41     -14.50       1.93        0.00      43.78       1.00       0.03       0.06       ----

> <Gold.Chemscore.Fitness>
14.4123

> <Gold.Chemscore.DG>
-14.5021

> <Gold.Chemscore.ZeroCoef>
-5.4800

> <Gold.Chemscore.Hbond>
1.9341

> <Gold.Chemscore.Metal>
0.0000

> <Gold.Chemscore.Lipo>
43.7779

> <Gold.Chemscore.Internal_Hbond>
0.0000

> <Gold.Chemscore.DEClash>
0.0299

> <Gold.Chemscore.DEInternal>
0.0598

> <Gold.Chemscore.Rot>
1.0000

> <Gold.Chemscore.Internal.Correction>
   9.000000E+99

> <Gold.Chemscore.Hbonds>
donor molecule, donor type, donor heavy atom, donor atom, acceptor molecule, acceptor atom, score
      L1  H     9    22       P1 10957  0.97
      P1  H 11000 11005       L1    11  0.85

> <Gold.Chemscore.Hbond.Weighted>
-6.4600

> <Gold.Chemscore.Metal.Weighted>
-0.0000

> <Gold.Chemscore.Lipo.Weighted>
-5.1220

> <Gold.Chemscore.Internal_Hbond.Weighted>
0.0000

> <Gold.Chemscore.DEClash.Weighted>
0.0299

> <Gold.Chemscore.DEInternal.Weighted>
0.0598

> <Gold.Chemscore.Rot.Weighted>
2.5600

> <Gold.Chemscore.Internal.Correction.Weighted>
   9.000000E+99

> <Gold.Protein.RotatedTorsions>
[ 6907 6896 6895 6894 ] final   28.63 input  -60.11 | X-H torsion
[ 7974 7965 7964 7962 ] final  -93.91 input  175.53 | X-H torsion
[ 8008 7997 7996 7995 ] final  105.41 input   59.86 | X-H torsion
[ 10167 10162 10161 10158 ] final -130.67 input  -65.29 | X-H torsion
[ 10718 10713 10712 10709 ] final  -75.97 input   66.30 | X-H torsion
[ 10763 10752 10751 10750 ] final -146.83 input  -60.55 | X-H torsion
[ 11005 11000 10999 10996 ] final   29.41 input  -57.11 | X-H torsion

> <Gold.Protein.ActiveResidues>
 VAL166  LYS551  ARG553  GLY616  TRP617  ASP618  TYR619  PRO620  LYS621  CYS622 
 ASP623  PHE694  ASN695  SER759  ASP760  ASP761  ALA762  ILE779  LEU786  VAL792 
 PHE793  MET794  SER795  GLU796  ALA797  LYS798  CYS799  TRP800  GLU811  SER814 

> <Gold.Protein.RotatedAtoms>
  152.0198  134.9829  160.0570 H   0  0  0  0  0  0  0  0  0  0  0  0  # atno 6907 bound_to 6896
  152.1348  133.4424  159.4746 H   0  0  0  0  0  0  0  0  0  0  0  0  # atno 6908 bound_to 6896
  150.6859  134.2295  159.4472 H   0  0  0  0  0  0  0  0  0  0  0  0  # atno 6909 bound_to 6896
  145.3803  140.9517  143.2397 H   0  0  0  0  0  0  0  0  0  0  0  0  # atno 7974 bound_to 7965
  156.1656  140.3131  155.8883 H   0  0  0  0  0  0  0  0  0  0  0  0  # atno 8008 bound_to 7997
  155.3692  140.0481  157.3062 H   0  0  0  0  0  0  0  0  0  0  0  0  # atno 8009 bound_to 7997
  154.5189  140.2191  155.9023 H   0  0  0  0  0  0  0  0  0  0  0  0  # atno 8010 bound_to 7997
  139.9269  143.6317  152.2539 H   0  0  0  0  0  0  0  0  0  0  0  0  # atno 10167 bound_to 10162
  156.0190  130.4454  150.3123 H   0  0  0  0  0  0  0  0  0  0  0  0  # atno 10718 bound_to 10713
  154.8316  135.3376  154.6723 H   0  0  0  0  0  0  0  0  0  0  0  0  # atno 10763 bound_to 10752
  153.7342  135.6950  153.4986 H   0  0  0  0  0  0  0  0  0  0  0  0  # atno 10764 bound_to 10752
  153.2290  135.4423  155.0526 H   0  0  0  0  0  0  0  0  0  0  0  0  # atno 10765 bound_to 10752
  140.3053  134.2711  155.7745 H   0  0  0  0  0  0  0  0  0  0  0  0  # atno 11005 bound_to 11000
  144.8512  139.5319  143.6855 LP  0  0  0  0  0  0  0  0  0  0  0  0  # atno 17320 bound_to 7965
  146.2845  139.6966  142.9205 LP  0  0  0  0  0  0  0  0  0  0  0  0  # atno 17321 bound_to 7965
  139.6814  144.7655  151.1601 LP  0  0  0  0  0  0  0  0  0  0  0  0  # atno 17342 bound_to 10162
  140.7647  143.5719  150.8987 LP  0  0  0  0  0  0  0  0  0  0  0  0  # atno 17343 bound_to 10162
  157.1225  131.0250  151.3003 LP  0  0  0  0  0  0  0  0  0  0  0  0  # atno 17370 bound_to 10713
  157.4616  130.7657  149.7241 LP  0  0  0  0  0  0  0  0  0  0  0  0  # atno 17371 bound_to 10713
  141.2120  133.7672  156.9827 LP  0  0  0  0  0  0  0  0  0  0  0  0  # atno 17394 bound_to 11000
  140.1073  134.9499  157.2013 LP  0  0  0  0  0  0  0  0  0  0  0  0  # atno 17395 bound_to 11000

$$$$
