AV-unprocessed.smi:3148|AV-procd|sdf|11995|dock9
  -GOLD-   2272017403D 1   1.00000     0.00000
 Structure written by MMmdl.
 35 37  0  0  0  0  0  0  0  0  2 V2000
  153.6968  140.9872  160.4641 C   0  0  0  0  0  0  0  0  0  0  0  0
  152.6986  140.7067  159.4887 O   0  0  0  0  0  0  0  0  0  0  0  0
  152.0467  141.7686  158.8963 C   0  0  0  0  0  0  0  0  0  0  0  0
  152.3490  143.0796  159.2993 C   0  0  0  0  0  0  0  0  0  0  0  0
  151.6538  144.1230  158.6581 C   0  0  0  0  0  0  0  0  0  0  0  0
  151.8943  145.5783  158.9980 C   0  0  0  0  0  0  0  0  0  0  0  0
  150.7376  143.8407  157.6986 N   0  3  0  0  0  0  0  0  0  0  0  0
  150.4957  142.5662  157.3579 C   0  0  0  0  0  0  0  0  0  0  0  0
  149.5583  142.3347  156.3674 N   0  0  0  0  0  0  0  0  0  0  0  0
  149.1871  141.0092  155.8888 C   0  0  2  0  0  0  0  0  0  0  0  0
  150.3957  140.0873  155.6813 C   0  0  0  0  0  0  0  0  0  0  0  0
  150.2391  139.6878  154.2089 C   0  0  1  0  0  0  0  0  0  0  0  0
  149.0304  138.7698  153.9813 C   0  0  0  0  0  0  0  0  0  0  0  0
  147.8636  139.7443  154.1390 C   0  0  0  0  0  0  0  0  0  0  0  0
  148.5888  141.0551  154.4732 C   0  0  2  0  0  0  0  0  0  0  0  0
  149.7502  140.9045  153.6729 O   0  0  0  0  0  0  0  0  0  0  0  0
  151.1256  141.5324  157.9333 N   0  0  0  0  0  0  0  0  0  0  0  0
  154.1080  140.0502  160.8394 H   0  0  0  0  0  0  0  0  0  0  0  0
  153.2827  141.5306  161.3149 H   0  0  0  0  0  0  0  0  0  0  0  0
  154.5204  141.5627  160.0388 H   0  0  0  0  0  0  0  0  0  0  0  0
  153.0846  143.2736  160.0665 H   0  0  0  0  0  0  0  0  0  0  0  0
  152.5647  145.6777  159.8521 H   0  0  0  0  0  0  0  0  0  0  0  0
  150.9543  146.0729  159.2447 H   0  0  0  0  0  0  0  0  0  0  0  0
  152.3435  146.0950  158.1494 H   0  0  0  0  0  0  0  0  0  0  0  0
  149.2201  143.1338  155.8513 H   0  0  0  0  0  0  0  0  0  0  0  0
  148.4680  140.5723  156.5831 H   0  0  0  0  0  0  0  0  0  0  0  0
  151.3387  140.6167  155.8277 H   0  0  0  0  0  0  0  0  0  0  0  0
  150.3864  139.2259  156.3499 H   0  0  0  0  0  0  0  0  0  0  0  0
  151.1601  139.3314  153.7470 H   0  0  0  0  0  0  0  0  0  0  0  0
  149.0438  138.3492  152.9752 H   0  0  0  0  0  0  0  0  0  0  0  0
  148.9960  137.9469  154.6959 H   0  0  0  0  0  0  0  0  0  0  0  0
  147.3135  139.8356  153.2016 H   0  0  0  0  0  0  0  0  0  0  0  0
  147.1618  139.4439  154.9176 H   0  0  0  0  0  0  0  0  0  0  0  0
  147.9984  141.9464  154.2573 H   0  0  0  0  0  0  0  0  0  0  0  0
  150.2427  144.6057  157.2396 H   0  0  0  0  0  0  0  0  0  0  0  0
  1  2  1  0  0  0  0
  1 18  1  0  0  0  0
  1 19  1  0  0  0  0
  1 20  1  0  0  0  0
  2  3  1  0  0  0  0
  3 17  1  0  0  0  0
  3  4  2  0  0  0  0
  4  5  1  0  0  0  0
  4 21  1  0  0  0  0
  5  6  1  0  0  0  0
  5  7  2  0  0  0  0
  6 22  1  0  0  0  0
  6 23  1  0  0  0  0
  6 24  1  0  0  0  0
  7  8  1  0  0  0  0
  7 35  1  0  0  0  0
  8  9  1  0  0  0  0
  8 17  2  0  0  0  0
  9 10  1  0  0  0  0
  9 25  1  0  0  0  0
 10 15  1  0  0  0  0
 10 11  1  0  0  0  0
 10 26  1  0  0  0  0
 11 12  1  0  0  0  0
 11 27  1  0  0  0  0
 11 28  1  0  0  0  0
 12 16  1  0  0  0  0
 12 13  1  0  0  0  0
 12 29  1  0  0  0  0
 13 14  1  0  0  0  0
 13 30  1  0  0  0  0
 13 31  1  0  0  0  0
 14 15  1  0  0  0  0
 14 32  1  0  0  0  0
 14 33  1  0  0  0  0
 15 16  1  0  0  0  0
 15 34  1  0  0  0  0
M  CHG  1   7   1
M  END
> <s_m_source_file>
AV-unprocessed.smi

> <i_m_source_file_index>
3148

> <i_lp_mmshare_version>
43012

> <i_f3d_flags>
0

> <s_epik_input>
W0NIM11PYzFbY0hdYyhbQ0gzXSluYyhuMSlbTkhdW0NASF0oW0NIMl1bQ0BASF0yMylbQ0BASF0oTzMpW0NIMl1bQ0gyXTI=

> <s_epik_cmdline>
J2VwaWtfcHl0aG9uJywgJy1waCcsICc3LjAnLCAnLXRuJywgJzgnLCAnLW1hJywgJzIwMCcsICctbWV0YWxfYmluZGluZycsICctaW1hZScsICc8aW5maWxlLm1hZT4nLCAnLW9tYWUnLCAnPG91dGZpbGUubWFlPic=

> <r_lp_tautomer_probability>
0.999985

> <r_epik_Ionization_Penalty>
1.09461

> <r_epik_Ionization_Penalty_Charging>
1.0946

> <r_epik_Ionization_Penalty_Neutral>
6.69406e-06

> <r_epik_State_Penalty>
1.15119

> <r_epik_Charging_Adjusted_Penalty>
2.24579

> <i_epik_Tot_Q>
1

> <i_epik_Tot_abs_Q>
1

> <r_epik_Metal_State_Penalty>
1.2392

> <b_epik_Metal_Only>
0

> <s_lp_Force_Field>
OPLS_2005

> <r_lp_Energy>
35.8621

> <b_lp_Chiralities_Consistent>
1

> <s_lp_Variant>
AV-unprocessed.smi:3148-5

> <Gold.Version>
5.8.1

> <Gold.Id.Protein>
6NUR|6NUR_protein|mol2

> <Gold.PLP.Fitness>
43.4963

> <Gold.PLP.PLP>
-31.6226

> <Gold.PLP.part.hbond>
-3.9942

> <Gold.PLP.part.metal>
0.0000

> <Gold.PLP.part.buried>
-1.1312

> <Gold.PLP.part.nonpolar>
-28.5582

> <Gold.PLP.part.repulsive>
2.8896

> <Gold.PLP.ligand.clash>
0.0731

> <Gold.PLP.ligand.torsion>
0.2756

> <Gold.PLP.Chemscore.Hbond>
4.1597

> <Gold.PLP.Chemscore.CHOScore>
0.0000

> <Gold.PLP.Chemscore.Metal>
0.0000

> <Gold.Chemscore.Hbonds>
donor molecule, donor type, donor heavy atom, donor atom, acceptor molecule, acceptor atom, score
      L1  H     7    35       P1  8028  1.38
      L1  H     9    25       P1  8028  2.00
      P1  H  8011  8017       L1    16  1.00

> <Gold.PLP.Chemscore.Internal.Correction>
0.0190

> <Gold.Rescore>
     Score         DG    S(hbond)    S(metal)    S(lipo)     H(rot)  DE(clash)    DE(int)     intcor
     15.72     -20.09       2.42        0.00      82.91       1.24       2.98       1.40       ----

> <Gold.Chemscore.Fitness>
15.7191

> <Gold.Chemscore.DG>
-20.0932

> <Gold.Chemscore.ZeroCoef>
-5.4800

> <Gold.Chemscore.Hbond>
2.4194

> <Gold.Chemscore.Metal>
0.0000

> <Gold.Chemscore.Lipo>
82.9099

> <Gold.Chemscore.Internal_Hbond>
0.0000

> <Gold.Chemscore.DEClash>
2.9776

> <Gold.Chemscore.DEInternal>
1.3966

> <Gold.Chemscore.Rot>
1.2376

> <Gold.Chemscore.Internal.Correction>
   9.000000E+99

> <Gold.Chemscore.Hbonds>
donor molecule, donor type, donor heavy atom, donor atom, acceptor molecule, acceptor atom, score
      L1  H     7    35       P1  8028  0.29
      L1  H     9    25       P1  8028  0.97
      P1  H  8011  8017       L1    16  0.62

> <Gold.Chemscore.Hbond.Weighted>
-8.0809

> <Gold.Chemscore.Metal.Weighted>
-0.0000

> <Gold.Chemscore.Lipo.Weighted>
-9.7005

> <Gold.Chemscore.Internal_Hbond.Weighted>
0.0000

> <Gold.Chemscore.DEClash.Weighted>
2.9776

> <Gold.Chemscore.DEInternal.Weighted>
1.3966

> <Gold.Chemscore.Rot.Weighted>
3.1681

> <Gold.Chemscore.Internal.Correction.Weighted>
   9.000000E+99

> <Gold.Protein.RotatedTorsions>
[ 6907 6896 6895 6894 ] final  -32.47 input  -60.11 | X-H torsion
[ 7974 7965 7964 7962 ] final  175.35 input  175.53 | X-H torsion
[ 8008 7997 7996 7995 ] final -145.15 input   59.86 | X-H torsion
[ 10167 10162 10161 10158 ] final -171.76 input  -65.29 | X-H torsion
[ 10718 10713 10712 10709 ] final -125.08 input   66.30 | X-H torsion
[ 10763 10752 10751 10750 ] final  116.15 input  -60.55 | X-H torsion
[ 11005 11000 10999 10996 ] final   76.85 input  -57.11 | X-H torsion

> <Gold.Protein.ActiveResidues>
 VAL166  LYS551  ARG553  GLY616  TRP617  ASP618  TYR619  PRO620  LYS621  CYS622 
 ASP623  PHE694  ASN695  SER759  ASP760  ASP761  ALA762  ILE779  LEU786  VAL792 
 PHE793  MET794  SER795  GLU796  ALA797  LYS798  CYS799  TRP800  GLU811  SER814 

> <Gold.Protein.RotatedAtoms>
  151.0783  134.9842  159.8342 H   0  0  0  0  0  0  0  0  0  0  0  0  # atno 6907 bound_to 6896
  152.5416  134.2213  159.8799 H   0  0  0  0  0  0  0  0  0  0  0  0  # atno 6908 bound_to 6896
  151.2242  133.4442  159.2635 H   0  0  0  0  0  0  0  0  0  0  0  0  # atno 6909 bound_to 6896
  144.7203  139.9934  143.6440 H   0  0  0  0  0  0  0  0  0  0  0  0  # atno 7974 bound_to 7965
  155.5385  140.0606  157.2875 H   0  0  0  0  0  0  0  0  0  0  0  0  # atno 8008 bound_to 7997
  154.4460  140.1923  156.0611 H   0  0  0  0  0  0  0  0  0  0  0  0  # atno 8009 bound_to 7997
  156.0601  140.3273  155.7456 H   0  0  0  0  0  0  0  0  0  0  0  0  # atno 8010 bound_to 7997
  139.5783  144.1480  152.1481 H   0  0  0  0  0  0  0  0  0  0  0  0  # atno 10167 bound_to 10162
  156.1644  130.6624  151.0094 H   0  0  0  0  0  0  0  0  0  0  0  0  # atno 10718 bound_to 10713
  153.5329  135.3574  155.2684 H   0  0  0  0  0  0  0  0  0  0  0  0  # atno 10763 bound_to 10752
  154.8725  135.4072  154.3131 H   0  0  0  0  0  0  0  0  0  0  0  0  # atno 10764 bound_to 10752
  153.3823  135.7068  153.6623 H   0  0  0  0  0  0  0  0  0  0  0  0  # atno 10765 bound_to 10752
  139.9280  134.7635  156.1448 H   0  0  0  0  0  0  0  0  0  0  0  0  # atno 11005 bound_to 11000
  146.0394  139.3407  143.0707 LP  0  0  0  0  0  0  0  0  0  0  0  0  # atno 17320 bound_to 7965
  145.8354  140.9609  143.0827 LP  0  0  0  0  0  0  0  0  0  0  0  0  # atno 17321 bound_to 7965
  140.1028  144.5524  150.6977 LP  0  0  0  0  0  0  0  0  0  0  0  0  # atno 17342 bound_to 10162
  140.7064  143.2471  151.4713 LP  0  0  0  0  0  0  0  0  0  0  0  0  # atno 17343 bound_to 10162
  157.6757  131.0851  150.7501 LP  0  0  0  0  0  0  0  0  0  0  0  0  # atno 17370 bound_to 10713
  156.7562  130.4784  149.5446 LP  0  0  0  0  0  0  0  0  0  0  0  0  # atno 17371 bound_to 10713
  141.0850  133.6738  156.2417 LP  0  0  0  0  0  0  0  0  0  0  0  0  # atno 17394 bound_to 11000
  140.6282  134.5291  157.5556 LP  0  0  0  0  0  0  0  0  0  0  0  0  # atno 17395 bound_to 11000

$$$$
