AV-unprocessed.smi:2813|AV-procd|sdf|10838|dock10
  -GOLD-   2272015283D 1   1.00000     0.00000
 Structure written by MMmdl.
 41 42  0  0  0  0  0  0  0  0  1 V2000
  146.4119  138.0590  153.7500 C   0  0  0  0  0  0  0  0  0  0  0  0
  147.8624  138.1458  154.1908 C   0  0  0  0  0  0  0  0  0  0  0  0
  148.4421  136.9413  154.5995 N   0  0  0  0  0  0  0  0  0  0  0  0
  149.6738  136.9189  154.9922 C   0  0  0  0  0  0  0  0  0  0  0  0
  150.4619  138.0813  155.0173 N   0  0  0  0  0  0  0  0  0  0  0  0
  151.8496  137.9191  155.4835 C   0  0  0  0  0  0  0  0  0  0  0  0
  151.9229  137.2339  156.8672 C   0  0  1  0  0  0  0  0  0  0  0  0
  152.5600  135.9825  156.6980 O   0  0  0  0  0  0  0  0  0  0  0  0
  152.7698  138.0422  157.8651 C   0  0  0  0  0  0  0  0  0  0  0  0
  152.6630  139.4232  157.5444 O   0  0  0  0  0  0  0  0  0  0  0  0
  152.7536  140.3428  158.5673 C   0  0  0  0  0  0  0  0  0  0  0  0
  153.4740  139.9524  159.7140 C   0  0  0  0  0  0  0  0  0  0  0  0
  153.6149  140.8267  160.8074 C   0  0  0  0  0  0  0  0  0  0  0  0
  153.0373  142.1087  160.7628 C   0  0  0  0  0  0  0  0  0  0  0  0
  152.3171  142.5227  159.6222 C   0  0  0  0  0  0  0  0  0  0  0  0
  151.6822  143.9047  159.5678 C   0  0  0  0  0  0  0  0  0  0  0  0
  152.1971  144.6193  158.5667 F   0  0  0  0  0  0  0  0  0  0  0  0
  150.3702  143.7771  159.3734 F   0  0  0  0  0  0  0  0  0  0  0  0
  151.8837  144.5742  160.7032 F   0  0  0  0  0  0  0  0  0  0  0  0
  152.1724  141.6358  158.5328 C   0  0  0  0  0  0  0  0  0  0  0  0
  149.9721  139.2991  154.6443 C   0  0  0  0  0  0  0  0  0  0  0  0
  150.6681  140.3155  154.6843 O   0  0  0  0  0  0  0  0  0  0  0  0
  148.5693  139.3090  154.1984 C   0  0  0  0  0  0  0  0  0  0  0  0
  147.9904  140.6505  153.7665 C   0  0  0  0  0  0  0  0  0  0  0  0
  146.3048  138.3922  152.7173 H   0  0  0  0  0  0  0  0  0  0  0  0
  145.7825  138.6823  154.3858 H   0  0  0  0  0  0  0  0  0  0  0  0
  146.0389  137.0356  153.8102 H   0  0  0  0  0  0  0  0  0  0  0  0
  150.1705  136.0069  155.3278 H   0  0  0  0  0  0  0  0  0  0  0  0
  152.4684  137.3870  154.7576 H   0  0  0  0  0  0  0  0  0  0  0  0
  152.3038  138.9097  155.5414 H   0  0  0  0  0  0  0  0  0  0  0  0
  150.9215  137.0902  157.2751 H   0  0  0  0  0  0  0  0  0  0  0  0
  152.2734  135.4025  157.3868 H   0  0  0  0  0  0  0  0  0  0  0  0
  152.4590  137.8391  158.8917 H   0  0  0  0  0  0  0  0  0  0  0  0
  153.8183  137.7549  157.7707 H   0  0  0  0  0  0  0  0  0  0  0  0
  153.9217  138.9701  159.7569 H   0  0  0  0  0  0  0  0  0  0  0  0
  154.1663  140.5126  161.6813 H   0  0  0  0  0  0  0  0  0  0  0  0
  153.1489  142.7696  161.6097 H   0  0  0  0  0  0  0  0  0  0  0  0
  151.6065  141.9692  157.6767 H   0  0  0  0  0  0  0  0  0  0  0  0
  148.0345  141.3620  154.5917 H   0  0  0  0  0  0  0  0  0  0  0  0
  146.9526  140.5869  153.4434 H   0  0  0  0  0  0  0  0  0  0  0  0
  148.5671  141.0588  152.9358 H   0  0  0  0  0  0  0  0  0  0  0  0
  1  2  1  0  0  0  0
  1 25  1  0  0  0  0
  1 26  1  0  0  0  0
  1 27  1  0  0  0  0
  2 23  2  0  0  0  0
  2  3  1  0  0  0  0
  3  4  2  0  0  0  0
  4  5  1  0  0  0  0
  4 28  1  0  0  0  0
  5  6  1  0  0  0  0
  5 21  1  0  0  0  0
  6  7  1  0  0  0  0
  6 29  1  0  0  0  0
  6 30  1  0  0  0  0
  7  8  1  0  0  0  0
  7  9  1  0  0  0  0
  7 31  1  0  0  0  0
  8 32  1  0  0  0  0
  9 10  1  0  0  0  0
  9 33  1  0  0  0  0
  9 34  1  0  0  0  0
 10 11  1  0  0  0  0
 11 20  1  0  0  0  0
 11 12  2  0  0  0  0
 12 13  1  0  0  0  0
 12 35  1  0  0  0  0
 13 14  2  0  0  0  0
 13 36  1  0  0  0  0
 14 15  1  0  0  0  0
 14 37  1  0  0  0  0
 15 16  1  0  0  0  0
 15 20  2  0  0  0  0
 16 17  1  0  0  0  0
 16 18  1  0  0  0  0
 16 19  1  0  0  0  0
 20 38  1  0  0  0  0
 21 22  2  0  0  0  0
 21 23  1  0  0  0  0
 23 24  1  0  0  0  0
 24 39  1  0  0  0  0
 24 40  1  0  0  0  0
 24 41  1  0  0  0  0
M  END
> <s_m_source_file>
AV-unprocessed.smi

> <i_m_source_file_index>
2813

> <i_lp_mmshare_version>
43012

> <i_f3d_flags>
0

> <s_epik_input>
W0NIM11jMW5bY0hdbihjKD1PKWMxW0NIM10pW0NIMl1bQ0BIXShbT0hdKVtDSDJdT2MyW2NIXVtjSF1bY0hdYyhDKEYpKEYpRilbY0hdMg==

> <s_epik_cmdline>
J2VwaWtfcHl0aG9uJywgJy1waCcsICc3LjAnLCAnLXRuJywgJzgnLCAnLW1hJywgJzIwMCcsICctbWV0YWxfYmluZGluZycsICctaW1hZScsICc8aW5maWxlLm1hZT4nLCAnLW9tYWUnLCAnPG91dGZpbGUubWFlPic=

> <r_lp_tautomer_probability>
1

> <r_epik_Ionization_Penalty>
3.72236e-05

> <r_epik_Ionization_Penalty_Charging>
8.38864e-08

> <r_epik_Ionization_Penalty_Neutral>
3.71397e-05

> <r_epik_State_Penalty>
-0

> <r_epik_Charging_Adjusted_Penalty>
8.38864e-08

> <i_epik_Tot_Q>
0

> <i_epik_Tot_abs_Q>
0

> <r_epik_Metal_State_Penalty>
-0

> <b_epik_Metal_Only>
0

> <s_lp_Force_Field>
OPLS_2005

> <r_lp_Energy>
24.625

> <b_lp_Chiralities_Consistent>
1

> <s_lp_Variant>
AV-unprocessed.smi:2813-2

> <Gold.Version>
5.8.1

> <Gold.Id.Protein>
6NUR|6NUR_protein|mol2

> <Gold.PLP.Fitness>
54.1061

> <Gold.PLP.PLP>
-48.6143

> <Gold.PLP.part.hbond>
-2.7873

> <Gold.PLP.part.metal>
0.0000

> <Gold.PLP.part.buried>
-5.5395

> <Gold.PLP.part.nonpolar>
-41.6296

> <Gold.PLP.part.repulsive>
0.7843

> <Gold.PLP.ligand.clash>
0.9871

> <Gold.PLP.ligand.torsion>
1.7156

> <Gold.PLP.Chemscore.Hbond>
2.9600

> <Gold.PLP.Chemscore.CHOScore>
0.0000

> <Gold.PLP.Chemscore.Metal>
0.0000

> <Gold.Chemscore.Hbonds>
donor molecule, donor type, donor heavy atom, donor atom, acceptor molecule, acceptor atom, score
      P1  H  7989  7998       L1    22  1.00
      P1  H  7997  8009       L1    10  0.65
      P1  H 10752 10763       L1     8  1.00

> <Gold.PLP.Chemscore.Internal.Correction>
1.0301

> <Gold.Rescore>
     Score         DG    S(hbond)    S(metal)    S(lipo)     H(rot)  DE(clash)    DE(int)     intcor
     15.05     -16.86       1.90        0.00     102.65       2.73       0.12       1.69       ----

> <Gold.Chemscore.Fitness>
15.0460

> <Gold.Chemscore.DG>
-16.8597

> <Gold.Chemscore.ZeroCoef>
-5.4800

> <Gold.Chemscore.Hbond>
1.9038

> <Gold.Chemscore.Metal>
0.0000

> <Gold.Chemscore.Lipo>
102.6472

> <Gold.Chemscore.Internal_Hbond>
0.0000

> <Gold.Chemscore.DEClash>
0.1208

> <Gold.Chemscore.DEInternal>
1.6928

> <Gold.Chemscore.Rot>
2.7300

> <Gold.Chemscore.Internal.Correction>
   9.000000E+99

> <Gold.Chemscore.Hbonds>
donor molecule, donor type, donor heavy atom, donor atom, acceptor molecule, acceptor atom, score
      P1  H  7989  7998       L1    22  0.99
      P1  H  7997  8009       L1    10  0.05
      P1  H 10752 10763       L1     8  0.94

> <Gold.Chemscore.Hbond.Weighted>
-6.3587

> <Gold.Chemscore.Metal.Weighted>
-0.0000

> <Gold.Chemscore.Lipo.Weighted>
-12.0097

> <Gold.Chemscore.Internal_Hbond.Weighted>
0.0000

> <Gold.Chemscore.DEClash.Weighted>
0.1208

> <Gold.Chemscore.DEInternal.Weighted>
1.6928

> <Gold.Chemscore.Rot.Weighted>
6.9888

> <Gold.Chemscore.Internal.Correction.Weighted>
   9.000000E+99

> <Gold.Protein.RotatedTorsions>
[ 6907 6896 6895 6894 ] final   38.76 input  -60.11 | X-H torsion
[ 7974 7965 7964 7962 ] final -143.64 input  175.53 | X-H torsion
[ 8008 7997 7996 7995 ] final -175.55 input   59.86 | X-H torsion
[ 10167 10162 10161 10158 ] final  121.84 input  -65.29 | X-H torsion
[ 10718 10713 10712 10709 ] final   40.37 input   66.30 | X-H torsion
[ 10763 10752 10751 10750 ] final  125.93 input  -60.55 | X-H torsion
[ 11005 11000 10999 10996 ] final  -79.04 input  -57.11 | X-H torsion

> <Gold.Protein.ActiveResidues>
 VAL166  LYS551  ARG553  GLY616  TRP617  ASP618  TYR619  PRO620  LYS621  CYS622 
 ASP623  PHE694  ASN695  SER759  ASP760  ASP761  ALA762  ILE779  LEU786  VAL792 
 PHE793  MET794  SER795  GLU796  ALA797  LYS798  CYS799  TRP800  GLU811  SER814 

> <Gold.Protein.RotatedAtoms>
  152.1607  134.8915  160.0541 H   0  0  0  0  0  0  0  0  0  0  0  0  # atno 6907 bound_to 6896
  151.9912  133.3786  159.4153 H   0  0  0  0  0  0  0  0  0  0  0  0  # atno 6908 bound_to 6896
  150.6887  134.3857  159.5098 H   0  0  0  0  0  0  0  0  0  0  0  0  # atno 6909 bound_to 6896
  144.8355  140.5810  143.5487 H   0  0  0  0  0  0  0  0  0  0  0  0  # atno 7974 bound_to 7965
  155.9839  140.1187  157.0701 H   0  0  0  0  0  0  0  0  0  0  0  0  # atno 8008 bound_to 7997
  154.4191  140.1139  156.5541 H   0  0  0  0  0  0  0  0  0  0  0  0  # atno 8009 bound_to 7997
  155.6434  140.3473  155.4725 H   0  0  0  0  0  0  0  0  0  0  0  0  # atno 8010 bound_to 7997
  139.5895  144.7020  151.3325 H   0  0  0  0  0  0  0  0  0  0  0  0  # atno 10167 bound_to 10162
  157.3814  130.7755  149.7196 H   0  0  0  0  0  0  0  0  0  0  0  0  # atno 10718 bound_to 10713
  153.6853  135.3308  155.3188 H   0  0  0  0  0  0  0  0  0  0  0  0  # atno 10763 bound_to 10752
  154.8455  135.4418  154.1564 H   0  0  0  0  0  0  0  0  0  0  0  0  # atno 10764 bound_to 10752
  153.2591  135.6989  153.7674 H   0  0  0  0  0  0  0  0  0  0  0  0  # atno 10765 bound_to 10752
  141.1666  133.7088  156.8062 H   0  0  0  0  0  0  0  0  0  0  0  0  # atno 11005 bound_to 11000
  145.4804  139.1496  143.3765 LP  0  0  0  0  0  0  0  0  0  0  0  0  # atno 17320 bound_to 7965
  146.2654  140.4940  142.8836 LP  0  0  0  0  0  0  0  0  0  0  0  0  # atno 17321 bound_to 7965
  140.7161  143.7263  150.7657 LP  0  0  0  0  0  0  0  0  0  0  0  0  # atno 17342 bound_to 10162
  140.0815  143.4964  152.2527 LP  0  0  0  0  0  0  0  0  0  0  0  0  # atno 17343 bound_to 10162
  155.9776  130.4060  150.3698 LP  0  0  0  0  0  0  0  0  0  0  0  0  # atno 17370 bound_to 10713
  157.1803  131.0390  151.2752 LP  0  0  0  0  0  0  0  0  0  0  0  0  # atno 17371 bound_to 10713
  140.2220  134.8750  157.3387 LP  0  0  0  0  0  0  0  0  0  0  0  0  # atno 17394 bound_to 11000
  140.1978  134.4292  155.7679 LP  0  0  0  0  0  0  0  0  0  0  0  0  # atno 17395 bound_to 11000

$$$$
