AV-unprocessed.smi:1865|AV-procd|sdf|7554|dock10
  -GOLD-   22720 9273D 1   1.00000     0.00000
 Structure written by MMmdl.
 40 41  0  0  0  0  0  0  0  0  1 V2000
  150.5238  140.1870  154.3369 O   0  0  0  0  0  0  0  0  0  0  0  0
  150.7829  140.2115  155.5405 C   0  0  0  0  0  0  0  0  0  0  0  0
  150.6079  141.5013  156.3481 C   0  0  0  0  0  0  0  0  0  0  0  0
  151.0874  141.3680  157.8062 C   0  0  0  0  0  0  0  0  0  0  0  0
  151.1399  142.7151  158.5488 C   0  0  0  0  0  0  0  0  0  0  0  0
  151.6297  143.8733  157.6774 C   0  0  0  0  0  0  0  0  0  0  0  0
  152.0358  144.9607  158.6749 C   0  0  0  0  0  0  0  0  0  0  0  0
  152.4479  144.2248  159.9583 C   0  0  0  0  0  0  0  0  0  0  0  0
  152.1041  142.7452  159.7403 C   0  0  0  0  0  0  0  0  0  0  0  0
  151.2340  139.1438  156.2166 N   0  0  0  0  0  0  0  0  0  0  0  0
  151.4871  137.8298  155.6372 C   0  0  0  0  0  0  0  0  0  0  0  0
  150.1959  137.1804  155.1130 C   0  0  0  0  0  0  0  0  0  0  0  0
  150.0642  135.7372  155.5581 C   0  0  0  0  0  0  0  0  0  0  0  0
  150.0373  134.6876  154.6171 C   0  0  0  0  0  0  0  0  0  0  0  0
  149.9077  133.3643  155.0809 C   0  0  0  0  0  0  0  0  0  0  0  0
  149.8096  133.1470  156.4698 C   0  0  0  0  0  0  0  0  0  0  0  0
  149.8331  134.1446  157.3800 N   0  0  0  0  0  0  0  0  0  0  0  0
  149.9581  135.4106  156.9268 C   0  0  0  0  0  0  0  0  0  0  0  0
  151.1519  142.3107  155.8585 H   0  0  0  0  0  0  0  0  0  0  0  0
  149.5525  141.7737  156.3233 H   0  0  0  0  0  0  0  0  0  0  0  0
  150.4414  140.6784  158.3518 H   0  0  0  0  0  0  0  0  0  0  0  0
  152.0836  140.9227  157.8149 H   0  0  0  0  0  0  0  0  0  0  0  0
  150.1397  142.9652  158.9069 H   0  0  0  0  0  0  0  0  0  0  0  0
  152.5027  143.5633  157.1009 H   0  0  0  0  0  0  0  0  0  0  0  0
  150.8725  144.2172  156.9723 H   0  0  0  0  0  0  0  0  0  0  0  0
  152.8343  145.5927  158.2852 H   0  0  0  0  0  0  0  0  0  0  0  0
  151.1808  145.6052  158.8836 H   0  0  0  0  0  0  0  0  0  0  0  0
  153.5115  144.3476  160.1661 H   0  0  0  0  0  0  0  0  0  0  0  0
  151.9013  144.6263  160.8123 H   0  0  0  0  0  0  0  0  0  0  0  0
  151.6771  142.2862  160.6324 H   0  0  0  0  0  0  0  0  0  0  0  0
  153.0148  142.1969  159.4948 H   0  0  0  0  0  0  0  0  0  0  0  0
  151.4232  139.2518  157.2027 H   0  0  0  0  0  0  0  0  0  0  0  0
  152.2277  137.9106  154.8393 H   0  0  0  0  0  0  0  0  0  0  0  0
  151.9310  137.2013  156.4099 H   0  0  0  0  0  0  0  0  0  0  0  0
  149.3267  137.7417  155.4586 H   0  0  0  0  0  0  0  0  0  0  0  0
  150.1697  137.2131  154.0227 H   0  0  0  0  0  0  0  0  0  0  0  0
  150.1128  134.8908  153.5590 H   0  0  0  0  0  0  0  0  0  0  0  0
  149.8837  132.5353  154.3892 H   0  0  0  0  0  0  0  0  0  0  0  0
  149.7089  132.1451  156.8602 H   0  0  0  0  0  0  0  0  0  0  0  0
  149.9716  136.1858  157.6789 H   0  0  0  0  0  0  0  0  0  0  0  0
  1  2  2  0  0  0  0
  2  3  1  0  0  0  0
  2 10  1  0  0  0  0
  3  4  1  0  0  0  0
  3 19  1  0  0  0  0
  3 20  1  0  0  0  0
  4  5  1  0  0  0  0
  4 21  1  0  0  0  0
  4 22  1  0  0  0  0
  5  9  1  0  0  0  0
  5  6  1  0  0  0  0
  5 23  1  0  0  0  0
  6  7  1  0  0  0  0
  6 24  1  0  0  0  0
  6 25  1  0  0  0  0
  7  8  1  0  0  0  0
  7 26  1  0  0  0  0
  7 27  1  0  0  0  0
  8  9  1  0  0  0  0
  8 28  1  0  0  0  0
  8 29  1  0  0  0  0
  9 30  1  0  0  0  0
  9 31  1  0  0  0  0
 10 11  1  0  0  0  0
 10 32  1  0  0  0  0
 11 12  1  0  0  0  0
 11 33  1  0  0  0  0
 11 34  1  0  0  0  0
 12 13  1  0  0  0  0
 12 35  1  0  0  0  0
 12 36  1  0  0  0  0
 13 18  1  0  0  0  0
 13 14  2  0  0  0  0
 14 15  1  0  0  0  0
 14 37  1  0  0  0  0
 15 16  2  0  0  0  0
 15 38  1  0  0  0  0
 16 17  1  0  0  0  0
 16 39  1  0  0  0  0
 17 18  2  0  0  0  0
 18 40  1  0  0  0  0
M  END
> <s_m_source_file>
AV-unprocessed.smi

> <i_m_source_file_index>
1865

> <i_lp_mmshare_version>
43012

> <i_f3d_flags>
0

> <s_epik_input>
W0NIMl0xW0NIMl1bQ0gyXVtDSDJdW0NIXTFbQ0gyXVtDSDJdQyg9TylbTkhdW0NIMl1bQ0gyXWMyW2NIXVtjSF1bY0hdbltjSF0y

> <s_epik_cmdline>
J2VwaWtfcHl0aG9uJywgJy1waCcsICc3LjAnLCAnLXRuJywgJzgnLCAnLW1hJywgJzIwMCcsICctbWV0YWxfYmluZGluZycsICctaW1hZScsICc8aW5maWxlLm1hZT4nLCAnLW9tYWUnLCAnPG91dGZpbGUubWFlPic=

> <r_epik_Ionization_Penalty>
0.0133844

> <r_epik_Ionization_Penalty_Charging>
0

> <r_epik_Ionization_Penalty_Neutral>
0.0133844

> <r_epik_State_Penalty>
0.0104136

> <r_epik_Charging_Adjusted_Penalty>
0.0104136

> <i_epik_Tot_Q>
0

> <i_epik_Tot_abs_Q>
0

> <r_epik_Metal_State_Penalty>
0.0101831

> <b_epik_Metal_Only>
0

> <s_lp_Force_Field>
OPLS_2005

> <r_lp_Energy>
19.5978

> <b_lp_Chiralities_Consistent>
1

> <s_lp_Variant>
AV-unprocessed.smi:1865-1

> <Gold.Version>
5.8.1

> <Gold.Id.Protein>
6NUR|6NUR_protein|mol2

> <Gold.PLP.Fitness>
42.5828

> <Gold.PLP.PLP>
-38.5059

> <Gold.PLP.part.hbond>
-2.0000

> <Gold.PLP.part.metal>
0.0000

> <Gold.PLP.part.buried>
-5.7303

> <Gold.PLP.part.nonpolar>
-32.0528

> <Gold.PLP.part.repulsive>
0.1945

> <Gold.PLP.ligand.clash>
0.4433

> <Gold.PLP.ligand.torsion>
0.6271

> <Gold.PLP.Chemscore.Hbond>
1.9120

> <Gold.PLP.Chemscore.CHOScore>
0.0000

> <Gold.PLP.Chemscore.Metal>
0.0000

> <Gold.Chemscore.Hbonds>
donor molecule, donor type, donor heavy atom, donor atom, acceptor molecule, acceptor atom, score
      P1  H  6896  6908       L1    17  0.72
      P1  H  7989  7998       L1     1  1.00

> <Gold.PLP.Chemscore.Internal.Correction>
0.0383

> <Gold.Rescore>
     Score         DG    S(hbond)    S(metal)    S(lipo)     H(rot)  DE(clash)    DE(int)     intcor
     18.77     -19.39       1.76        0.00     102.75       1.56       0.00       0.62       ----

> <Gold.Chemscore.Fitness>
18.7746

> <Gold.Chemscore.DG>
-19.3946

> <Gold.Chemscore.ZeroCoef>
-5.4800

> <Gold.Chemscore.Hbond>
1.7635

> <Gold.Chemscore.Metal>
0.0000

> <Gold.Chemscore.Lipo>
102.7478

> <Gold.Chemscore.Internal_Hbond>
0.0000

> <Gold.Chemscore.DEClash>
0.0000

> <Gold.Chemscore.DEInternal>
0.6201

> <Gold.Chemscore.Rot>
1.5614

> <Gold.Chemscore.Internal.Correction>
   9.000000E+99

> <Gold.Chemscore.Hbonds>
donor molecule, donor type, donor heavy atom, donor atom, acceptor molecule, acceptor atom, score
      P1  H  6896  6908       L1    17  0.57
      P1  H  7989  7998       L1     1  0.77

> <Gold.Chemscore.Hbond.Weighted>
-5.8902

> <Gold.Chemscore.Metal.Weighted>
-0.0000

> <Gold.Chemscore.Lipo.Weighted>
-12.0215

> <Gold.Chemscore.Internal_Hbond.Weighted>
0.0000

> <Gold.Chemscore.DEClash.Weighted>
0.0000

> <Gold.Chemscore.DEInternal.Weighted>
0.6201

> <Gold.Chemscore.Rot.Weighted>
3.9971

> <Gold.Chemscore.Internal.Correction.Weighted>
   9.000000E+99

> <Gold.Protein.RotatedTorsions>
[ 6907 6896 6895 6894 ] final  119.89 input  -60.11 | X-H torsion
[ 7974 7965 7964 7962 ] final   65.82 input  175.53 | X-H torsion
[ 8008 7997 7996 7995 ] final -113.94 input   59.86 | X-H torsion
[ 10167 10162 10161 10158 ] final   59.05 input  -65.29 | X-H torsion
[ 10718 10713 10712 10709 ] final  150.88 input   66.30 | X-H torsion
[ 10763 10752 10751 10750 ] final  112.00 input  -60.55 | X-H torsion
[ 11005 11000 10999 10996 ] final -141.69 input  -57.11 | X-H torsion

> <Gold.Protein.ActiveResidues>
 VAL166  LYS551  ARG553  GLY616  TRP617  ASP618  TYR619  PRO620  LYS621  CYS622 
 ASP623  PHE694  ASN695  SER759  ASP760  ASP761  ALA762  ILE779  LEU786  VAL792 
 PHE793  MET794  SER795  GLU796  ALA797  LYS798  CYS799  TRP800  GLU811  SER814 

> <Gold.Protein.RotatedAtoms>
  152.4439  133.7499  159.6687 H   0  0  0  0  0  0  0  0  0  0  0  0  # atno 6907 bound_to 6896
  150.8335  133.8042  159.3095 H   0  0  0  0  0  0  0  0  0  0  0  0  # atno 6908 bound_to 6896
  151.5688  135.1065  160.0042 H   0  0  0  0  0  0  0  0  0  0  0  0  # atno 6909 bound_to 6896
  145.8340  139.3156  143.0971 H   0  0  0  0  0  0  0  0  0  0  0  0  # atno 7974 bound_to 7965
  155.0286  140.0393  157.2465 H   0  0  0  0  0  0  0  0  0  0  0  0  # atno 8008 bound_to 7997
  154.7316  140.2731  155.6428 H   0  0  0  0  0  0  0  0  0  0  0  0  # atno 8009 bound_to 7997
  156.2843  140.2683  156.2017 H   0  0  0  0  0  0  0  0  0  0  0  0  # atno 8010 bound_to 7997
  140.1806  144.4185  150.6617 H   0  0  0  0  0  0  0  0  0  0  0  0  # atno 10167 bound_to 10162
  157.2778  131.0829  151.1553 H   0  0  0  0  0  0  0  0  0  0  0  0  # atno 10718 bound_to 10713
  153.4715  135.3699  155.2393 H   0  0  0  0  0  0  0  0  0  0  0  0  # atno 10763 bound_to 10752
  154.8757  135.3932  154.3806 H   0  0  0  0  0  0  0  0  0  0  0  0  # atno 10764 bound_to 10752
  153.4395  135.7084  153.6243 H   0  0  0  0  0  0  0  0  0  0  0  0  # atno 10765 bound_to 10752
  140.8299  134.2529  157.4861 H   0  0  0  0  0  0  0  0  0  0  0  0  # atno 11005 bound_to 11000
  145.9539  140.8887  143.0245 LP  0  0  0  0  0  0  0  0  0  0  0  0  # atno 17320 bound_to 7965
  144.6738  140.1719  143.7413 LP  0  0  0  0  0  0  0  0  0  0  0  0  # atno 17321 bound_to 7965
  140.6522  143.2228  151.6051 LP  0  0  0  0  0  0  0  0  0  0  0  0  # atno 17342 bound_to 10162
  139.5298  144.2951  152.1120 LP  0  0  0  0  0  0  0  0  0  0  0  0  # atno 17343 bound_to 10162
  157.2999  130.6837  149.6158 LP  0  0  0  0  0  0  0  0  0  0  0  0  # atno 17370 bound_to 10713
  155.9664  130.4395  150.5261 LP  0  0  0  0  0  0  0  0  0  0  0  0  # atno 17371 bound_to 10713
  139.8705  134.9581  156.4288 LP  0  0  0  0  0  0  0  0  0  0  0  0  # atno 17394 bound_to 11000
  140.9009  133.7780  155.9679 LP  0  0  0  0  0  0  0  0  0  0  0  0  # atno 17395 bound_to 11000

$$$$
