AV-unprocessed.smi:72|AV-procd|sdf|758|dock2
  -GOLD-   2262017 93D 1   1.00000     0.00000
 Structure written by MMmdl.
 29 30  0  0  0  0  0  0  0  0  1 V2000
  149.8792  138.7360  153.7507 N   0  0  0  0  0  0  0  0  0  0  0  0
  150.0023  139.5004  154.8923 C   0  0  0  0  0  0  0  0  0  0  0  0
  150.1398  140.8830  154.7053 N   0  0  0  0  0  0  0  0  0  0  0  0
  150.2648  141.6026  155.7751 C   0  0  0  0  0  0  0  0  0  0  0  0
  150.2677  140.9984  157.0949 N   0  0  0  0  0  0  0  0  0  0  0  0
  150.4002  141.8464  158.3399 C   0  0  1  0  0  0  0  0  0  0  0  0
  151.5693  141.4819  159.0132 O   0  0  0  0  0  0  0  0  0  0  0  0
  152.2528  142.6511  159.4517 C   0  0  1  0  0  0  0  0  0  0  0  0
  153.7484  142.3474  159.6318 C   0  0  0  0  0  0  0  0  0  0  0  0
  153.9237  141.3223  160.5863 O   0  0  0  0  0  0  0  0  0  0  0  0
  151.9583  143.6405  158.3230 C   0  0  2  0  0  0  0  0  0  0  0  0
  152.1763  144.9884  158.6955 O   0  0  0  0  0  0  0  0  0  0  0  0
  150.5032  143.3367  157.9770 C   0  0  2  0  0  0  0  0  0  0  0  0
  149.5930  144.1058  158.7413 O   0  0  0  0  0  0  0  0  0  0  0  0
  150.0988  139.5914  157.2132 C   0  0  0  0  0  0  0  0  0  0  0  0
  150.0573  139.0597  158.3225 O   0  0  0  0  0  0  0  0  0  0  0  0
  149.9761  138.8595  156.0256 N   0  0  0  0  0  0  0  0  0  0  0  0
  149.5502  141.6092  158.9810 H   0  0  0  0  0  0  0  0  0  0  0  0
  151.8034  143.0082  160.3808 H   0  0  0  0  0  0  0  0  0  0  0  0
  152.5856  143.4074  157.4615 H   0  0  0  0  0  0  0  0  0  0  0  0
  150.2951  143.5027  156.9189 H   0  0  0  0  0  0  0  0  0  0  0  0
  149.7732  137.7321  153.7632 H   0  0  0  0  0  0  0  0  0  0  0  0
  149.8832  139.1232  152.8182 H   0  0  0  0  0  0  0  0  0  0  0  0
  150.3706  142.6881  155.7571 H   0  0  0  0  0  0  0  0  0  0  0  0
  154.2146  142.0714  158.6853 H   0  0  0  0  0  0  0  0  0  0  0  0
  154.2687  143.2303  160.0038 H   0  0  0  0  0  0  0  0  0  0  0  0
  153.6677  141.6530  161.4336 H   0  0  0  0  0  0  0  0  0  0  0  0
  153.1078  145.1344  158.7587 H   0  0  0  0  0  0  0  0  0  0  0  0
  149.0568  144.6100  158.1484 H   0  0  0  0  0  0  0  0  0  0  0  0
  1  2  1  0  0  0  0
  1 22  1  0  0  0  0
  1 23  1  0  0  0  0
  2 17  2  0  0  0  0
  2  3  1  0  0  0  0
  3  4  2  0  0  0  0
  4  5  1  0  0  0  0
  4 24  1  0  0  0  0
  5  6  1  0  0  0  0
  5 15  1  0  0  0  0
  6 18  1  0  0  0  0
  6 13  1  0  0  0  0
  6  7  1  0  0  0  0
  7  8  1  0  0  0  0
  8 19  1  0  0  0  0
  8  9  1  0  0  0  0
  8 11  1  0  0  0  0
  9 10  1  0  0  0  0
  9 25  1  0  0  0  0
  9 26  1  0  0  0  0
 10 27  1  0  0  0  0
 11 20  1  0  0  0  0
 11 12  1  0  0  0  0
 11 13  1  0  0  0  0
 12 28  1  0  0  0  0
 13 21  1  0  0  0  0
 13 14  1  0  0  0  0
 14 29  1  0  0  0  0
 15 16  2  0  0  0  0
 15 17  1  0  0  0  0
M  END
> <s_m_source_file>
AV-unprocessed.smi

> <i_m_source_file_index>
72

> <i_lp_mmshare_version>
43012

> <i_f3d_flags>
0

> <s_epik_input>
W05IMl1jMW5bY0hdbihjKD1PKW4xKVtDQEBIXTJPW0NASF0oW0NIMl1bT0hdKVtDQEBIXShbT0hdKVtDQEhdMltPSF0=

> <s_epik_cmdline>
J2VwaWtfcHl0aG9uJywgJy1waCcsICc3LjAnLCAnLXRuJywgJzgnLCAnLW1hJywgJzIwMCcsICctbWV0YWxfYmluZGluZycsICctaW1hZScsICc8aW5maWxlLm1hZT4nLCAnLW9tYWUnLCAnPG91dGZpbGUubWFlPic=

> <r_lp_tautomer_probability>
4.77166e-05

> <r_epik_Ionization_Penalty>
1.3546

> <r_epik_Ionization_Penalty_Charging>
1.46833e-10

> <r_epik_Ionization_Penalty_Neutral>
1.3546

> <r_epik_State_Penalty>
3.51908

> <r_epik_Charging_Adjusted_Penalty>
3.51908

> <i_epik_Tot_Q>
0

> <i_epik_Tot_abs_Q>
0

> <r_epik_Metal_State_Penalty>
3.44088

> <b_epik_Metal_Only>
1

> <s_epik_Chemistry_Notes>
This compound contains an acetal/aminal-like group ( X-CH(R)-Y where X, Y are N, S, or O) that may be acid/base labile, releasing an aldehyde.

> <s_lp_Force_Field>
OPLS_2005

> <r_lp_Energy>
31.7119

> <b_lp_Chiralities_Consistent>
1

> <s_lp_Variant>
AV-unprocessed.smi:72-96

> <Gold.Version>
5.8.1

> <Gold.Id.Protein>
6NUR|6NUR_protein|mol2

> <Gold.PLP.Fitness>
38.5032

> <Gold.PLP.PLP>
-27.3291

> <Gold.PLP.part.hbond>
-3.7979

> <Gold.PLP.part.metal>
0.0000

> <Gold.PLP.part.buried>
-4.9348

> <Gold.PLP.part.nonpolar>
-19.0824

> <Gold.PLP.part.repulsive>
0.1965

> <Gold.PLP.ligand.clash>
0.0000

> <Gold.PLP.ligand.torsion>
0.0251

> <Gold.PLP.Chemscore.Hbond>
2.7360

> <Gold.PLP.Chemscore.CHOScore>
1.0000

> <Gold.PLP.Chemscore.Metal>
0.0000

> <Gold.Chemscore.Hbonds>
donor molecule, donor type, donor heavy atom, donor atom, acceptor molecule, acceptor atom, score
      L1  H     1    23       P1  7957  1.00
      L1  H    14    29       P1  8029  1.00
      P1  H  7989  7998       L1     3  0.74
      L1  C     4    24       P1  8028  1.00

> <Gold.PLP.Chemscore.Internal.Correction>
0.0163

> <Gold.Rescore>
     Score         DG    S(hbond)    S(metal)    S(lipo)     H(rot)  DE(clash)    DE(int)     intcor
      4.92      -6.26       1.87        0.00      42.26       4.06       0.05       1.29       ----

> <Gold.Chemscore.Fitness>
4.9177

> <Gold.Chemscore.DG>
-6.2616

> <Gold.Chemscore.ZeroCoef>
-5.4800

> <Gold.Chemscore.Hbond>
1.8653

> <Gold.Chemscore.Metal>
0.0000

> <Gold.Chemscore.Lipo>
42.2645

> <Gold.Chemscore.Internal_Hbond>
0.0000

> <Gold.Chemscore.DEClash>
0.0536

> <Gold.Chemscore.DEInternal>
1.2903

> <Gold.Chemscore.Rot>
4.0600

> <Gold.Chemscore.Internal.Correction>
   9.000000E+99

> <Gold.Chemscore.Hbonds>
donor molecule, donor type, donor heavy atom, donor atom, acceptor molecule, acceptor atom, score
      L1  H     1    23       P1  7957  0.90
      L1  H    14    29       P1  8029  0.25
      P1  H  7989  7998       L1     3  0.17

> <Gold.Chemscore.Hbond.Weighted>
-6.2302

> <Gold.Chemscore.Metal.Weighted>
-0.0000

> <Gold.Chemscore.Lipo.Weighted>
-4.9449

> <Gold.Chemscore.Internal_Hbond.Weighted>
0.0000

> <Gold.Chemscore.DEClash.Weighted>
0.0536

> <Gold.Chemscore.DEInternal.Weighted>
1.2903

> <Gold.Chemscore.Rot.Weighted>
10.3936

> <Gold.Chemscore.Internal.Correction.Weighted>
   9.000000E+99

> <Gold.Protein.RotatedTorsions>
[ 6907 6896 6895 6894 ] final  -37.44 input  -60.11 | X-H torsion
[ 7974 7965 7964 7962 ] final  147.05 input  175.53 | X-H torsion
[ 8008 7997 7996 7995 ] final  -88.94 input   59.86 | X-H torsion
[ 10167 10162 10161 10158 ] final   73.75 input  -65.29 | X-H torsion
[ 10718 10713 10712 10709 ] final   86.74 input   66.30 | X-H torsion
[ 10763 10752 10751 10750 ] final   78.07 input  -60.55 | X-H torsion
[ 11005 11000 10999 10996 ] final   -5.51 input  -57.11 | X-H torsion

> <Gold.Protein.ActiveResidues>
 VAL166  LYS551  ARG553  GLY616  TRP617  ASP618  TYR619  PRO620  LYS621  CYS622 
 ASP623  PHE694  ASN695  SER759  ASP760  ASP761  ALA762  ILE779  LEU786  VAL792 
 PHE793  MET794  SER795  GLU796  ALA797  LYS798  CYS799  TRP800  GLU811  SER814 

> <Gold.Protein.RotatedAtoms>
  151.0147  134.9424  159.8026 H   0  0  0  0  0  0  0  0  0  0  0  0  # atno 6907 bound_to 6896
  152.5311  134.2982  159.9078 H   0  0  0  0  0  0  0  0  0  0  0  0  # atno 6908 bound_to 6896
  151.2988  133.4090  159.2672 H   0  0  0  0  0  0  0  0  0  0  0  0  # atno 6909 bound_to 6896
  144.8622  139.5981  143.5925 H   0  0  0  0  0  0  0  0  0  0  0  0  # atno 7974 bound_to 7965
  154.6807  140.0547  157.0263 H   0  0  0  0  0  0  0  0  0  0  0  0  # atno 8008 bound_to 7997
  155.0955  140.3223  155.4543 H   0  0  0  0  0  0  0  0  0  0  0  0  # atno 8009 bound_to 7997
  156.2693  140.2040  156.6082 H   0  0  0  0  0  0  0  0  0  0  0  0  # atno 8010 bound_to 7997
  140.0211  144.5539  150.7581 H   0  0  0  0  0  0  0  0  0  0  0  0  # atno 10167 bound_to 10162
  157.6932  131.0227  150.3018 H   0  0  0  0  0  0  0  0  0  0  0  0  # atno 10718 bound_to 10713
  153.0847  135.4890  154.8572 H   0  0  0  0  0  0  0  0  0  0  0  0  # atno 10763 bound_to 10752
  154.7195  135.3036  154.9073 H   0  0  0  0  0  0  0  0  0  0  0  0  # atno 10764 bound_to 10752
  153.9741  135.6797  153.4801 H   0  0  0  0  0  0  0  0  0  0  0  0  # atno 10765 bound_to 10752
  140.6919  133.9064  155.8624 H   0  0  0  0  0  0  0  0  0  0  0  0  # atno 11005 bound_to 11000
  146.2869  139.7029  142.9189 LP  0  0  0  0  0  0  0  0  0  0  0  0  # atno 17320 bound_to 7965
  145.4291  141.0413  143.2921 LP  0  0  0  0  0  0  0  0  0  0  0  0  # atno 17321 bound_to 7965
  140.7342  143.2726  151.3842 LP  0  0  0  0  0  0  0  0  0  0  0  0  # atno 17342 bound_to 10162
  139.6139  144.1043  152.2326 LP  0  0  0  0  0  0  0  0  0  0  0  0  # atno 17343 bound_to 10162
  156.3533  130.3834  149.7311 LP  0  0  0  0  0  0  0  0  0  0  0  0  # atno 17370 bound_to 10713
  156.4782  130.8028  151.3044 LP  0  0  0  0  0  0  0  0  0  0  0  0  # atno 17371 bound_to 10713
  141.0234  134.0857  157.4095 LP  0  0  0  0  0  0  0  0  0  0  0  0  # atno 17394 bound_to 11000
  139.8921  135.0122  156.6828 LP  0  0  0  0  0  0  0  0  0  0  0  0  # atno 17395 bound_to 11000

$$$$
