#       Name:                AV-unprocessed.smi:2365
#       Creating user name   scv26
#       Creation time:       Fri Mar 27 13:05:59 2020


#       File generated by GOLD software.
#

@<TRIPOS>MOLECULE
AV-unprocessed.smi:2365
    34    35     1
SMALL
NO_CHARGES


@<TRIPOS>ATOM
      1 ****        -3.2388   1.5989   0.3171 C.3            1 S1                 0.0000
      2 ****        -2.2167   0.5325   0.7230 C.3            1 S1                 0.0000
      3 ****        -2.7175  -0.4515   1.7737 C.3            1 S1                 0.0000
      4 ****        -1.8070  -1.6516   1.5741 C.3            1 S1                 0.0000
      5 ****        -1.3124  -1.5169   0.1196 C.3            1 S1                 0.0000
      6 ****         0.2204  -1.4263   0.0043 C.2            1 S1                 0.0000
      7 ****         0.9178  -2.2753   0.5591 O.2            1 S1                 0.0000
      8 ****         0.7110  -0.3986  -0.7134 N.am           1 S1                 0.0000
      9 ****         2.0702  -0.0540  -0.9441 C.ar           1 S1                 0.0000
     10 ****         3.1099  -1.0126  -1.0206 C.ar           1 S1                 0.0000
     11 ****         4.3992  -0.6946  -1.2620 N.ar           1 S1                 0.0000
     12 ****         4.7071   0.6060  -1.4449 C.ar           1 S1                 0.0000
     13 ****         3.7523   1.6408  -1.4061 C.ar           1 S1                 0.0000
     14 ****         4.2418   3.2780  -1.6613 Cl             1 S1                 0.0000
     15 ****         2.4043   1.3033  -1.1563 C.ar           1 S1                 0.0000
     16 ****         1.1857   2.5325  -1.1006 Cl             1 S1                 0.0000
     17 ****        -1.9237  -0.3215  -0.3723 O.3            1 S1                 0.0000
     18 ****        -3.4926   2.2389   1.1622 H              1 S1                 0.0000
     19 ****        -4.1600   1.1452  -0.0493 H              1 S1                 0.0000
     20 ****        -2.8424   2.2341  -0.4753 H              1 S1                 0.0000
     21 ****        -1.2941   1.0067   1.0624 H              1 S1                 0.0000
     22 ****        -2.6765  -0.0492   2.7862 H              1 S1                 0.0000
     23 ****        -3.7494  -0.7358   1.5634 H              1 S1                 0.0000
     24 ****        -0.9863  -1.6143   2.2923 H              1 S1                 0.0000
     25 ****        -2.3403  -2.5883   1.7387 H              1 S1                 0.0000
     26 ****        -1.6551  -2.3563  -0.4860 H              1 S1                 0.0000
     27 ****         0.0286   0.2702  -1.0417 H              1 S1                 0.0000
     28 ****         2.9157  -2.0684  -0.9096 H              1 S1                 0.0000
     29 ****         5.7474   0.8271  -1.6338 H              1 S1                 0.0000
     30 ****         0.4880  -3.0141   1.0781 LP             1 S1                 0.0000
     31 ****         1.9143  -2.2262   0.4909 LP             1 S1                 0.0000
     32 ****         5.1050  -1.4018  -1.3040 LP             1 S1                 0.0000
     33 ****        -1.2977   0.1413  -1.0000 LP             1 S1                 0.0000
     34 ****        -2.7694  -0.5512  -0.8539 LP             1 S1                 0.0000
@<TRIPOS>BOND
    1    1    2 1     
    2    1   18 1     
    3    1   19 1     
    4    1   20 1     
    5    2   17 1     
    6    2    3 1     
    7    2   21 1     
    8    3    4 1     
    9    3   22 1     
   10    3   23 1     
   11    4    5 1     
   12    4   24 1     
   13    4   25 1     
   14    5    6 1     
   15    5   17 1     
   16    5   26 1     
   17    6    7 2     
   18    6    8 am    
   19    8    9 1     
   20    8   27 1     
   21    9   15 ar    
   22    9   10 ar    
   23   10   11 ar    
   24   10   28 1     
   25   11   12 ar    
   26   12   13 ar    
   27   12   29 1     
   28   13   14 1     
   29   13   15 ar    
   30   15   16 1     
   31    7   30 1     
   32    7   31 1     
   33   11   32 1     
   34   17   33 1     
   35   17   34 1     
@<TRIPOS>SUBSTRUCTURE
      1 S1             1
@<TRIPOS>SET
LONE_PAIRS      STATIC     ATOMS    <user>   **** ""
5 30 31 32 33 34
DONOR_HYDROGENS      STATIC     ATOMS    <user>   **** ""
1 27
ATOM$BLUE        STATIC     ATOMS    COLORGROUP SYSTEM
5 30 31 32 33 34
ATOM$RED        STATIC     ATOMS    COLORGROUP SYSTEM
1 27
