AV-unprocessed.smi:1889|AV-procd|sdf|7662|dock2
  -GOLD-   22720 9393D 1   1.00000     0.00000
 Structure written by MMmdl.
 35 36  0  0  0  0  0  0  0  0  2 V2000
  150.1527  145.0079  159.9978 C   0  0  0  0  0  0  0  0  0  0  0  0
  151.6164  145.4615  160.0168 C   0  0  0  0  0  0  0  0  0  0  0  0
  152.4296  144.8762  158.8537 C   0  0  0  0  0  0  0  0  0  0  0  0
  152.2718  143.3973  158.7323 C   0  0  0  0  0  0  0  0  0  0  0  0
  151.4178  142.8277  157.8779 N   0  0  0  0  0  0  0  0  0  0  0  0
  151.4305  141.4438  157.9709 N   0  0  0  0  0  0  0  0  0  0  0  0
  152.2733  140.9871  158.9080 C   0  0  0  0  0  0  0  0  0  0  0  0
  152.4329  139.6762  159.1538 N   0  5  0  0  0  0  0  0  0  0  0  0
  153.6495  139.1962  159.4986 C   0  0  0  0  0  0  0  0  0  0  0  0
  154.6182  139.0513  158.7491 O   0  0  0  0  0  0  0  0  0  0  0  0
  153.7513  138.8618  160.7917 N   0  0  0  0  0  0  0  0  0  0  0  0
  154.9475  138.3242  161.4285 C   0  0  0  0  0  0  0  0  0  0  0  0
  154.6249  137.0491  162.2253 C   0  0  1  0  0  0  0  0  0  0  0  0
  153.7422  137.2883  163.4449 C   0  0  0  0  0  0  0  0  0  0  0  0
  152.8041  136.0768  163.4814 C   0  0  0  0  0  0  0  0  0  0  0  0
  153.2818  135.1953  162.4751 O   0  0  0  0  0  0  0  0  0  0  0  0
  153.8420  135.9930  161.4463 C   0  0  0  0  0  0  0  0  0  0  0  0
  153.1483  142.2665  159.7493 S   0  0  0  0  0  0  0  0  0  0  0  0
  149.6031  145.4351  160.8368 H   0  0  0  0  0  0  0  0  0  0  0  0
  150.0761  143.9226  160.0674 H   0  0  0  0  0  0  0  0  0  0  0  0
  149.6554  145.3217  159.0798 H   0  0  0  0  0  0  0  0  0  0  0  0
  151.6554  146.5508  159.9785 H   0  0  0  0  0  0  0  0  0  0  0  0
  152.0712  145.1693  160.9640 H   0  0  0  0  0  0  0  0  0  0  0  0
  152.1280  145.3395  157.9135 H   0  0  0  0  0  0  0  0  0  0  0  0
  153.4884  145.1011  158.9866 H   0  0  0  0  0  0  0  0  0  0  0  0
  152.9379  138.9942  161.3745 H   0  0  0  0  0  0  0  0  0  0  0  0
  155.6901  138.1048  160.6603 H   0  0  0  0  0  0  0  0  0  0  0  0
  155.3802  139.0791  162.0872 H   0  0  0  0  0  0  0  0  0  0  0  0
  155.5558  136.5942  162.5675 H   0  0  0  0  0  0  0  0  0  0  0  0
  154.3422  137.3647  164.3521 H   0  0  0  0  0  0  0  0  0  0  0  0
  153.1620  138.2075  163.3530 H   0  0  0  0  0  0  0  0  0  0  0  0
  152.7922  135.5858  164.4547 H   0  0  0  0  0  0  0  0  0  0  0  0
  151.7836  136.3771  163.2399 H   0  0  0  0  0  0  0  0  0  0  0  0
  153.0436  136.4441  160.8543 H   0  0  0  0  0  0  0  0  0  0  0  0
  154.4743  135.4032  160.7821 H   0  0  0  0  0  0  0  0  0  0  0  0
  1  2  1  0  0  0  0
  1 19  1  0  0  0  0
  1 20  1  0  0  0  0
  1 21  1  0  0  0  0
  2  3  1  0  0  0  0
  2 22  1  0  0  0  0
  2 23  1  0  0  0  0
  3  4  1  0  0  0  0
  3 24  1  0  0  0  0
  3 25  1  0  0  0  0
  4 18  1  0  0  0  0
  4  5  2  0  0  0  0
  5  6  1  0  0  0  0
  6  7  2  0  0  0  0
  7  8  1  0  0  0  0
  7 18  1  0  0  0  0
  8  9  1  0  0  0  0
  9 10  2  0  0  0  0
  9 11  1  0  0  0  0
 11 12  1  0  0  0  0
 11 26  1  0  0  0  0
 12 13  1  0  0  0  0
 12 27  1  0  0  0  0
 12 28  1  0  0  0  0
 13 17  1  0  0  0  0
 13 14  1  0  0  0  0
 13 29  1  0  0  0  0
 14 15  1  0  0  0  0
 14 30  1  0  0  0  0
 14 31  1  0  0  0  0
 15 16  1  0  0  0  0
 15 32  1  0  0  0  0
 15 33  1  0  0  0  0
 16 17  1  0  0  0  0
 17 34  1  0  0  0  0
 17 35  1  0  0  0  0
M  CHG  1   8  -1
M  END
> <s_m_source_file>
AV-unprocessed.smi

> <i_m_source_file_index>
1889

> <i_lp_mmshare_version>
43012

> <i_f3d_flags>
0

> <s_epik_input>
W0NIM11bQ0gyXVtDSDJdYzFubmMoczEpW05IXUMoPU8pW05IXVtDSDJdW0NAQEhdMltDSDJdW0NIMl1PW0NIMl0y

> <s_epik_cmdline>
J2VwaWtfcHl0aG9uJywgJy1waCcsICc3LjAnLCAnLXRuJywgJzgnLCAnLW1hJywgJzIwMCcsICctbWV0YWxfYmluZGluZycsICctaW1hZScsICc8aW5maWxlLm1hZT4nLCAnLW9tYWUnLCAnPG91dGZpbGUubWFlPic=

> <r_lp_tautomer_probability>
1

> <r_epik_Ionization_Penalty>
4.29669

> <r_epik_Ionization_Penalty_Charging>
4.28522

> <r_epik_Ionization_Penalty_Neutral>
0.0114689

> <r_epik_State_Penalty>
4.28479

> <r_epik_Charging_Adjusted_Penalty>
8.57002

> <i_epik_Tot_Q>
-1

> <i_epik_Tot_abs_Q>
1

> <r_epik_Metal_State_Penalty>
0.72177

> <b_epik_Metal_Only>
1

> <s_lp_Force_Field>
OPLS_2005

> <r_lp_Energy>
12.2609

> <b_lp_Chiralities_Consistent>
1

> <s_lp_Variant>
AV-unprocessed.smi:1889-4

> <Gold.Version>
5.8.1

> <Gold.Id.Protein>
6NUR|6NUR_protein|mol2

> <Gold.PLP.Fitness>
36.8081

> <Gold.PLP.PLP>
-36.3094

> <Gold.PLP.part.hbond>
-1.0000

> <Gold.PLP.part.metal>
0.0000

> <Gold.PLP.part.buried>
-5.7393

> <Gold.PLP.part.nonpolar>
-29.6145

> <Gold.PLP.part.repulsive>
0.0868

> <Gold.PLP.ligand.clash>
0.0000

> <Gold.PLP.ligand.torsion>
1.3329

> <Gold.PLP.Chemscore.Hbond>
1.0000

> <Gold.PLP.Chemscore.CHOScore>
0.0000

> <Gold.PLP.Chemscore.Metal>
0.0000

> <Gold.Chemscore.Hbonds>
donor molecule, donor type, donor heavy atom, donor atom, acceptor molecule, acceptor atom, score
      P1  H  7997  8010       L1    10  1.00

> <Gold.PLP.Chemscore.Internal.Correction>
0.1645

> <Gold.Rescore>
     Score         DG    S(hbond)    S(metal)    S(lipo)     H(rot)  DE(clash)    DE(int)     intcor
     14.21     -15.50       0.99        0.00      92.34       1.59       0.01       1.29       ----

> <Gold.Chemscore.Fitness>
14.2083

> <Gold.Chemscore.DG>
-15.5044

> <Gold.Chemscore.ZeroCoef>
-5.4800

> <Gold.Chemscore.Hbond>
0.9870

> <Gold.Chemscore.Metal>
0.0000

> <Gold.Chemscore.Lipo>
92.3419

> <Gold.Chemscore.Internal_Hbond>
0.0000

> <Gold.Chemscore.DEClash>
0.0089

> <Gold.Chemscore.DEInternal>
1.2872

> <Gold.Chemscore.Rot>
1.5922

> <Gold.Chemscore.Internal.Correction>
   9.000000E+99

> <Gold.Chemscore.Hbonds>
donor molecule, donor type, donor heavy atom, donor atom, acceptor molecule, acceptor atom, score
      P1  H  7997  8010       L1    10  1.00

> <Gold.Chemscore.Hbond.Weighted>
-3.2965

> <Gold.Chemscore.Metal.Weighted>
-0.0000

> <Gold.Chemscore.Lipo.Weighted>
-10.8040

> <Gold.Chemscore.Internal_Hbond.Weighted>
0.0000

> <Gold.Chemscore.DEClash.Weighted>
0.0089

> <Gold.Chemscore.DEInternal.Weighted>
1.2872

> <Gold.Chemscore.Rot.Weighted>
4.0761

> <Gold.Chemscore.Internal.Correction.Weighted>
   9.000000E+99

> <Gold.Protein.RotatedTorsions>
[ 6907 6896 6895 6894 ] final  111.21 input  -60.11 | X-H torsion
[ 7974 7965 7964 7962 ] final -159.51 input  175.53 | X-H torsion
[ 8008 7997 7996 7995 ] final    2.02 input   59.86 | X-H torsion
[ 10167 10162 10161 10158 ] final   21.89 input  -65.29 | X-H torsion
[ 10718 10713 10712 10709 ] final -161.15 input   66.30 | X-H torsion
[ 10763 10752 10751 10750 ] final  -72.25 input  -60.55 | X-H torsion
[ 11005 11000 10999 10996 ] final -145.41 input  -57.11 | X-H torsion

> <Gold.Protein.ActiveResidues>
 VAL166  LYS551  ARG553  GLY616  TRP617  ASP618  TYR619  PRO620  LYS621  CYS622 
 ASP623  PHE694  ASN695  SER759  ASP760  ASP761  ALA762  ILE779  LEU786  VAL792 
 PHE793  MET794  SER795  GLU796  ALA797  LYS798  CYS799  TRP800  GLU811  SER814 

> <Gold.Protein.RotatedAtoms>
  152.4981  133.8690  159.7288 H   0  0  0  0  0  0  0  0  0  0  0  0  # atno 6907 bound_to 6896
  150.9182  133.6904  159.2845 H   0  0  0  0  0  0  0  0  0  0  0  0  # atno 6908 bound_to 6896
  151.4290  135.1011  159.9689 H   0  0  0  0  0  0  0  0  0  0  0  0  # atno 6909 bound_to 6896
  144.7462  140.3675  143.6083 H   0  0  0  0  0  0  0  0  0  0  0  0  # atno 7974 bound_to 7965
  154.6867  140.2644  155.6854 H   0  0  0  0  0  0  0  0  0  0  0  0  # atno 8008 bound_to 7997
  156.2717  140.2799  156.1353 H   0  0  0  0  0  0  0  0  0  0  0  0  # atno 8009 bound_to 7997
  155.0955  140.0374  157.2671 H   0  0  0  0  0  0  0  0  0  0  0  0  # atno 8010 bound_to 7997
  140.5391  143.9708  150.6509 H   0  0  0  0  0  0  0  0  0  0  0  0  # atno 10167 bound_to 10162
  156.5922  130.8775  151.2893 H   0  0  0  0  0  0  0  0  0  0  0  0  # atno 10718 bound_to 10713
  154.4431  135.5936  153.6142 H   0  0  0  0  0  0  0  0  0  0  0  0  # atno 10763 bound_to 10752
  152.9807  135.6003  154.3697 H   0  0  0  0  0  0  0  0  0  0  0  0  # atno 10764 bound_to 10752
  154.3550  135.2841  155.2330 H   0  0  0  0  0  0  0  0  0  0  0  0  # atno 10765 bound_to 10752
  140.7925  134.2951  157.5008 H   0  0  0  0  0  0  0  0  0  0  0  0  # atno 11005 bound_to 11000
  145.7112  139.1685  143.2537 LP  0  0  0  0  0  0  0  0  0  0  0  0  # atno 17320 bound_to 7965
  146.1345  140.7141  142.9396 LP  0  0  0  0  0  0  0  0  0  0  0  0  # atno 17321 bound_to 7965
  140.3104  143.3202  152.0884 LP  0  0  0  0  0  0  0  0  0  0  0  0  # atno 17342 bound_to 10162
  139.4982  144.6640  151.6400 LP  0  0  0  0  0  0  0  0  0  0  0  0  # atno 17343 bound_to 10162
  157.7301  130.9680  150.1816 LP  0  0  0  0  0  0  0  0  0  0  0  0  # atno 17370 bound_to 10713
  156.2540  130.3703  149.8202 LP  0  0  0  0  0  0  0  0  0  0  0  0  # atno 17371 bound_to 10713
  139.8729  134.9383  156.3711 LP  0  0  0  0  0  0  0  0  0  0  0  0  # atno 17394 bound_to 11000
  140.9375  133.7537  156.0103 LP  0  0  0  0  0  0  0  0  0  0  0  0  # atno 17395 bound_to 11000

$$$$
