AV-unprocessed.smi:1959|AV-procd|sdf|7915|dock2
  -GOLD-   2272010 83D 1   1.00000     0.00000
 Structure written by MMmdl.
 45 46  0  0  0  0  0  0  0  0  2 V2000
  151.5225  145.1087  158.9139 C   0  0  0  0  0  0  0  0  0  0  0  0
  152.1019  143.7456  159.1527 C   0  0  0  0  0  0  0  0  0  0  0  0
  152.9875  143.3320  160.1869 C   0  0  0  0  0  0  0  0  0  0  0  0
  153.1956  142.0037  159.9426 C   0  0  0  0  0  0  0  0  0  0  0  0
  154.0257  141.0057  160.6819 C   0  0  0  0  0  0  0  0  0  0  0  0
  152.4581  141.6835  158.8160 N   0  0  0  0  0  0  0  0  0  0  0  0
  152.3200  140.4012  158.1405 C   0  0  0  0  0  0  0  0  0  0  0  0
  150.9208  140.1923  157.5490 C   0  0  0  0  0  0  0  0  0  0  0  0
  149.9211  140.1835  158.2689 O   0  0  0  0  0  0  0  0  0  0  0  0
  150.8690  139.9984  156.2214 N   0  0  0  0  0  0  0  0  0  0  0  0
  149.6561  139.7786  155.4315 C   0  0  1  0  0  0  0  0  0  0  0  0
  149.1646  141.1246  154.8825 C   0  0  0  0  0  0  0  0  0  0  0  0
  149.9018  138.7612  154.2929 C   0  0  0  0  0  0  0  0  0  0  0  0
  148.6672  138.0516  153.8717 N   0  3  0  0  0  0  0  0  0  0  0  0
  148.0500  137.2413  154.9491 C   0  0  0  0  0  0  0  0  0  0  0  0
  146.8444  136.4642  154.3963 C   0  0  0  0  0  0  0  0  0  0  0  0
  145.9049  137.3792  153.8445 O   0  0  0  0  0  0  0  0  0  0  0  0
  146.4540  138.1237  152.7635 C   0  0  0  0  0  0  0  0  0  0  0  0
  147.6590  138.9447  153.2551 C   0  0  0  0  0  0  0  0  0  0  0  0
  151.7898  142.7540  158.3346 N   0  0  0  0  0  0  0  0  0  0  0  0
  151.8169  145.8052  159.6992 H   0  0  0  0  0  0  0  0  0  0  0  0
  150.4330  145.0745  158.8927 H   0  0  0  0  0  0  0  0  0  0  0  0
  151.8626  145.5181  157.9623 H   0  0  0  0  0  0  0  0  0  0  0  0
  153.4050  143.9222  160.9892 H   0  0  0  0  0  0  0  0  0  0  0  0
  154.4917  141.4591  161.5571 H   0  0  0  0  0  0  0  0  0  0  0  0
  154.8195  140.6135  160.0462 H   0  0  0  0  0  0  0  0  0  0  0  0
  153.4169  140.1683  161.0237 H   0  0  0  0  0  0  0  0  0  0  0  0
  153.0685  140.3334  157.3489 H   0  0  0  0  0  0  0  0  0  0  0  0
  152.5356  139.6021  158.8502 H   0  0  0  0  0  0  0  0  0  0  0  0
  151.7407  140.0233  155.7114 H   0  0  0  0  0  0  0  0  0  0  0  0
  148.8678  139.3999  156.0836 H   0  0  0  0  0  0  0  0  0  0  0  0
  148.2396  141.0029  154.3181 H   0  0  0  0  0  0  0  0  0  0  0  0
  149.9017  141.5786  154.2189 H   0  0  0  0  0  0  0  0  0  0  0  0
  148.9649  141.8296  155.6904 H   0  0  0  0  0  0  0  0  0  0  0  0
  150.3584  139.2478  153.4296 H   0  0  0  0  0  0  0  0  0  0  0  0
  150.6291  138.0288  154.6471 H   0  0  0  0  0  0  0  0  0  0  0  0
  148.7746  136.5413  155.3640 H   0  0  0  0  0  0  0  0  0  0  0  0
  147.7331  137.8926  155.7651 H   0  0  0  0  0  0  0  0  0  0  0  0
  147.1593  135.7437  153.6390 H   0  0  0  0  0  0  0  0  0  0  0  0
  146.3624  135.8989  155.1939 H   0  0  0  0  0  0  0  0  0  0  0  0
  146.7456  137.4504  151.9557 H   0  0  0  0  0  0  0  0  0  0  0  0
  145.6854  138.7859  152.3647 H   0  0  0  0  0  0  0  0  0  0  0  0
  147.3363  139.6916  153.9821 H   0  0  0  0  0  0  0  0  0  0  0  0
  148.1010  139.4818  152.4150 H   0  0  0  0  0  0  0  0  0  0  0  0
  148.9493  137.4058  153.1476 H   0  0  0  0  0  0  0  0  0  0  0  0
  1  2  1  0  0  0  0
  1 21  1  0  0  0  0
  1 22  1  0  0  0  0
  1 23  1  0  0  0  0
  2 20  2  0  0  0  0
  2  3  1  0  0  0  0
  3  4  2  0  0  0  0
  3 24  1  0  0  0  0
  4  5  1  0  0  0  0
  4  6  1  0  0  0  0
  5 25  1  0  0  0  0
  5 26  1  0  0  0  0
  5 27  1  0  0  0  0
  6  7  1  0  0  0  0
  6 20  1  0  0  0  0
  7  8  1  0  0  0  0
  7 28  1  0  0  0  0
  7 29  1  0  0  0  0
  8  9  2  0  0  0  0
  8 10  1  0  0  0  0
 10 11  1  0  0  0  0
 10 30  1  0  0  0  0
 11 12  1  0  0  0  0
 11 13  1  0  0  0  0
 11 31  1  0  0  0  0
 12 32  1  0  0  0  0
 12 33  1  0  0  0  0
 12 34  1  0  0  0  0
 13 14  1  0  0  0  0
 13 35  1  0  0  0  0
 13 36  1  0  0  0  0
 14 19  1  0  0  0  0
 14 15  1  0  0  0  0
 14 45  1  0  0  0  0
 15 16  1  0  0  0  0
 15 37  1  0  0  0  0
 15 38  1  0  0  0  0
 16 17  1  0  0  0  0
 16 39  1  0  0  0  0
 16 40  1  0  0  0  0
 17 18  1  0  0  0  0
 18 19  1  0  0  0  0
 18 41  1  0  0  0  0
 18 42  1  0  0  0  0
 19 43  1  0  0  0  0
 19 44  1  0  0  0  0
M  CHG  1  14   1
M  END
> <s_m_source_file>
AV-unprocessed.smi

> <i_m_source_file_index>
1959

> <i_lp_mmshare_version>
43012

> <i_f3d_flags>
0

> <s_epik_input>
W0NIM11jMVtjSF1jKFtDSDNdKW4objEpW0NIMl1DKD1PKVtOSF1bQ0BIXShbQ0gzXSlbQ0gyXU4yW0NIMl1bQ0gyXU9bQ0gyXVtDSDJdMg==

> <s_epik_cmdline>
J2VwaWtfcHl0aG9uJywgJy1waCcsICc3LjAnLCAnLXRuJywgJzgnLCAnLW1hJywgJzIwMCcsICctbWV0YWxfYmluZGluZycsICctaW1hZScsICc8aW5maWxlLm1hZT4nLCAnLW9tYWUnLCAnPG91dGZpbGUubWFlPic=

> <r_lp_tautomer_probability>
1

> <r_epik_Ionization_Penalty>
0.748605

> <r_epik_Ionization_Penalty_Charging>
0.748396

> <r_epik_Ionization_Penalty_Neutral>
0.000208859

> <r_epik_State_Penalty>
0.775162

> <r_epik_Charging_Adjusted_Penalty>
1.52356

> <i_epik_Tot_Q>
1

> <i_epik_Tot_abs_Q>
1

> <r_epik_Metal_State_Penalty>
0.775281

> <b_epik_Metal_Only>
0

> <s_lp_Force_Field>
OPLS_2005

> <r_lp_Energy>
20.6749

> <b_lp_Chiralities_Consistent>
1

> <s_lp_Variant>
AV-unprocessed.smi:1959-4

> <Gold.Version>
5.8.1

> <Gold.Id.Protein>
6NUR|6NUR_protein|mol2

> <Gold.PLP.Fitness>
42.6807

> <Gold.PLP.PLP>
-38.5555

> <Gold.PLP.part.hbond>
-1.6625

> <Gold.PLP.part.metal>
0.0000

> <Gold.PLP.part.buried>
-1.0007

> <Gold.PLP.part.nonpolar>
-37.0868

> <Gold.PLP.part.repulsive>
0.3457

> <Gold.PLP.ligand.clash>
0.0000

> <Gold.PLP.ligand.torsion>
0.9848

> <Gold.PLP.Chemscore.Hbond>
2.0000

> <Gold.PLP.Chemscore.CHOScore>
0.0000

> <Gold.PLP.Chemscore.Metal>
0.0000

> <Gold.Chemscore.Hbonds>
donor molecule, donor type, donor heavy atom, donor atom, acceptor molecule, acceptor atom, score
      L1  H    14    45       P1  7948  2.00

> <Gold.PLP.Chemscore.Internal.Correction>
0.0947

> <Gold.Rescore>
     Score         DG    S(hbond)    S(metal)    S(lipo)     H(rot)  DE(clash)    DE(int)     intcor
     15.00     -16.31       1.00        0.00     102.85       1.77       0.05       1.26       ----

> <Gold.Chemscore.Fitness>
14.9969

> <Gold.Chemscore.DG>
-16.3093

> <Gold.Chemscore.ZeroCoef>
-5.4800

> <Gold.Chemscore.Hbond>
0.9995

> <Gold.Chemscore.Metal>
0.0000

> <Gold.Chemscore.Lipo>
102.8489

> <Gold.Chemscore.Internal_Hbond>
0.0000

> <Gold.Chemscore.DEClash>
0.0526

> <Gold.Chemscore.DEInternal>
1.2599

> <Gold.Chemscore.Rot>
1.7744

> <Gold.Chemscore.Internal.Correction>
   9.000000E+99

> <Gold.Chemscore.Hbonds>
donor molecule, donor type, donor heavy atom, donor atom, acceptor molecule, acceptor atom, score
      L1  H    14    45       P1  7948  1.00

> <Gold.Chemscore.Hbond.Weighted>
-3.3384

> <Gold.Chemscore.Metal.Weighted>
-0.0000

> <Gold.Chemscore.Lipo.Weighted>
-12.0333

> <Gold.Chemscore.Internal_Hbond.Weighted>
0.0000

> <Gold.Chemscore.DEClash.Weighted>
0.0526

> <Gold.Chemscore.DEInternal.Weighted>
1.2599

> <Gold.Chemscore.Rot.Weighted>
4.5424

> <Gold.Chemscore.Internal.Correction.Weighted>
   9.000000E+99

> <Gold.Protein.RotatedTorsions>
[ 6907 6896 6895 6894 ] final  -69.07 input  -60.11 | X-H torsion
[ 7974 7965 7964 7962 ] final -146.45 input  175.53 | X-H torsion
[ 8008 7997 7996 7995 ] final   93.37 input   59.86 | X-H torsion
[ 10167 10162 10161 10158 ] final -142.92 input  -65.29 | X-H torsion
[ 10718 10713 10712 10709 ] final  114.43 input   66.30 | X-H torsion
[ 10763 10752 10751 10750 ] final   52.80 input  -60.55 | X-H torsion
[ 11005 11000 10999 10996 ] final   45.64 input  -57.11 | X-H torsion

> <Gold.Protein.ActiveResidues>
 VAL166  LYS551  ARG553  GLY616  TRP617  ASP618  TYR619  PRO620  LYS621  CYS622 
 ASP623  PHE694  ASN695  SER759  ASP760  ASP761  ALA762  ILE779  LEU786  VAL792 
 PHE793  MET794  SER795  GLU796  ALA797  LYS798  CYS799  TRP800  GLU811  SER814 

> <Gold.Protein.RotatedAtoms>
  150.7324  134.5649  159.5860 H   0  0  0  0  0  0  0  0  0  0  0  0  # atno 6907 bound_to 6896
  152.3102  134.7503  160.0347 H   0  0  0  0  0  0  0  0  0  0  0  0  # atno 6908 bound_to 6896
  151.8053  133.3339  159.3576 H   0  0  0  0  0  0  0  0  0  0  0  0  # atno 6909 bound_to 6896
  144.8159  140.5455  143.5611 H   0  0  0  0  0  0  0  0  0  0  0  0  # atno 7974 bound_to 7965
  156.0459  140.3314  155.7296 H   0  0  0  0  0  0  0  0  0  0  0  0  # atno 8008 bound_to 7997
  155.5674  140.0624  157.2832 H   0  0  0  0  0  0  0  0  0  0  0  0  # atno 8009 bound_to 7997
  154.4414  140.1867  156.0832 H   0  0  0  0  0  0  0  0  0  0  0  0  # atno 8010 bound_to 7997
  139.8042  143.7791  152.2660 H   0  0  0  0  0  0  0  0  0  0  0  0  # atno 10167 bound_to 10162
  157.6282  131.0998  150.7184 H   0  0  0  0  0  0  0  0  0  0  0  0  # atno 10718 bound_to 10713
  152.9791  135.5800  154.4638 H   0  0  0  0  0  0  0  0  0  0  0  0  # atno 10763 bound_to 10752
  154.4210  135.2771  155.1977 H   0  0  0  0  0  0  0  0  0  0  0  0  # atno 10764 bound_to 10752
  154.3726  135.6164  153.5802 H   0  0  0  0  0  0  0  0  0  0  0  0  # atno 10765 bound_to 10752
  140.1441  134.4545  155.8428 H   0  0  0  0  0  0  0  0  0  0  0  0  # atno 11005 bound_to 11000
  145.5216  139.1476  143.3549 LP  0  0  0  0  0  0  0  0  0  0  0  0  # atno 17320 bound_to 7965
  146.2462  140.5357  142.8913 LP  0  0  0  0  0  0  0  0  0  0  0  0  # atno 17321 bound_to 7965
  139.7920  144.7406  150.9942 LP  0  0  0  0  0  0  0  0  0  0  0  0  # atno 17342 bound_to 10162
  140.7819  143.4432  151.0521 LP  0  0  0  0  0  0  0  0  0  0  0  0  # atno 17343 bound_to 10162
  156.7528  130.4774  149.5453 LP  0  0  0  0  0  0  0  0  0  0  0  0  # atno 17370 bound_to 10713
  156.1467  130.6282  151.0541 LP  0  0  0  0  0  0  0  0  0  0  0  0  # atno 17371 bound_to 10713
  141.2190  133.6845  156.7301 LP  0  0  0  0  0  0  0  0  0  0  0  0  # atno 17394 bound_to 11000
  140.2686  134.8410  157.3826 LP  0  0  0  0  0  0  0  0  0  0  0  0  # atno 17395 bound_to 11000

$$$$
