#       Name:                AV-unprocessed.smi:3032
#       Creating user name   scv26
#       Creation time:       Fri Mar 27 16:53:55 2020


#       File generated by GOLD software.
#

@<TRIPOS>MOLECULE
AV-unprocessed.smi:3032
    41    42     1
SMALL
NO_CHARGES


@<TRIPOS>ATOM
      1 ****        -2.9783   2.6917  -1.0037 C.3            1 S1                 0.0000
      2 ****        -2.2723   1.7781   0.0084 C.3            1 S1                 0.0000
      3 ****        -2.9741   1.8111   1.3785 C.3            1 S1                 0.0000
      4 ****        -2.2704   0.9007   2.3958 C.3            1 S1                 0.0000
      5 ****        -2.1706  -0.5463   1.8790 C.3            1 S1                 0.0000
      6 ****        -1.5244  -0.6601   0.4783 C.3            1 S1                 0.0000
      7 ****         0.0107  -0.5323   0.5131 C.2            1 S1                 0.0000
      8 ****         0.5520   0.4843   0.9470 O.2            1 S1                 0.0000
      9 ****         0.7034  -1.5828   0.0461 N.am           1 S1                 0.0000
     10 ****         2.1574  -1.6652  -0.0322 C.3            1 S1                 0.0000
     11 ****         2.6960  -0.9626  -1.2880 C.3            1 S1                 0.0000
     12 ****         4.1974  -1.0997  -1.4134 C.2            1 S1                 0.0000
     13 ****         5.1122  -0.2608  -0.8852 N.pl3          1 S1                -1.0000
     14 ****         6.3300  -0.6905  -1.1532 N.2            1 S1                 0.0000
     15 ****         6.1339  -1.8163  -1.8492 C.2            1 S1                 0.0000
     16 ****         4.8375  -2.0971  -2.0189 N.2            1 S1                 0.0000
     17 ****        -2.1803   0.3280  -0.5155 C.3            1 S1                 0.0000
     18 ****        -4.0032   2.3665  -1.1850 H              1 S1                 0.0000
     19 ****        -2.4551   2.6945  -1.9602 H              1 S1                 0.0000
     20 ****        -3.0139   3.7212  -0.6456 H              1 S1                 0.0000
     21 ****        -1.2623   2.1679   0.1371 H              1 S1                 0.0000
     22 ****        -2.9992   2.8322   1.7607 H              1 S1                 0.0000
     23 ****        -4.0132   1.4974   1.2687 H              1 S1                 0.0000
     24 ****        -1.2784   1.2941   2.6168 H              1 S1                 0.0000
     25 ****        -2.8157   0.9150   3.3398 H              1 S1                 0.0000
     26 ****        -1.6219  -1.1553   2.5989 H              1 S1                 0.0000
     27 ****        -3.1739  -0.9720   1.8360 H              1 S1                 0.0000
     28 ****        -1.7412  -1.6658   0.1136 H              1 S1                 0.0000
     29 ****         0.1853  -2.3807  -0.2918 H              1 S1                 0.0000
     30 ****         2.6111  -1.2436   0.8663 H              1 S1                 0.0000
     31 ****         2.4336  -2.7199  -0.0532 H              1 S1                 0.0000
     32 ****         2.2322  -1.3810  -2.1822 H              1 S1                 0.0000
     33 ****         2.4432   0.0983  -1.2692 H              1 S1                 0.0000
     34 ****         6.9374  -2.4342  -2.2304 H              1 S1                 0.0000
     35 ****        -3.1847  -0.0300  -0.7459 H              1 S1                 0.0000
     36 ****        -1.6387   0.3138  -1.4627 H              1 S1                 0.0000
     37 ****        -0.0058   1.2429   1.2838 LP             1 S1                 0.0000
     38 ****         1.5496   0.5517   0.9629 LP             1 S1                 0.0000
     39 ****         4.8982   0.5666  -0.3659 LP             1 S1                 0.0000
     40 ****         7.2003  -0.2710  -0.8953 LP             1 S1                 0.0000
     41 ****         4.4383  -2.8810  -2.4943 LP             1 S1                 0.0000
@<TRIPOS>BOND
    1    1    2 1     
    2    1   18 1     
    3    1   19 1     
    4    1   20 1     
    5    2   17 1     
    6    2    3 1     
    7    2   21 1     
    8    3    4 1     
    9    3   22 1     
   10    3   23 1     
   11    4    5 1     
   12    4   24 1     
   13    4   25 1     
   14    5    6 1     
   15    5   26 1     
   16    5   27 1     
   17    6    7 1     
   18    6   17 1     
   19    6   28 1     
   20    7    8 2     
   21    7    9 am    
   22    9   10 1     
   23    9   29 1     
   24   10   11 1     
   25   10   30 1     
   26   10   31 1     
   27   11   32 1     
   28   11   33 1     
   29   11   12 1     
   30   12   16 2     
   31   12   13 1     
   32   13   14 1     
   33   14   15 2     
   34   15   16 1     
   35   15   34 1     
   36   17   35 1     
   37   17   36 1     
   38    8   37 1     
   39    8   38 1     
   40   13   39 1     
   41   14   40 1     
   42   16   41 1     
@<TRIPOS>SUBSTRUCTURE
      1 S1             1
@<TRIPOS>SET
LONE_PAIRS      STATIC     ATOMS    <user>   **** ""
5 37 38 39 40 41
DONOR_HYDROGENS      STATIC     ATOMS    <user>   **** ""
1 29
ATOM$BLUE        STATIC     ATOMS    COLORGROUP SYSTEM
5 37 38 39 40 41
ATOM$RED        STATIC     ATOMS    COLORGROUP SYSTEM
1 29
