AV-unprocessed.smi:313|AV-procd|sdf|2310|dock5
  -GOLD-   2262022213D 1   1.00000     0.00000
 Structure written by MMmdl.
 50 51  0  0  0  0  0  0  0  0  1 V2000
  151.4136  141.9080  158.1930 C   0  0  0  0  0  0  0  0  0  0  0  0
  150.4068  141.8956  157.0330 C   0  0  0  0  0  0  0  0  0  0  0  0
  150.9372  141.2309  155.7468 C   0  0  1  0  0  0  0  0  0  0  0  0
  151.2819  139.7528  155.9764 C   0  0  0  0  0  0  0  0  0  0  0  0
  149.9535  141.3294  154.6705 N   0  0  0  0  0  0  0  0  0  0  0  0
  148.7019  140.8447  154.6977 C   0  0  0  0  0  0  0  0  0  0  0  0
  148.2195  140.2615  155.6698 O   0  0  0  0  0  0  0  0  0  0  0  0
  147.8686  141.0601  153.4246 C   0  0  2  0  0  0  0  0  0  0  0  0
  146.6499  141.9253  153.7851 C   0  0  0  0  0  0  0  0  0  0  0  0
  147.3813  139.7824  152.9080 N   0  0  0  0  0  0  0  0  0  0  0  0
  146.5565  138.9460  153.5610 C   0  0  0  0  0  0  0  0  0  0  0  0
  146.0992  139.1792  154.6803 O   0  0  0  0  0  0  0  0  0  0  0  0
  146.1593  137.7081  152.8103 C   0  0  0  0  0  0  0  0  0  0  0  0
  146.2208  137.6412  151.4012 C   0  0  0  0  0  0  0  0  0  0  0  0
  145.8649  136.4419  150.7554 C   0  0  0  0  0  0  0  0  0  0  0  0
  145.4643  135.3298  151.5332 C   0  0  0  0  0  0  0  0  0  0  0  0
  145.1124  134.1144  150.9067 N   0  0  0  0  0  0  0  0  0  0  0  0
  144.1217  134.1608  149.8325 C   0  0  0  0  0  0  0  0  0  0  0  0
  144.0697  132.8142  149.0914 C   0  0  0  0  0  0  0  0  0  0  0  0
  143.8207  131.7658  150.0215 O   0  0  0  0  0  0  0  0  0  0  0  0
  144.8563  131.6645  150.9928 C   0  0  0  0  0  0  0  0  0  0  0  0
  144.9441  132.9709  151.8007 C   0  0  0  0  0  0  0  0  0  0  0  0
  145.4068  135.3966  152.8863 N   0  0  0  0  0  0  0  0  0  0  0  0
  145.7500  136.5481  153.5016 C   0  0  0  0  0  0  0  0  0  0  0  0
  150.9610  142.3263  159.0921 H   0  0  0  0  0  0  0  0  0  0  0  0
  152.2913  142.5105  157.9581 H   0  0  0  0  0  0  0  0  0  0  0  0
  151.7525  140.8994  158.4301 H   0  0  0  0  0  0  0  0  0  0  0  0
  149.5101  141.3688  157.3613 H   0  0  0  0  0  0  0  0  0  0  0  0
  150.0938  142.9182  156.8183 H   0  0  0  0  0  0  0  0  0  0  0  0
  151.8605  141.7363  155.4583 H   0  0  0  0  0  0  0  0  0  0  0  0
  152.0353  139.6424  156.7566 H   0  0  0  0  0  0  0  0  0  0  0  0
  151.6802  139.2969  155.0692 H   0  0  0  0  0  0  0  0  0  0  0  0
  150.4038  139.1812  156.2790 H   0  0  0  0  0  0  0  0  0  0  0  0
  150.2566  141.7917  153.8256 H   0  0  0  0  0  0  0  0  0  0  0  0
  148.4635  141.5661  152.6613 H   0  0  0  0  0  0  0  0  0  0  0  0
  146.9557  142.8960  154.1779 H   0  0  0  0  0  0  0  0  0  0  0  0
  146.0185  141.4466  154.5351 H   0  0  0  0  0  0  0  0  0  0  0  0
  146.0324  142.1119  152.9060 H   0  0  0  0  0  0  0  0  0  0  0  0
  147.6801  139.5244  151.9789 H   0  0  0  0  0  0  0  0  0  0  0  0
  146.5371  138.4901  150.8125 H   0  0  0  0  0  0  0  0  0  0  0  0
  145.8940  136.3928  149.6772 H   0  0  0  0  0  0  0  0  0  0  0  0
  143.1422  134.3926  150.2532 H   0  0  0  0  0  0  0  0  0  0  0  0
  144.3692  134.9530  149.1246 H   0  0  0  0  0  0  0  0  0  0  0  0
  143.2732  132.8256  148.3473 H   0  0  0  0  0  0  0  0  0  0  0  0
  145.0026  132.6277  148.5566 H   0  0  0  0  0  0  0  0  0  0  0  0
  144.6400  130.8274  151.6564 H   0  0  0  0  0  0  0  0  0  0  0  0
  145.8071  131.4453  150.5043 H   0  0  0  0  0  0  0  0  0  0  0  0
  145.7646  132.8906  152.5117 H   0  0  0  0  0  0  0  0  0  0  0  0
  144.0324  133.1108  152.3829 H   0  0  0  0  0  0  0  0  0  0  0  0
  145.6906  136.5368  154.5804 H   0  0  0  0  0  0  0  0  0  0  0  0
  1  2  1  0  0  0  0
  1 25  1  0  0  0  0
  1 26  1  0  0  0  0
  1 27  1  0  0  0  0
  2  3  1  0  0  0  0
  2 28  1  0  0  0  0
  2 29  1  0  0  0  0
  3  4  1  0  0  0  0
  3  5  1  0  0  0  0
  3 30  1  0  0  0  0
  4 31  1  0  0  0  0
  4 32  1  0  0  0  0
  4 33  1  0  0  0  0
  5  6  1  0  0  0  0
  5 34  1  0  0  0  0
  6  7  2  0  0  0  0
  6  8  1  0  0  0  0
  8  9  1  0  0  0  0
  8 10  1  0  0  0  0
  8 35  1  0  0  0  0
  9 36  1  0  0  0  0
  9 37  1  0  0  0  0
  9 38  1  0  0  0  0
 10 11  1  0  0  0  0
 10 39  1  0  0  0  0
 11 12  2  0  0  0  0
 11 13  1  0  0  0  0
 13 24  1  0  0  0  0
 13 14  2  0  0  0  0
 14 15  1  0  0  0  0
 14 40  1  0  0  0  0
 15 16  2  0  0  0  0
 15 41  1  0  0  0  0
 16 17  1  0  0  0  0
 16 23  1  0  0  0  0
 17 22  1  0  0  0  0
 17 18  1  0  0  0  0
 18 19  1  0  0  0  0
 18 42  1  0  0  0  0
 18 43  1  0  0  0  0
 19 20  1  0  0  0  0
 19 44  1  0  0  0  0
 19 45  1  0  0  0  0
 20 21  1  0  0  0  0
 21 22  1  0  0  0  0
 21 46  1  0  0  0  0
 21 47  1  0  0  0  0
 22 48  1  0  0  0  0
 22 49  1  0  0  0  0
 23 24  2  0  0  0  0
 24 50  1  0  0  0  0
M  END
> <s_m_source_file>
AV-unprocessed.smi

> <i_m_source_file_index>
313

> <i_lp_mmshare_version>
43012

> <i_f3d_flags>
0

> <s_epik_input>
W0NIM11bQ0gyXVtDQEhdKFtDSDNdKVtOSF1DKD1PKVtDQEhdKFtDSDNdKVtOSF1DKD1PKWMxW2NIXVtjSF1jKG5bY0hdMSlOMltDSDJdW0NIMl1PW0NIMl1bQ0gyXTI=

> <s_epik_cmdline>
J2VwaWtfcHl0aG9uJywgJy1waCcsICc3LjAnLCAnLXRuJywgJzgnLCAnLW1hJywgJzIwMCcsICctbWV0YWxfYmluZGluZycsICctaW1hZScsICc8aW5maWxlLm1hZT4nLCAnLW9tYWUnLCAnPG91dGZpbGUubWFlPic=

> <r_lp_tautomer_probability>
1

> <r_epik_Ionization_Penalty>
9.96442e-06

> <r_epik_Ionization_Penalty_Charging>
0

> <r_epik_Ionization_Penalty_Neutral>
9.96442e-06

> <r_epik_State_Penalty>
-0

> <r_epik_Charging_Adjusted_Penalty>
0

> <i_epik_Tot_Q>
0

> <i_epik_Tot_abs_Q>
0

> <r_epik_Metal_State_Penalty>
-0

> <b_epik_Metal_Only>
0

> <s_lp_Force_Field>
OPLS_2005

> <r_lp_Energy>
19.2481

> <b_lp_Chiralities_Consistent>
1

> <s_lp_Variant>
AV-unprocessed.smi:313-2

> <Gold.Version>
5.8.1

> <Gold.Id.Protein>
6NUR|6NUR_protein|mol2

> <Gold.PLP.Fitness>
39.2890

> <Gold.PLP.PLP>
-36.6461

> <Gold.PLP.part.hbond>
-2.0000

> <Gold.PLP.part.metal>
0.0000

> <Gold.PLP.part.buried>
2.1308

> <Gold.PLP.part.nonpolar>
-37.2510

> <Gold.PLP.part.repulsive>
2.3438

> <Gold.PLP.ligand.clash>
0.0000

> <Gold.PLP.ligand.torsion>
0.4631

> <Gold.PLP.Chemscore.Hbond>
1.0730

> <Gold.PLP.Chemscore.CHOScore>
0.0000

> <Gold.PLP.Chemscore.Metal>
0.0000

> <Gold.Chemscore.Hbonds>
donor molecule, donor type, donor heavy atom, donor atom, acceptor molecule, acceptor atom, score
      L1  H    10    39       P1  7957  0.38
      P1  H 10785 10796       L1    20  0.58

> <Gold.PLP.Chemscore.Internal.Correction>
0.3500

> <Gold.Rescore>
     Score         DG    S(hbond)    S(metal)    S(lipo)     H(rot)  DE(clash)    DE(int)     intcor
      8.25     -15.10       0.75        0.00      99.83       1.79       1.88       4.96       ----

> <Gold.Chemscore.Fitness>
8.2525

> <Gold.Chemscore.DG>
-15.0978

> <Gold.Chemscore.ZeroCoef>
-5.4800

> <Gold.Chemscore.Hbond>
0.7536

> <Gold.Chemscore.Metal>
0.0000

> <Gold.Chemscore.Lipo>
99.8291

> <Gold.Chemscore.Internal_Hbond>
0.0000

> <Gold.Chemscore.DEClash>
1.8835

> <Gold.Chemscore.DEInternal>
4.9618

> <Gold.Chemscore.Rot>
1.7888

> <Gold.Chemscore.Internal.Correction>
   9.000000E+99

> <Gold.Chemscore.Hbonds>
donor molecule, donor type, donor heavy atom, donor atom, acceptor molecule, acceptor atom, score
      L1  H    10    39       P1  7957  0.37
      P1  H 10785 10796       L1    20  0.23

> <Gold.Chemscore.Hbond.Weighted>
-2.5171

> <Gold.Chemscore.Metal.Weighted>
-0.0000

> <Gold.Chemscore.Lipo.Weighted>
-11.6800

> <Gold.Chemscore.Internal_Hbond.Weighted>
0.0000

> <Gold.Chemscore.DEClash.Weighted>
1.8835

> <Gold.Chemscore.DEInternal.Weighted>
4.9618

> <Gold.Chemscore.Rot.Weighted>
4.5793

> <Gold.Chemscore.Internal.Correction.Weighted>
   9.000000E+99

> <Gold.Protein.RotatedTorsions>
[ 6907 6896 6895 6894 ] final  -96.46 input  -60.11 | X-H torsion
[ 7974 7965 7964 7962 ] final -154.27 input  175.53 | X-H torsion
[ 8008 7997 7996 7995 ] final -150.38 input   59.86 | X-H torsion
[ 10167 10162 10161 10158 ] final -100.38 input  -65.29 | X-H torsion
[ 10718 10713 10712 10709 ] final -162.76 input   66.30 | X-H torsion
[ 10763 10752 10751 10750 ] final  149.81 input  -60.55 | X-H torsion
[ 11005 11000 10999 10996 ] final   73.87 input  -57.11 | X-H torsion

> <Gold.Protein.ActiveResidues>
 VAL166  LYS551  ARG553  GLY616  TRP617  ASP618  TYR619  PRO620  LYS621  CYS622 
 ASP623  PHE694  ASN695  SER759  ASP760  ASP761  ALA762  ILE779  LEU786  VAL792 
 PHE793  MET794  SER795  GLU796  ALA797  LYS798  CYS799  TRP800  GLU811  SER814 

> <Gold.Protein.RotatedAtoms>
  150.6989  134.1499  159.4136 H   0  0  0  0  0  0  0  0  0  0  0  0  # atno 6907 bound_to 6896
  151.9482  135.0179  160.0549 H   0  0  0  0  0  0  0  0  0  0  0  0  # atno 6908 bound_to 6896
  152.2034  133.4822  159.5107 H   0  0  0  0  0  0  0  0  0  0  0  0  # atno 6909 bound_to 6896
  144.7698  140.4412  143.5915 H   0  0  0  0  0  0  0  0  0  0  0  0  # atno 7974 bound_to 7965
  155.6227  140.0683  157.2673 H   0  0  0  0  0  0  0  0  0  0  0  0  # atno 8008 bound_to 7997
  154.4225  140.1781  156.1437 H   0  0  0  0  0  0  0  0  0  0  0  0  # atno 8009 bound_to 7997
  155.9997  140.3337  155.6836 H   0  0  0  0  0  0  0  0  0  0  0  0  # atno 8010 bound_to 7997
  140.2525  143.3462  152.0701 H   0  0  0  0  0  0  0  0  0  0  0  0  # atno 10167 bound_to 10162
  156.6151  130.8867  151.2945 H   0  0  0  0  0  0  0  0  0  0  0  0  # atno 10718 bound_to 10713
  154.0772  135.2862  155.3297 H   0  0  0  0  0  0  0  0  0  0  0  0  # atno 10763 bound_to 10752
  154.6708  135.5300  153.8139 H   0  0  0  0  0  0  0  0  0  0  0  0  # atno 10764 bound_to 10752
  153.0463  135.6557  154.0949 H   0  0  0  0  0  0  0  0  0  0  0  0  # atno 10765 bound_to 10752
  139.9418  134.7384  156.1079 H   0  0  0  0  0  0  0  0  0  0  0  0  # atno 11005 bound_to 11000
  145.6358  139.1543  143.2943 LP  0  0  0  0  0  0  0  0  0  0  0  0  # atno 17320 bound_to 7965
  146.1835  140.6459  142.9178 LP  0  0  0  0  0  0  0  0  0  0  0  0  # atno 17321 bound_to 7965
  139.5042  144.6770  151.6104 LP  0  0  0  0  0  0  0  0  0  0  0  0  # atno 17342 bound_to 10162
  140.6029  143.9577  150.6398 LP  0  0  0  0  0  0  0  0  0  0  0  0  # atno 17343 bound_to 10162
  157.7243  130.9601  150.1569 LP  0  0  0  0  0  0  0  0  0  0  0  0  # atno 17370 bound_to 10713
  156.2358  130.3686  149.8393 LP  0  0  0  0  0  0  0  0  0  0  0  0  # atno 17371 bound_to 10713
  141.1056  133.6661  156.2855 LP  0  0  0  0  0  0  0  0  0  0  0  0  # atno 17394 bound_to 11000
  140.5932  134.5630  157.5503 LP  0  0  0  0  0  0  0  0  0  0  0  0  # atno 17395 bound_to 11000

$$$$
