AV-unprocessed.smi:2889|AV-procd|sdf|11112|dock3
  -GOLD-   2272015583D 1   1.00000     0.00000
 Structure written by MMmdl.
 35 36  0  0  0  0  0  0  0  0  2 V2000
  154.7227  140.8155  161.6564 C   0  0  0  0  0  0  0  0  0  0  0  0
  153.7760  140.0688  160.3032 S   0  0  0  0  0  0  0  0  0  0  0  0
  153.2423  141.5584  159.3983 C   0  0  2  0  0  0  0  0  0  0  0  0
  152.8793  142.6877  160.4037 C   0  0  0  0  0  0  0  0  0  0  0  0
  152.3850  143.9789  159.7206 C   0  0  0  0  0  0  0  0  0  0  0  0
  151.2096  143.6441  158.7832 C   0  0  0  0  0  0  0  0  0  0  0  0
  151.5696  142.5379  157.7626 C   0  0  0  0  0  0  0  0  0  0  0  0
  152.0783  141.2284  158.4192 C   0  0  1  0  0  0  0  0  0  0  0  0
  152.5288  140.3051  157.3847 N   0  5  0  0  0  0  0  0  0  0  0  0
  151.4378  139.4999  156.4959 S   0  0  0  0  0  0  0  0  0  0  0  0
  151.0573  140.2237  155.2720 O   0  0  0  0  0  0  0  0  0  0  0  0
  151.7683  138.0726  156.3501 O   0  0  0  0  0  0  0  0  0  0  0  0
  149.9708  139.5751  157.6109 C   0  0  0  0  0  0  0  0  0  0  0  0
  149.6627  138.2091  158.1584 C   0  0  0  0  0  0  0  0  0  0  0  0
  148.4599  137.4579  158.0419 C   0  0  0  0  0  0  0  0  0  0  0  0
  148.7371  136.3034  158.7149 C   0  0  0  0  0  0  0  0  0  0  0  0
  150.0049  136.3273  159.1973 O   0  0  0  0  0  0  0  0  0  0  0  0
  150.5891  137.5462  158.8342 N   0  0  0  0  0  0  0  0  0  0  0  0
  155.1504  140.0359  162.2865 H   0  0  0  0  0  0  0  0  0  0  0  0
  154.0848  141.4449  162.2758 H   0  0  0  0  0  0  0  0  0  0  0  0
  155.5363  141.4235  161.2609 H   0  0  0  0  0  0  0  0  0  0  0  0
  154.0926  141.8983  158.8048 H   0  0  0  0  0  0  0  0  0  0  0  0
  152.1152  142.3369  161.1005 H   0  0  0  0  0  0  0  0  0  0  0  0
  153.7469  142.9293  161.0169 H   0  0  0  0  0  0  0  0  0  0  0  0
  152.0805  144.7129  160.4670 H   0  0  0  0  0  0  0  0  0  0  0  0
  153.1976  144.4277  159.1481 H   0  0  0  0  0  0  0  0  0  0  0  0
  150.3442  143.3421  159.3767 H   0  0  0  0  0  0  0  0  0  0  0  0
  150.9045  144.5444  158.2493 H   0  0  0  0  0  0  0  0  0  0  0  0
  150.6964  142.3278  157.1445 H   0  0  0  0  0  0  0  0  0  0  0  0
  152.3327  142.9256  157.0860 H   0  0  0  0  0  0  0  0  0  0  0  0
  151.2614  140.8071  159.0066 H   0  0  0  0  0  0  0  0  0  0  0  0
  150.1886  140.2771  158.4151 H   0  0  0  0  0  0  0  0  0  0  0  0
  149.1320  139.9742  157.0398 H   0  0  0  0  0  0  0  0  0  0  0  0
  147.5383  137.7299  157.5492 H   0  0  0  0  0  0  0  0  0  0  0  0
  148.1654  135.4117  158.9256 H   0  0  0  0  0  0  0  0  0  0  0  0
  1  2  1  0  0  0  0
  1 19  1  0  0  0  0
  1 20  1  0  0  0  0
  1 21  1  0  0  0  0
  2  3  1  0  0  0  0
  3  8  1  0  0  0  0
  3  4  1  0  0  0  0
  3 22  1  0  0  0  0
  4  5  1  0  0  0  0
  4 23  1  0  0  0  0
  4 24  1  0  0  0  0
  5  6  1  0  0  0  0
  5 25  1  0  0  0  0
  5 26  1  0  0  0  0
  6  7  1  0  0  0  0
  6 27  1  0  0  0  0
  6 28  1  0  0  0  0
  7  8  1  0  0  0  0
  7 29  1  0  0  0  0
  7 30  1  0  0  0  0
  8  9  1  0  0  0  0
  8 31  1  0  0  0  0
  9 10  1  0  0  0  0
 10 11  2  0  0  0  0
 10 12  2  0  0  0  0
 10 13  1  0  0  0  0
 13 14  1  0  0  0  0
 13 32  1  0  0  0  0
 13 33  1  0  0  0  0
 14 18  2  0  0  0  0
 14 15  1  0  0  0  0
 15 16  2  0  0  0  0
 15 34  1  0  0  0  0
 16 17  1  0  0  0  0
 16 35  1  0  0  0  0
 17 18  1  0  0  0  0
M  CHG  1   9  -1
M  END
> <s_m_source_file>
AV-unprocessed.smi

> <i_m_source_file_index>
2889

> <i_lp_mmshare_version>
43012

> <i_f3d_flags>
0

> <s_epik_input>
W0NIM11TW0NAQEhdMVtDSDJdW0NIMl1bQ0gyXVtDSDJdW0NASF0xW05IXVMoPU8pKD1PKVtDSDJdYzJbY0hdW2NIXW9uMg==

> <s_epik_cmdline>
J2VwaWtfcHl0aG9uJywgJy1waCcsICc3LjAnLCAnLXRuJywgJzgnLCAnLW1hJywgJzIwMCcsICctbWV0YWxfYmluZGluZycsICctaW1hZScsICc8aW5maWxlLm1hZT4nLCAnLW9tYWUnLCAnPG91dGZpbGUubWFlPic=

> <r_lp_tautomer_probability>
1

> <r_epik_Ionization_Penalty>
4.65467

> <r_epik_Ionization_Penalty_Charging>
4.65467

> <r_epik_Ionization_Penalty_Neutral>
2.71476e-10

> <r_epik_State_Penalty>
4.65444

> <r_epik_Charging_Adjusted_Penalty>
9.30911

> <i_epik_Tot_Q>
-1

> <i_epik_Tot_abs_Q>
1

> <r_epik_Metal_State_Penalty>
0.901484

> <b_epik_Metal_Only>
1

> <s_lp_Force_Field>
OPLS_2005

> <r_lp_Energy>
8.40565

> <b_lp_Chiralities_Consistent>
1

> <s_lp_Variant>
AV-unprocessed.smi:2889-5

> <Gold.Version>
5.8.1

> <Gold.Id.Protein>
6NUR|6NUR_protein|mol2

> <Gold.PLP.Fitness>
42.3101

> <Gold.PLP.PLP>
-31.6074

> <Gold.PLP.part.hbond>
-3.0000

> <Gold.PLP.part.metal>
0.0000

> <Gold.PLP.part.buried>
-3.7314

> <Gold.PLP.part.nonpolar>
-24.2403

> <Gold.PLP.part.repulsive>
0.0321

> <Gold.PLP.ligand.clash>
0.0000

> <Gold.PLP.ligand.torsion>
1.1317

> <Gold.PLP.Chemscore.Hbond>
3.9840

> <Gold.PLP.Chemscore.CHOScore>
0.0000

> <Gold.PLP.Chemscore.Metal>
0.0000

> <Gold.Chemscore.Hbonds>
donor molecule, donor type, donor heavy atom, donor atom, acceptor molecule, acceptor atom, score
      P1  H  6896  6908       L1    17  1.00
      P1  H  7989  7998       L1    11  1.00
      P1  H  7997  8008       L1     9  1.95

> <Gold.PLP.Chemscore.Internal.Correction>
1.0141

> <Gold.Rescore>
     Score         DG    S(hbond)    S(metal)    S(lipo)     H(rot)  DE(clash)    DE(int)     intcor
     18.87     -21.16       2.88        0.00      85.29       1.53       0.01       2.28       ----

> <Gold.Chemscore.Fitness>
18.8700

> <Gold.Chemscore.DG>
-21.1588

> <Gold.Chemscore.ZeroCoef>
-5.4800

> <Gold.Chemscore.Hbond>
2.8804

> <Gold.Chemscore.Metal>
0.0000

> <Gold.Chemscore.Lipo>
85.2873

> <Gold.Chemscore.Internal_Hbond>
0.0000

> <Gold.Chemscore.DEClash>
0.0135

> <Gold.Chemscore.DEInternal>
2.2752

> <Gold.Chemscore.Rot>
1.5314

> <Gold.Chemscore.Internal.Correction>
   9.000000E+99

> <Gold.Chemscore.Hbonds>
donor molecule, donor type, donor heavy atom, donor atom, acceptor molecule, acceptor atom, score
      P1  H  6896  6908       L1    17  0.91
      P1  H  7989  7998       L1    11  0.96
      P1  H  7997  8008       L1     9  0.74

> <Gold.Chemscore.Hbond.Weighted>
-9.6206

> <Gold.Chemscore.Metal.Weighted>
-0.0000

> <Gold.Chemscore.Lipo.Weighted>
-9.9786

> <Gold.Chemscore.Internal_Hbond.Weighted>
0.0000

> <Gold.Chemscore.DEClash.Weighted>
0.0135

> <Gold.Chemscore.DEInternal.Weighted>
2.2752

> <Gold.Chemscore.Rot.Weighted>
3.9205

> <Gold.Chemscore.Internal.Correction.Weighted>
   9.000000E+99

> <Gold.Protein.RotatedTorsions>
[ 6907 6896 6895 6894 ] final  178.26 input  -60.11 | X-H torsion
[ 7974 7965 7964 7962 ] final  -48.83 input  175.53 | X-H torsion
[ 8008 7997 7996 7995 ] final  -60.98 input   59.86 | X-H torsion
[ 10167 10162 10161 10158 ] final -175.30 input  -65.29 | X-H torsion
[ 10718 10713 10712 10709 ] final  -34.95 input   66.30 | X-H torsion
[ 10763 10752 10751 10750 ] final -152.82 input  -60.55 | X-H torsion
[ 11005 11000 10999 10996 ] final   94.70 input  -57.11 | X-H torsion

> <Gold.Protein.ActiveResidues>
 VAL166  LYS551  ARG553  GLY616  TRP617  ASP618  TYR619  PRO620  LYS621  CYS622 
 ASP623  PHE694  ASN695  SER759  ASP760  ASP761  ALA762  ILE779  LEU786  VAL792 
 PHE793  MET794  SER795  GLU796  ALA797  LYS798  CYS799  TRP800  GLU811  SER814 

> <Gold.Protein.RotatedAtoms>
  151.6906  133.3311  159.3241 H   0  0  0  0  0  0  0  0  0  0  0  0  # atno 6907 bound_to 6896
  150.7780  134.6701  159.6396 H   0  0  0  0  0  0  0  0  0  0  0  0  # atno 6908 bound_to 6896
  152.3829  134.6565  160.0188 H   0  0  0  0  0  0  0  0  0  0  0  0  # atno 6909 bound_to 6896
  145.9470  140.7608  142.9523 H   0  0  0  0  0  0  0  0  0  0  0  0  # atno 7974 bound_to 7965
  154.4425  140.1027  156.6360 H   0  0  0  0  0  0  0  0  0  0  0  0  # atno 8008 bound_to 7997
  155.5554  140.3486  155.4460 H   0  0  0  0  0  0  0  0  0  0  0  0  # atno 8009 bound_to 7997
  156.0499  140.1301  157.0051 H   0  0  0  0  0  0  0  0  0  0  0  0  # atno 8010 bound_to 7997
  139.5588  144.1921  152.1204 H   0  0  0  0  0  0  0  0  0  0  0  0  # atno 10167 bound_to 10162
  156.3444  130.4298  149.7759 H   0  0  0  0  0  0  0  0  0  0  0  0  # atno 10718 bound_to 10713
  154.7969  135.3227  154.7645 H   0  0  0  0  0  0  0  0  0  0  0  0  # atno 10763 bound_to 10752
  153.8322  135.6878  153.4817 H   0  0  0  0  0  0  0  0  0  0  0  0  # atno 10764 bound_to 10752
  153.1665  135.4640  154.9786 H   0  0  0  0  0  0  0  0  0  0  0  0  # atno 10765 bound_to 10752
  139.8796  134.8859  156.3903 H   0  0  0  0  0  0  0  0  0  0  0  0  # atno 11005 bound_to 11000
  144.6789  140.2373  143.7348 LP  0  0  0  0  0  0  0  0  0  0  0  0  # atno 17320 bound_to 7965
  145.8223  139.2049  143.1931 LP  0  0  0  0  0  0  0  0  0  0  0  0  # atno 17321 bound_to 7965
  140.1431  144.5184  150.6732 LP  0  0  0  0  0  0  0  0  0  0  0  0  # atno 17342 bound_to 10162
  140.6865  143.2353  151.5246 LP  0  0  0  0  0  0  0  0  0  0  0  0  # atno 17343 bound_to 10162
  156.4983  130.8117  151.3122 LP  0  0  0  0  0  0  0  0  0  0  0  0  # atno 17370 bound_to 10713
  157.7452  130.9953  150.2738 LP  0  0  0  0  0  0  0  0  0  0  0  0  # atno 17371 bound_to 10713
  140.9338  133.7561  156.0058 LP  0  0  0  0  0  0  0  0  0  0  0  0  # atno 17394 bound_to 11000
  140.8300  134.3189  157.5352 LP  0  0  0  0  0  0  0  0  0  0  0  0  # atno 17395 bound_to 11000

$$$$
