AV-unprocessed.smi:1610|AV-procd|sdf|6471|dock4
  -GOLD-   22720 7123D 1   1.00000     0.00000
 Structure written by MMmdl.
 45 46  0  0  0  0  0  0  0  0  2 V2000
  149.9164  141.8273  156.3194 C   0  0  0  0  0  0  0  0  0  0  0  0
  150.4757  140.8872  154.8409 S   0  0  0  0  0  0  0  0  0  0  0  0
  149.7645  141.3974  153.6588 O   0  0  0  0  0  0  0  0  0  0  0  0
  151.9451  140.8324  154.8578 O   0  0  0  0  0  0  0  0  0  0  0  0
  149.9016  139.2906  155.1561 N   0  0  0  0  0  0  0  0  0  0  0  0
  150.5330  138.4400  156.1670 C   0  0  0  0  0  0  0  0  0  0  0  0
  150.3384  139.0488  157.5718 C   0  0  0  0  0  0  0  0  0  0  0  0
  151.1529  138.2736  158.6223 C   0  0  0  0  0  0  0  0  0  0  0  0
  152.5685  138.2709  158.2149 N   0  0  0  0  0  0  0  0  0  0  0  0
  153.5714  138.9882  158.7827 C   0  0  0  0  0  0  0  0  0  0  0  0
  154.7630  138.8004  158.5331 O   0  0  0  0  0  0  0  0  0  0  0  0
  153.1682  139.9328  159.6480 N   0  0  0  0  0  0  0  0  0  0  0  0
  154.0596  140.8243  160.3765 C   0  0  0  0  0  0  0  0  0  0  0  0
  153.2555  141.7876  161.2594 C   0  0  0  0  0  0  0  0  0  0  0  0
  152.8022  143.0165  160.4956 C   0  0  0  0  0  0  0  0  0  0  0  0
  152.1285  144.0667  161.1576 C   0  0  0  0  0  0  0  0  0  0  0  0
  151.7137  145.1952  160.4200 C   0  0  0  0  0  0  0  0  0  0  0  0
  151.9814  145.2478  159.0366 C   0  0  0  0  0  0  0  0  0  0  0  0
  152.6276  144.2234  158.4376 N   0  3  0  0  0  0  0  0  0  0  0  0
  153.0407  143.1257  159.1084 C   0  0  0  0  0  0  0  0  0  0  0  0
  152.7597  137.5149  156.9703 C   0  0  0  0  0  0  0  0  0  0  0  0
  152.0256  138.2439  155.8296 C   0  0  0  0  0  0  0  0  0  0  0  0
  150.2776  142.8531  156.2515 H   0  0  0  0  0  0  0  0  0  0  0  0
  150.3145  141.3629  157.2211 H   0  0  0  0  0  0  0  0  0  0  0  0
  148.8276  141.8335  156.3607 H   0  0  0  0  0  0  0  0  0  0  0  0
  149.5265  138.8048  154.3416 H   0  0  0  0  0  0  0  0  0  0  0  0
  150.0558  137.4591  156.1489 H   0  0  0  0  0  0  0  0  0  0  0  0
  150.6543  140.0933  157.5722 H   0  0  0  0  0  0  0  0  0  0  0  0
  149.2832  139.0447  157.8443 H   0  0  0  0  0  0  0  0  0  0  0  0
  150.9764  138.6923  159.6131 H   0  0  0  0  0  0  0  0  0  0  0  0
  150.7961  137.2441  158.6805 H   0  0  0  0  0  0  0  0  0  0  0  0
  152.1770  140.0379  159.8088 H   0  0  0  0  0  0  0  0  0  0  0  0
  154.7374  140.2268  160.9879 H   0  0  0  0  0  0  0  0  0  0  0  0
  154.6723  141.3888  159.6712 H   0  0  0  0  0  0  0  0  0  0  0  0
  152.3797  141.2800  161.6663 H   0  0  0  0  0  0  0  0  0  0  0  0
  153.8549  142.1009  162.1154 H   0  0  0  0  0  0  0  0  0  0  0  0
  151.9292  144.0088  162.2180 H   0  0  0  0  0  0  0  0  0  0  0  0
  151.1967  146.0082  160.9085 H   0  0  0  0  0  0  0  0  0  0  0  0
  151.6999  146.0710  158.3959 H   0  0  0  0  0  0  0  0  0  0  0  0
  153.5443  142.3736  158.5182 H   0  0  0  0  0  0  0  0  0  0  0  0
  153.8112  137.3846  156.7109 H   0  0  0  0  0  0  0  0  0  0  0  0
  152.3592  136.5073  157.0913 H   0  0  0  0  0  0  0  0  0  0  0  0
  152.1286  137.6825  154.9001 H   0  0  0  0  0  0  0  0  0  0  0  0
  152.4996  139.2122  155.6606 H   0  0  0  0  0  0  0  0  0  0  0  0
  152.8109  144.2810  157.4354 H   0  0  0  0  0  0  0  0  0  0  0  0
  1  2  1  0  0  0  0
  1 23  1  0  0  0  0
  1 24  1  0  0  0  0
  1 25  1  0  0  0  0
  2  3  2  0  0  0  0
  2  4  2  0  0  0  0
  2  5  1  0  0  0  0
  5  6  1  0  0  0  0
  5 26  1  0  0  0  0
  6 22  1  0  0  0  0
  6  7  1  0  0  0  0
  6 27  1  0  0  0  0
  7  8  1  0  0  0  0
  7 28  1  0  0  0  0
  7 29  1  0  0  0  0
  8  9  1  0  0  0  0
  8 30  1  0  0  0  0
  8 31  1  0  0  0  0
  9 10  1  0  0  0  0
  9 21  1  0  0  0  0
 10 11  2  0  0  0  0
 10 12  1  0  0  0  0
 12 13  1  0  0  0  0
 12 32  1  0  0  0  0
 13 14  1  0  0  0  0
 13 33  1  0  0  0  0
 13 34  1  0  0  0  0
 14 15  1  0  0  0  0
 14 35  1  0  0  0  0
 14 36  1  0  0  0  0
 15 20  1  0  0  0  0
 15 16  2  0  0  0  0
 16 17  1  0  0  0  0
 16 37  1  0  0  0  0
 17 18  2  0  0  0  0
 17 38  1  0  0  0  0
 18 19  1  0  0  0  0
 18 39  1  0  0  0  0
 19 20  2  0  0  0  0
 19 45  1  0  0  0  0
 20 40  1  0  0  0  0
 21 22  1  0  0  0  0
 21 41  1  0  0  0  0
 21 42  1  0  0  0  0
 22 43  1  0  0  0  0
 22 44  1  0  0  0  0
M  CHG  1  19   1
M  END
> <s_m_source_file>
AV-unprocessed.smi

> <i_m_source_file_index>
1610

> <i_lp_mmshare_version>
43012

> <i_f3d_flags>
0

> <s_epik_input>
W0NIM11TKD1PKSg9TylbTkhdW0NIXTFbQ0gyXVtDSDJdTihbQ0gyXVtDSDJdMSlDKD1PKVtOSF1bQ0gyXVtDSDJdYzJbY0hdW2NIXVtjSF1uW2NIXTI=

> <s_epik_cmdline>
J2VwaWtfcHl0aG9uJywgJy1waCcsICc3LjAnLCAnLXRuJywgJzgnLCAnLW1hJywgJzIwMCcsICctbWV0YWxfYmluZGluZycsICctaW1hZScsICc8aW5maWxlLm1hZT4nLCAnLW9tYWUnLCAnPG91dGZpbGUubWFlPic=

> <r_epik_Ionization_Penalty>
2.20747

> <r_epik_Ionization_Penalty_Charging>
2.20741

> <r_epik_Ionization_Penalty_Neutral>
6.06433e-05

> <r_epik_State_Penalty>
2.35137

> <r_epik_Charging_Adjusted_Penalty>
4.55877

> <i_epik_Tot_Q>
1

> <i_epik_Tot_abs_Q>
1

> <r_epik_Metal_State_Penalty>
2.37242

> <b_epik_Metal_Only>
0

> <s_lp_Force_Field>
OPLS_2005

> <r_lp_Energy>
29.2562

> <b_lp_Chiralities_Consistent>
1

> <s_lp_Variant>
AV-unprocessed.smi:1610-2

> <Gold.Version>
5.8.1

> <Gold.Id.Protein>
6NUR|6NUR_protein|mol2

> <Gold.PLP.Fitness>
48.1870

> <Gold.PLP.PLP>
-41.6467

> <Gold.PLP.part.hbond>
-3.5820

> <Gold.PLP.part.metal>
0.0000

> <Gold.PLP.part.buried>
-4.6909

> <Gold.PLP.part.nonpolar>
-33.6882

> <Gold.PLP.part.repulsive>
1.2188

> <Gold.PLP.ligand.clash>
0.0000

> <Gold.PLP.ligand.torsion>
0.8047

> <Gold.PLP.Chemscore.Hbond>
2.3650

> <Gold.PLP.Chemscore.CHOScore>
0.0000

> <Gold.PLP.Chemscore.Metal>
0.0000

> <Gold.Chemscore.Hbonds>
donor molecule, donor type, donor heavy atom, donor atom, acceptor molecule, acceptor atom, score
      P1  H  7997  8008       L1    11  1.00
      P1  H  8011  8017       L1     3  0.80

> <Gold.PLP.Chemscore.Internal.Correction>
1.0548

> <Gold.Rescore>
     Score         DG    S(hbond)    S(metal)    S(lipo)     H(rot)  DE(clash)    DE(int)     intcor
     17.38     -19.69       1.87        0.00     107.60       1.81       0.02       2.29       ----

> <Gold.Chemscore.Fitness>
17.3784

> <Gold.Chemscore.DG>
-19.6898

> <Gold.Chemscore.ZeroCoef>
-5.4800

> <Gold.Chemscore.Hbond>
1.8742

> <Gold.Chemscore.Metal>
0.0000

> <Gold.Chemscore.Lipo>
107.6028

> <Gold.Chemscore.Internal_Hbond>
0.0000

> <Gold.Chemscore.DEClash>
0.0234

> <Gold.Chemscore.DEInternal>
2.2880

> <Gold.Chemscore.Rot>
1.8123

> <Gold.Chemscore.Internal.Correction>
   9.000000E+99

> <Gold.Chemscore.Hbonds>
donor molecule, donor type, donor heavy atom, donor atom, acceptor molecule, acceptor atom, score
      P1  H  7997  8008       L1    11  0.73
      P1  H  8011  8017       L1     3  0.79

> <Gold.Chemscore.Hbond.Weighted>
-6.2598

> <Gold.Chemscore.Metal.Weighted>
-0.0000

> <Gold.Chemscore.Lipo.Weighted>
-12.5895

> <Gold.Chemscore.Internal_Hbond.Weighted>
0.0000

> <Gold.Chemscore.DEClash.Weighted>
0.0234

> <Gold.Chemscore.DEInternal.Weighted>
2.2880

> <Gold.Chemscore.Rot.Weighted>
4.6395

> <Gold.Chemscore.Internal.Correction.Weighted>
   9.000000E+99

> <Gold.Protein.RotatedTorsions>
[ 6907 6896 6895 6894 ] final -147.00 input  -60.11 | X-H torsion
[ 7974 7965 7964 7962 ] final -107.04 input  175.53 | X-H torsion
[ 8008 7997 7996 7995 ] final -133.53 input   59.86 | X-H torsion
[ 10167 10162 10161 10158 ] final   43.60 input  -65.29 | X-H torsion
[ 10718 10713 10712 10709 ] final   15.77 input   66.30 | X-H torsion
[ 10763 10752 10751 10750 ] final  -91.51 input  -60.55 | X-H torsion
[ 11005 11000 10999 10996 ] final  -37.18 input  -57.11 | X-H torsion

> <Gold.Protein.ActiveResidues>
 VAL166  LYS551  ARG553  GLY616  TRP617  ASP618  TYR619  PRO620  LYS621  CYS622 
 ASP623  PHE694  ASN695  SER759  ASP760  ASP761  ALA762  ILE779  LEU786  VAL792 
 PHE793  MET794  SER795  GLU796  ALA797  LYS798  CYS799  TRP800  GLU811  SER814 

> <Gold.Protein.RotatedAtoms>
  151.1495  133.4917  159.2595 H   0  0  0  0  0  0  0  0  0  0  0  0  # atno 6907 bound_to 6896
  151.1569  135.0254  159.8703 H   0  0  0  0  0  0  0  0  0  0  0  0  # atno 6908 bound_to 6896
  152.5463  134.1373  159.8517 H   0  0  0  0  0  0  0  0  0  0  0  0  # atno 6909 bound_to 6896
  145.2103  140.9093  143.3318 H   0  0  0  0  0  0  0  0  0  0  0  0  # atno 7974 bound_to 7965
  155.3470  140.0475  157.3045 H   0  0  0  0  0  0  0  0  0  0  0  0  # atno 8008 bound_to 7997
  154.5247  140.2237  155.8876 H   0  0  0  0  0  0  0  0  0  0  0  0  # atno 8009 bound_to 7997
  156.1727  140.3092  155.9008 H   0  0  0  0  0  0  0  0  0  0  0  0  # atno 8010 bound_to 7997
  140.3428  144.2449  150.6154 H   0  0  0  0  0  0  0  0  0  0  0  0  # atno 10167 bound_to 10162
  157.0583  130.6298  149.5781 H   0  0  0  0  0  0  0  0  0  0  0  0  # atno 10718 bound_to 10713
  154.6768  135.5265  153.8210 H   0  0  0  0  0  0  0  0  0  0  0  0  # atno 10763 bound_to 10752
  153.0538  135.6542  154.0638 H   0  0  0  0  0  0  0  0  0  0  0  0  # atno 10764 bound_to 10752
  154.0531  135.2968  155.3317 H   0  0  0  0  0  0  0  0  0  0  0  0  # atno 10765 bound_to 10752
  140.9932  133.6994  156.1887 H   0  0  0  0  0  0  0  0  0  0  0  0  # atno 11005 bound_to 11000
  144.9862  139.3734  143.6237 LP  0  0  0  0  0  0  0  0  0  0  0  0  # atno 17320 bound_to 7965
  146.3399  139.9025  142.8792 LP  0  0  0  0  0  0  0  0  0  0  0  0  # atno 17321 bound_to 7965
  140.5293  143.2247  151.8264 LP  0  0  0  0  0  0  0  0  0  0  0  0  # atno 17342 bound_to 10162
  139.4838  144.4740  151.9390 LP  0  0  0  0  0  0  0  0  0  0  0  0  # atno 17343 bound_to 10162
  155.9986  130.5060  150.7578 LP  0  0  0  0  0  0  0  0  0  0  0  0  # atno 17370 bound_to 10713
  157.4975  131.0916  151.0354 LP  0  0  0  0  0  0  0  0  0  0  0  0  # atno 17371 bound_to 10713
  140.7007  134.4567  157.5586 LP  0  0  0  0  0  0  0  0  0  0  0  0  # atno 17394 bound_to 11000
  139.9002  134.8574  156.1928 LP  0  0  0  0  0  0  0  0  0  0  0  0  # atno 17395 bound_to 11000

$$$$
