AV-unprocessed.smi:114|AV-procd|sdf|1110|dock9
  -GOLD-   2262018223D 1   1.00000     0.00000
 Structure written by MMmdl.
 32 34  0  0  0  0  0  0  0  0  1 V2000
  145.0930  135.3079  149.8387 N   0  0  0  0  0  0  0  0  0  0  0  0
  145.1864  135.7987  151.0828 C   0  0  0  0  0  0  0  0  0  0  0  0
  144.6631  135.0779  152.1011 N   0  0  0  0  0  0  0  0  0  0  0  0
  144.7346  135.5342  153.3571 C   0  0  0  0  0  0  0  0  0  0  0  0
  144.1876  134.7496  154.3152 F   0  0  0  0  0  0  0  0  0  0  0  0
  145.2868  136.6788  153.7726 N   0  0  0  0  0  0  0  0  0  0  0  0
  145.8169  137.4117  152.7514 C   0  0  0  0  0  0  0  0  0  0  0  0
  145.8067  137.0369  151.3801 C   0  0  0  0  0  0  0  0  0  0  0  0
  146.4327  138.0111  150.6159 N   0  0  0  0  0  0  0  0  0  0  0  0
  146.7898  138.9116  151.4913 C   0  0  0  0  0  0  0  0  0  0  0  0
  146.4565  138.6365  152.7994 N   0  0  0  0  0  0  0  0  0  0  0  0
  146.7475  139.4966  153.9897 C   0  0  1  0  0  0  0  0  0  0  0  0
  147.7668  138.9192  154.7451 O   0  0  0  0  0  0  0  0  0  0  0  0
  148.7075  139.9004  155.1888 C   0  0  1  0  0  0  0  0  0  0  0  0
  150.0798  139.5583  154.5703 C   0  0  0  0  0  0  0  0  0  0  0  0
  151.0260  140.5437  154.9256 O   0  0  0  0  0  0  0  0  0  0  0  0
  148.1050  141.2481  154.7435 C   0  0  1  0  0  0  0  0  0  0  0  0
  149.0726  142.2174  154.3878 O   0  0  0  0  0  0  0  0  0  0  0  0
  147.2286  140.8792  153.5574 C   0  0  2  0  0  0  0  0  0  0  0  0
  146.1609  141.8016  153.4604 O   0  0  0  0  0  0  0  0  0  0  0  0
  145.8243  139.5119  154.5709 H   0  0  0  0  0  0  0  0  0  0  0  0
  148.7822  139.8798  156.2769 H   0  0  0  0  0  0  0  0  0  0  0  0
  147.4904  141.6400  155.5561 H   0  0  0  0  0  0  0  0  0  0  0  0
  147.8047  140.8062  152.6329 H   0  0  0  0  0  0  0  0  0  0  0  0
  145.4761  135.8293  149.0632 H   0  0  0  0  0  0  0  0  0  0  0  0
  144.6381  134.4209  149.6783 H   0  0  0  0  0  0  0  0  0  0  0  0
  147.3141  139.8119  151.2049 H   0  0  0  0  0  0  0  0  0  0  0  0
  150.4225  138.5675  154.8653 H   0  0  0  0  0  0  0  0  0  0  0  0
  150.0293  139.5647  153.4817 H   0  0  0  0  0  0  0  0  0  0  0  0
  151.4779  140.2588  155.7052 H   0  0  0  0  0  0  0  0  0  0  0  0
  148.8280  143.0435  154.7759 H   0  0  0  0  0  0  0  0  0  0  0  0
  145.3563  141.3202  153.3436 H   0  0  0  0  0  0  0  0  0  0  0  0
  1  2  1  0  0  0  0
  1 25  1  0  0  0  0
  1 26  1  0  0  0  0
  2  8  1  0  0  0  0
  2  3  2  0  0  0  0
  3  4  1  0  0  0  0
  4  5  1  0  0  0  0
  4  6  2  0  0  0  0
  6  7  1  0  0  0  0
  7 11  1  0  0  0  0
  7  8  2  0  0  0  0
  8  9  1  0  0  0  0
  9 10  2  0  0  0  0
 10 11  1  0  0  0  0
 10 27  1  0  0  0  0
 11 12  1  0  0  0  0
 12 21  1  0  0  0  0
 12 19  1  0  0  0  0
 12 13  1  0  0  0  0
 13 14  1  0  0  0  0
 14 22  1  0  0  0  0
 14 15  1  0  0  0  0
 14 17  1  0  0  0  0
 15 16  1  0  0  0  0
 15 28  1  0  0  0  0
 15 29  1  0  0  0  0
 16 30  1  0  0  0  0
 17 23  1  0  0  0  0
 17 18  1  0  0  0  0
 17 19  1  0  0  0  0
 18 31  1  0  0  0  0
 19 24  1  0  0  0  0
 19 20  1  0  0  0  0
 20 32  1  0  0  0  0
M  END
> <s_m_source_file>
AV-unprocessed.smi

> <i_m_source_file_index>
114

> <i_lp_mmshare_version>
43012

> <i_f3d_flags>
0

> <s_epik_input>
RmMobjEpbmMoW05IMl0pYyhjMTIpbltjSF1uMltDQEBIXTNPW0NASF0oW0NIMl1bT0hdKVtDQEBIXShbT0hdKVtDQEBIXTNbT0hd

> <s_epik_cmdline>
J2VwaWtfcHl0aG9uJywgJy1waCcsICc3LjAnLCAnLXRuJywgJzgnLCAnLW1hJywgJzIwMCcsICctbWV0YWxfYmluZGluZycsICctaW1hZScsICc8aW5maWxlLm1hZT4nLCAnLW9tYWUnLCAnPG91dGZpbGUubWFlPic=

> <r_lp_tautomer_probability>
1

> <r_epik_Ionization_Penalty>
1.13199e-05

> <r_epik_Ionization_Penalty_Charging>
0

> <r_epik_Ionization_Penalty_Neutral>
1.13199e-05

> <r_epik_State_Penalty>
-0

> <r_epik_Charging_Adjusted_Penalty>
0

> <i_epik_Tot_Q>
0

> <i_epik_Tot_abs_Q>
0

> <r_epik_Metal_State_Penalty>
-0

> <b_epik_Metal_Only>
0

> <s_epik_Chemistry_Notes>
This compound contains an acetal/aminal-like group ( X-CH(R)-Y where X, Y are N, S, or O) that may be acid/base labile, releasing an aldehyde.

> <s_lp_Force_Field>
OPLS_2005

> <r_lp_Energy>
42.0862

> <b_lp_Chiralities_Consistent>
1

> <s_lp_Variant>
AV-unprocessed.smi:114-4

> <Gold.Version>
5.8.1

> <Gold.Id.Protein>
6NUR|6NUR_protein|mol2

> <Gold.PLP.Fitness>
42.1032

> <Gold.PLP.PLP>
-26.9072

> <Gold.PLP.part.hbond>
-6.0000

> <Gold.PLP.part.metal>
0.0000

> <Gold.PLP.part.buried>
-1.3613

> <Gold.PLP.part.nonpolar>
-22.9895

> <Gold.PLP.part.repulsive>
2.4652

> <Gold.PLP.ligand.clash>
0.0000

> <Gold.PLP.ligand.torsion>
0.2609

> <Gold.PLP.Chemscore.Hbond>
4.2371

> <Gold.PLP.Chemscore.CHOScore>
1.0000

> <Gold.PLP.Chemscore.Metal>
0.0000

> <Gold.Chemscore.Hbonds>
donor molecule, donor type, donor heavy atom, donor atom, acceptor molecule, acceptor atom, score
      L1  H     1    25       P1  7921  0.35
      L1  H    18    31       P1  8028  1.00
      L1  H    20    32       P1 10175  0.86
      P1  H  7954  7966       L1     9  0.67
      P1  H  7989  7998       L1    16  1.00
      P1  H  8011  8017       L1    18  0.16
      L1  C    10    27       P1  7957  0.91

> <Gold.PLP.Chemscore.Internal.Correction>
0.0066

> <Gold.Rescore>
     Score         DG    S(hbond)    S(metal)    S(lipo)     H(rot)  DE(clash)    DE(int)     intcor
      6.23      -8.09       2.88        0.00      28.37       4.03       1.41       0.45       ----

> <Gold.Chemscore.Fitness>
6.2311

> <Gold.Chemscore.DG>
-8.0905

> <Gold.Chemscore.ZeroCoef>
-5.4800

> <Gold.Chemscore.Hbond>
2.8750

> <Gold.Chemscore.Metal>
0.0000

> <Gold.Chemscore.Lipo>
28.3664

> <Gold.Chemscore.Internal_Hbond>
0.0000

> <Gold.Chemscore.DEClash>
1.4051

> <Gold.Chemscore.DEInternal>
0.4543

> <Gold.Chemscore.Rot>
4.0277

> <Gold.Chemscore.Internal.Correction>
   9.000000E+99

> <Gold.Chemscore.Hbonds>
donor molecule, donor type, donor heavy atom, donor atom, acceptor molecule, acceptor atom, score
      L1  H     1    25       P1  7921  0.34
      L1  H    18    31       P1  8028  1.00
      L1  H    20    32       P1 10175  0.16
      P1  H  7954  7966       L1     9  0.07
      P1  H  7989  7998       L1    16  0.28
      P1  H  8011  8017       L1    18  0.14

> <Gold.Chemscore.Hbond.Weighted>
-9.6026

> <Gold.Chemscore.Metal.Weighted>
-0.0000

> <Gold.Chemscore.Lipo.Weighted>
-3.3189

> <Gold.Chemscore.Internal_Hbond.Weighted>
0.0000

> <Gold.Chemscore.DEClash.Weighted>
1.4051

> <Gold.Chemscore.DEInternal.Weighted>
0.4543

> <Gold.Chemscore.Rot.Weighted>
10.3110

> <Gold.Chemscore.Internal.Correction.Weighted>
   9.000000E+99

> <Gold.Protein.RotatedTorsions>
[ 6907 6896 6895 6894 ] final   43.52 input  -60.11 | X-H torsion
[ 7974 7965 7964 7962 ] final   88.81 input  175.53 | X-H torsion
[ 8008 7997 7996 7995 ] final   83.28 input   59.86 | X-H torsion
[ 10167 10162 10161 10158 ] final   51.75 input  -65.29 | X-H torsion
[ 10718 10713 10712 10709 ] final  128.55 input   66.30 | X-H torsion
[ 10763 10752 10751 10750 ] final  125.92 input  -60.55 | X-H torsion
[ 11005 11000 10999 10996 ] final   35.03 input  -57.11 | X-H torsion

> <Gold.Protein.ActiveResidues>
 VAL166  LYS551  ARG553  GLY616  TRP617  ASP618  TYR619  PRO620  LYS621  CYS622 
 ASP623  PHE694  ASN695  SER759  ASP760  ASP761  ALA762  ILE779  LEU786  VAL792 
 PHE793  MET794  SER795  GLU796  ALA797  LYS798  CYS799  TRP800  GLU811  SER814 

> <Gold.Protein.RotatedAtoms>
  152.2212  134.8411  160.0485 H   0  0  0  0  0  0  0  0  0  0  0  0  # atno 6907 bound_to 6896
  151.9193  133.3576  159.3899 H   0  0  0  0  0  0  0  0  0  0  0  0  # atno 6908 bound_to 6896
  150.7000  134.4576  159.5410 H   0  0  0  0  0  0  0  0  0  0  0  0  # atno 6909 bound_to 6896
  145.5407  139.2288  143.2567 H   0  0  0  0  0  0  0  0  0  0  0  0  # atno 7974 bound_to 7965
  155.9219  140.3421  155.6179 H   0  0  0  0  0  0  0  0  0  0  0  0  # atno 8008 bound_to 7997
  155.7263  140.0790  157.2327 H   0  0  0  0  0  0  0  0  0  0  0  0  # atno 8009 bound_to 7997
  154.4071  140.1596  156.2446 H   0  0  0  0  0  0  0  0  0  0  0  0  # atno 8010 bound_to 7997
  140.2586  144.3399  150.6325 H   0  0  0  0  0  0  0  0  0  0  0  0  # atno 10167 bound_to 10162
  157.5234  131.1098  150.9119 H   0  0  0  0  0  0  0  0  0  0  0  0  # atno 10718 bound_to 10713
  153.6851  135.3308  155.3188 H   0  0  0  0  0  0  0  0  0  0  0  0  # atno 10763 bound_to 10752
  154.8455  135.4418  154.1566 H   0  0  0  0  0  0  0  0  0  0  0  0  # atno 10764 bound_to 10752
  153.2593  135.6989  153.7673 H   0  0  0  0  0  0  0  0  0  0  0  0  # atno 10765 bound_to 10752
  140.2468  134.3350  155.7905 H   0  0  0  0  0  0  0  0  0  0  0  0  # atno 11005 bound_to 11000
  146.1982  140.6227  142.9114 LP  0  0  0  0  0  0  0  0  0  0  0  0  # atno 17320 bound_to 7965
  144.7578  140.5350  143.6756 LP  0  0  0  0  0  0  0  0  0  0  0  0  # atno 17321 bound_to 7965
  140.5984  143.2167  151.7120 LP  0  0  0  0  0  0  0  0  0  0  0  0  # atno 17342 bound_to 10162
  139.5024  144.3831  152.0356 LP  0  0  0  0  0  0  0  0  0  0  0  0  # atno 17343 bound_to 10162
  156.9722  130.5495  149.5291 LP  0  0  0  0  0  0  0  0  0  0  0  0  # atno 17370 bound_to 10713
  156.0370  130.5456  150.8677 LP  0  0  0  0  0  0  0  0  0  0  0  0  # atno 17371 bound_to 10713
  141.2205  133.7330  156.8974 LP  0  0  0  0  0  0  0  0  0  0  0  0  # atno 17394 bound_to 11000
  140.1598  134.9173  157.2700 LP  0  0  0  0  0  0  0  0  0  0  0  0  # atno 17395 bound_to 11000

$$$$
