AV-unprocessed.smi:1427|AV-procd|sdf|5810|dock4
  -GOLD-   22720 5463D 1   1.00000     0.00000
 Structure written by MMmdl.
 33 34  0  0  0  0  0  0  0  0  1 V2000
  152.5643  141.0066  158.7273 C   0  0  0  0  0  0  0  0  0  0  0  0
  153.4574  141.4495  159.8941 C   0  0  1  0  0  0  0  0  0  0  0  0
  152.7083  142.4058  160.8461 C   0  0  0  0  0  0  0  0  0  0  0  0
  151.9356  143.4101  160.1352 N   0  0  0  0  0  0  0  0  0  0  0  0
  152.2319  144.7435  159.9469 C   0  0  0  0  0  0  0  0  0  0  0  0
  151.2031  145.2917  159.2360 C   0  0  0  0  0  0  0  0  0  0  0  0
  150.3141  144.1997  159.0311 C   0  0  0  0  0  0  0  0  0  0  0  0
  150.7569  143.0738  159.5668 N   0  0  0  0  0  0  0  0  0  0  0  0
  153.9268  140.2655  160.6130 N   0  0  0  0  0  0  0  0  0  0  0  0
  154.6397  139.2591  160.0827 C   0  0  0  0  0  0  0  0  0  0  0  0
  154.9625  139.2100  158.8946 O   0  0  0  0  0  0  0  0  0  0  0  0
  155.0806  138.1621  161.0614 C   0  0  2  0  0  0  0  0  0  0  0  0
  153.8610  137.4665  161.7059 C   0  0  0  0  0  0  0  0  0  0  0  0
  154.2020  137.3136  163.1937 C   0  0  0  0  0  0  0  0  0  0  0  0
  155.3651  138.2719  163.3764 C   0  0  0  0  0  0  0  0  0  0  0  0
  155.8227  138.5822  164.4737 O   0  0  0  0  0  0  0  0  0  0  0  0
  155.7989  138.7160  162.1979 N   0  0  0  0  0  0  0  0  0  0  0  0
  152.2260  141.8647  158.1458 H   0  0  0  0  0  0  0  0  0  0  0  0
  151.6799  140.4755  159.0816 H   0  0  0  0  0  0  0  0  0  0  0  0
  153.1032  140.3435  158.0497 H   0  0  0  0  0  0  0  0  0  0  0  0
  154.3055  141.9847  159.4630 H   0  0  0  0  0  0  0  0  0  0  0  0
  152.0193  141.8412  161.4754 H   0  0  0  0  0  0  0  0  0  0  0  0
  153.4081  142.9021  161.5209 H   0  0  0  0  0  0  0  0  0  0  0  0
  153.1363  145.1873  160.3363 H   0  0  0  0  0  0  0  0  0  0  0  0
  151.0996  146.3169  158.9137 H   0  0  0  0  0  0  0  0  0  0  0  0
  149.3666  144.1914  158.5128 H   0  0  0  0  0  0  0  0  0  0  0  0
  153.7196  140.2246  161.6005 H   0  0  0  0  0  0  0  0  0  0  0  0
  155.7266  137.4365  160.5640 H   0  0  0  0  0  0  0  0  0  0  0  0
  152.9524  138.0642  161.6076 H   0  0  0  0  0  0  0  0  0  0  0  0
  153.6606  136.5018  161.2386 H   0  0  0  0  0  0  0  0  0  0  0  0
  153.3622  137.5726  163.8394 H   0  0  0  0  0  0  0  0  0  0  0  0
  154.5277  136.2997  163.4275 H   0  0  0  0  0  0  0  0  0  0  0  0
  156.5554  139.3757  162.0881 H   0  0  0  0  0  0  0  0  0  0  0  0
  1  2  1  0  0  0  0
  1 18  1  0  0  0  0
  1 19  1  0  0  0  0
  1 20  1  0  0  0  0
  2  3  1  0  0  0  0
  2  9  1  0  0  0  0
  2 21  1  0  0  0  0
  3  4  1  0  0  0  0
  3 22  1  0  0  0  0
  3 23  1  0  0  0  0
  4  8  1  0  0  0  0
  4  5  1  0  0  0  0
  5  6  2  0  0  0  0
  5 24  1  0  0  0  0
  6  7  1  0  0  0  0
  6 25  1  0  0  0  0
  7  8  2  0  0  0  0
  7 26  1  0  0  0  0
  9 10  1  0  0  0  0
  9 27  1  0  0  0  0
 10 11  2  0  0  0  0
 10 12  1  0  0  0  0
 12 17  1  0  0  0  0
 12 13  1  0  0  0  0
 12 28  1  0  0  0  0
 13 14  1  0  0  0  0
 13 29  1  0  0  0  0
 13 30  1  0  0  0  0
 14 15  1  0  0  0  0
 14 31  1  0  0  0  0
 14 32  1  0  0  0  0
 15 16  2  0  0  0  0
 15 17  1  0  0  0  0
 17 33  1  0  0  0  0
M  END
> <s_m_source_file>
AV-unprocessed.smi

> <i_m_source_file_index>
1427

> <i_lp_mmshare_version>
43012

> <i_f3d_flags>
0

> <s_epik_input>
bjFbY0hdW2NIXVtjSF1uMVtDSDJdW0NAQEhdKFtDSDNdKVtOSF1DKD1PKVtDQEBIXTJbQ0gyXVtDSDJdQyg9TylbTkhdMg==

> <s_epik_cmdline>
J2VwaWtfcHl0aG9uJywgJy1waCcsICc3LjAnLCAnLXRuJywgJzgnLCAnLW1hJywgJzIwMCcsICctbWV0YWxfYmluZGluZycsICctaW1hZScsICc8aW5maWxlLm1hZT4nLCAnLW9tYWUnLCAnPG91dGZpbGUubWFlPic=

> <r_lp_tautomer_probability>
1

> <r_epik_Ionization_Penalty>
0.000310707

> <r_epik_Ionization_Penalty_Charging>
0

> <r_epik_Ionization_Penalty_Neutral>
0.000310707

> <r_epik_State_Penalty>
-0

> <r_epik_Charging_Adjusted_Penalty>
0

> <i_epik_Tot_Q>
0

> <i_epik_Tot_abs_Q>
0

> <r_epik_Metal_State_Penalty>
-0

> <b_epik_Metal_Only>
0

> <s_lp_Force_Field>
OPLS_2005

> <r_lp_Energy>
14.2046

> <b_lp_Chiralities_Consistent>
1

> <s_lp_Variant>
AV-unprocessed.smi:1427-2

> <Gold.Version>
5.8.1

> <Gold.Id.Protein>
6NUR|6NUR_protein|mol2

> <Gold.PLP.Fitness>
41.1863

> <Gold.PLP.PLP>
-35.5308

> <Gold.PLP.part.hbond>
-1.6311

> <Gold.PLP.part.metal>
0.0000

> <Gold.PLP.part.buried>
-5.2439

> <Gold.PLP.part.nonpolar>
-28.4762

> <Gold.PLP.part.repulsive>
0.1229

> <Gold.PLP.ligand.clash>
0.0000

> <Gold.PLP.ligand.torsion>
0.3649

> <Gold.PLP.Chemscore.Hbond>
1.0000

> <Gold.PLP.Chemscore.CHOScore>
1.1168

> <Gold.PLP.Chemscore.Metal>
0.0000

> <Gold.Chemscore.Hbonds>
donor molecule, donor type, donor heavy atom, donor atom, acceptor molecule, acceptor atom, score
      P1  H  7997  8010       L1    11  1.00
      L1  C     7    26       P1  8028  0.02
      L1  C     7    26       P1  8029  0.83

> <Gold.PLP.Chemscore.Internal.Correction>
0.0349

> <Gold.Rescore>
     Score         DG    S(hbond)    S(metal)    S(lipo)     H(rot)  DE(clash)    DE(int)     intcor
     13.43     -13.97       0.97        0.00      85.99       1.88       0.04       0.51       ----

> <Gold.Chemscore.Fitness>
13.4330

> <Gold.Chemscore.DG>
-13.9741

> <Gold.Chemscore.ZeroCoef>
-5.4800

> <Gold.Chemscore.Hbond>
0.9734

> <Gold.Chemscore.Metal>
0.0000

> <Gold.Chemscore.Lipo>
85.9921

> <Gold.Chemscore.Internal_Hbond>
0.0000

> <Gold.Chemscore.DEClash>
0.0360

> <Gold.Chemscore.DEInternal>
0.5051

> <Gold.Chemscore.Rot>
1.8821

> <Gold.Chemscore.Internal.Correction>
   9.000000E+99

> <Gold.Chemscore.Hbonds>
donor molecule, donor type, donor heavy atom, donor atom, acceptor molecule, acceptor atom, score
      P1  H  7997  8010       L1    11  1.00

> <Gold.Chemscore.Hbond.Weighted>
-3.2511

> <Gold.Chemscore.Metal.Weighted>
-0.0000

> <Gold.Chemscore.Lipo.Weighted>
-10.0611

> <Gold.Chemscore.Internal_Hbond.Weighted>
0.0000

> <Gold.Chemscore.DEClash.Weighted>
0.0360

> <Gold.Chemscore.DEInternal.Weighted>
0.5051

> <Gold.Chemscore.Rot.Weighted>
4.8181

> <Gold.Chemscore.Internal.Correction.Weighted>
   9.000000E+99

> <Gold.Protein.RotatedTorsions>
[ 6907 6896 6895 6894 ] final    6.26 input  -60.11 | X-H torsion
[ 7974 7965 7964 7962 ] final  150.86 input  175.53 | X-H torsion
[ 8008 7997 7996 7995 ] final  -10.02 input   59.86 | X-H torsion
[ 10167 10162 10161 10158 ] final -143.22 input  -65.29 | X-H torsion
[ 10718 10713 10712 10709 ] final  126.39 input   66.30 | X-H torsion
[ 10763 10752 10751 10750 ] final   -4.01 input  -60.55 | X-H torsion
[ 11005 11000 10999 10996 ] final  171.98 input  -57.11 | X-H torsion

> <Gold.Protein.ActiveResidues>
 VAL166  LYS551  ARG553  GLY616  TRP617  ASP618  TYR619  PRO620  LYS621  CYS622 
 ASP623  PHE694  ASN695  SER759  ASP760  ASP761  ALA762  ILE779  LEU786  VAL792 
 PHE793  MET794  SER795  GLU796  ALA797  LYS798  CYS799  TRP800  GLU811  SER814 

> <Gold.Protein.RotatedAtoms>
  151.6708  135.0976  160.0197 H   0  0  0  0  0  0  0  0  0  0  0  0  # atno 6907 bound_to 6896
  152.3892  133.6651  159.6232 H   0  0  0  0  0  0  0  0  0  0  0  0  # atno 6908 bound_to 6896
  150.7811  133.8899  159.3351 H   0  0  0  0  0  0  0  0  0  0  0  0  # atno 6909 bound_to 6896
  144.8334  139.6463  143.6049 H   0  0  0  0  0  0  0  0  0  0  0  0  # atno 7974 bound_to 7965
  154.5592  140.2339  155.8361 H   0  0  0  0  0  0  0  0  0  0  0  0  # atno 8008 bound_to 7997
  156.2015  140.3051  155.9496 H   0  0  0  0  0  0  0  0  0  0  0  0  # atno 8009 bound_to 7997
  155.2920  140.0427  157.3014 H   0  0  0  0  0  0  0  0  0  0  0  0  # atno 8010 bound_to 7997
  139.8014  143.7828  152.2658 H   0  0  0  0  0  0  0  0  0  0  0  0  # atno 10167 bound_to 10162
  157.5423  131.1096  150.8838 H   0  0  0  0  0  0  0  0  0  0  0  0  # atno 10718 bound_to 10713
  153.3790  135.6997  153.6579 H   0  0  0  0  0  0  0  0  0  0  0  0  # atno 10763 bound_to 10752
  153.5199  135.3614  155.2627 H   0  0  0  0  0  0  0  0  0  0  0  0  # atno 10764 bound_to 10752
  154.8690  135.4155  154.3084 H   0  0  0  0  0  0  0  0  0  0  0  0  # atno 10765 bound_to 10752
  140.3248  134.7406  157.4091 H   0  0  0  0  0  0  0  0  0  0  0  0  # atno 11005 bound_to 11000
  146.2635  139.6465  142.9346 LP  0  0  0  0  0  0  0  0  0  0  0  0  # atno 17320 bound_to 7965
  145.4847  141.0438  143.2626 LP  0  0  0  0  0  0  0  0  0  0  0  0  # atno 17321 bound_to 7965
  139.7949  144.7396  150.9903 LP  0  0  0  0  0  0  0  0  0  0  0  0  # atno 17342 bound_to 10162
  140.7820  143.4404  151.0561 LP  0  0  0  0  0  0  0  0  0  0  0  0  # atno 17343 bound_to 10162
  156.9388  130.5377  149.5280 LP  0  0  0  0  0  0  0  0  0  0  0  0  # atno 17370 bound_to 10713
  156.0507  130.5577  150.8982 LP  0  0  0  0  0  0  0  0  0  0  0  0  # atno 17371 bound_to 10713
  140.0910  134.5601  155.8444 LP  0  0  0  0  0  0  0  0  0  0  0  0  # atno 17394 bound_to 11000
  141.2078  133.6667  156.6327 LP  0  0  0  0  0  0  0  0  0  0  0  0  # atno 17395 bound_to 11000

$$$$
