AV-unprocessed.smi:66|AV-procd|sdf|620|dock8
  -GOLD-   2262016513D 1   1.00000     0.00000
 Structure written by MMmdl.
 28 30  0  0  0  0  0  0  0  0  2 V2000
  151.7921  139.3147  158.2895 O   0  0  0  0  0  0  0  0  0  0  0  0
  152.1240  139.8928  157.2318 C   0  0  0  0  0  0  0  0  0  0  0  0
  152.7817  139.3757  156.3010 O   0  5  0  0  0  0  0  0  0  0  0  0
  151.6867  141.3587  157.0781 C   0  0  1  0  0  0  0  0  0  0  0  0
  150.7066  141.5619  155.9085 C   0  0  0  0  0  0  0  0  0  0  0  0
  149.3271  141.4641  156.5576 C   0  0  2  0  0  0  0  0  0  0  0  0
  148.3255  142.1213  155.8095 O   0  0  0  0  0  0  0  0  0  0  0  0
  149.5497  142.1076  157.9257 C   0  0  0  0  0  0  0  0  0  0  0  0
  150.9425  141.8293  158.2511 N   0  0  0  0  0  0  0  0  0  0  0  0
  151.5524  142.3270  159.3624 C   0  0  0  0  0  0  0  0  0  0  0  0
  151.0394  143.4488  159.9361 N   0  0  0  0  0  0  0  0  0  0  0  0
  151.5990  143.9803  161.0260 C   0  0  0  0  0  0  0  0  0  0  0  0
  152.6664  143.5589  161.7052 N   0  0  0  0  0  0  0  0  0  0  0  0
  153.1896  142.4369  161.1391 C   0  0  0  0  0  0  0  0  0  0  0  0
  154.2898  141.7182  161.5552 N   0  0  0  0  0  0  0  0  0  0  0  0
  154.4214  140.6802  160.6680 C   0  0  0  0  0  0  0  0  0  0  0  0
  153.5203  140.6550  159.7240 N   0  0  0  0  0  0  0  0  0  0  0  0
  152.7074  141.7580  159.9816 C   0  0  0  0  0  0  0  0  0  0  0  0
  154.8483  141.9599  162.3609 H   0  0  0  0  0  0  0  0  0  0  0  0
  152.5710  141.9745  156.9075 H   0  0  0  0  0  0  0  0  0  0  0  0
  150.8537  142.5589  155.4902 H   0  0  0  0  0  0  0  0  0  0  0  0
  150.8395  140.8448  155.0970 H   0  0  0  0  0  0  0  0  0  0  0  0
  149.0532  140.4156  156.6817 H   0  0  0  0  0  0  0  0  0  0  0  0
  148.5432  143.0396  155.7624 H   0  0  0  0  0  0  0  0  0  0  0  0
  149.4031  143.1881  157.8813 H   0  0  0  0  0  0  0  0  0  0  0  0
  148.8654  141.6901  158.6645 H   0  0  0  0  0  0  0  0  0  0  0  0
  151.1217  144.8711  161.4070 H   0  0  0  0  0  0  0  0  0  0  0  0
  155.2075  139.9432  160.7430 H   0  0  0  0  0  0  0  0  0  0  0  0
  1  2  2  0  0  0  0
  2  3  1  0  0  0  0
  2  4  1  0  0  0  0
  4  5  1  0  0  0  0
  4 20  1  0  0  0  0
  4  9  1  0  0  0  0
  5  6  1  0  0  0  0
  5 21  1  0  0  0  0
  5 22  1  0  0  0  0
  6  7  1  0  0  0  0
  6  8  1  0  0  0  0
  6 23  1  0  0  0  0
  7 24  1  0  0  0  0
  8 25  1  0  0  0  0
  8 26  1  0  0  0  0
  8  9  1  0  0  0  0
  9 10  1  0  0  0  0
 10 11  1  0  0  0  0
 10 18  2  0  0  0  0
 11 12  2  0  0  0  0
 12 27  1  0  0  0  0
 12 13  1  0  0  0  0
 13 14  2  0  0  0  0
 14 15  1  0  0  0  0
 14 18  1  0  0  0  0
 15 16  1  0  0  0  0
 15 19  1  0  0  0  0
 16 17  2  0  0  0  0
 16 28  1  0  0  0  0
 17 18  1  0  0  0  0
M  CHG  1   3  -1
M  END
> <s_m_source_file>
AV-unprocessed.smi

> <i_m_source_file_index>
66

> <i_lp_mmshare_version>
43012

> <i_f3d_flags>
0

> <s_epik_input>
Tz1DKFtPSF0pW0NAQEhdMVtDSDJdW0NAQEhdKFtPSF0pW0NIMl1OMWMobltjSF1uMiljKGMyMylbbkhdW2NIXW4z

> <s_epik_cmdline>
J2VwaWtfcHl0aG9uJywgJy1waCcsICc3LjAnLCAnLXRuJywgJzgnLCAnLW1hJywgJzIwMCcsICctbWV0YWxfYmluZGluZycsICctaW1hZScsICc8aW5maWxlLm1hZT4nLCAnLW9tYWUnLCAnPG91dGZpbGUubWFlPic=

> <r_lp_tautomer_probability>
0.955585

> <r_epik_Ionization_Penalty>
0.00455415

> <r_epik_Ionization_Penalty_Charging>
0.000248217

> <r_epik_Ionization_Penalty_Neutral>
0.00430593

> <r_epik_State_Penalty>
0.0207074

> <r_epik_Charging_Adjusted_Penalty>
0.0209557

> <i_epik_Tot_Q>
-1

> <i_epik_Tot_abs_Q>
1

> <r_epik_Metal_State_Penalty>
0.337372

> <b_epik_Metal_Only>
0

> <s_lp_Force_Field>
OPLS_2005

> <r_lp_Energy>
24.8219

> <b_lp_Chiralities_Consistent>
1

> <s_lp_Variant>
AV-unprocessed.smi:66-4

> <Gold.Version>
5.8.1

> <Gold.Id.Protein>
6NUR|6NUR_protein|mol2

> <Gold.PLP.Fitness>
38.9417

> <Gold.PLP.PLP>
-30.8083

> <Gold.PLP.part.hbond>
-3.4207

> <Gold.PLP.part.metal>
0.0000

> <Gold.PLP.part.buried>
-4.8370

> <Gold.PLP.part.nonpolar>
-21.3293

> <Gold.PLP.part.repulsive>
0.1723

> <Gold.PLP.ligand.clash>
0.0000

> <Gold.PLP.ligand.torsion>
0.4880

> <Gold.PLP.Chemscore.Hbond>
3.0000

> <Gold.PLP.Chemscore.CHOScore>
0.0000

> <Gold.PLP.Chemscore.Metal>
0.0000

> <Gold.Chemscore.Hbonds>
donor molecule, donor type, donor heavy atom, donor atom, acceptor molecule, acceptor atom, score
      L1  H     7    24       P1  8028  1.00
      P1  H  7997  8010       L1     3  2.00

> <Gold.PLP.Chemscore.Internal.Correction>
0.1094

> <Gold.Rescore>
     Score         DG    S(hbond)    S(metal)    S(lipo)     H(rot)  DE(clash)    DE(int)     intcor
      8.59     -11.46       1.98        0.00      33.66       1.78       0.06       2.81       ----

> <Gold.Chemscore.Fitness>
8.5932

> <Gold.Chemscore.DG>
-11.4562

> <Gold.Chemscore.ZeroCoef>
-5.4800

> <Gold.Chemscore.Hbond>
1.9777

> <Gold.Chemscore.Metal>
0.0000

> <Gold.Chemscore.Lipo>
33.6622

> <Gold.Chemscore.Internal_Hbond>
0.0000

> <Gold.Chemscore.DEClash>
0.0578

> <Gold.Chemscore.DEInternal>
2.8052

> <Gold.Chemscore.Rot>
1.7842

> <Gold.Chemscore.Internal.Correction>
   9.000000E+99

> <Gold.Chemscore.Hbonds>
donor molecule, donor type, donor heavy atom, donor atom, acceptor molecule, acceptor atom, score
      L1  H     7    24       P1  8028  0.99
      P1  H  7997  8010       L1     3  0.55

> <Gold.Chemscore.Hbond.Weighted>
-6.6054

> <Gold.Chemscore.Metal.Weighted>
-0.0000

> <Gold.Chemscore.Lipo.Weighted>
-3.9385

> <Gold.Chemscore.Internal_Hbond.Weighted>
0.0000

> <Gold.Chemscore.DEClash.Weighted>
0.0578

> <Gold.Chemscore.DEInternal.Weighted>
2.8052

> <Gold.Chemscore.Rot.Weighted>
4.5676

> <Gold.Chemscore.Internal.Correction.Weighted>
   9.000000E+99

> <Gold.Protein.RotatedTorsions>
[ 6907 6896 6895 6894 ] final  -22.06 input  -60.11 | X-H torsion
[ 7974 7965 7964 7962 ] final  166.02 input  175.53 | X-H torsion
[ 8008 7997 7996 7995 ] final   76.09 input   59.86 | X-H torsion
[ 10167 10162 10161 10158 ] final -131.85 input  -65.29 | X-H torsion
[ 10718 10713 10712 10709 ] final   55.59 input   66.30 | X-H torsion
[ 10763 10752 10751 10750 ] final  -47.29 input  -60.55 | X-H torsion
[ 11005 11000 10999 10996 ] final  -41.48 input  -57.11 | X-H torsion

> <Gold.Protein.ActiveResidues>
 VAL166  LYS551  ARG553  GLY616  TRP617  ASP618  TYR619  PRO620  LYS621  CYS622 
 ASP623  PHE694  ASN695  SER759  ASP760  ASP761  ALA762  ILE779  LEU786  VAL792 
 PHE793  MET794  SER795  GLU796  ALA797  LYS798  CYS799  TRP800  GLU811  SER814 

> <Gold.Protein.RotatedAtoms>
  151.2242  135.0530  159.8961 H   0  0  0  0  0  0  0  0  0  0  0  0  # atno 6907 bound_to 6896
  152.5412  134.0607  159.8161 H   0  0  0  0  0  0  0  0  0  0  0  0  # atno 6908 bound_to 6896
  151.0778  133.5366  159.2654 H   0  0  0  0  0  0  0  0  0  0  0  0  # atno 6909 bound_to 6896
  144.7479  139.8555  143.6376 H   0  0  0  0  0  0  0  0  0  0  0  0  # atno 7974 bound_to 7965
  155.8223  140.3469  155.5522 H   0  0  0  0  0  0  0  0  0  0  0  0  # atno 8008 bound_to 7997
  155.8329  140.0930  157.1802 H   0  0  0  0  0  0  0  0  0  0  0  0  # atno 8009 bound_to 7997
  154.4004  140.1409  156.3623 H   0  0  0  0  0  0  0  0  0  0  0  0  # atno 8010 bound_to 7997
  139.9147  143.6453  152.2567 H   0  0  0  0  0  0  0  0  0  0  0  0  # atno 10167 bound_to 10162
  157.5358  130.8662  149.8752 H   0  0  0  0  0  0  0  0  0  0  0  0  # atno 10718 bound_to 10713
  154.0590  135.6620  153.4809 H   0  0  0  0  0  0  0  0  0  0  0  0  # atno 10763 bound_to 10752
  153.0434  135.5130  154.7678 H   0  0  0  0  0  0  0  0  0  0  0  0  # atno 10764 bound_to 10752
  154.6708  135.3029  154.9711 H   0  0  0  0  0  0  0  0  0  0  0  0  # atno 10765 bound_to 10752
  141.0249  133.6846  156.2464 H   0  0  0  0  0  0  0  0  0  0  0  0  # atno 11005 bound_to 11000
  146.1386  139.4437  143.0123 LP  0  0  0  0  0  0  0  0  0  0  0  0  # atno 17320 bound_to 7965
  145.7053  141.0123  143.1482 LP  0  0  0  0  0  0  0  0  0  0  0  0  # atno 17321 bound_to 7965
  139.6913  144.7646  151.1434 LP  0  0  0  0  0  0  0  0  0  0  0  0  # atno 17342 bound_to 10162
  140.7677  143.5586  150.9124 LP  0  0  0  0  0  0  0  0  0  0  0  0  # atno 17343 bound_to 10162
  156.0458  130.3728  150.1322 LP  0  0  0  0  0  0  0  0  0  0  0  0  # atno 17370 bound_to 10713
  156.9505  130.9773  151.3499 LP  0  0  0  0  0  0  0  0  0  0  0  0  # atno 17371 bound_to 10713
  140.6509  134.5068  157.5577 LP  0  0  0  0  0  0  0  0  0  0  0  0  # atno 17394 bound_to 11000
  139.9169  134.8227  156.1336 LP  0  0  0  0  0  0  0  0  0  0  0  0  # atno 17395 bound_to 11000

$$$$
