AV-unprocessed.smi:2083|AV-procd|sdf|8508|dock9
  -GOLD-   2272011223D 1   1.00000     0.00000
 Structure written by MMmdl.
 44 45  0  0  0  0  0  0  0  0  3 V2000
  153.9637  141.2334  160.1666 C   0  0  0  0  0  0  0  0  0  0  0  0
  153.0423  140.7448  159.1024 C   0  0  0  0  0  0  0  0  0  0  0  0
  151.8442  141.1996  158.6284 C   0  0  0  0  0  0  0  0  0  0  0  0
  151.5225  140.2599  157.6131 C   0  0  0  0  0  0  0  0  0  0  0  0
  150.3248  140.3884  156.8610 N   0  0  0  0  0  0  0  0  0  0  0  0
  150.1499  140.2827  155.5308 C   0  0  0  0  0  0  0  0  0  0  0  0
  151.1069  140.0124  154.7952 O   0  0  0  0  0  0  0  0  0  0  0  0
  148.8582  140.5038  155.1619 N   0  5  0  0  0  0  0  0  0  0  0  0
  148.4464  141.1125  153.8971 C   0  0  0  0  0  0  0  0  0  0  0  0
  147.0297  140.6234  153.4963 C   0  0  2  0  0  0  0  0  0  0  0  0
  146.8076  140.4938  151.9679 C   0  0  0  0  0  0  0  0  0  0  0  0
  145.9801  141.4515  154.1688 N   0  3  2  0  0  0  0  0  0  0  0  0
  146.0898  142.9029  153.8631 C   0  0  0  0  0  0  0  0  0  0  0  0
  144.8345  143.6580  154.3295 C   0  0  0  0  0  0  0  0  0  0  0  0
  144.5650  143.4219  155.8228 C   0  0  0  0  0  0  0  0  0  0  0  0
  144.5201  141.9182  156.1542 C   0  0  1  0  0  0  0  0  0  0  0  0
  143.2331  141.2336  155.6611 C   0  0  0  0  0  0  0  0  0  0  0  0
  145.7891  141.2155  155.6315 C   0  0  0  0  0  0  0  0  0  0  0  0
  152.4434  139.3166  157.4799 N   0  0  0  0  0  0  0  0  0  0  0  0
  153.4213  139.6223  158.4337 O   0  0  0  0  0  0  0  0  0  0  0  0
  153.5184  142.0624  160.7171 H   0  0  0  0  0  0  0  0  0  0  0  0
  154.9026  141.5797  159.7347 H   0  0  0  0  0  0  0  0  0  0  0  0
  154.1898  140.4385  160.8773 H   0  0  0  0  0  0  0  0  0  0  0  0
  151.2889  142.0659  158.9556 H   0  0  0  0  0  0  0  0  0  0  0  0
  149.4957  140.6005  157.3956 H   0  0  0  0  0  0  0  0  0  0  0  0
  148.4218  142.2015  153.9651 H   0  0  0  0  0  0  0  0  0  0  0  0
  149.1464  140.8872  153.0920 H   0  0  0  0  0  0  0  0  0  0  0  0
  146.9431  139.6164  153.9081 H   0  0  0  0  0  0  0  0  0  0  0  0
  147.4870  139.7668  151.5194 H   0  0  0  0  0  0  0  0  0  0  0  0
  146.9494  141.4373  151.4380 H   0  0  0  0  0  0  0  0  0  0  0  0
  145.7976  140.1457  151.7517 H   0  0  0  0  0  0  0  0  0  0  0  0
  146.9807  143.3123  154.3414 H   0  0  0  0  0  0  0  0  0  0  0  0
  146.2066  143.0547  152.7895 H   0  0  0  0  0  0  0  0  0  0  0  0
  144.9518  144.7251  154.1383 H   0  0  0  0  0  0  0  0  0  0  0  0
  143.9743  143.3369  153.7412 H   0  0  0  0  0  0  0  0  0  0  0  0
  145.3577  143.8936  156.4050 H   0  0  0  0  0  0  0  0  0  0  0  0
  143.6362  143.9089  156.1222 H   0  0  0  0  0  0  0  0  0  0  0  0
  144.5193  141.8261  157.2411 H   0  0  0  0  0  0  0  0  0  0  0  0
  143.1507  141.2524  154.5743 H   0  0  0  0  0  0  0  0  0  0  0  0
  142.3485  141.7226  156.0696 H   0  0  0  0  0  0  0  0  0  0  0  0
  143.2029  140.1894  155.9732 H   0  0  0  0  0  0  0  0  0  0  0  0
  145.7263  140.1485  155.8484 H   0  0  0  0  0  0  0  0  0  0  0  0
  146.6556  141.5924  156.1768 H   0  0  0  0  0  0  0  0  0  0  0  0
  145.1192  141.1581  153.7291 H   0  0  0  0  0  0  0  0  0  0  0  0
  1  2  1  0  0  0  0
  1 21  1  0  0  0  0
  1 22  1  0  0  0  0
  1 23  1  0  0  0  0
  2 20  1  0  0  0  0
  2  3  2  0  0  0  0
  3  4  1  0  0  0  0
  3 24  1  0  0  0  0
  4  5  1  0  0  0  0
  4 19  2  0  0  0  0
  5  6  1  0  0  0  0
  5 25  1  0  0  0  0
  6  7  2  0  0  0  0
  6  8  1  0  0  0  0
  8  9  1  0  0  0  0
  9 10  1  0  0  0  0
  9 26  1  0  0  0  0
  9 27  1  0  0  0  0
 10 11  1  0  0  0  0
 10 12  1  0  0  0  0
 10 28  1  0  0  0  0
 11 29  1  0  0  0  0
 11 30  1  0  0  0  0
 11 31  1  0  0  0  0
 12 18  1  0  0  0  0
 12 13  1  0  0  0  0
 12 44  1  0  0  0  0
 13 14  1  0  0  0  0
 13 32  1  0  0  0  0
 13 33  1  0  0  0  0
 14 15  1  0  0  0  0
 14 34  1  0  0  0  0
 14 35  1  0  0  0  0
 15 16  1  0  0  0  0
 15 36  1  0  0  0  0
 15 37  1  0  0  0  0
 16 17  1  0  0  0  0
 16 18  1  0  0  0  0
 16 38  1  0  0  0  0
 17 39  1  0  0  0  0
 17 40  1  0  0  0  0
 17 41  1  0  0  0  0
 18 42  1  0  0  0  0
 18 43  1  0  0  0  0
 19 20  1  0  0  0  0
M  CHG  1   8  -1
M  CHG  1  12   1
M  END
> <s_m_source_file>
AV-unprocessed.smi

> <i_m_source_file_index>
2083

> <i_lp_mmshare_version>
43012

> <i_f3d_flags>
0

> <s_epik_input>
W0NIM11jMVtjSF1jKG5vMSlbTkhdQyg9TylbTkhdW0NIMl1bQ0BIXShbQ0gzXSlOMltDSDJdW0NIMl1bQ0gyXVtDQEBIXShbQ0gzXSlbQ0gyXTI=

> <s_epik_cmdline>
J2VwaWtfcHl0aG9uJywgJy1waCcsICc3LjAnLCAnLXRuJywgJzgnLCAnLW1hJywgJzIwMCcsICctbWV0YWxfYmluZGluZycsICctaW1hZScsICc8aW5maWxlLm1hZT4nLCAnLW9tYWUnLCAnPG91dGZpbGUubWFlPic=

> <r_epik_Ionization_Penalty>
6.76934

> <r_epik_Ionization_Penalty_Charging>
6.76934

> <r_epik_Ionization_Penalty_Neutral>
5.77849e-06

> <r_epik_State_Penalty>
6.79457

> <r_epik_Charging_Adjusted_Penalty>
13.5639

> <i_epik_Tot_Q>
0

> <i_epik_Tot_abs_Q>
2

> <r_epik_Metal_State_Penalty>
2.72837

> <b_epik_Metal_Only>
1

> <s_lp_Force_Field>
OPLS_2005

> <r_lp_Energy>
20.5905

> <b_lp_Chiralities_Consistent>
1

> <s_lp_Variant>
AV-unprocessed.smi:2083-19

> <Gold.Version>
5.8.1

> <Gold.Id.Protein>
6NUR|6NUR_protein|mol2

> <Gold.PLP.Fitness>
40.7196

> <Gold.PLP.PLP>
-31.2673

> <Gold.PLP.part.hbond>
-3.2497

> <Gold.PLP.part.metal>
0.0000

> <Gold.PLP.part.buried>
-1.5928

> <Gold.PLP.part.nonpolar>
-26.8390

> <Gold.PLP.part.repulsive>
0.1921

> <Gold.PLP.ligand.clash>
0.0000

> <Gold.PLP.ligand.torsion>
1.3323

> <Gold.PLP.Chemscore.Hbond>
3.9825

> <Gold.PLP.Chemscore.CHOScore>
0.0000

> <Gold.PLP.Chemscore.Metal>
0.0000

> <Gold.Chemscore.Hbonds>
donor molecule, donor type, donor heavy atom, donor atom, acceptor molecule, acceptor atom, score
      L1  H    12    44       P1 10175  2.00
      P1  H  7989  7998       L1     7  1.00
      P1  H  7997  8009       L1    20  0.95

> <Gold.PLP.Chemscore.Internal.Correction>
0.1694

> <Gold.Rescore>
     Score         DG    S(hbond)    S(metal)    S(lipo)     H(rot)  DE(clash)    DE(int)     intcor
     14.51     -16.79       1.90        0.00      75.71       1.52       1.07       1.21       ----

> <Gold.Chemscore.Fitness>
14.5087

> <Gold.Chemscore.DG>
-16.7901

> <Gold.Chemscore.ZeroCoef>
-5.4800

> <Gold.Chemscore.Hbond>
1.8984

> <Gold.Chemscore.Metal>
0.0000

> <Gold.Chemscore.Lipo>
75.7106

> <Gold.Chemscore.Internal_Hbond>
0.0000

> <Gold.Chemscore.DEClash>
1.0666

> <Gold.Chemscore.DEInternal>
1.2148

> <Gold.Chemscore.Rot>
1.5190

> <Gold.Chemscore.Internal.Correction>
   9.000000E+99

> <Gold.Chemscore.Hbonds>
donor molecule, donor type, donor heavy atom, donor atom, acceptor molecule, acceptor atom, score
      L1  H    12    44       P1 10175  0.57
      P1  H  7989  7998       L1     7  0.99
      P1  H  7997  8009       L1    20  0.15

> <Gold.Chemscore.Hbond.Weighted>
-6.3406

> <Gold.Chemscore.Metal.Weighted>
-0.0000

> <Gold.Chemscore.Lipo.Weighted>
-8.8581

> <Gold.Chemscore.Internal_Hbond.Weighted>
0.0000

> <Gold.Chemscore.DEClash.Weighted>
1.0666

> <Gold.Chemscore.DEInternal.Weighted>
1.2148

> <Gold.Chemscore.Rot.Weighted>
3.8886

> <Gold.Chemscore.Internal.Correction.Weighted>
   9.000000E+99

> <Gold.Protein.RotatedTorsions>
[ 6907 6896 6895 6894 ] final  -91.72 input  -60.11 | X-H torsion
[ 7974 7965 7964 7962 ] final -102.99 input  175.53 | X-H torsion
[ 8008 7997 7996 7995 ] final  132.63 input   59.86 | X-H torsion
[ 10167 10162 10161 10158 ] final   33.31 input  -65.29 | X-H torsion
[ 10718 10713 10712 10709 ] final  -18.08 input   66.30 | X-H torsion
[ 10763 10752 10751 10750 ] final   39.69 input  -60.55 | X-H torsion
[ 11005 11000 10999 10996 ] final  135.72 input  -57.11 | X-H torsion

> <Gold.Protein.ActiveResidues>
 VAL166  LYS551  ARG553  GLY616  TRP617  ASP618  TYR619  PRO620  LYS621  CYS622 
 ASP623  PHE694  ASN695  SER759  ASP760  ASP761  ALA762  ILE779  LEU786  VAL792 
 PHE793  MET794  SER795  GLU796  ALA797  LYS798  CYS799  TRP800  GLU811  SER814 

> <Gold.Protein.RotatedAtoms>
  150.6896  134.2233  159.4404 H   0  0  0  0  0  0  0  0  0  0  0  0  # atno 6907 bound_to 6896
  152.0188  134.9832  160.0579 H   0  0  0  0  0  0  0  0  0  0  0  0  # atno 6908 bound_to 6896
  152.1418  133.4433  159.4807 H   0  0  0  0  0  0  0  0  0  0  0  0  # atno 6909 bound_to 6896
  145.2617  140.9271  143.3037 H   0  0  0  0  0  0  0  0  0  0  0  0  # atno 7974 bound_to 7965
  156.2984  140.2541  156.3122 H   0  0  0  0  0  0  0  0  0  0  0  0  # atno 8008 bound_to 7997
  154.9316  140.0398  157.2069 H   0  0  0  0  0  0  0  0  0  0  0  0  # atno 8009 bound_to 7997
  154.8213  140.2860  155.5789 H   0  0  0  0  0  0  0  0  0  0  0  0  # atno 8010 bound_to 7997
  140.4419  144.1175  150.6175 H   0  0  0  0  0  0  0  0  0  0  0  0  # atno 10167 bound_to 10162
  156.5646  130.4734  149.6391 H   0  0  0  0  0  0  0  0  0  0  0  0  # atno 10718 bound_to 10713
  152.9959  135.6213  154.2506 H   0  0  0  0  0  0  0  0  0  0  0  0  # atno 10763 bound_to 10752
  154.2245  135.2794  155.2914 H   0  0  0  0  0  0  0  0  0  0  0  0  # atno 10764 bound_to 10752
  154.5501  135.5736  153.6973 H   0  0  0  0  0  0  0  0  0  0  0  0  # atno 10765 bound_to 10752
  139.9998  134.9483  157.0046 H   0  0  0  0  0  0  0  0  0  0  0  0  # atno 11005 bound_to 11000
  144.9413  139.4186  143.6447 LP  0  0  0  0  0  0  0  0  0  0  0  0  # atno 17320 bound_to 7965
  146.3273  139.8374  142.8897 LP  0  0  0  0  0  0  0  0  0  0  0  0  # atno 17321 bound_to 7965
  140.4308  143.2569  151.9597 LP  0  0  0  0  0  0  0  0  0  0  0  0  # atno 17342 bound_to 10162
  139.4790  144.5745  151.8034 LP  0  0  0  0  0  0  0  0  0  0  0  0  # atno 17343 bound_to 10162
  156.2769  130.7048  151.1862 LP  0  0  0  0  0  0  0  0  0  0  0  0  # atno 17370 bound_to 10713
  157.7361  131.0565  150.5431 LP  0  0  0  0  0  0  0  0  0  0  0  0  # atno 17371 bound_to 10713
  140.4749  134.1348  155.7208 LP  0  0  0  0  0  0  0  0  0  0  0  0  # atno 17394 bound_to 11000
  141.1633  133.8751  157.1787 LP  0  0  0  0  0  0  0  0  0  0  0  0  # atno 17395 bound_to 11000

$$$$
