AV-unprocessed.smi:1749|AV-procd|sdf|7048|dock2
  -GOLD-   22720 8263D 1   1.00000     0.00000
 Structure written by MMmdl.
 31 32  0  0  0  0  0  0  0  0  2 V2000
  148.0040  139.3428  153.7846 C   0  0  0  0  0  0  0  0  0  0  0  0
  149.0812  139.4122  154.8762 C   0  0  2  0  0  0  0  0  0  0  0  0
  149.7417  140.8031  154.9285 C   0  0  0  0  0  0  0  0  0  0  0  0
  150.8246  140.8741  156.0167 C   0  0  0  0  0  0  0  0  0  0  0  0
  151.8849  139.7766  155.8228 C   0  0  0  0  0  0  0  0  0  0  0  0
  151.2549  138.3697  155.7575 C   0  0  1  0  0  0  0  0  0  0  0  0
  150.7095  137.9748  157.0545 N   0  0  0  0  0  0  0  0  0  0  0  0
  151.0431  136.8884  157.7776 C   0  0  0  0  0  0  0  0  0  0  0  0
  151.8819  136.1077  157.3295 O   0  0  0  0  0  0  0  0  0  0  0  0
  150.4278  136.7158  158.9773 N   0  5  0  0  0  0  0  0  0  0  0  0
  149.1157  136.9581  159.1572 C   0  0  0  0  0  0  0  0  0  0  0  0
  148.5863  137.1954  160.3685 N   0  0  0  0  0  0  0  0  0  0  0  0
  147.2196  137.4354  160.3292 N   0  0  0  0  0  0  0  0  0  0  0  0
  146.7487  137.3608  159.0846 C   0  0  0  0  0  0  0  0  0  0  0  0
  147.9317  136.9915  157.8475 S   0  0  0  0  0  0  0  0  0  0  0  0
  150.1489  138.3136  154.6848 C   0  0  0  0  0  0  0  0  0  0  0  0
  148.4305  139.5086  152.7948 H   0  0  0  0  0  0  0  0  0  0  0  0
  147.2326  140.0961  153.9458 H   0  0  0  0  0  0  0  0  0  0  0  0
  147.5154  138.3680  153.7779 H   0  0  0  0  0  0  0  0  0  0  0  0
  148.5836  139.2414  155.8321 H   0  0  0  0  0  0  0  0  0  0  0  0
  150.1856  141.0373  153.9598 H   0  0  0  0  0  0  0  0  0  0  0  0
  148.9871  141.5680  155.1149 H   0  0  0  0  0  0  0  0  0  0  0  0
  151.3006  141.8548  156.0027 H   0  0  0  0  0  0  0  0  0  0  0  0
  150.3635  140.7715  157.0001 H   0  0  0  0  0  0  0  0  0  0  0  0
  152.4288  139.9669  154.8969 H   0  0  0  0  0  0  0  0  0  0  0  0
  152.6251  139.8270  156.6223 H   0  0  0  0  0  0  0  0  0  0  0  0
  152.0275  137.6512  155.4779 H   0  0  0  0  0  0  0  0  0  0  0  0
  150.0219  138.5955  157.4556 H   0  0  0  0  0  0  0  0  0  0  0  0
  145.6979  137.5217  158.8941 H   0  0  0  0  0  0  0  0  0  0  0  0
  149.6787  137.3290  154.6907 H   0  0  0  0  0  0  0  0  0  0  0  0
  150.6052  138.4240  153.7001 H   0  0  0  0  0  0  0  0  0  0  0  0
  1  2  1  0  0  0  0
  1 17  1  0  0  0  0
  1 18  1  0  0  0  0
  1 19  1  0  0  0  0
  2 16  1  0  0  0  0
  2  3  1  0  0  0  0
  2 20  1  0  0  0  0
  3  4  1  0  0  0  0
  3 21  1  0  0  0  0
  3 22  1  0  0  0  0
  4  5  1  0  0  0  0
  4 23  1  0  0  0  0
  4 24  1  0  0  0  0
  5  6  1  0  0  0  0
  5 25  1  0  0  0  0
  5 26  1  0  0  0  0
  6  7  1  0  0  0  0
  6 16  1  0  0  0  0
  6 27  1  0  0  0  0
  7  8  1  0  0  0  0
  7 28  1  0  0  0  0
  8  9  2  0  0  0  0
  8 10  1  0  0  0  0
 10 11  1  0  0  0  0
 11 15  1  0  0  0  0
 11 12  2  0  0  0  0
 12 13  1  0  0  0  0
 13 14  2  0  0  0  0
 14 15  1  0  0  0  0
 14 29  1  0  0  0  0
 16 30  1  0  0  0  0
 16 31  1  0  0  0  0
M  CHG  1  10  -1
M  END
> <s_m_source_file>
AV-unprocessed.smi

> <i_m_source_file_index>
1749

> <i_lp_mmshare_version>
43012

> <i_f3d_flags>
0

> <s_epik_input>
W0NIM11bQ0BASF0xW0NIMl1bQ0gyXVtDSDJdW0NASF0oW0NIMl0xKVtOSF1DKD1PKVtOSF1jMm5uW2NIXXMy

> <s_epik_cmdline>
J2VwaWtfcHl0aG9uJywgJy1waCcsICc3LjAnLCAnLXRuJywgJzgnLCAnLW1hJywgJzIwMCcsICctbWV0YWxfYmluZGluZycsICctaW1hZScsICc8aW5maWxlLm1hZT4nLCAnLW9tYWUnLCAnPG91dGZpbGUubWFlPic=

> <r_lp_tautomer_probability>
1

> <r_epik_Ionization_Penalty>
4.55442

> <r_epik_Ionization_Penalty_Charging>
4.5081

> <r_epik_Ionization_Penalty_Neutral>
0.0463156

> <r_epik_State_Penalty>
4.50781

> <r_epik_Charging_Adjusted_Penalty>
9.01591

> <i_epik_Tot_Q>
-1

> <i_epik_Tot_abs_Q>
1

> <r_epik_Metal_State_Penalty>
0.823335

> <b_epik_Metal_Only>
1

> <s_lp_Force_Field>
OPLS_2005

> <r_lp_Energy>
7.79414

> <b_lp_Chiralities_Consistent>
1

> <s_lp_Variant>
AV-unprocessed.smi:1749-5

> <Gold.Version>
5.8.1

> <Gold.Id.Protein>
6NUR|6NUR_protein|mol2

> <Gold.PLP.Fitness>
33.2611

> <Gold.PLP.PLP>
-23.1056

> <Gold.PLP.part.hbond>
-4.3341

> <Gold.PLP.part.metal>
0.0000

> <Gold.PLP.part.buried>
-1.9681

> <Gold.PLP.part.nonpolar>
-17.0772

> <Gold.PLP.part.repulsive>
0.0050

> <Gold.PLP.ligand.clash>
0.0000

> <Gold.PLP.ligand.torsion>
0.4343

> <Gold.PLP.Chemscore.Hbond>
3.6720

> <Gold.PLP.Chemscore.CHOScore>
0.0000

> <Gold.PLP.Chemscore.Metal>
0.0000

> <Gold.Chemscore.Hbonds>
donor molecule, donor type, donor heavy atom, donor atom, acceptor molecule, acceptor atom, score
      P1  H  6896  6909       L1    10  2.00
      P1  H  6931  6943       L1    12  0.66
      P1  H  6934  6947       L1    13  1.00

> <Gold.PLP.Chemscore.Internal.Correction>
0.0082

> <Gold.Rescore>
     Score         DG    S(hbond)    S(metal)    S(lipo)     H(rot)  DE(clash)    DE(int)     intcor
     11.34     -11.89       1.13        0.00      44.30       1.00       0.04       0.51       ----

> <Gold.Chemscore.Fitness>
11.3377

> <Gold.Chemscore.DG>
-11.8908

> <Gold.Chemscore.ZeroCoef>
-5.4800

> <Gold.Chemscore.Hbond>
1.1339

> <Gold.Chemscore.Metal>
0.0000

> <Gold.Chemscore.Lipo>
44.3047

> <Gold.Chemscore.Internal_Hbond>
0.0000

> <Gold.Chemscore.DEClash>
0.0402

> <Gold.Chemscore.DEInternal>
0.5129

> <Gold.Chemscore.Rot>
1.0000

> <Gold.Chemscore.Internal.Correction>
   9.000000E+99

> <Gold.Chemscore.Hbonds>
donor molecule, donor type, donor heavy atom, donor atom, acceptor molecule, acceptor atom, score
      P1  H  6896  6909       L1    10  0.62
      P1  H  6931  6943       L1    12  0.17
      P1  H  6934  6947       L1    13  0.20

> <Gold.Chemscore.Hbond.Weighted>
-3.7872

> <Gold.Chemscore.Metal.Weighted>
-0.0000

> <Gold.Chemscore.Lipo.Weighted>
-5.1836

> <Gold.Chemscore.Internal_Hbond.Weighted>
0.0000

> <Gold.Chemscore.DEClash.Weighted>
0.0402

> <Gold.Chemscore.DEInternal.Weighted>
0.5129

> <Gold.Chemscore.Rot.Weighted>
2.5600

> <Gold.Chemscore.Internal.Correction.Weighted>
   9.000000E+99

> <Gold.Protein.RotatedTorsions>
[ 6907 6896 6895 6894 ] final   84.64 input  -60.11 | X-H torsion
[ 7974 7965 7964 7962 ] final  111.37 input  175.53 | X-H torsion
[ 8008 7997 7996 7995 ] final   48.07 input   59.86 | X-H torsion
[ 10167 10162 10161 10158 ] final   72.58 input  -65.29 | X-H torsion
[ 10718 10713 10712 10709 ] final  -45.72 input   66.30 | X-H torsion
[ 10763 10752 10751 10750 ] final -120.03 input  -60.55 | X-H torsion
[ 11005 11000 10999 10996 ] final   19.58 input  -57.11 | X-H torsion

> <Gold.Protein.ActiveResidues>
 VAL166  LYS551  ARG553  GLY616  TRP617  ASP618  TYR619  PRO620  LYS621  CYS622 
 ASP623  PHE694  ASN695  SER759  ASP760  ASP761  ALA762  ILE779  LEU786  VAL792 
 PHE793  MET794  SER795  GLU796  ALA797  LYS798  CYS799  TRP800  GLU811  SER814 

> <Gold.Protein.RotatedAtoms>
  152.5357  134.2710  159.8971 H   0  0  0  0  0  0  0  0  0  0  0  0  # atno 6907 bound_to 6896
  151.2667  133.4269  159.2626 H   0  0  0  0  0  0  0  0  0  0  0  0  # atno 6908 bound_to 6896
  151.0404  134.9618  159.8215 H   0  0  0  0  0  0  0  0  0  0  0  0  # atno 6909 bound_to 6896
  145.2431  139.2770  143.4107 H   0  0  0  0  0  0  0  0  0  0  0  0  # atno 7974 bound_to 7965
  155.3795  140.3428  155.4246 H   0  0  0  0  0  0  0  0  0  0  0  0  # atno 8008 bound_to 7997
  156.1618  140.1603  156.8633 H   0  0  0  0  0  0  0  0  0  0  0  0  # atno 8009 bound_to 7997
  154.5147  140.0781  156.8039 H   0  0  0  0  0  0  0  0  0  0  0  0  # atno 8010 bound_to 7997
  140.0337  144.5445  150.7487 H   0  0  0  0  0  0  0  0  0  0  0  0  # atno 10167 bound_to 10162
  156.2255  130.4169  149.8939 H   0  0  0  0  0  0  0  0  0  0  0  0  # atno 10718 bound_to 10713
  154.8633  135.4217  154.2394 H   0  0  0  0  0  0  0  0  0  0  0  0  # atno 10763 bound_to 10752
  153.3363  135.6991  153.6911 H   0  0  0  0  0  0  0  0  0  0  0  0  # atno 10764 bound_to 10752
  153.5907  135.3555  155.2883 H   0  0  0  0  0  0  0  0  0  0  0  0  # atno 10765 bound_to 10752
  140.4122  134.1607  155.7668 H   0  0  0  0  0  0  0  0  0  0  0  0  # atno 11005 bound_to 11000
  146.3323  140.2800  142.8610 LP  0  0  0  0  0  0  0  0  0  0  0  0  # atno 17320 bound_to 7965
  144.9571  140.8237  143.5536 LP  0  0  0  0  0  0  0  0  0  0  0  0  # atno 17321 bound_to 7965
  140.7291  143.2668  151.4017 LP  0  0  0  0  0  0  0  0  0  0  0  0  # atno 17342 bound_to 10162
  139.6059  144.1198  152.2248 LP  0  0  0  0  0  0  0  0  0  0  0  0  # atno 17343 bound_to 10162
  156.6571  130.8767  151.3541 LP  0  0  0  0  0  0  0  0  0  0  0  0  # atno 17370 bound_to 10713
  157.7108  130.9438  150.1084 LP  0  0  0  0  0  0  0  0  0  0  0  0  # atno 17371 bound_to 10713
  141.1817  133.8400  157.1235 LP  0  0  0  0  0  0  0  0  0  0  0  0  # atno 17394 bound_to 11000
  140.0260  134.9924  157.0686 LP  0  0  0  0  0  0  0  0  0  0  0  0  # atno 17395 bound_to 11000

$$$$
