AV-unprocessed.smi:2177|AV-procd|sdf|8849|dock8
  -GOLD-   2272012 43D 1   1.00000     0.00000
 Structure written by MMmdl.
 42 43  0  0  0  0  0  0  0  0  1 V2000
  150.7205  145.6091  160.1053 C   0  0  0  0  0  0  0  0  0  0  0  0
  151.5732  144.3780  160.2213 C   0  0  0  0  0  0  0  0  0  0  0  0
  152.0720  144.0401  161.3987 N   0  0  0  0  0  0  0  0  0  0  0  0
  152.7812  142.9184  161.1628 N   0  0  0  0  0  0  0  0  0  0  0  0
  153.4738  142.2741  162.2619 C   0  0  0  0  0  0  0  0  0  0  0  0
  152.7244  142.5422  159.8347 C   0  0  0  0  0  0  0  0  0  0  0  0
  153.4324  141.3307  159.3191 C   0  0  0  0  0  0  0  0  0  0  0  0
  151.9490  143.4688  159.1894 C   0  0  0  0  0  0  0  0  0  0  0  0
  151.5723  143.5388  157.7305 C   0  0  0  0  0  0  0  0  0  0  0  0
  150.8924  142.2365  157.3075 C   0  0  0  0  0  0  0  0  0  0  0  0
  150.9923  141.2336  158.0137 O   0  0  0  0  0  0  0  0  0  0  0  0
  150.2060  142.2702  156.1540 N   0  0  0  0  0  0  0  0  0  0  0  0
  149.4613  141.1593  155.5681 C   0  0  1  0  0  0  0  0  0  0  0  0
  148.4046  141.7357  154.6134 C   0  0  0  0  0  0  0  0  0  0  0  0
  150.4320  140.1958  154.8550 C   0  0  2  0  0  0  0  0  0  0  0  0
  149.8117  138.8659  154.4232 C   0  0  0  0  0  0  0  0  0  0  0  0
  150.9978  137.9160  154.3658 C   0  0  0  0  0  0  0  0  0  0  0  0
  152.1013  138.6500  155.1317 C   0  0  0  0  0  0  0  0  0  0  0  0
  151.4561  139.7611  155.7366 O   0  0  0  0  0  0  0  0  0  0  0  0
  151.0948  146.2690  159.3225 H   0  0  0  0  0  0  0  0  0  0  0  0
  150.7009  146.1783  161.0353 H   0  0  0  0  0  0  0  0  0  0  0  0
  149.6925  145.3476  159.8546 H   0  0  0  0  0  0  0  0  0  0  0  0
  152.9168  141.3916  162.5766 H   0  0  0  0  0  0  0  0  0  0  0  0
  153.5680  142.9558  163.1082 H   0  0  0  0  0  0  0  0  0  0  0  0
  154.4724  141.9725  161.9451 H   0  0  0  0  0  0  0  0  0  0  0  0
  153.1391  141.1052  158.2944 H   0  0  0  0  0  0  0  0  0  0  0  0
  153.2046  140.4568  159.9295 H   0  0  0  0  0  0  0  0  0  0  0  0
  154.5119  141.4815  159.3316 H   0  0  0  0  0  0  0  0  0  0  0  0
  150.9012  144.3731  157.5247 H   0  0  0  0  0  0  0  0  0  0  0  0
  152.4505  143.7017  157.1047 H   0  0  0  0  0  0  0  0  0  0  0  0
  150.1872  143.1429  155.6473 H   0  0  0  0  0  0  0  0  0  0  0  0
  148.9354  140.6133  156.3533 H   0  0  0  0  0  0  0  0  0  0  0  0
  147.7785  140.9501  154.1903 H   0  0  0  0  0  0  0  0  0  0  0  0
  148.8680  142.2743  153.7861 H   0  0  0  0  0  0  0  0  0  0  0  0
  147.7447  142.4302  155.1343 H   0  0  0  0  0  0  0  0  0  0  0  0
  150.8931  140.6860  153.9950 H   0  0  0  0  0  0  0  0  0  0  0  0
  149.1050  138.5178  155.1776 H   0  0  0  0  0  0  0  0  0  0  0  0
  149.2814  138.9370  153.4734 H   0  0  0  0  0  0  0  0  0  0  0  0
  150.7529  136.9589  154.8272 H   0  0  0  0  0  0  0  0  0  0  0  0
  151.3073  137.7240  153.3380 H   0  0  0  0  0  0  0  0  0  0  0  0
  152.5824  138.0208  155.8808 H   0  0  0  0  0  0  0  0  0  0  0  0
  152.8690  139.0109  154.4461 H   0  0  0  0  0  0  0  0  0  0  0  0
  1  2  1  0  0  0  0
  1 20  1  0  0  0  0
  1 21  1  0  0  0  0
  1 22  1  0  0  0  0
  2  8  1  0  0  0  0
  2  3  2  0  0  0  0
  3  4  1  0  0  0  0
  4  5  1  0  0  0  0
  4  6  1  0  0  0  0
  5 23  1  0  0  0  0
  5 24  1  0  0  0  0
  5 25  1  0  0  0  0
  6  7  1  0  0  0  0
  6  8  2  0  0  0  0
  7 26  1  0  0  0  0
  7 27  1  0  0  0  0
  7 28  1  0  0  0  0
  8  9  1  0  0  0  0
  9 10  1  0  0  0  0
  9 29  1  0  0  0  0
  9 30  1  0  0  0  0
 10 11  2  0  0  0  0
 10 12  1  0  0  0  0
 12 13  1  0  0  0  0
 12 31  1  0  0  0  0
 13 14  1  0  0  0  0
 13 15  1  0  0  0  0
 13 32  1  0  0  0  0
 14 33  1  0  0  0  0
 14 34  1  0  0  0  0
 14 35  1  0  0  0  0
 15 19  1  0  0  0  0
 15 16  1  0  0  0  0
 15 36  1  0  0  0  0
 16 17  1  0  0  0  0
 16 37  1  0  0  0  0
 16 38  1  0  0  0  0
 17 18  1  0  0  0  0
 17 39  1  0  0  0  0
 17 40  1  0  0  0  0
 18 19  1  0  0  0  0
 18 41  1  0  0  0  0
 18 42  1  0  0  0  0
M  END
> <s_m_source_file>
AV-unprocessed.smi

> <i_m_source_file_index>
2177

> <i_lp_mmshare_version>
43012

> <i_f3d_flags>
0

> <s_epik_input>
W0NIM11jMW5uKFtDSDNdKWMoW0NIM10pYzFbQ0gyXUMoPU8pW05IXVtDQEhdKFtDSDNdKVtDQEBIXTJbQ0gyXVtDSDJdW0NIMl1PMg==

> <s_epik_cmdline>
J2VwaWtfcHl0aG9uJywgJy1waCcsICc3LjAnLCAnLXRuJywgJzgnLCAnLW1hJywgJzIwMCcsICctbWV0YWxfYmluZGluZycsICctaW1hZScsICc8aW5maWxlLm1hZT4nLCAnLW9tYWUnLCAnPG91dGZpbGUubWFlPic=

> <r_lp_tautomer_probability>
1

> <r_epik_Ionization_Penalty>
0.00310467

> <r_epik_Ionization_Penalty_Charging>
0

> <r_epik_Ionization_Penalty_Neutral>
0.00310467

> <r_epik_State_Penalty>
0.00218493

> <r_epik_Charging_Adjusted_Penalty>
0.00218493

> <i_epik_Tot_Q>
0

> <i_epik_Tot_abs_Q>
0

> <r_epik_Metal_State_Penalty>
-0

> <b_epik_Metal_Only>
0

> <s_lp_Force_Field>
OPLS_2005

> <r_lp_Energy>
13.1065

> <b_lp_Chiralities_Consistent>
1

> <s_lp_Variant>
AV-unprocessed.smi:2177-2

> <Gold.Version>
5.8.1

> <Gold.Id.Protein>
6NUR|6NUR_protein|mol2

> <Gold.PLP.Fitness>
48.1149

> <Gold.PLP.PLP>
-47.4048

> <Gold.PLP.part.hbond>
-1.0000

> <Gold.PLP.part.metal>
0.0000

> <Gold.PLP.part.buried>
-3.5599

> <Gold.PLP.part.nonpolar>
-43.8322

> <Gold.PLP.part.repulsive>
0.2755

> <Gold.PLP.ligand.clash>
0.0000

> <Gold.PLP.ligand.torsion>
0.5910

> <Gold.PLP.Chemscore.Hbond>
0.6224

> <Gold.PLP.Chemscore.CHOScore>
0.0000

> <Gold.PLP.Chemscore.Metal>
0.0000

> <Gold.Chemscore.Hbonds>
donor molecule, donor type, donor heavy atom, donor atom, acceptor molecule, acceptor atom, score
      L1  H    12    31       P1  8028  0.66

> <Gold.PLP.Chemscore.Internal.Correction>
0.0247

> <Gold.Rescore>
     Score         DG    S(hbond)    S(metal)    S(lipo)     H(rot)  DE(clash)    DE(int)     intcor
     12.46     -18.67       0.87        0.00     119.91       1.46       0.40       5.81       ----

> <Gold.Chemscore.Fitness>
12.4557

> <Gold.Chemscore.DG>
-18.6663

> <Gold.Chemscore.ZeroCoef>
-5.4800

> <Gold.Chemscore.Hbond>
0.8687

> <Gold.Chemscore.Metal>
0.0000

> <Gold.Chemscore.Lipo>
119.9095

> <Gold.Chemscore.Internal_Hbond>
0.0000

> <Gold.Chemscore.DEClash>
0.4046

> <Gold.Chemscore.DEInternal>
5.8059

> <Gold.Chemscore.Rot>
1.4627

> <Gold.Chemscore.Internal.Correction>
   9.000000E+99

> <Gold.Chemscore.Hbonds>
donor molecule, donor type, donor heavy atom, donor atom, acceptor molecule, acceptor atom, score
      L1  H    12    31       P1  8028  0.61

> <Gold.Chemscore.Hbond.Weighted>
-2.9013

> <Gold.Chemscore.Metal.Weighted>
-0.0000

> <Gold.Chemscore.Lipo.Weighted>
-14.0294

> <Gold.Chemscore.Internal_Hbond.Weighted>
0.0000

> <Gold.Chemscore.DEClash.Weighted>
0.4046

> <Gold.Chemscore.DEInternal.Weighted>
5.8059

> <Gold.Chemscore.Rot.Weighted>
3.7445

> <Gold.Chemscore.Internal.Correction.Weighted>
   9.000000E+99

> <Gold.Protein.RotatedTorsions>
[ 6907 6896 6895 6894 ] final   96.76 input  -60.11 | X-H torsion
[ 7974 7965 7964 7962 ] final  153.53 input  175.53 | X-H torsion
[ 8008 7997 7996 7995 ] final  137.12 input   59.86 | X-H torsion
[ 10167 10162 10161 10158 ] final  116.38 input  -65.29 | X-H torsion
[ 10718 10713 10712 10709 ] final  113.41 input   66.30 | X-H torsion
[ 10763 10752 10751 10750 ] final -109.16 input  -60.55 | X-H torsion
[ 11005 11000 10999 10996 ] final   22.49 input  -57.11 | X-H torsion

> <Gold.Protein.ActiveResidues>
 VAL166  LYS551  ARG553  GLY616  TRP617  ASP618  TYR619  PRO620  LYS621  CYS622 
 ASP623  PHE694  ASN695  SER759  ASP760  ASP761  ALA762  ILE779  LEU786  VAL792 
 PHE793  MET794  SER795  GLU796  ALA797  LYS798  CYS799  TRP800  GLU811  SER814 

> <Gold.Protein.RotatedAtoms>
  152.5431  134.0838  159.8246 H   0  0  0  0  0  0  0  0  0  0  0  0  # atno 6907 bound_to 6896
  151.0936  133.5289  159.2621 H   0  0  0  0  0  0  0  0  0  0  0  0  # atno 6908 bound_to 6896
  151.2071  135.0475  159.8950 H   0  0  0  0  0  0  0  0  0  0  0  0  # atno 6909 bound_to 6896
  144.8149  139.6812  143.6126 H   0  0  0  0  0  0  0  0  0  0  0  0  # atno 7974 bound_to 7965
  156.3003  140.2427  156.3857 H   0  0  0  0  0  0  0  0  0  0  0  0  # atno 8008 bound_to 7997
  154.8660  140.0418  157.1714 H   0  0  0  0  0  0  0  0  0  0  0  0  # atno 8009 bound_to 7997
  154.8846  140.2954  155.5409 H   0  0  0  0  0  0  0  0  0  0  0  0  # atno 8010 bound_to 7997
  139.6251  144.7107  151.2551 H   0  0  0  0  0  0  0  0  0  0  0  0  # atno 10167 bound_to 10162
  157.6340  131.0983  150.7036 H   0  0  0  0  0  0  0  0  0  0  0  0  # atno 10718 bound_to 10713
  154.8177  135.4611  154.0690 H   0  0  0  0  0  0  0  0  0  0  0  0  # atno 10763 bound_to 10752
  153.2069  135.6876  153.8168 H   0  0  0  0  0  0  0  0  0  0  0  0  # atno 10764 bound_to 10752
  153.7633  135.3281  155.3317 H   0  0  0  0  0  0  0  0  0  0  0  0  # atno 10765 bound_to 10752
  140.3800  134.1931  155.7664 H   0  0  0  0  0  0  0  0  0  0  0  0  # atno 11005 bound_to 11000
  146.2451  139.6081  142.9465 LP  0  0  0  0  0  0  0  0  0  0  0  0  # atno 17320 bound_to 7965
  145.5239  141.0430  143.2420 LP  0  0  0  0  0  0  0  0  0  0  0  0  # atno 17321 bound_to 7965
  140.7406  143.6583  150.8187 LP  0  0  0  0  0  0  0  0  0  0  0  0  # atno 17342 bound_to 10162
  140.0199  143.5553  152.2804 LP  0  0  0  0  0  0  0  0  0  0  0  0  # atno 17343 bound_to 10162
  156.7371  130.4727  149.5486 LP  0  0  0  0  0  0  0  0  0  0  0  0  # atno 17370 bound_to 10713
  156.1564  130.6345  151.0663 LP  0  0  0  0  0  0  0  0  0  0  0  0  # atno 17371 bound_to 10713
  141.1926  133.8168  157.0831 LP  0  0  0  0  0  0  0  0  0  0  0  0  # atno 17394 bound_to 11000
  140.0486  134.9817  157.1094 LP  0  0  0  0  0  0  0  0  0  0  0  0  # atno 17395 bound_to 11000

$$$$
