AV-unprocessed.smi:2451|AV-procd|sdf|9682|dock7
  -GOLD-   2272013323D 1   1.00000     0.00000
 Structure written by MMmdl.
 37 38  0  0  0  0  0  0  0  0  2 V2000
  152.2329  144.5542  159.4786 C   0  0  0  0  0  0  0  0  0  0  0  0
  151.7701  143.1500  159.0444 C   0  0  1  0  0  0  0  0  0  0  0  0
  151.2203  143.2335  157.5987 C   0  0  0  0  0  0  0  0  0  0  0  0
  150.7526  141.8469  157.1241 C   0  0  0  0  0  0  0  0  0  0  0  0
  151.8741  140.7924  157.2333 C   0  0  0  0  0  0  0  0  0  0  0  0
  152.4497  140.6591  158.6627 C   0  0  1  0  0  0  0  0  0  0  0  0
  153.5810  139.7413  158.6335 N   0  5  0  0  0  0  0  0  0  0  0  0
  153.3131  138.1434  158.6773 S   0  0  0  0  0  0  0  0  0  0  0  0
  152.1884  137.7347  157.8196 O   0  0  0  0  0  0  0  0  0  0  0  0
  154.5546  137.3594  158.5682 O   0  0  0  0  0  0  0  0  0  0  0  0
  152.7306  137.9458  160.4157 C   0  0  0  0  0  0  0  0  0  0  0  0
  153.6107  136.9755  161.1536 C   0  0  0  0  0  0  0  0  0  0  0  0
  154.1894  137.1084  162.4467 C   0  0  0  0  0  0  0  0  0  0  0  0
  154.8767  135.9408  162.6114 C   0  0  0  0  0  0  0  0  0  0  0  0
  154.7305  135.1455  161.5220 O   0  0  0  0  0  0  0  0  0  0  0  0
  153.9185  135.8132  160.5980 N   0  0  0  0  0  0  0  0  0  0  0  0
  152.8887  142.0596  159.2093 C   0  0  2  0  0  0  0  0  0  0  0  0
  153.3704  141.9715  160.6823 C   0  0  0  0  0  0  0  0  0  0  0  0
  153.1375  144.8549  158.9489 H   0  0  0  0  0  0  0  0  0  0  0  0
  152.4329  144.6065  160.5480 H   0  0  0  0  0  0  0  0  0  0  0  0
  151.4660  145.3006  159.2705 H   0  0  0  0  0  0  0  0  0  0  0  0
  150.9321  142.8834  159.6924 H   0  0  0  0  0  0  0  0  0  0  0  0
  150.3912  143.9399  157.5444 H   0  0  0  0  0  0  0  0  0  0  0  0
  151.9949  143.6073  156.9277 H   0  0  0  0  0  0  0  0  0  0  0  0
  149.8790  141.5351  157.7005 H   0  0  0  0  0  0  0  0  0  0  0  0
  150.4182  141.9132  156.0884 H   0  0  0  0  0  0  0  0  0  0  0  0
  151.4934  139.8268  156.8981 H   0  0  0  0  0  0  0  0  0  0  0  0
  152.6730  141.0610  156.5399 H   0  0  0  0  0  0  0  0  0  0  0  0
  151.6494  140.2931  159.3077 H   0  0  0  0  0  0  0  0  0  0  0  0
  152.7408  138.9251  160.8931 H   0  0  0  0  0  0  0  0  0  0  0  0
  151.6963  137.6016  160.3874 H   0  0  0  0  0  0  0  0  0  0  0  0
  154.1165  137.9347  163.1384 H   0  0  0  0  0  0  0  0  0  0  0  0
  155.4865  135.5448  163.4099 H   0  0  0  0  0  0  0  0  0  0  0  0
  153.7405  142.3871  158.6108 H   0  0  0  0  0  0  0  0  0  0  0  0
  152.5557  141.7192  161.3635 H   0  0  0  0  0  0  0  0  0  0  0  0
  153.7948  142.9154  161.0203 H   0  0  0  0  0  0  0  0  0  0  0  0
  154.1618  141.2337  160.8283 H   0  0  0  0  0  0  0  0  0  0  0  0
  1  2  1  0  0  0  0
  1 19  1  0  0  0  0
  1 20  1  0  0  0  0
  1 21  1  0  0  0  0
  2 17  1  0  0  0  0
  2  3  1  0  0  0  0
  2 22  1  0  0  0  0
  3  4  1  0  0  0  0
  3 23  1  0  0  0  0
  3 24  1  0  0  0  0
  4  5  1  0  0  0  0
  4 25  1  0  0  0  0
  4 26  1  0  0  0  0
  5  6  1  0  0  0  0
  5 27  1  0  0  0  0
  5 28  1  0  0  0  0
  6  7  1  0  0  0  0
  6 17  1  0  0  0  0
  6 29  1  0  0  0  0
  7  8  1  0  0  0  0
  8  9  2  0  0  0  0
  8 10  2  0  0  0  0
  8 11  1  0  0  0  0
 11 12  1  0  0  0  0
 11 30  1  0  0  0  0
 11 31  1  0  0  0  0
 12 16  2  0  0  0  0
 12 13  1  0  0  0  0
 13 14  2  0  0  0  0
 13 32  1  0  0  0  0
 14 15  1  0  0  0  0
 14 33  1  0  0  0  0
 15 16  1  0  0  0  0
 17 18  1  0  0  0  0
 17 34  1  0  0  0  0
 18 35  1  0  0  0  0
 18 36  1  0  0  0  0
 18 37  1  0  0  0  0
M  CHG  1   7  -1
M  END
> <s_m_source_file>
AV-unprocessed.smi

> <i_m_source_file_index>
2451

> <i_lp_mmshare_version>
43012

> <i_f3d_flags>
0

> <s_epik_input>
W0NIM11bQ0BASF0xW0NIMl1bQ0gyXVtDSDJdW0NASF0oW0NASF0xW0NIM10pW05IXVMoPU8pKD1PKVtDSDJdYzJbY0hdW2NIXW9uMg==

> <s_epik_cmdline>
J2VwaWtfcHl0aG9uJywgJy1waCcsICc3LjAnLCAnLXRuJywgJzgnLCAnLW1hJywgJzIwMCcsICctbWV0YWxfYmluZGluZycsICctaW1hZScsICc8aW5maWxlLm1hZT4nLCAnLW9tYWUnLCAnPG91dGZpbGUubWFlPic=

> <r_lp_tautomer_probability>
1

> <r_epik_Ionization_Penalty>
5.22693

> <r_epik_Ionization_Penalty_Charging>
5.22693

> <r_epik_Ionization_Penalty_Neutral>
2.67702e-10

> <r_epik_State_Penalty>
5.22685

> <r_epik_Charging_Adjusted_Penalty>
10.4538

> <i_epik_Tot_Q>
-1

> <i_epik_Tot_abs_Q>
1

> <r_epik_Metal_State_Penalty>
1.28716

> <b_epik_Metal_Only>
1

> <s_lp_Force_Field>
OPLS_2005

> <r_lp_Energy>
12.2025

> <b_lp_Chiralities_Consistent>
1

> <s_lp_Variant>
AV-unprocessed.smi:2451-14

> <Gold.Version>
5.8.1

> <Gold.Id.Protein>
6NUR|6NUR_protein|mol2

> <Gold.PLP.Fitness>
42.3122

> <Gold.PLP.PLP>
-34.2910

> <Gold.PLP.part.hbond>
-2.0000

> <Gold.PLP.part.metal>
0.0000

> <Gold.PLP.part.buried>
-3.9639

> <Gold.PLP.part.nonpolar>
-28.4258

> <Gold.PLP.part.repulsive>
0.0000

> <Gold.PLP.ligand.clash>
0.0000

> <Gold.PLP.ligand.torsion>
0.9853

> <Gold.PLP.Chemscore.Hbond>
3.0000

> <Gold.PLP.Chemscore.CHOScore>
0.0000

> <Gold.PLP.Chemscore.Metal>
0.0000

> <Gold.Chemscore.Hbonds>
donor molecule, donor type, donor heavy atom, donor atom, acceptor molecule, acceptor atom, score
      P1  H  6896  6909       L1    16  1.00
      P1  H  7997  8008       L1     7  2.00

> <Gold.PLP.Chemscore.Internal.Correction>
0.9918

> <Gold.Rescore>
     Score         DG    S(hbond)    S(metal)    S(lipo)     H(rot)  DE(clash)    DE(int)     intcor
     17.42     -19.85       1.77        0.00     102.92       1.40       0.15       2.28       ----

> <Gold.Chemscore.Fitness>
17.4209

> <Gold.Chemscore.DG>
-19.8507

> <Gold.Chemscore.ZeroCoef>
-5.4800

> <Gold.Chemscore.Hbond>
1.7693

> <Gold.Chemscore.Metal>
0.0000

> <Gold.Chemscore.Lipo>
102.9197

> <Gold.Chemscore.Internal_Hbond>
0.0000

> <Gold.Chemscore.DEClash>
0.1519

> <Gold.Chemscore.DEInternal>
2.2779

> <Gold.Chemscore.Rot>
1.3986

> <Gold.Chemscore.Internal.Correction>
   9.000000E+99

> <Gold.Chemscore.Hbonds>
donor molecule, donor type, donor heavy atom, donor atom, acceptor molecule, acceptor atom, score
      P1  H  6896  6909       L1    16  0.59
      P1  H  7997  8008       L1     7  0.50

> <Gold.Chemscore.Hbond.Weighted>
-5.9095

> <Gold.Chemscore.Metal.Weighted>
-0.0000

> <Gold.Chemscore.Lipo.Weighted>
-12.0416

> <Gold.Chemscore.Internal_Hbond.Weighted>
0.0000

> <Gold.Chemscore.DEClash.Weighted>
0.1519

> <Gold.Chemscore.DEInternal.Weighted>
2.2779

> <Gold.Chemscore.Rot.Weighted>
3.5804

> <Gold.Chemscore.Internal.Correction.Weighted>
   9.000000E+99

> <Gold.Protein.RotatedTorsions>
[ 6907 6896 6895 6894 ] final  158.39 input  -60.11 | X-H torsion
[ 7974 7965 7964 7962 ] final  -64.32 input  175.53 | X-H torsion
[ 8008 7997 7996 7995 ] final -108.77 input   59.86 | X-H torsion
[ 10167 10162 10161 10158 ] final   25.06 input  -65.29 | X-H torsion
[ 10718 10713 10712 10709 ] final  -15.69 input   66.30 | X-H torsion
[ 10763 10752 10751 10750 ] final  -73.45 input  -60.55 | X-H torsion
[ 11005 11000 10999 10996 ] final   20.33 input  -57.11 | X-H torsion

> <Gold.Protein.ActiveResidues>
 VAL166  LYS551  ARG553  GLY616  TRP617  ASP618  TYR619  PRO620  LYS621  CYS622 
 ASP623  PHE694  ASN695  SER759  ASP760  ASP761  ALA762  ILE779  LEU786  VAL792 
 PHE793  MET794  SER795  GLU796  ALA797  LYS798  CYS799  TRP800  GLU811  SER814 

> <Gold.Protein.RotatedAtoms>
  152.0011  133.3826  159.4181 H   0  0  0  0  0  0  0  0  0  0  0  0  # atno 6907 bound_to 6896
  150.6910  134.3833  159.5053 H   0  0  0  0  0  0  0  0  0  0  0  0  # atno 6908 bound_to 6896
  152.1580  134.8934  160.0594 H   0  0  0  0  0  0  0  0  0  0  0  0  # atno 6909 bound_to 6896
  145.7681  140.8827  143.0394 H   0  0  0  0  0  0  0  0  0  0  0  0  # atno 7974 bound_to 7965
  154.9492  140.0401  157.2136 H   0  0  0  0  0  0  0  0  0  0  0  0  # atno 8008 bound_to 7997
  154.7994  140.2849  155.5910 H   0  0  0  0  0  0  0  0  0  0  0  0  # atno 8009 bound_to 7997
  156.2959  140.2558  156.2859 H   0  0  0  0  0  0  0  0  0  0  0  0  # atno 8010 bound_to 7997
  140.5137  144.0118  150.6384 H   0  0  0  0  0  0  0  0  0  0  0  0  # atno 10167 bound_to 10162
  156.5982  130.4817  149.6251 H   0  0  0  0  0  0  0  0  0  0  0  0  # atno 10718 bound_to 10713
  154.4597  135.5897  153.6247 H   0  0  0  0  0  0  0  0  0  0  0  0  # atno 10763 bound_to 10752
  152.9822  135.6041  154.3502 H   0  0  0  0  0  0  0  0  0  0  0  0  # atno 10764 bound_to 10752
  154.3372  135.2842  155.2420 H   0  0  0  0  0  0  0  0  0  0  0  0  # atno 10765 bound_to 10752
  140.4038  134.1690  155.7664 H   0  0  0  0  0  0  0  0  0  0  0  0  # atno 11005 bound_to 11000
  144.6818  139.9817  143.7483 LP  0  0  0  0  0  0  0  0  0  0  0  0  # atno 17320 bound_to 7965
  146.0197  139.3240  143.0820 LP  0  0  0  0  0  0  0  0  0  0  0  0  # atno 17321 bound_to 7965
  140.3448  143.2998  152.0550 LP  0  0  0  0  0  0  0  0  0  0  0  0  # atno 17342 bound_to 10162
  139.4903  144.6417  151.6864 LP  0  0  0  0  0  0  0  0  0  0  0  0  # atno 17343 bound_to 10162
  156.2492  130.6897  151.1629 LP  0  0  0  0  0  0  0  0  0  0  0  0  # atno 17370 bound_to 10713
  157.7286  131.0630  150.5811 LP  0  0  0  0  0  0  0  0  0  0  0  0  # atno 17371 bound_to 10713
  141.1847  133.8339  157.1131 LP  0  0  0  0  0  0  0  0  0  0  0  0  # atno 17394 bound_to 11000
  140.0317  134.9898  157.0793 LP  0  0  0  0  0  0  0  0  0  0  0  0  # atno 17395 bound_to 11000

$$$$
