AV-unprocessed.smi:207|AV-procd|sdf|1602|dock3
  -GOLD-   2262019513D 1   1.00000     0.00000
 Structure written by MMmdl.
 55 58  0  0  0  0  0  0  0  0  1 V2000
  146.8600  131.7533  150.1767 C   0  0  0  0  0  0  0  0  0  0  0  0
  146.4716  132.1780  151.6078 C   0  0  0  0  0  0  0  0  0  0  0  0
  146.2422  130.8744  152.4191 C   0  0  0  0  0  0  0  0  0  0  0  0
  147.7208  132.8959  152.1856 C   0  0  0  0  0  0  0  0  0  0  0  0
  147.4694  133.4287  153.5255 N   0  0  0  0  0  0  0  0  0  0  0  0
  148.5361  133.8364  154.2589 C   0  0  0  0  0  0  0  0  0  0  0  0
  149.5342  132.9608  154.5545 N   0  0  0  0  0  0  0  0  0  0  0  0
  150.5945  133.3592  155.2631 C   0  0  0  0  0  0  0  0  0  0  0  0
  150.8525  134.5657  155.7708 N   0  0  0  0  0  0  0  0  0  0  0  0
  149.8503  135.4465  155.4904 C   0  0  0  0  0  0  0  0  0  0  0  0
  148.6696  135.1680  154.7446 C   0  0  0  0  0  0  0  0  0  0  0  0
  147.8802  136.3090  154.6673 N   0  0  0  0  0  0  0  0  0  0  0  0
  148.5597  137.2119  155.3194 C   0  0  0  0  0  0  0  0  0  0  0  0
  149.7507  136.7777  155.8576 N   0  0  0  0  0  0  0  0  0  0  0  0
  150.6949  137.5731  156.6295 C   0  0  0  0  0  0  0  0  0  0  0  0
  151.3409  138.7354  155.8452 C   0  0  0  0  0  0  0  0  0  0  0  0
  152.4539  139.4052  156.6708 C   0  0  0  0  0  0  0  0  0  0  0  0
  153.5604  138.5427  156.8422 O   0  0  0  0  0  0  0  0  0  0  0  0
  151.7284  138.4321  154.3902 C   0  0  0  0  0  0  0  0  0  0  0  0
  151.0368  139.6011  153.9039 O   0  0  0  0  0  0  0  0  0  0  0  0
  150.3633  139.7115  155.1752 C   0  0  0  0  0  0  0  0  0  0  0  0
  146.3201  134.3251  153.5754 C   0  0  0  0  0  0  0  0  0  0  0  0
  145.0839  133.6338  152.9826 C   0  0  0  0  0  0  0  0  0  0  0  0
  145.3185  133.1245  151.6267 N   0  0  0  0  0  0  0  0  0  0  0  0
  144.0678  132.6360  151.0247 C   0  0  0  0  0  0  0  0  0  0  0  0
  144.0616  132.5860  149.4868 C   0  0  0  0  0  0  0  0  0  0  0  0
  142.8468  132.0229  149.0417 O   0  0  0  0  0  0  0  0  0  0  0  0
  147.8064  131.2108  150.1668 H   0  0  0  0  0  0  0  0  0  0  0  0
  146.9767  132.6168  149.5207 H   0  0  0  0  0  0  0  0  0  0  0  0
  146.1200  131.0851  149.7369 H   0  0  0  0  0  0  0  0  0  0  0  0
  147.1354  130.2489  152.4058 H   0  0  0  0  0  0  0  0  0  0  0  0
  145.4348  130.2668  152.0125 H   0  0  0  0  0  0  0  0  0  0  0  0
  146.0150  131.0624  153.4678 H   0  0  0  0  0  0  0  0  0  0  0  0
  148.5644  132.2045  152.2207 H   0  0  0  0  0  0  0  0  0  0  0  0
  148.0132  133.7182  151.5302 H   0  0  0  0  0  0  0  0  0  0  0  0
  151.3427  132.6030  155.4501 H   0  0  0  0  0  0  0  0  0  0  0  0
  148.2032  138.2254  155.4324 H   0  0  0  0  0  0  0  0  0  0  0  0
  150.1706  137.9494  157.5087 H   0  0  0  0  0  0  0  0  0  0  0  0
  151.4645  136.9042  157.0170 H   0  0  0  0  0  0  0  0  0  0  0  0
  152.7908  140.3372  156.2164 H   0  0  0  0  0  0  0  0  0  0  0  0
  152.0859  139.6720  157.6623 H   0  0  0  0  0  0  0  0  0  0  0  0
  153.4707  138.0985  157.6712 H   0  0  0  0  0  0  0  0  0  0  0  0
  152.8016  138.4649  154.1983 H   0  0  0  0  0  0  0  0  0  0  0  0
  151.2891  137.5175  153.9892 H   0  0  0  0  0  0  0  0  0  0  0  0
  149.3368  139.3445  155.1226 H   0  0  0  0  0  0  0  0  0  0  0  0
  150.3939  140.7238  155.5802 H   0  0  0  0  0  0  0  0  0  0  0  0
  146.1028  134.6403  154.5953 H   0  0  0  0  0  0  0  0  0  0  0  0
  146.5512  135.2277  153.0078 H   0  0  0  0  0  0  0  0  0  0  0  0
  144.7473  132.8325  153.6404 H   0  0  0  0  0  0  0  0  0  0  0  0
  144.2732  134.3631  152.9636 H   0  0  0  0  0  0  0  0  0  0  0  0
  143.7874  131.6669  151.4339 H   0  0  0  0  0  0  0  0  0  0  0  0
  143.2512  133.3023  151.3066 H   0  0  0  0  0  0  0  0  0  0  0  0
  144.1534  133.5916  149.0753 H   0  0  0  0  0  0  0  0  0  0  0  0
  144.8782  131.9962  149.0779 H   0  0  0  0  0  0  0  0  0  0  0  0
  142.1776  132.6895  149.0727 H   0  0  0  0  0  0  0  0  0  0  0  0
  1  2  1  0  0  0  0
  1 28  1  0  0  0  0
  1 29  1  0  0  0  0
  1 30  1  0  0  0  0
  2 24  1  0  0  0  0
  2  3  1  0  0  0  0
  2  4  1  0  0  0  0
  3 31  1  0  0  0  0
  3 32  1  0  0  0  0
  3 33  1  0  0  0  0
  4  5  1  0  0  0  0
  4 34  1  0  0  0  0
  4 35  1  0  0  0  0
  5  6  1  0  0  0  0
  5 22  1  0  0  0  0
  6 11  1  0  0  0  0
  6  7  2  0  0  0  0
  7  8  1  0  0  0  0
  8  9  2  0  0  0  0
  8 36  1  0  0  0  0
  9 10  1  0  0  0  0
 10 14  1  0  0  0  0
 10 11  2  0  0  0  0
 11 12  1  0  0  0  0
 12 13  2  0  0  0  0
 13 14  1  0  0  0  0
 13 37  1  0  0  0  0
 14 15  1  0  0  0  0
 15 16  1  0  0  0  0
 15 38  1  0  0  0  0
 15 39  1  0  0  0  0
 16 21  1  0  0  0  0
 16 17  1  0  0  0  0
 16 19  1  0  0  0  0
 17 18  1  0  0  0  0
 17 40  1  0  0  0  0
 17 41  1  0  0  0  0
 18 42  1  0  0  0  0
 19 20  1  0  0  0  0
 19 43  1  0  0  0  0
 19 44  1  0  0  0  0
 20 21  1  0  0  0  0
 21 45  1  0  0  0  0
 21 46  1  0  0  0  0
 22 23  1  0  0  0  0
 22 47  1  0  0  0  0
 22 48  1  0  0  0  0
 23 24  1  0  0  0  0
 23 49  1  0  0  0  0
 23 50  1  0  0  0  0
 24 25  1  0  0  0  0
 25 26  1  0  0  0  0
 25 51  1  0  0  0  0
 25 52  1  0  0  0  0
 26 27  1  0  0  0  0
 26 53  1  0  0  0  0
 26 54  1  0  0  0  0
 27 55  1  0  0  0  0
M  END
> <s_m_source_file>
AV-unprocessed.smi

> <i_m_source_file_index>
207

> <i_lp_mmshare_version>
43012

> <i_f3d_flags>
0

> <s_epik_input>
W09IXVtDSDJdW0NIMl1OMVtDSDJdW0NIMl1OKFtDSDJdQzEoW0NIM10pW0NIM10pYyhuW2NIXW4yKWMoYzIzKW5bY0hdbjNbQ0gyXUM0KFtDSDJdW09IXSlbQ0gyXU9bQ0gyXTQ=

> <s_epik_cmdline>
J2VwaWtfcHl0aG9uJywgJy1waCcsICc3LjAnLCAnLXRuJywgJzgnLCAnLW1hJywgJzIwMCcsICctbWV0YWxfYmluZGluZycsICctaW1hZScsICc8aW5maWxlLm1hZT4nLCAnLW9tYWUnLCAnPG91dGZpbGUubWFlPic=

> <r_lp_tautomer_probability>
1

> <r_epik_Ionization_Penalty>
0.411763

> <r_epik_Ionization_Penalty_Charging>
0

> <r_epik_Ionization_Penalty_Neutral>
0.411763

> <r_epik_State_Penalty>
0.407012

> <r_epik_Charging_Adjusted_Penalty>
0.407012

> <i_epik_Tot_Q>
0

> <i_epik_Tot_abs_Q>
0

> <r_epik_Metal_State_Penalty>
0.401279

> <b_epik_Metal_Only>
0

> <s_lp_Force_Field>
OPLS_2005

> <r_lp_Energy>
76.2772

> <b_lp_Chiralities_Consistent>
1

> <s_lp_Variant>
AV-unprocessed.smi:207-1

> <Gold.Version>
5.8.1

> <Gold.Id.Protein>
6NUR|6NUR_protein|mol2

> <Gold.PLP.Fitness>
45.5079

> <Gold.PLP.PLP>
-34.1454

> <Gold.PLP.part.hbond>
-5.0000

> <Gold.PLP.part.metal>
0.0000

> <Gold.PLP.part.buried>
-2.4114

> <Gold.PLP.part.nonpolar>
-28.2565

> <Gold.PLP.part.repulsive>
0.5347

> <Gold.PLP.ligand.clash>
0.0036

> <Gold.PLP.ligand.torsion>
0.6378

> <Gold.PLP.Chemscore.Hbond>
3.9750

> <Gold.PLP.Chemscore.CHOScore>
0.0000

> <Gold.PLP.Chemscore.Metal>
0.0000

> <Gold.Chemscore.Hbonds>
donor molecule, donor type, donor heavy atom, donor atom, acceptor molecule, acceptor atom, score
      L1  H    27    55       P1 10186  0.75
      P1  H  7989  7998       L1    20  0.80
      P1  H  7997  8009       L1    18  0.28
      P1  H 10785 10796       L1    27  1.00

> <Gold.PLP.Chemscore.Internal.Correction>
0.7167

> <Gold.Rescore>
     Score         DG    S(hbond)    S(metal)    S(lipo)     H(rot)  DE(clash)    DE(int)     intcor
     13.23     -17.65       3.65        0.00      81.59       3.74       1.63       2.79       ----

> <Gold.Chemscore.Fitness>
13.2295

> <Gold.Chemscore.DG>
-17.6487

> <Gold.Chemscore.ZeroCoef>
-5.4800

> <Gold.Chemscore.Hbond>
3.6541

> <Gold.Chemscore.Metal>
0.0000

> <Gold.Chemscore.Lipo>
81.5933

> <Gold.Chemscore.Internal_Hbond>
0.0000

> <Gold.Chemscore.DEClash>
1.6253

> <Gold.Chemscore.DEInternal>
2.7939

> <Gold.Chemscore.Rot>
3.7432

> <Gold.Chemscore.Internal.Correction>
   9.000000E+99

> <Gold.Chemscore.Hbonds>
donor molecule, donor type, donor heavy atom, donor atom, acceptor molecule, acceptor atom, score
      L1  H    27    55       P1 10186  0.75
      P1  H  7989  7998       L1    20  0.66
      P1  H  7997  8009       L1    18  0.01
      P1  H 10785 10796       L1    27  0.60

> <Gold.Chemscore.Hbond.Weighted>
-12.2048

> <Gold.Chemscore.Metal.Weighted>
-0.0000

> <Gold.Chemscore.Lipo.Weighted>
-9.5464

> <Gold.Chemscore.Internal_Hbond.Weighted>
0.0000

> <Gold.Chemscore.DEClash.Weighted>
1.6253

> <Gold.Chemscore.DEInternal.Weighted>
2.7939

> <Gold.Chemscore.Rot.Weighted>
9.5825

> <Gold.Chemscore.Internal.Correction.Weighted>
   9.000000E+99

> <Gold.Protein.RotatedTorsions>
[ 6907 6896 6895 6894 ] final   -8.36 input  -60.11 | X-H torsion
[ 7974 7965 7964 7962 ] final  -14.66 input  175.53 | X-H torsion
[ 8008 7997 7996 7995 ] final  159.14 input   59.86 | X-H torsion
[ 10167 10162 10161 10158 ] final    7.64 input  -65.29 | X-H torsion
[ 10718 10713 10712 10709 ] final  -92.70 input   66.30 | X-H torsion
[ 10763 10752 10751 10750 ] final  161.16 input  -60.55 | X-H torsion
[ 11005 11000 10999 10996 ] final  -10.22 input  -57.11 | X-H torsion

> <Gold.Protein.ActiveResidues>
 VAL166  LYS551  ARG553  GLY616  TRP617  ASP618  TYR619  PRO620  LYS621  CYS622 
 ASP623  PHE694  ASN695  SER759  ASP760  ASP761  ALA762  ILE779  LEU786  VAL792 
 PHE793  MET794  SER795  GLU796  ALA797  LYS798  CYS799  TRP800  GLU811  SER814 

> <Gold.Protein.RotatedAtoms>
  151.4349  135.1014  159.9652 H   0  0  0  0  0  0  0  0  0  0  0  0  # atno 6907 bound_to 6896
  152.4943  133.8583  159.7247 H   0  0  0  0  0  0  0  0  0  0  0  0  # atno 6908 bound_to 6896
  150.9129  133.6917  159.2878 H   0  0  0  0  0  0  0  0  0  0  0  0  # atno 6909 bound_to 6896
  146.2065  140.3380  142.8405 H   0  0  0  0  0  0  0  0  0  0  0  0  # atno 7974 bound_to 7965
  156.2258  140.1839  156.7367 H   0  0  0  0  0  0  0  0  0  0  0  0  # atno 8008 bound_to 7997
  154.5938  140.0646  156.9304 H   0  0  0  0  0  0  0  0  0  0  0  0  # atno 8009 bound_to 7997
  155.2290  140.3313  155.4308 H   0  0  0  0  0  0  0  0  0  0  0  0  # atno 8010 bound_to 7997
  140.6360  143.7885  150.7360 H   0  0  0  0  0  0  0  0  0  0  0  0  # atno 10167 bound_to 10162
  156.0005  130.4997  150.5665 H   0  0  0  0  0  0  0  0  0  0  0  0  # atno 10718 bound_to 10713
  154.2586  135.2769  155.2787 H   0  0  0  0  0  0  0  0  0  0  0  0  # atno 10763 bound_to 10752
  154.5403  135.5704  153.6837 H   0  0  0  0  0  0  0  0  0  0  0  0  # atno 10764 bound_to 10752
  152.9966  135.6249  154.2736 H   0  0  0  0  0  0  0  0  0  0  0  0  # atno 10765 bound_to 10752
  140.7425  133.8659  155.8979 H   0  0  0  0  0  0  0  0  0  0  0  0  # atno 11005 bound_to 11000
  144.8805  140.7394  143.5989 LP  0  0  0  0  0  0  0  0  0  0  0  0  # atno 17320 bound_to 7965
  145.3300  139.1762  143.4542 LP  0  0  0  0  0  0  0  0  0  0  0  0  # atno 17321 bound_to 7965
  140.1507  143.4360  152.2133 LP  0  0  0  0  0  0  0  0  0  0  0  0  # atno 17342 bound_to 10162
  139.5570  144.7380  151.4264 LP  0  0  0  0  0  0  0  0  0  0  0  0  # atno 17343 bound_to 10162
  157.3567  131.0743  151.1670 LP  0  0  0  0  0  0  0  0  0  0  0  0  # atno 17370 bound_to 10713
  157.2468  130.6595  149.5914 LP  0  0  0  0  0  0  0  0  0  0  0  0  # atno 17371 bound_to 10713
  140.9824  134.1388  157.4482 LP  0  0  0  0  0  0  0  0  0  0  0  0  # atno 17394 bound_to 11000
  139.8803  135.0015  156.6069 LP  0  0  0  0  0  0  0  0  0  0  0  0  # atno 17395 bound_to 11000

$$$$
