#       Name:                AV-unprocessed.smi:1161
#       Creating user name   scv26
#       Creation time:       Fri Mar 27 03:49:51 2020


#       File generated by GOLD software.
#

@<TRIPOS>MOLECULE
AV-unprocessed.smi:1161
    54    55     1
SMALL
NO_CHARGES


@<TRIPOS>ATOM
      1 ****        -5.2315   2.7543   0.4276 C.3            1 S1                 0.0000
      2 ****        -3.7208   2.7196   0.7116 C.3            1 S1                 0.0000
      3 ****        -3.2534   3.5375   1.9451 C.3            1 S1                 0.0000
      4 ****        -3.7226   5.0040   1.8784 C.3            1 S1                 0.0000
      5 ****        -3.8302   2.9842   3.1134 O.3            1 S1                 0.0000
      6 ****        -1.7163   3.5114   2.1433 C.3            1 S1                 0.0000
      7 ****        -1.1436   2.1686   2.0571 N.am           1 S1                 0.0000
      8 ****        -0.4268   1.6879   1.0310 C.2            1 S1                 0.0000
      9 ****        -0.1499   2.3449   0.0280 O.2            1 S1                 0.0000
     10 ****        -0.0547   0.4160   1.2555 N.am           1 S1                 0.0000
     11 ****         0.7156  -0.4436   0.4259 C.ar           1 S1                 0.0000
     12 ****         1.3088  -1.5755   1.0201 C.ar           1 S1                 0.0000
     13 ****         2.0721  -2.4505   0.2245 C.ar           1 S1                 0.0000
     14 ****         2.2113  -2.1661  -1.1530 C.ar           1 S1                 0.0000
     15 ****         2.9662  -2.9874  -2.0007 N.3            1 S1                 0.0000
     16 ****         4.3855  -3.0147  -1.6721 C.3            1 S1                 0.0000
     17 ****         5.1526  -3.8284  -2.7283 C.3            1 S1                 0.0000
     18 ****         4.5920  -5.1353  -2.8221 O.3            1 S1                 0.0000
     19 ****         3.2230  -5.1029  -3.2166 C.3            1 S1                 0.0000
     20 ****         2.4034  -4.3202  -2.1758 C.3            1 S1                 0.0000
     21 ****         1.6310  -1.0951  -1.7350 N.ar           1 S1                 0.0000
     22 ****         0.9004  -0.2593  -0.9663 C.ar           1 S1                 0.0000
     23 ****        -5.4779   2.0964  -0.4060 H              1 S1                 0.0000
     24 ****        -5.5700   3.7545   0.1586 H              1 S1                 0.0000
     25 ****        -5.8092   2.4208   1.2897 H              1 S1                 0.0000
     26 ****        -3.4344   1.6743   0.8311 H              1 S1                 0.0000
     27 ****        -3.1919   3.0739  -0.1742 H              1 S1                 0.0000
     28 ****        -3.3621   5.4908   0.9716 H              1 S1                 0.0000
     29 ****        -3.3506   5.5782   2.7279 H              1 S1                 0.0000
     30 ****        -4.8093   5.0890   1.8898 H              1 S1                 0.0000
     31 ****        -3.5380   3.4863   3.8585 H              1 S1                 0.0000
     32 ****        -1.2456   4.1647   1.4065 H              1 S1                 0.0000
     33 ****        -1.4508   3.9321   3.1142 H              1 S1                 0.0000
     34 ****        -1.3241   1.5535   2.8370 H              1 S1                 0.0000
     35 ****        -0.3056   0.0355   2.1561 H              1 S1                 0.0000
     36 ****         1.1878  -1.7703   2.0758 H              1 S1                 0.0000
     37 ****         2.5404  -3.3176   0.6667 H              1 S1                 0.0000
     38 ****         4.7742  -1.9966  -1.6276 H              1 S1                 0.0000
     39 ****         4.5303  -3.4602  -0.6870 H              1 S1                 0.0000
     40 ****         5.1171  -3.3346  -3.7007 H              1 S1                 0.0000
     41 ****         6.2032  -3.9105  -2.4501 H              1 S1                 0.0000
     42 ****         3.1295  -4.6506  -4.2053 H              1 S1                 0.0000
     43 ****         2.8520  -6.1245  -3.2972 H              1 S1                 0.0000
     44 ****         2.4087  -4.8530  -1.2243 H              1 S1                 0.0000
     45 ****         1.3642  -4.2429  -2.4982 H              1 S1                 0.0000
     46 ****         0.4481   0.5596  -1.5027 H              1 S1                 0.0000
     47 ****        -3.5413   2.0322   3.2139 LP             1 S1                 0.0000
     48 ****        -4.8273   3.0250   3.0491 LP             1 S1                 0.0000
     49 ****        -0.4637   3.2910  -0.0524 LP             1 S1                 0.0000
     50 ****         0.3890   1.9327  -0.7067 LP             1 S1                 0.0000
     51 ****         2.9043  -2.5492  -2.8975 LP             1 S1                 0.0000
     52 ****         4.6601  -5.5804  -1.9293 LP             1 S1                 0.0000
     53 ****         5.1100  -5.6609  -3.4970 LP             1 S1                 0.0000
     54 ****         1.7399  -0.9244  -2.7143 LP             1 S1                 0.0000
@<TRIPOS>BOND
    1    1    2 1     
    2    1   23 1     
    3    1   24 1     
    4    1   25 1     
    5    2    3 1     
    6    2   26 1     
    7    2   27 1     
    8    3    4 1     
    9    3    5 1     
   10    3    6 1     
   11    4   28 1     
   12    4   29 1     
   13    4   30 1     
   14    5   31 1     
   15    6    7 1     
   16    6   32 1     
   17    6   33 1     
   18    7    8 am    
   19    7   34 1     
   20    8    9 2     
   21    8   10 am    
   22   10   11 1     
   23   10   35 1     
   24   11   22 ar    
   25   11   12 ar    
   26   12   13 ar    
   27   12   36 1     
   28   13   14 ar    
   29   13   37 1     
   30   14   15 1     
   31   14   21 ar    
   32   15   20 1     
   33   15   16 1     
   34   16   17 1     
   35   16   38 1     
   36   16   39 1     
   37   17   18 1     
   38   17   40 1     
   39   17   41 1     
   40   18   19 1     
   41   19   20 1     
   42   19   42 1     
   43   19   43 1     
   44   20   44 1     
   45   20   45 1     
   46   21   22 ar    
   47   22   46 1     
   48    5   47 1     
   49    5   48 1     
   50    9   49 1     
   51    9   50 1     
   52   15   51 1     
   53   18   52 1     
   54   18   53 1     
   55   21   54 1     
@<TRIPOS>SUBSTRUCTURE
      1 S1             1
@<TRIPOS>SET
LONE_PAIRS      STATIC     ATOMS    <user>   **** ""
8 47 48 49 50 51 52 53 54
DONOR_HYDROGENS      STATIC     ATOMS    <user>   **** ""
3 31 34 35
ATOM$BLUE        STATIC     ATOMS    COLORGROUP SYSTEM
8 47 48 49 50 51 52 53 54
ATOM$RED        STATIC     ATOMS    COLORGROUP SYSTEM
3 31 34 35
