AV-unprocessed.smi:1533|AV-procd|sdf|6165|dock2
  -GOLD-   22720 6313D 1   1.00000     0.00000
 Structure written by MMmdl.
 37 39  0  0  0  0  0  0  0  0  1 V2000
  145.6210  150.9689  159.3869 C   0  0  0  0  0  0  0  0  0  0  0  0
  145.9560  149.5484  159.6903 C   0  0  0  0  0  0  0  0  0  0  0  0
  147.0922  149.2182  160.2923 N   0  0  0  0  0  0  0  0  0  0  0  0
  147.0109  147.8216  160.3925 O   0  0  0  0  0  0  0  0  0  0  0  0
  145.8328  147.4783  159.8186 C   0  0  0  0  0  0  0  0  0  0  0  0
  145.4259  146.0430  159.8073 C   0  0  0  0  0  0  0  0  0  0  0  0
  146.4937  145.1263  160.4253 C   0  0  0  0  0  0  0  0  0  0  0  0
  147.7567  145.2075  159.7002 N   0  0  0  0  0  0  0  0  0  0  0  0
  148.9391  144.7737  160.1643 C   0  0  0  0  0  0  0  0  0  0  0  0
  149.0720  144.2559  161.2737 O   0  0  0  0  0  0  0  0  0  0  0  0
  150.1463  144.9543  159.2268 C   0  0  1  0  0  0  0  0  0  0  0  0
  151.3896  145.5468  159.9357 C   0  0  0  0  0  0  0  0  0  0  0  0
  152.4939  144.5140  159.6349 C   0  0  2  0  0  0  0  0  0  0  0  0
  152.8458  144.5609  158.1357 C   0  0  0  0  0  0  0  0  0  0  0  0
  151.6146  143.9079  157.4773 C   0  0  0  0  0  0  0  0  0  0  0  0
  150.7043  143.6132  158.6850 C   0  0  1  0  0  0  0  0  0  0  0  0
  151.7344  143.1987  159.7355 C   0  0  0  0  0  0  0  0  0  0  0  0
  145.1247  148.5164  159.3807 N   0  0  0  0  0  0  0  0  0  0  0  0
  146.4948  151.6102  159.5079 H   0  0  0  0  0  0  0  0  0  0  0  0
  144.8371  151.3212  160.0577 H   0  0  0  0  0  0  0  0  0  0  0  0
  145.2665  151.0621  158.3601 H   0  0  0  0  0  0  0  0  0  0  0  0
  144.4835  145.9489  160.3486 H   0  0  0  0  0  0  0  0  0  0  0  0
  145.2250  145.7464  158.7773 H   0  0  0  0  0  0  0  0  0  0  0  0
  146.6774  145.4152  161.4607 H   0  0  0  0  0  0  0  0  0  0  0  0
  146.1423  144.0931  160.4493 H   0  0  0  0  0  0  0  0  0  0  0  0
  147.7307  145.6241  158.7805 H   0  0  0  0  0  0  0  0  0  0  0  0
  149.8481  145.5958  158.3955 H   0  0  0  0  0  0  0  0  0  0  0  0
  151.6437  146.5366  159.5550 H   0  0  0  0  0  0  0  0  0  0  0  0
  151.2454  145.6421  161.0133 H   0  0  0  0  0  0  0  0  0  0  0  0
  153.3607  144.5974  160.2910 H   0  0  0  0  0  0  0  0  0  0  0  0
  153.0162  145.5788  157.7832 H   0  0  0  0  0  0  0  0  0  0  0  0
  153.7449  143.9792  157.9279 H   0  0  0  0  0  0  0  0  0  0  0  0
  151.1395  144.5572  156.7411 H   0  0  0  0  0  0  0  0  0  0  0  0
  151.8971  142.9834  156.9718 H   0  0  0  0  0  0  0  0  0  0  0  0
  149.9403  142.8624  158.4779 H   0  0  0  0  0  0  0  0  0  0  0  0
  152.3294  142.3328  159.4391 H   0  0  0  0  0  0  0  0  0  0  0  0
  151.3185  143.0142  160.7262 H   0  0  0  0  0  0  0  0  0  0  0  0
  1  2  1  0  0  0  0
  1 19  1  0  0  0  0
  1 20  1  0  0  0  0
  1 21  1  0  0  0  0
  2 18  1  0  0  0  0
  2  3  2  0  0  0  0
  3  4  1  0  0  0  0
  4  5  1  0  0  0  0
  5  6  1  0  0  0  0
  5 18  2  0  0  0  0
  6  7  1  0  0  0  0
  6 22  1  0  0  0  0
  6 23  1  0  0  0  0
  7  8  1  0  0  0  0
  7 24  1  0  0  0  0
  7 25  1  0  0  0  0
  8  9  1  0  0  0  0
  8 26  1  0  0  0  0
  9 10  2  0  0  0  0
  9 11  1  0  0  0  0
 11 16  1  0  0  0  0
 11 12  1  0  0  0  0
 11 27  1  0  0  0  0
 12 13  1  0  0  0  0
 12 28  1  0  0  0  0
 12 29  1  0  0  0  0
 13 17  1  0  0  0  0
 13 14  1  0  0  0  0
 13 30  1  0  0  0  0
 14 15  1  0  0  0  0
 14 31  1  0  0  0  0
 14 32  1  0  0  0  0
 15 16  1  0  0  0  0
 15 33  1  0  0  0  0
 15 34  1  0  0  0  0
 16 17  1  0  0  0  0
 16 35  1  0  0  0  0
 17 36  1  0  0  0  0
 17 37  1  0  0  0  0
M  END
> <s_m_source_file>
AV-unprocessed.smi

> <i_m_source_file_index>
1533

> <i_lp_mmshare_version>
43012

> <i_f3d_flags>
0

> <s_epik_input>
W0NIM11jMW5vYyhuMSlbQ0gyXVtDSDJdW05IXUMoPU8pW0NASF0oW0NIMl1bQ0BASF0yMylbQ0BASF0oW0NIMl0zKVtDSDJdW0NIMl0y

> <s_epik_cmdline>
J2VwaWtfcHl0aG9uJywgJy1waCcsICc3LjAnLCAnLXRuJywgJzgnLCAnLW1hJywgJzIwMCcsICctbWV0YWxfYmluZGluZycsICctaW1hZScsICc8aW5maWxlLm1hZT4nLCAnLW9tYWUnLCAnPG91dGZpbGUubWFlPic=

> <r_lp_tautomer_probability>
1

> <r_epik_Ionization_Penalty>
1.90116e-08

> <r_epik_Ionization_Penalty_Charging>
0

> <r_epik_Ionization_Penalty_Neutral>
1.90116e-08

> <r_epik_State_Penalty>
-0

> <r_epik_Charging_Adjusted_Penalty>
0

> <i_epik_Tot_Q>
0

> <i_epik_Tot_abs_Q>
0

> <r_epik_Metal_State_Penalty>
-0

> <b_epik_Metal_Only>
0

> <s_lp_Force_Field>
OPLS_2005

> <r_lp_Energy>
42.7172

> <b_lp_Chiralities_Consistent>
1

> <s_lp_Variant>
AV-unprocessed.smi:1533-4

> <Gold.Version>
5.8.1

> <Gold.Id.Protein>
6NUR|6NUR_protein|mol2

> <Gold.PLP.Fitness>
51.4922

> <Gold.PLP.PLP>
-47.4362

> <Gold.PLP.part.hbond>
-7.2389

> <Gold.PLP.part.metal>
0.0000

> <Gold.PLP.part.buried>
-7.1325

> <Gold.PLP.part.nonpolar>
-33.9917

> <Gold.PLP.part.repulsive>
0.7603

> <Gold.PLP.ligand.clash>
0.0000

> <Gold.PLP.ligand.torsion>
0.3308

> <Gold.PLP.Chemscore.Hbond>
1.5600

> <Gold.PLP.Chemscore.CHOScore>
0.0000

> <Gold.PLP.Chemscore.Metal>
0.0000

> <Gold.Chemscore.Hbonds>
donor molecule, donor type, donor heavy atom, donor atom, acceptor molecule, acceptor atom, score
      L1  H     8    26       P1  8029  1.00
      P1  H  6933  6944       L1    10  0.56

> <Gold.PLP.Chemscore.Internal.Correction>
0.0376

> <Gold.Rescore>
     Score         DG    S(hbond)    S(metal)    S(lipo)     H(rot)  DE(clash)    DE(int)     intcor
     13.97     -16.94       1.45        0.00      96.98       1.85       2.60       0.37       ----

> <Gold.Chemscore.Fitness>
13.9725

> <Gold.Chemscore.DG>
-16.9433

> <Gold.Chemscore.ZeroCoef>
-5.4800

> <Gold.Chemscore.Hbond>
1.4522

> <Gold.Chemscore.Metal>
0.0000

> <Gold.Chemscore.Lipo>
96.9764

> <Gold.Chemscore.Internal_Hbond>
0.0000

> <Gold.Chemscore.DEClash>
2.6018

> <Gold.Chemscore.DEInternal>
0.3690

> <Gold.Chemscore.Rot>
1.8490

> <Gold.Chemscore.Internal.Correction>
   9.000000E+99

> <Gold.Chemscore.Hbonds>
donor molecule, donor type, donor heavy atom, donor atom, acceptor molecule, acceptor atom, score
      L1  H     8    26       P1  8029  0.93
      P1  H  6933  6944       L1    10  0.53

> <Gold.Chemscore.Hbond.Weighted>
-4.8504

> <Gold.Chemscore.Metal.Weighted>
-0.0000

> <Gold.Chemscore.Lipo.Weighted>
-11.3462

> <Gold.Chemscore.Internal_Hbond.Weighted>
0.0000

> <Gold.Chemscore.DEClash.Weighted>
2.6018

> <Gold.Chemscore.DEInternal.Weighted>
0.3690

> <Gold.Chemscore.Rot.Weighted>
4.7334

> <Gold.Chemscore.Internal.Correction.Weighted>
   9.000000E+99

> <Gold.Protein.RotatedTorsions>
[ 6907 6896 6895 6894 ] final -167.13 input  -60.11 | X-H torsion
[ 7974 7965 7964 7962 ] final  137.64 input  175.53 | X-H torsion
[ 8008 7997 7996 7995 ] final   26.56 input   59.86 | X-H torsion
[ 10167 10162 10161 10158 ] final  167.36 input  -65.29 | X-H torsion
[ 10718 10713 10712 10709 ] final -126.44 input   66.30 | X-H torsion
[ 10763 10752 10751 10750 ] final  -75.48 input  -60.55 | X-H torsion
[ 11005 11000 10999 10996 ] final -177.62 input  -57.11 | X-H torsion

> <Gold.Protein.ActiveResidues>
 VAL166  LYS551  ARG553  GLY616  TRP617  ASP618  TYR619  PRO620  LYS621  CYS622 
 ASP623  PHE694  ASN695  SER759  ASP760  ASP761  ALA762  ILE779  LEU786  VAL792 
 PHE793  MET794  SER795  GLU796  ALA797  LYS798  CYS799  TRP800  GLU811  SER814 

> <Gold.Protein.RotatedAtoms>
  151.4546  133.3608  159.2799 H   0  0  0  0  0  0  0  0  0  0  0  0  # atno 6907 bound_to 6896
  150.9067  134.8484  159.7408 H   0  0  0  0  0  0  0  0  0  0  0  0  # atno 6908 bound_to 6896
  152.4910  134.4472  159.9614 H   0  0  0  0  0  0  0  0  0  0  0  0  # atno 6909 bound_to 6896
  144.9449  139.4887  143.5554 H   0  0  0  0  0  0  0  0  0  0  0  0  # atno 7974 bound_to 7965
  155.0293  140.3156  155.4764 H   0  0  0  0  0  0  0  0  0  0  0  0  # atno 8008 bound_to 7997
  156.2877  140.2183  156.5356 H   0  0  0  0  0  0  0  0  0  0  0  0  # atno 8009 bound_to 7997
  154.7384  140.0475  157.0777 H   0  0  0  0  0  0  0  0  0  0  0  0  # atno 8010 bound_to 7997
  139.4944  144.3930  151.9496 H   0  0  0  0  0  0  0  0  0  0  0  0  # atno 10167 bound_to 10162
  156.1765  130.6703  151.0249 H   0  0  0  0  0  0  0  0  0  0  0  0  # atno 10718 bound_to 10713
  154.4871  135.5830  153.6432 H   0  0  0  0  0  0  0  0  0  0  0  0  # atno 10763 bound_to 10752
  152.9856  135.6104  154.3172 H   0  0  0  0  0  0  0  0  0  0  0  0  # atno 10764 bound_to 10752
  154.3069  135.2845  155.2564 H   0  0  0  0  0  0  0  0  0  0  0  0  # atno 10765 bound_to 10752
  140.4388  134.6450  157.4748 H   0  0  0  0  0  0  0  0  0  0  0  0  # atno 11005 bound_to 11000
  146.3299  139.8493  142.8876 LP  0  0  0  0  0  0  0  0  0  0  0  0  # atno 17320 bound_to 7965
  145.2934  141.0174  143.3650 LP  0  0  0  0  0  0  0  0  0  0  0  0  # atno 17321 bound_to 7965
  140.3368  144.3251  150.5975 LP  0  0  0  0  0  0  0  0  0  0  0  0  # atno 17342 bound_to 10162
  140.5599  143.2193  151.7782 LP  0  0  0  0  0  0  0  0  0  0  0  0  # atno 17343 bound_to 10162
  157.6839  131.0830  150.7295 LP  0  0  0  0  0  0  0  0  0  0  0  0  # atno 17370 bound_to 10713
  156.7353  130.4722  149.5490 LP  0  0  0  0  0  0  0  0  0  0  0  0  # atno 17371 bound_to 10713
  140.0084  134.6729  155.9419 LP  0  0  0  0  0  0  0  0  0  0  0  0  # atno 17394 bound_to 11000
  141.1714  133.6537  156.4666 LP  0  0  0  0  0  0  0  0  0  0  0  0  # atno 17395 bound_to 11000

$$$$
