AV-unprocessed.smi:1073|AV-procd|sdf|4690|dock1
  -GOLD-   22720 3213D 1   1.00000     0.00000
 Structure written by MMmdl.
 44 44  0  0  0  0  0  0  0  0  1 V2000
  141.8601  135.0521  153.2969 C   0  0  0  0  0  0  0  0  0  0  0  0
  143.2911  135.1483  153.5402 N   0  0  0  0  0  0  0  0  0  0  0  0
  144.2104  135.3234  152.5802 C   0  0  0  0  0  0  0  0  0  0  0  0
  143.9259  135.4111  151.3845 O   0  0  0  0  0  0  0  0  0  0  0  0
  145.6752  135.3918  153.0455 C   0  0  1  0  0  0  0  0  0  0  0  0
  146.4363  134.2109  152.3966 C   0  0  0  0  0  0  0  0  0  0  0  0
  145.6602  132.8745  152.3375 C   0  0  0  0  0  0  0  0  0  0  0  0
  146.6300  131.6858  152.4184 C   0  0  0  0  0  0  0  0  0  0  0  0
  144.7753  132.7596  151.0852 C   0  0  0  0  0  0  0  0  0  0  0  0
  146.2867  136.6461  152.6056 N   0  0  0  0  0  0  0  0  0  0  0  0
  146.0567  137.8524  153.1470 C   0  0  0  0  0  0  0  0  0  0  0  0
  145.2749  138.0325  154.0818 O   0  0  0  0  0  0  0  0  0  0  0  0
  146.8230  139.0253  152.5189 C   0  0  0  0  0  0  0  0  0  0  0  0
  147.7593  139.6791  153.4490 N   0  0  0  0  0  0  0  0  0  0  0  0
  148.8900  138.9386  153.8463 C   0  0  0  0  0  0  0  0  0  0  0  0
  149.8172  139.4172  154.6981 C   0  0  0  0  0  0  0  0  0  0  0  0
  151.0589  138.6192  155.0646 C   0  0  0  0  0  0  0  0  0  0  0  0
  151.9115  139.3595  155.7734 F   0  0  0  0  0  0  0  0  0  0  0  0
  150.7165  137.5631  155.8012 F   0  0  0  0  0  0  0  0  0  0  0  0
  151.6912  138.1793  153.9759 F   0  0  0  0  0  0  0  0  0  0  0  0
  149.6170  140.7715  155.1749 C   0  0  0  0  0  0  0  0  0  0  0  0
  148.5475  141.4978  154.7955 C   0  0  0  0  0  0  0  0  0  0  0  0
  147.5365  140.9553  153.8849 C   0  0  0  0  0  0  0  0  0  0  0  0
  146.5525  141.6073  153.5345 O   0  0  0  0  0  0  0  0  0  0  0  0
  141.3288  134.9448  154.2424 H   0  0  0  0  0  0  0  0  0  0  0  0
  141.6299  134.1855  152.6761 H   0  0  0  0  0  0  0  0  0  0  0  0
  141.4892  135.9479  152.7973 H   0  0  0  0  0  0  0  0  0  0  0  0
  143.6032  135.0851  154.4985 H   0  0  0  0  0  0  0  0  0  0  0  0
  145.7139  135.3159  154.1334 H   0  0  0  0  0  0  0  0  0  0  0  0
  146.7317  134.4851  151.3821 H   0  0  0  0  0  0  0  0  0  0  0  0
  147.3686  134.0461  152.9404 H   0  0  0  0  0  0  0  0  0  0  0  0
  145.0095  132.8099  153.2101 H   0  0  0  0  0  0  0  0  0  0  0  0
  147.3171  131.6760  151.5717 H   0  0  0  0  0  0  0  0  0  0  0  0
  146.0919  130.7373  152.4208 H   0  0  0  0  0  0  0  0  0  0  0  0
  147.2265  131.7252  153.3303 H   0  0  0  0  0  0  0  0  0  0  0  0
  145.3627  132.8668  150.1727 H   0  0  0  0  0  0  0  0  0  0  0  0
  143.9941  133.5193  151.0733 H   0  0  0  0  0  0  0  0  0  0  0  0
  144.2768  131.7906  151.0469 H   0  0  0  0  0  0  0  0  0  0  0  0
  146.9319  136.5885  151.8312 H   0  0  0  0  0  0  0  0  0  0  0  0
  147.3589  138.6720  151.6360 H   0  0  0  0  0  0  0  0  0  0  0  0
  146.0943  139.7434  152.1407 H   0  0  0  0  0  0  0  0  0  0  0  0
  148.9605  137.9551  153.4048 H   0  0  0  0  0  0  0  0  0  0  0  0
  150.3363  141.2111  155.8501 H   0  0  0  0  0  0  0  0  0  0  0  0
  148.4310  142.5038  155.1711 H   0  0  0  0  0  0  0  0  0  0  0  0
  1  2  1  0  0  0  0
  1 25  1  0  0  0  0
  1 26  1  0  0  0  0
  1 27  1  0  0  0  0
  2  3  1  0  0  0  0
  2 28  1  0  0  0  0
  3  4  2  0  0  0  0
  3  5  1  0  0  0  0
  5  6  1  0  0  0  0
  5 10  1  0  0  0  0
  5 29  1  0  0  0  0
  6  7  1  0  0  0  0
  6 30  1  0  0  0  0
  6 31  1  0  0  0  0
  7  8  1  0  0  0  0
  7  9  1  0  0  0  0
  7 32  1  0  0  0  0
  8 33  1  0  0  0  0
  8 34  1  0  0  0  0
  8 35  1  0  0  0  0
  9 36  1  0  0  0  0
  9 37  1  0  0  0  0
  9 38  1  0  0  0  0
 10 11  1  0  0  0  0
 10 39  1  0  0  0  0
 11 12  2  0  0  0  0
 11 13  1  0  0  0  0
 13 14  1  0  0  0  0
 13 40  1  0  0  0  0
 13 41  1  0  0  0  0
 14 23  1  0  0  0  0
 14 15  1  0  0  0  0
 15 16  2  0  0  0  0
 15 42  1  0  0  0  0
 16 17  1  0  0  0  0
 16 21  1  0  0  0  0
 17 18  1  0  0  0  0
 17 19  1  0  0  0  0
 17 20  1  0  0  0  0
 21 22  2  0  0  0  0
 21 43  1  0  0  0  0
 22 23  1  0  0  0  0
 22 44  1  0  0  0  0
 23 24  2  0  0  0  0
M  END
> <s_m_source_file>
AV-unprocessed.smi

> <i_m_source_file_index>
1073

> <i_lp_mmshare_version>
43012

> <i_f3d_flags>
0

> <s_epik_input>
W0NIM11bTkhdQyg9TylbQ0BIXShbQ0gyXVtDSF0oW0NIM10pW0NIM10pW05IXUMoPU8pW0NIMl1uMVtjSF1jKEMoRikoRilGKVtjSF1bY0hdYzE9Tw==

> <s_epik_cmdline>
J2VwaWtfcHl0aG9uJywgJy1waCcsICc3LjAnLCAnLXRuJywgJzgnLCAnLW1hJywgJzIwMCcsICctbWV0YWxfYmluZGluZycsICctaW1hZScsICc8aW5maWxlLm1hZT4nLCAnLW9tYWUnLCAnPG91dGZpbGUubWFlPic=

> <r_lp_tautomer_probability>
1

> <r_epik_Ionization_Penalty>
7.02352e-08

> <r_epik_Ionization_Penalty_Charging>
1.57869e-08

> <r_epik_Ionization_Penalty_Neutral>
5.44484e-08

> <r_epik_State_Penalty>
-0

> <r_epik_Charging_Adjusted_Penalty>
1.57869e-08

> <i_epik_Tot_Q>
0

> <i_epik_Tot_abs_Q>
0

> <r_epik_Metal_State_Penalty>
-0

> <b_epik_Metal_Only>
0

> <s_lp_Force_Field>
OPLS_2005

> <r_lp_Energy>
17.6469

> <b_lp_Chiralities_Consistent>
1

> <s_lp_Variant>
AV-unprocessed.smi:1073-2

> <Gold.Version>
5.8.1

> <Gold.Id.Protein>
6NUR|6NUR_protein|mol2

> <Gold.PLP.Fitness>
41.4844

> <Gold.PLP.PLP>
-37.9163

> <Gold.PLP.part.hbond>
-1.0000

> <Gold.PLP.part.metal>
0.0000

> <Gold.PLP.part.buried>
-3.9220

> <Gold.PLP.part.nonpolar>
-33.8882

> <Gold.PLP.part.repulsive>
0.5543

> <Gold.PLP.ligand.clash>
0.0000

> <Gold.PLP.ligand.torsion>
0.9328

> <Gold.PLP.Chemscore.Hbond>
0.6720

> <Gold.PLP.Chemscore.CHOScore>
1.0000

> <Gold.PLP.Chemscore.Metal>
0.0000

> <Gold.Chemscore.Hbonds>
donor molecule, donor type, donor heavy atom, donor atom, acceptor molecule, acceptor atom, score
      L1  H    10    39       P1  7948  0.61
      L1  C    15    42       P1  7948  1.00

> <Gold.PLP.Chemscore.Internal.Correction>
0.4177

> <Gold.Rescore>
     Score         DG    S(hbond)    S(metal)    S(lipo)     H(rot)  DE(clash)    DE(int)     intcor
      8.73      -9.65       0.88        0.00      65.53       2.51       0.04       0.89       ----

> <Gold.Chemscore.Fitness>
8.7268

> <Gold.Chemscore.DG>
-9.6502

> <Gold.Chemscore.ZeroCoef>
-5.4800

> <Gold.Chemscore.Hbond>
0.8807

> <Gold.Chemscore.Metal>
0.0000

> <Gold.Chemscore.Lipo>
65.5287

> <Gold.Chemscore.Internal_Hbond>
0.0000

> <Gold.Chemscore.DEClash>
0.0367

> <Gold.Chemscore.DEInternal>
0.8868

> <Gold.Chemscore.Rot>
2.5149

> <Gold.Chemscore.Internal.Correction>
   9.000000E+99

> <Gold.Chemscore.Hbonds>
donor molecule, donor type, donor heavy atom, donor atom, acceptor molecule, acceptor atom, score
      L1  H    10    39       P1  7948  0.56

> <Gold.Chemscore.Hbond.Weighted>
-2.9415

> <Gold.Chemscore.Metal.Weighted>
-0.0000

> <Gold.Chemscore.Lipo.Weighted>
-7.6669

> <Gold.Chemscore.Internal_Hbond.Weighted>
0.0000

> <Gold.Chemscore.DEClash.Weighted>
0.0367

> <Gold.Chemscore.DEInternal.Weighted>
0.8868

> <Gold.Chemscore.Rot.Weighted>
6.4381

> <Gold.Chemscore.Internal.Correction.Weighted>
   9.000000E+99

> <Gold.Protein.RotatedTorsions>
[ 6907 6896 6895 6894 ] final  168.26 input  -60.11 | X-H torsion
[ 7974 7965 7964 7962 ] final -112.84 input  175.53 | X-H torsion
[ 8008 7997 7996 7995 ] final  -56.69 input   59.86 | X-H torsion
[ 10167 10162 10161 10158 ] final   86.40 input  -65.29 | X-H torsion
[ 10718 10713 10712 10709 ] final  179.81 input   66.30 | X-H torsion
[ 10763 10752 10751 10750 ] final  -47.35 input  -60.55 | X-H torsion
[ 11005 11000 10999 10996 ] final  130.53 input  -57.11 | X-H torsion

> <Gold.Protein.ActiveResidues>
 VAL166  LYS551  ARG553  GLY616  TRP617  ASP618  TYR619  PRO620  LYS621  CYS622 
 ASP623  PHE694  ASN695  SER759  ASP760  ASP761  ALA762  ILE779  LEU786  VAL792 
 PHE793  MET794  SER795  GLU796  ALA797  LYS798  CYS799  TRP800  GLU811  SER814 

> <Gold.Protein.RotatedAtoms>
  151.8505  133.3439  159.3671 H   0  0  0  0  0  0  0  0  0  0  0  0  # atno 6907 bound_to 6896
  150.7208  134.5304  159.5706 H   0  0  0  0  0  0  0  0  0  0  0  0  # atno 6908 bound_to 6896
  152.2796  134.7843  160.0450 H   0  0  0  0  0  0  0  0  0  0  0  0  # atno 6909 bound_to 6896
  145.1392  140.8768  143.3712 H   0  0  0  0  0  0  0  0  0  0  0  0  # atno 7974 bound_to 7965
  154.4239  140.1124  156.5677 H   0  0  0  0  0  0  0  0  0  0  0  0  # atno 8008 bound_to 7997
  155.6244  140.3495  155.4643 H   0  0  0  0  0  0  0  0  0  0  0  0  # atno 8009 bound_to 7997
  155.9998  140.1196  157.0548 H   0  0  0  0  0  0  0  0  0  0  0  0  # atno 8010 bound_to 7997
  139.8879  144.6402  150.8771 H   0  0  0  0  0  0  0  0  0  0  0  0  # atno 10167 bound_to 10162
  156.8703  130.9781  151.3074 H   0  0  0  0  0  0  0  0  0  0  0  0  # atno 10718 bound_to 10713
  154.0599  135.6619  153.4810 H   0  0  0  0  0  0  0  0  0  0  0  0  # atno 10763 bound_to 10752
  153.0431  135.5132  154.7669 H   0  0  0  0  0  0  0  0  0  0  0  0  # atno 10764 bound_to 10752
  154.6702  135.3028  154.9718 H   0  0  0  0  0  0  0  0  0  0  0  0  # atno 10765 bound_to 10752
  139.9677  134.9586  156.9308 H   0  0  0  0  0  0  0  0  0  0  0  0  # atno 11005 bound_to 11000
  145.0551  139.3150  143.5909 LP  0  0  0  0  0  0  0  0  0  0  0  0  # atno 17320 bound_to 7965
  146.3507  139.9973  142.8679 LP  0  0  0  0  0  0  0  0  0  0  0  0  # atno 17321 bound_to 7965
  140.7732  143.3533  151.1971 LP  0  0  0  0  0  0  0  0  0  0  0  0  # atno 17342 bound_to 10162
  139.7136  143.9337  152.2957 LP  0  0  0  0  0  0  0  0  0  0  0  0  # atno 17343 bound_to 10162
  157.6199  130.8647  149.9092 LP  0  0  0  0  0  0  0  0  0  0  0  0  # atno 17370 bound_to 10713
  156.0730  130.3682  150.0736 LP  0  0  0  0  0  0  0  0  0  0  0  0  # atno 17371 bound_to 10713
  140.5360  134.0767  155.7328 LP  0  0  0  0  0  0  0  0  0  0  0  0  # atno 17394 bound_to 11000
  141.1357  133.9225  157.2438 LP  0  0  0  0  0  0  0  0  0  0  0  0  # atno 17395 bound_to 11000

$$$$
