AV-unprocessed.smi:1783|AV-procd|sdf|7192|dock1
  -GOLD-   22720 8433D 1   1.00000     0.00000
 Structure written by MMmdl.
 30 31  0  0  0  0  0  0  0  0  1 V2000
  152.4675  140.0791  158.2390 O   0  0  0  0  0  0  0  0  0  0  0  0
  152.1499  141.2247  157.9196 C   0  0  0  0  0  0  0  0  0  0  0  0
  151.3784  141.5528  156.8642 N   0  0  0  0  0  0  0  0  0  0  0  0
  150.7541  140.7238  155.9162 C   0  0  0  0  0  0  0  0  0  0  0  0
  149.4821  140.8758  155.4625 C   0  0  0  0  0  0  0  0  0  0  0  0
  148.9013  139.9792  154.4772 C   0  0  0  0  0  0  0  0  0  0  0  0
  147.4946  140.1935  153.9398 C   0  0  0  0  0  0  0  0  0  0  0  0
  147.1827  139.2824  153.0170 F   0  0  0  0  0  0  0  0  0  0  0  0
  146.6113  140.0983  154.9325 F   0  0  0  0  0  0  0  0  0  0  0  0
  147.3728  141.4026  153.3917 F   0  0  0  0  0  0  0  0  0  0  0  0
  149.6999  139.0018  154.0106 C   0  0  0  0  0  0  0  0  0  0  0  0
  151.0082  138.8382  154.4708 N   0  0  0  0  0  0  0  0  0  0  0  0
  151.5952  139.6347  155.3919 C   0  0  0  0  0  0  0  0  0  0  0  0
  152.7569  139.4280  155.7410 O   0  0  0  0  0  0  0  0  0  0  0  0
  152.6539  142.4085  158.7538 C   0  0  2  0  0  0  0  0  0  0  0  0
  153.5138  142.0043  159.9668 C   0  0  0  0  0  0  0  0  0  0  0  0
  152.6534  142.3736  161.1599 C   0  0  0  0  0  0  0  0  0  0  0  0
  151.8253  143.5236  160.6061 C   0  0  0  0  0  0  0  0  0  0  0  0
  151.5213  143.0883  159.2909 O   0  0  0  0  0  0  0  0  0  0  0  0
  151.5405  138.0752  154.0782 H   0  0  0  0  0  0  0  0  0  0  0  0
  151.2499  142.5414  156.7021 H   0  0  0  0  0  0  0  0  0  0  0  0
  148.8571  141.6801  155.8133 H   0  0  0  0  0  0  0  0  0  0  0  0
  149.4077  138.2834  153.2589 H   0  0  0  0  0  0  0  0  0  0  0  0
  153.2153  143.1025  158.1257 H   0  0  0  0  0  0  0  0  0  0  0  0
  153.8012  140.9520  159.9824 H   0  0  0  0  0  0  0  0  0  0  0  0
  154.4334  142.5907  159.9748 H   0  0  0  0  0  0  0  0  0  0  0  0
  152.0022  141.5399  161.4252 H   0  0  0  0  0  0  0  0  0  0  0  0
  153.2352  142.6493  162.0398 H   0  0  0  0  0  0  0  0  0  0  0  0
  150.9220  143.7136  161.1860 H   0  0  0  0  0  0  0  0  0  0  0  0
  152.4113  144.4430  160.5631 H   0  0  0  0  0  0  0  0  0  0  0  0
  1  2  2  0  0  0  0
  2  3  1  0  0  0  0
  2 15  1  0  0  0  0
  3  4  1  0  0  0  0
  3 21  1  0  0  0  0
  4 13  1  0  0  0  0
  4  5  2  0  0  0  0
  5  6  1  0  0  0  0
  5 22  1  0  0  0  0
  6  7  1  0  0  0  0
  6 11  2  0  0  0  0
  7  8  1  0  0  0  0
  7  9  1  0  0  0  0
  7 10  1  0  0  0  0
 11 12  1  0  0  0  0
 11 23  1  0  0  0  0
 12 20  1  0  0  0  0
 12 13  1  0  0  0  0
 13 14  2  0  0  0  0
 15 19  1  0  0  0  0
 15 16  1  0  0  0  0
 15 24  1  0  0  0  0
 16 17  1  0  0  0  0
 16 25  1  0  0  0  0
 16 26  1  0  0  0  0
 17 18  1  0  0  0  0
 17 27  1  0  0  0  0
 17 28  1  0  0  0  0
 18 19  1  0  0  0  0
 18 29  1  0  0  0  0
 18 30  1  0  0  0  0
M  END
> <s_m_source_file>
AV-unprocessed.smi

> <i_m_source_file_index>
1783

> <i_lp_mmshare_version>
43012

> <i_f3d_flags>
0

> <s_epik_input>
TzFbQ0gyXVtDSDJdW0NIMl1bQ0BIXTFDKD1PKVtOSF1jMltjSF1jKEMoRikoRilGKVtjSF1bbkhdYzI9Tw==

> <s_epik_cmdline>
J2VwaWtfcHl0aG9uJywgJy1waCcsICc3LjAnLCAnLXRuJywgJzgnLCAnLW1hJywgJzIwMCcsICctbWV0YWxfYmluZGluZycsICctaW1hZScsICc8aW5maWxlLm1hZT4nLCAnLW9tYWUnLCAnPG91dGZpbGUubWFlPic=

> <r_lp_tautomer_probability>
0.999

> <r_epik_Ionization_Penalty>
0.00885957

> <r_epik_Ionization_Penalty_Charging>
0.00885947

> <r_epik_Ionization_Penalty_Neutral>
9.33956e-08

> <r_epik_State_Penalty>
0.00669851

> <r_epik_Charging_Adjusted_Penalty>
0.015558

> <i_epik_Tot_Q>
0

> <i_epik_Tot_abs_Q>
0

> <r_epik_Metal_State_Penalty>
0.320804

> <b_epik_Metal_Only>
0

> <s_lp_Force_Field>
OPLS_2005

> <r_lp_Energy>
32.169

> <b_lp_Chiralities_Consistent>
1

> <s_lp_Variant>
AV-unprocessed.smi:1783-1

> <Gold.Version>
5.8.1

> <Gold.Id.Protein>
6NUR|6NUR_protein|mol2

> <Gold.PLP.Fitness>
41.1119

> <Gold.PLP.PLP>
-36.5920

> <Gold.PLP.part.hbond>
-1.0000

> <Gold.PLP.part.metal>
0.0000

> <Gold.PLP.part.buried>
-4.2366

> <Gold.PLP.part.nonpolar>
-30.2855

> <Gold.PLP.part.repulsive>
0.2076

> <Gold.PLP.ligand.clash>
1.0589

> <Gold.PLP.ligand.torsion>
0.3776

> <Gold.PLP.Chemscore.Hbond>
1.0000

> <Gold.PLP.Chemscore.CHOScore>
1.0966

> <Gold.PLP.Chemscore.Metal>
0.0000

> <Gold.Chemscore.Hbonds>
donor molecule, donor type, donor heavy atom, donor atom, acceptor molecule, acceptor atom, score
      P1  H  7997  8010       L1    14  1.00
      L1  C    11    23       P1  7948  1.00
      L1  C    11    23       P1  7957  0.16

> <Gold.PLP.Chemscore.Internal.Correction>
0.0443

> <Gold.Rescore>
     Score         DG    S(hbond)    S(metal)    S(lipo)     H(rot)  DE(clash)    DE(int)     intcor
     10.85     -15.52       1.00        0.00      79.22       1.00       0.15       4.52       ----

> <Gold.Chemscore.Fitness>
10.8520

> <Gold.Chemscore.DG>
-15.5193

> <Gold.Chemscore.ZeroCoef>
-5.4800

> <Gold.Chemscore.Hbond>
0.9971

> <Gold.Chemscore.Metal>
0.0000

> <Gold.Chemscore.Lipo>
79.2233

> <Gold.Chemscore.Internal_Hbond>
0.0000

> <Gold.Chemscore.DEClash>
0.1461

> <Gold.Chemscore.DEInternal>
4.5212

> <Gold.Chemscore.Rot>
1.0000

> <Gold.Chemscore.Internal.Correction>
   9.000000E+99

> <Gold.Chemscore.Hbonds>
donor molecule, donor type, donor heavy atom, donor atom, acceptor molecule, acceptor atom, score
      P1  H  7997  8010       L1    14  0.96

> <Gold.Chemscore.Hbond.Weighted>
-3.3302

> <Gold.Chemscore.Metal.Weighted>
-0.0000

> <Gold.Chemscore.Lipo.Weighted>
-9.2691

> <Gold.Chemscore.Internal_Hbond.Weighted>
0.0000

> <Gold.Chemscore.DEClash.Weighted>
0.1461

> <Gold.Chemscore.DEInternal.Weighted>
4.5212

> <Gold.Chemscore.Rot.Weighted>
2.5600

> <Gold.Chemscore.Internal.Correction.Weighted>
   9.000000E+99

> <Gold.Protein.RotatedTorsions>
[ 6907 6896 6895 6894 ] final  136.76 input  -60.11 | X-H torsion
[ 7974 7965 7964 7962 ] final   16.03 input  175.53 | X-H torsion
[ 8008 7997 7996 7995 ] final   67.30 input   59.86 | X-H torsion
[ 10167 10162 10161 10158 ] final  -40.05 input  -65.29 | X-H torsion
[ 10718 10713 10712 10709 ] final -113.54 input   66.30 | X-H torsion
[ 10763 10752 10751 10750 ] final   -4.59 input  -60.55 | X-H torsion
[ 11005 11000 10999 10996 ] final    2.74 input  -57.11 | X-H torsion

> <Gold.Protein.ActiveResidues>
 VAL166  LYS551  ARG553  GLY616  TRP617  ASP618  TYR619  PRO620  LYS621  CYS622 
 ASP623  PHE694  ASN695  SER759  ASP760  ASP761  ALA762  ILE779  LEU786  VAL792 
 PHE793  MET794  SER795  GLU796  ALA797  LYS798  CYS799  TRP800  GLU811  SER814 

> <Gold.Protein.RotatedAtoms>
  152.2857  133.5512  159.5525 H   0  0  0  0  0  0  0  0  0  0  0  0  # atno 6907 bound_to 6896
  150.7214  134.0501  159.3804 H   0  0  0  0  0  0  0  0  0  0  0  0  # atno 6908 bound_to 6896
  151.8409  135.0590  160.0499 H   0  0  0  0  0  0  0  0  0  0  0  0  # atno 6909 bound_to 6896
  146.2261  139.8807  142.8571 H   0  0  0  0  0  0  0  0  0  0  0  0  # atno 7974 bound_to 7965
  155.6907  140.3496  155.4892 H   0  0  0  0  0  0  0  0  0  0  0  0  # atno 8008 bound_to 7997
  155.9526  140.1122  157.0986 H   0  0  0  0  0  0  0  0  0  0  0  0  # atno 8009 bound_to 7997
  154.4125  140.1191  156.5059 H   0  0  0  0  0  0  0  0  0  0  0  0  # atno 8010 bound_to 7997
  140.7046  143.3177  151.2869 H   0  0  0  0  0  0  0  0  0  0  0  0  # atno 10167 bound_to 10162
  156.0773  130.5978  150.8656 H   0  0  0  0  0  0  0  0  0  0  0  0  # atno 10718 bound_to 10713
  153.3869  135.7000  153.6524 H   0  0  0  0  0  0  0  0  0  0  0  0  # atno 10763 bound_to 10752
  153.5112  135.3631  155.2588 H   0  0  0  0  0  0  0  0  0  0  0  0  # atno 10764 bound_to 10752
  154.8698  135.4135  154.3178 H   0  0  0  0  0  0  0  0  0  0  0  0  # atno 10765 bound_to 10752
  140.6010  133.9836  155.8132 H   0  0  0  0  0  0  0  0  0  0  0  0  # atno 11005 bound_to 11000
  145.2515  141.0045  143.3878 LP  0  0  0  0  0  0  0  0  0  0  0  0  # atno 17320 bound_to 7965
  144.9370  139.4232  143.6467 LP  0  0  0  0  0  0  0  0  0  0  0  0  # atno 17321 bound_to 7965
  139.6621  144.0171  152.2699 LP  0  0  0  0  0  0  0  0  0  0  0  0  # atno 17342 bound_to 10162
  139.9742  144.6473  150.7961 LP  0  0  0  0  0  0  0  0  0  0  0  0  # atno 17343 bound_to 10162
  157.5874  131.0945  150.9174 LP  0  0  0  0  0  0  0  0  0  0  0  0  # atno 17370 bound_to 10713
  156.9357  130.5366  149.5279 LP  0  0  0  0  0  0  0  0  0  0  0  0  # atno 17371 bound_to 10713
  141.0872  133.9972  157.3294 LP  0  0  0  0  0  0  0  0  0  0  0  0  # atno 17394 bound_to 11000
  139.9233  135.0201  156.8142 LP  0  0  0  0  0  0  0  0  0  0  0  0  # atno 17395 bound_to 11000

$$$$
