AV-unprocessed.smi:968|AV-procd|sdf|4289|dock1
  -GOLD-   22720 2193D 1   1.00000     0.00000
 Structure written by MMmdl.
 20 20  0  0  0  0  0  0  0  0  1 V2000
  152.1461  144.7428  157.5691 C   0  0  0  0  0  0  0  0  0  0  0  0
  151.1298  143.7138  157.4107 N   0  0  0  0  0  0  0  0  0  0  0  0
  151.0782  142.5858  158.1332 C   0  0  0  0  0  0  0  0  0  0  0  0
  151.9016  142.3115  159.0080 O   0  0  0  0  0  0  0  0  0  0  0  0
  149.9196  141.6361  157.8025 C   0  0  0  0  0  0  0  0  0  0  0  0
  149.9724  141.1267  156.4419 N   0  0  0  0  0  0  0  0  0  0  0  0
  150.9686  140.5441  155.7701 C   0  0  0  0  0  0  0  0  0  0  0  0
  150.6510  140.2046  154.5280 N   0  0  0  0  0  0  0  0  0  0  0  0
  149.3559  140.6369  154.5012 C   0  0  0  0  0  0  0  0  0  0  0  0
  148.5663  140.4919  153.3485 N   0  0  0  0  0  0  0  0  0  0  0  0
  148.8984  141.1982  155.6196 N   0  0  0  0  0  0  0  0  0  0  0  0
  151.9940  145.5315  156.8325 H   0  0  0  0  0  0  0  0  0  0  0  0
  153.1457  144.3306  157.4248 H   0  0  0  0  0  0  0  0  0  0  0  0
  152.0935  145.1894  158.5627 H   0  0  0  0  0  0  0  0  0  0  0  0
  150.4192  143.8700  156.7105 H   0  0  0  0  0  0  0  0  0  0  0  0
  149.9255  140.7963  158.4992 H   0  0  0  0  0  0  0  0  0  0  0  0
  148.9730  142.1607  157.9374 H   0  0  0  0  0  0  0  0  0  0  0  0
  151.9432  140.3633  156.1991 H   0  0  0  0  0  0  0  0  0  0  0  0
  148.9492  140.0628  152.5187 H   0  0  0  0  0  0  0  0  0  0  0  0
  147.6202  140.8439  153.3312 H   0  0  0  0  0  0  0  0  0  0  0  0
  1  2  1  0  0  0  0
  1 12  1  0  0  0  0
  1 13  1  0  0  0  0
  1 14  1  0  0  0  0
  2  3  1  0  0  0  0
  2 15  1  0  0  0  0
  3  4  2  0  0  0  0
  3  5  1  0  0  0  0
  5  6  1  0  0  0  0
  5 16  1  0  0  0  0
  5 17  1  0  0  0  0
  6 11  1  0  0  0  0
  6  7  1  0  0  0  0
  7  8  2  0  0  0  0
  7 18  1  0  0  0  0
  8  9  1  0  0  0  0
  9 10  1  0  0  0  0
  9 11  2  0  0  0  0
 10 19  1  0  0  0  0
 10 20  1  0  0  0  0
M  END
> <s_m_source_file>
AV-unprocessed.smi

> <i_m_source_file_index>
968

> <i_lp_mmshare_version>
43012

> <i_f3d_flags>
0

> <s_epik_input>
W0NIM11bTkhdQyg9TylbQ0gyXW4xW2NIXW5jKG4xKVtOSDJd

> <s_epik_cmdline>
J2VwaWtfcHl0aG9uJywgJy1waCcsICc3LjAnLCAnLXRuJywgJzgnLCAnLW1hJywgJzIwMCcsICctbWV0YWxfYmluZGluZycsICctaW1hZScsICc8aW5maWxlLm1hZT4nLCAnLW9tYWUnLCAnPG91dGZpbGUubWFlPic=

> <r_lp_tautomer_probability>
1

> <r_epik_Ionization_Penalty>
0.000377128

> <r_epik_Ionization_Penalty_Charging>
0

> <r_epik_Ionization_Penalty_Neutral>
0.000377128

> <r_epik_State_Penalty>
-0

> <r_epik_Charging_Adjusted_Penalty>
0

> <i_epik_Tot_Q>
0

> <i_epik_Tot_abs_Q>
0

> <r_epik_Metal_State_Penalty>
-0

> <b_epik_Metal_Only>
0

> <s_lp_Force_Field>
OPLS_2005

> <r_lp_Energy>
2.7463

> <b_lp_Chiralities_Consistent>
1

> <s_lp_Variant>
AV-unprocessed.smi:968-1

> <Gold.Version>
5.8.1

> <Gold.Id.Protein>
6NUR|6NUR_protein|mol2

> <Gold.PLP.Fitness>
28.7547

> <Gold.PLP.PLP>
-19.9230

> <Gold.PLP.part.hbond>
-2.8477

> <Gold.PLP.part.metal>
0.0000

> <Gold.PLP.part.buried>
-4.9568

> <Gold.PLP.part.nonpolar>
-12.9551

> <Gold.PLP.part.repulsive>
0.3384

> <Gold.PLP.ligand.clash>
0.0000

> <Gold.PLP.ligand.torsion>
0.0843

> <Gold.PLP.Chemscore.Hbond>
3.0000

> <Gold.PLP.Chemscore.CHOScore>
0.0000

> <Gold.PLP.Chemscore.Metal>
0.0000

> <Gold.Chemscore.Hbonds>
donor molecule, donor type, donor heavy atom, donor atom, acceptor molecule, acceptor atom, score
      L1  H     2    15       P1  8028  1.00
      L1  H    10    19       P1  7957  0.94
      P1  H  7989  7998       L1     8  1.00

> <Gold.PLP.Chemscore.Internal.Correction>
0.0003

> <Gold.Rescore>
     Score         DG    S(hbond)    S(metal)    S(lipo)     H(rot)  DE(clash)    DE(int)     intcor
     12.06     -12.36       2.68        0.00      18.61       1.65       0.19       0.11       ----

> <Gold.Chemscore.Fitness>
12.0632

> <Gold.Chemscore.DG>
-12.3606

> <Gold.Chemscore.ZeroCoef>
-5.4800

> <Gold.Chemscore.Hbond>
2.6753

> <Gold.Chemscore.Metal>
0.0000

> <Gold.Chemscore.Lipo>
18.6147

> <Gold.Chemscore.Internal_Hbond>
0.0000

> <Gold.Chemscore.DEClash>
0.1889

> <Gold.Chemscore.DEInternal>
0.1085

> <Gold.Chemscore.Rot>
1.6534

> <Gold.Chemscore.Internal.Correction>
   9.000000E+99

> <Gold.Chemscore.Hbonds>
donor molecule, donor type, donor heavy atom, donor atom, acceptor molecule, acceptor atom, score
      L1  H     2    15       P1  8028  0.93
      L1  H    10    19       P1  7957  0.89
      P1  H  7989  7998       L1     8  0.70

> <Gold.Chemscore.Hbond.Weighted>
-8.9354

> <Gold.Chemscore.Metal.Weighted>
-0.0000

> <Gold.Chemscore.Lipo.Weighted>
-2.1779

> <Gold.Chemscore.Internal_Hbond.Weighted>
0.0000

> <Gold.Chemscore.DEClash.Weighted>
0.1889

> <Gold.Chemscore.DEInternal.Weighted>
0.1085

> <Gold.Chemscore.Rot.Weighted>
4.2327

> <Gold.Chemscore.Internal.Correction.Weighted>
   9.000000E+99

> <Gold.Protein.RotatedTorsions>
[ 6907 6896 6895 6894 ] final  -56.45 input  -60.11 | X-H torsion
[ 7974 7965 7964 7962 ] final -151.15 input  175.53 | X-H torsion
[ 8008 7997 7996 7995 ] final   97.36 input   59.86 | X-H torsion
[ 10167 10162 10161 10158 ] final -127.99 input  -65.29 | X-H torsion
[ 10718 10713 10712 10709 ] final   27.38 input   66.30 | X-H torsion
[ 10763 10752 10751 10750 ] final  -32.07 input  -60.55 | X-H torsion
[ 11005 11000 10999 10996 ] final -153.07 input  -57.11 | X-H torsion

> <Gold.Protein.ActiveResidues>
 VAL166  LYS551  ARG553  GLY616  TRP617  ASP618  TYR619  PRO620  LYS621  CYS622 
 ASP623  PHE694  ASN695  SER759  ASP760  ASP761  ALA762  ILE779  LEU786  VAL792 
 PHE793  MET794  SER795  GLU796  ALA797  LYS798  CYS799  TRP800  GLU811  SER814 

> <Gold.Protein.RotatedAtoms>
  150.8167  134.7352  159.6735 H   0  0  0  0  0  0  0  0  0  0  0  0  # atno 6907 bound_to 6896
  152.4285  134.5820  159.9960 H   0  0  0  0  0  0  0  0  0  0  0  0  # atno 6908 bound_to 6896
  151.6015  133.3318  159.3084 H   0  0  0  0  0  0  0  0  0  0  0  0  # atno 6909 bound_to 6896
  144.7866  140.4836  143.5802 H   0  0  0  0  0  0  0  0  0  0  0  0  # atno 7974 bound_to 7965
  156.0894  140.3259  155.7795 H   0  0  0  0  0  0  0  0  0  0  0  0  # atno 8008 bound_to 7997
  155.5022  140.0570  157.2954 H   0  0  0  0  0  0  0  0  0  0  0  0  # atno 8009 bound_to 7997
  154.4628  140.1975  156.0214 H   0  0  0  0  0  0  0  0  0  0  0  0  # atno 8010 bound_to 7997
  139.9550  143.6013  152.2463 H   0  0  0  0  0  0  0  0  0  0  0  0  # atno 10167 bound_to 10162
  157.2194  130.6971  149.6263 H   0  0  0  0  0  0  0  0  0  0  0  0  # atno 10718 bound_to 10713
  153.8077  135.6885  153.4846 H   0  0  0  0  0  0  0  0  0  0  0  0  # atno 10763 bound_to 10752
  153.1648  135.4565  154.9820 H   0  0  0  0  0  0  0  0  0  0  0  0  # atno 10764 bound_to 10752
  154.7980  135.3327  154.7560 H   0  0  0  0  0  0  0  0  0  0  0  0  # atno 10765 bound_to 10752
  140.7121  134.3821  157.5196 H   0  0  0  0  0  0  0  0  0  0  0  0  # atno 11005 bound_to 11000
  145.5904  139.1495  143.3185 LP  0  0  0  0  0  0  0  0  0  0  0  0  # atno 17320 bound_to 7965
  146.2101  140.6030  142.9063 LP  0  0  0  0  0  0  0  0  0  0  0  0  # atno 17321 bound_to 7965
  139.6598  144.7662  151.1984 LP  0  0  0  0  0  0  0  0  0  0  0  0  # atno 17342 bound_to 10162
  140.7571  143.6027  150.8683 LP  0  0  0  0  0  0  0  0  0  0  0  0  # atno 17343 bound_to 10162
  155.9683  130.4525  150.5775 LP  0  0  0  0  0  0  0  0  0  0  0  0  # atno 17370 bound_to 10713
  157.3591  131.0747  151.1651 LP  0  0  0  0  0  0  0  0  0  0  0  0  # atno 17371 bound_to 10713
  139.8869  134.8897  156.2558 LP  0  0  0  0  0  0  0  0  0  0  0  0  # atno 17394 bound_to 11000
  141.0076  133.7115  156.1059 LP  0  0  0  0  0  0  0  0  0  0  0  0  # atno 17395 bound_to 11000

$$$$
