AV-unprocessed.smi:48|AV-procd|sdf|456|dock7
  -GOLD-   2262016323D 1   1.00000     0.00000
 Structure written by MMmdl.
 30 32  0  0  0  0  0  0  0  0  1 V2000
  149.5938  140.9364  153.2892 O   0  0  0  0  0  0  0  0  0  0  0  0
  149.0742  140.4383  154.5036 C   0  0  0  0  0  0  0  0  0  0  0  0
  150.0627  139.4463  155.1349 C   0  0  2  0  0  0  0  0  0  0  0  0
  151.3686  140.0044  155.1322 O   0  0  0  0  0  0  0  0  0  0  0  0
  152.3150  138.9867  155.2055 C   0  0  1  0  0  0  0  0  0  0  0  0
  152.6967  138.7975  156.6494 N   0  0  0  0  0  0  0  0  0  0  0  0
  152.4395  139.6727  157.6437 C   0  0  0  0  0  0  0  0  0  0  0  0
  152.8131  139.3405  158.8772 N   0  0  0  0  0  0  0  0  0  0  0  0
  153.3638  138.0889  158.6684 C   0  0  0  0  0  0  0  0  0  0  0  0
  153.9515  137.1479  159.5487 C   0  0  0  0  0  0  0  0  0  0  0  0
  154.0890  137.4762  161.2374 Cl  0  0  0  0  0  0  0  0  0  0  0  0
  154.4045  135.9796  159.0370 N   0  0  0  0  0  0  0  0  0  0  0  0
  154.2834  135.7508  157.7247 C   0  0  0  0  0  0  0  0  0  0  0  0
  153.7584  136.5393  156.7808 N   0  0  0  0  0  0  0  0  0  0  0  0
  153.2997  137.7205  157.2927 C   0  0  0  0  0  0  0  0  0  0  0  0
  151.6910  137.7359  154.5624 C   0  0  2  0  0  0  0  0  0  0  0  0
  152.3209  137.4249  153.3363 O   0  0  0  0  0  0  0  0  0  0  0  0
  150.2391  138.1579  154.3163 C   0  0  1  0  0  0  0  0  0  0  0  0
  149.3453  137.1619  154.7708 O   0  0  0  0  0  0  0  0  0  0  0  0
  149.7691  139.2145  156.1589 H   0  0  0  0  0  0  0  0  0  0  0  0
  153.2440  139.3013  154.7277 H   0  0  0  0  0  0  0  0  0  0  0  0
  151.7868  136.8724  155.2199 H   0  0  0  0  0  0  0  0  0  0  0  0
  150.0656  138.3577  153.2573 H   0  0  0  0  0  0  0  0  0  0  0  0
  149.6700  140.2192  152.6786 H   0  0  0  0  0  0  0  0  0  0  0  0
  148.9248  141.2904  155.1673 H   0  0  0  0  0  0  0  0  0  0  0  0
  148.0989  139.9786  154.3410 H   0  0  0  0  0  0  0  0  0  0  0  0
  151.9454  140.6138  157.4504 H   0  0  0  0  0  0  0  0  0  0  0  0
  154.6643  134.8011  157.3796 H   0  0  0  0  0  0  0  0  0  0  0  0
  151.6694  137.0859  152.7417 H   0  0  0  0  0  0  0  0  0  0  0  0
  148.9564  136.7441  154.0176 H   0  0  0  0  0  0  0  0  0  0  0  0
  1  2  1  0  0  0  0
  1 24  1  0  0  0  0
  2  3  1  0  0  0  0
  2 25  1  0  0  0  0
  2 26  1  0  0  0  0
  3 20  1  0  0  0  0
  3 18  1  0  0  0  0
  3  4  1  0  0  0  0
  4  5  1  0  0  0  0
  5 21  1  0  0  0  0
  5  6  1  0  0  0  0
  5 16  1  0  0  0  0
  6 15  1  0  0  0  0
  6  7  1  0  0  0  0
  7  8  2  0  0  0  0
  7 27  1  0  0  0  0
  8  9  1  0  0  0  0
  9 15  2  0  0  0  0
  9 10  1  0  0  0  0
 10 11  1  0  0  0  0
 10 12  2  0  0  0  0
 12 13  1  0  0  0  0
 13 14  2  0  0  0  0
 13 28  1  0  0  0  0
 14 15  1  0  0  0  0
 16 22  1  0  0  0  0
 16 17  1  0  0  0  0
 16 18  1  0  0  0  0
 17 29  1  0  0  0  0
 18 23  1  0  0  0  0
 18 19  1  0  0  0  0
 19 30  1  0  0  0  0
M  END
> <s_m_source_file>
AV-unprocessed.smi

> <i_m_source_file_index>
48

> <i_lp_mmshare_version>
43012

> <i_f3d_flags>
0

> <s_epik_input>
W09IXVtDSDJdW0NASF0xT1tDQEhdKFtDQEhdKFtPSF0pW0NAQEhdMVtPSF0pbihbY0hdbjIpYyhjMjMpbltjSF1uYzNDbA==

> <s_epik_cmdline>
J2VwaWtfcHl0aG9uJywgJy1waCcsICc3LjAnLCAnLXRuJywgJzgnLCAnLW1hJywgJzIwMCcsICctbWV0YWxfYmluZGluZycsICctaW1hZScsICc8aW5maWxlLm1hZT4nLCAnLW9tYWUnLCAnPG91dGZpbGUubWFlPic=

> <r_lp_tautomer_probability>
1

> <r_epik_Ionization_Penalty>
3.45505e-06

> <r_epik_Ionization_Penalty_Charging>
0

> <r_epik_Ionization_Penalty_Neutral>
3.45505e-06

> <r_epik_State_Penalty>
-0

> <r_epik_Charging_Adjusted_Penalty>
0

> <i_epik_Tot_Q>
0

> <i_epik_Tot_abs_Q>
0

> <r_epik_Metal_State_Penalty>
-0

> <b_epik_Metal_Only>
0

> <s_epik_Chemistry_Notes>
This compound contains an acetal/aminal-like group ( X-CH(R)-Y where X, Y are N, S, or O) that may be acid/base labile, releasing an aldehyde.

> <s_lp_Force_Field>
OPLS_2005

> <r_lp_Energy>
32.3387

> <b_lp_Chiralities_Consistent>
1

> <s_lp_Variant>
AV-unprocessed.smi:48-10

> <Gold.Version>
5.8.1

> <Gold.Id.Protein>
6NUR|6NUR_protein|mol2

> <Gold.PLP.Fitness>
49.2636

> <Gold.PLP.PLP>
-28.0317

> <Gold.PLP.part.hbond>
-8.3628

> <Gold.PLP.part.metal>
0.0000

> <Gold.PLP.part.buried>
-0.6586

> <Gold.PLP.part.nonpolar>
-19.7753

> <Gold.PLP.part.repulsive>
0.0302

> <Gold.PLP.ligand.clash>
0.0000

> <Gold.PLP.ligand.torsion>
0.5040

> <Gold.PLP.Chemscore.Hbond>
7.4054

> <Gold.PLP.Chemscore.CHOScore>
0.0000

> <Gold.PLP.Chemscore.Metal>
0.0000

> <Gold.Chemscore.Hbonds>
donor molecule, donor type, donor heavy atom, donor atom, acceptor molecule, acceptor atom, score
      L1  H     1    24       P1  7957  0.73
      L1  H    17    29       P1  7949  1.00
      L1  H    19    30       P1  7948  0.57
      P1  H  7989  7998       L1     4  1.00
      P1  H  8011  8017       L1     1  1.00
      P1  H 10752 10763       L1    17  0.90
      P1  H 10752 10764       L1    14  0.96

> <Gold.PLP.Chemscore.Internal.Correction>
0.0238

> <Gold.Rescore>
     Score         DG    S(hbond)    S(metal)    S(lipo)     H(rot)  DE(clash)    DE(int)     intcor
     16.62     -17.23       4.88        0.00      44.41       3.80       0.20       0.42       ----

> <Gold.Chemscore.Fitness>
16.6185

> <Gold.Chemscore.DG>
-17.2349

> <Gold.Chemscore.ZeroCoef>
-5.4800

> <Gold.Chemscore.Hbond>
4.8778

> <Gold.Chemscore.Metal>
0.0000

> <Gold.Chemscore.Lipo>
44.4053

> <Gold.Chemscore.Internal_Hbond>
0.0000

> <Gold.Chemscore.DEClash>
0.2004

> <Gold.Chemscore.DEInternal>
0.4160

> <Gold.Chemscore.Rot>
3.8017

> <Gold.Chemscore.Internal.Correction>
   9.000000E+99

> <Gold.Chemscore.Hbonds>
donor molecule, donor type, donor heavy atom, donor atom, acceptor molecule, acceptor atom, score
      L1  H     1    24       P1  7957  0.66
      L1  H    17    29       P1  7949  0.94
      L1  H    19    30       P1  7948  0.54
      P1  H  7989  7998       L1     4  0.38
      P1  H  8011  8017       L1     1  0.50
      P1  H 10752 10763       L1    17  0.05
      P1  H 10752 10764       L1    14  0.24

> <Gold.Chemscore.Hbond.Weighted>
-16.2919

> <Gold.Chemscore.Metal.Weighted>
-0.0000

> <Gold.Chemscore.Lipo.Weighted>
-5.1954

> <Gold.Chemscore.Internal_Hbond.Weighted>
0.0000

> <Gold.Chemscore.DEClash.Weighted>
0.2004

> <Gold.Chemscore.DEInternal.Weighted>
0.4160

> <Gold.Chemscore.Rot.Weighted>
9.7324

> <Gold.Chemscore.Internal.Correction.Weighted>
   9.000000E+99

> <Gold.Protein.RotatedTorsions>
[ 6907 6896 6895 6894 ] final -163.18 input  -60.11 | X-H torsion
[ 7974 7965 7964 7962 ] final  -32.19 input  175.53 | X-H torsion
[ 8008 7997 7996 7995 ] final   -7.09 input   59.86 | X-H torsion
[ 10167 10162 10161 10158 ] final   -2.69 input  -65.29 | X-H torsion
[ 10718 10713 10712 10709 ] final  -86.01 input   66.30 | X-H torsion
[ 10763 10752 10751 10750 ] final    8.29 input  -60.55 | X-H torsion
[ 11005 11000 10999 10996 ] final   44.06 input  -57.11 | X-H torsion

> <Gold.Protein.ActiveResidues>
 VAL166  LYS551  ARG553  GLY616  TRP617  ASP618  TYR619  PRO620  LYS621  CYS622 
 ASP623  PHE694  ASN695  SER759  ASP760  ASP761  ALA762  ILE779  LEU786  VAL792 
 PHE793  MET794  SER795  GLU796  ALA797  LYS798  CYS799  TRP800  GLU811  SER814 

> <Gold.Protein.RotatedAtoms>
  151.3919  133.3786  159.2721 H   0  0  0  0  0  0  0  0  0  0  0  0  # atno 6907 bound_to 6896
  150.9498  134.8900  159.7675 H   0  0  0  0  0  0  0  0  0  0  0  0  # atno 6908 bound_to 6896
  152.5107  134.3874  159.9424 H   0  0  0  0  0  0  0  0  0  0  0  0  # atno 6909 bound_to 6896
  146.1009  140.5762  142.8821 H   0  0  0  0  0  0  0  0  0  0  0  0  # atno 7974 bound_to 7965
  154.5873  140.2416  155.7970 H   0  0  0  0  0  0  0  0  0  0  0  0  # atno 8008 bound_to 7997
  156.2222  140.2994  155.9935 H   0  0  0  0  0  0  0  0  0  0  0  0  # atno 8009 bound_to 7997
  155.2436  140.0408  157.2968 H   0  0  0  0  0  0  0  0  0  0  0  0  # atno 8010 bound_to 7997
  140.6861  143.6628  150.8252 H   0  0  0  0  0  0  0  0  0  0  0  0  # atno 10167 bound_to 10162
  155.9992  130.4750  150.4650 H   0  0  0  0  0  0  0  0  0  0  0  0  # atno 10718 bound_to 10713
  153.2267  135.6888  153.7937 H   0  0  0  0  0  0  0  0  0  0  0  0  # atno 10763 bound_to 10752
  153.7116  135.3281  155.3248 H   0  0  0  0  0  0  0  0  0  0  0  0  # atno 10764 bound_to 10752
  154.8295  135.4592  154.1136 H   0  0  0  0  0  0  0  0  0  0  0  0  # atno 10765 bound_to 10752
  140.1587  134.4369  155.8332 H   0  0  0  0  0  0  0  0  0  0  0  0  # atno 11005 bound_to 11000
  144.7432  140.4998  143.6854 LP  0  0  0  0  0  0  0  0  0  0  0  0  # atno 17320 bound_to 7965
  145.5856  139.1492  143.3211 LP  0  0  0  0  0  0  0  0  0  0  0  0  # atno 17321 bound_to 7965
  140.0335  143.5419  152.2750 LP  0  0  0  0  0  0  0  0  0  0  0  0  # atno 17342 bound_to 10162
  139.6221  144.7631  151.2718 LP  0  0  0  0  0  0  0  0  0  0  0  0  # atno 17343 bound_to 10162
  157.2670  131.0579  151.2284 LP  0  0  0  0  0  0  0  0  0  0  0  0  # atno 17370 bound_to 10713
  157.3378  130.7018  149.6363 LP  0  0  0  0  0  0  0  0  0  0  0  0  # atno 17371 bound_to 10713
  141.2207  133.6904  156.7554 LP  0  0  0  0  0  0  0  0  0  0  0  0  # atno 17394 bound_to 11000
  140.2516  134.8536  157.3673 LP  0  0  0  0  0  0  0  0  0  0  0  0  # atno 17395 bound_to 11000

$$$$
