AV-unprocessed.smi:3189|AV-procd|sdf|12188|dock5
  -GOLD-   2272018 33D 1   1.00000     0.00000
 Structure written by MMmdl.
 30 31  0  0  0  0  0  0  0  0  1 V2000
  152.3317  144.1539  161.4529 C   0  0  0  0  0  0  0  0  0  0  0  0
  152.2780  143.1710  160.2981 C   0  0  0  0  0  0  0  0  0  0  0  0
  153.1325  142.1274  160.3781 N   0  0  0  0  0  0  0  0  0  0  0  0
  153.1304  141.2270  159.3739 C   0  0  0  0  0  0  0  0  0  0  0  0
  152.2813  141.3170  158.2544 C   0  0  0  0  0  0  0  0  0  0  0  0
  151.3740  142.4003  158.1754 C   0  0  0  0  0  0  0  0  0  0  0  0
  150.4881  142.6000  157.0812 N   0  0  0  0  0  0  0  0  0  0  0  0
  150.1606  141.7477  156.0902 C   0  0  0  0  0  0  0  0  0  0  0  0
  150.5678  140.5915  155.9972 O   0  0  0  0  0  0  0  0  0  0  0  0
  149.2660  142.2421  155.2168 N   0  0  0  0  0  0  0  0  0  0  0  0
  148.7213  141.5879  154.0644 C   0  0  1  0  0  0  0  0  0  0  0  0
  147.8144  140.4022  154.3109 C   0  0  0  0  0  0  0  0  0  0  0  0
  147.2340  141.6888  153.7836 C   0  0  1  0  0  0  0  0  0  0  0  0
  146.3106  142.5327  154.6401 C   0  0  0  0  0  0  0  0  0  0  0  0
  151.3837  143.3565  159.2178 C   0  0  0  0  0  0  0  0  0  0  0  0
  150.3178  144.7215  159.1765 Cl  0  0  0  0  0  0  0  0  0  0  0  0
  151.3632  144.2056  161.9511 H   0  0  0  0  0  0  0  0  0  0  0  0
  152.5877  145.1504  161.0915 H   0  0  0  0  0  0  0  0  0  0  0  0
  153.0771  143.8624  162.1941 H   0  0  0  0  0  0  0  0  0  0  0  0
  153.8333  140.4118  159.4614 H   0  0  0  0  0  0  0  0  0  0  0  0
  152.3513  140.5684  157.4805 H   0  0  0  0  0  0  0  0  0  0  0  0
  149.9875  143.4768  157.0890 H   0  0  0  0  0  0  0  0  0  0  0  0
  148.8585  143.1370  155.4468 H   0  0  0  0  0  0  0  0  0  0  0  0
  149.3750  141.4876  153.1991 H   0  0  0  0  0  0  0  0  0  0  0  0
  147.8841  139.5644  153.6200 H   0  0  0  0  0  0  0  0  0  0  0  0
  147.5967  140.1339  155.3432 H   0  0  0  0  0  0  0  0  0  0  0  0
  146.9619  141.6929  152.7299 H   0  0  0  0  0  0  0  0  0  0  0  0
  146.5556  142.4354  155.6982 H   0  0  0  0  0  0  0  0  0  0  0  0
  145.2772  142.2167  154.4970 H   0  0  0  0  0  0  0  0  0  0  0  0
  146.3954  143.5823  154.3578 H   0  0  0  0  0  0  0  0  0  0  0  0
  1  2  1  0  0  0  0
  1 17  1  0  0  0  0
  1 18  1  0  0  0  0
  1 19  1  0  0  0  0
  2 15  1  0  0  0  0
  2  3  2  0  0  0  0
  3  4  1  0  0  0  0
  4  5  2  0  0  0  0
  4 20  1  0  0  0  0
  5  6  1  0  0  0  0
  5 21  1  0  0  0  0
  6  7  1  0  0  0  0
  6 15  2  0  0  0  0
  7  8  1  0  0  0  0
  7 22  1  0  0  0  0
  8  9  2  0  0  0  0
  8 10  1  0  0  0  0
 10 11  1  0  0  0  0
 10 23  1  0  0  0  0
 11 13  1  0  0  0  0
 11 12  1  0  0  0  0
 11 24  1  0  0  0  0
 12 13  1  0  0  0  0
 12 25  1  0  0  0  0
 12 26  1  0  0  0  0
 13 14  1  0  0  0  0
 13 27  1  0  0  0  0
 14 28  1  0  0  0  0
 14 29  1  0  0  0  0
 14 30  1  0  0  0  0
 15 16  1  0  0  0  0
M  END
> <s_m_source_file>
AV-unprocessed.smi

> <i_m_source_file_index>
3189

> <i_lp_mmshare_version>
43012

> <i_f3d_flags>
0

> <s_epik_input>
W0NIM11jMW5bY0hdW2NIXWMoYzFDbClbTkhdQyg9TylbTkhdW0NAQEhdMltDSDJdW0NASF0yW0NIM10=

> <s_epik_cmdline>
J2VwaWtfcHl0aG9uJywgJy1waCcsICc3LjAnLCAnLXRuJywgJzgnLCAnLW1hJywgJzIwMCcsICctbWV0YWxfYmluZGluZycsICctaW1hZScsICc8aW5maWxlLm1hZT4nLCAnLW9tYWUnLCAnPG91dGZpbGUubWFlPic=

> <r_epik_Ionization_Penalty>
0.00994309

> <r_epik_Ionization_Penalty_Charging>
0

> <r_epik_Ionization_Penalty_Neutral>
0.00994309

> <r_epik_State_Penalty>
0.00754503

> <r_epik_Charging_Adjusted_Penalty>
0.00754503

> <i_epik_Tot_Q>
0

> <i_epik_Tot_abs_Q>
0

> <r_epik_Metal_State_Penalty>
0.00742071

> <b_epik_Metal_Only>
0

> <s_lp_Force_Field>
OPLS_2005

> <r_lp_Energy>
34.6575

> <b_lp_Chiralities_Consistent>
1

> <s_lp_Variant>
AV-unprocessed.smi:3189-2

> <Gold.Version>
5.8.1

> <Gold.Id.Protein>
6NUR|6NUR_protein|mol2

> <Gold.PLP.Fitness>
39.3133

> <Gold.PLP.PLP>
-35.2530

> <Gold.PLP.part.hbond>
-2.0000

> <Gold.PLP.part.metal>
0.0000

> <Gold.PLP.part.buried>
-5.3008

> <Gold.PLP.part.nonpolar>
-28.1699

> <Gold.PLP.part.repulsive>
0.2415

> <Gold.PLP.ligand.clash>
0.0000

> <Gold.PLP.ligand.torsion>
0.1633

> <Gold.PLP.Chemscore.Hbond>
1.4493

> <Gold.PLP.Chemscore.CHOScore>
0.0000

> <Gold.PLP.Chemscore.Metal>
0.0000

> <Gold.Chemscore.Hbonds>
donor molecule, donor type, donor heavy atom, donor atom, acceptor molecule, acceptor atom, score
      L1  H     7    22       P1  8028  0.47
      L1  H    10    23       P1  8028  1.00

> <Gold.PLP.Chemscore.Internal.Correction>
0.0390

> <Gold.Rescore>
     Score         DG    S(hbond)    S(metal)    S(lipo)     H(rot)  DE(clash)    DE(int)     intcor
     18.24     -19.92       1.76        0.00      95.08       1.00       0.30       1.38       ----

> <Gold.Chemscore.Fitness>
18.2416

> <Gold.Chemscore.DG>
-19.9199

> <Gold.Chemscore.ZeroCoef>
-5.4800

> <Gold.Chemscore.Hbond>
1.7591

> <Gold.Chemscore.Metal>
0.0000

> <Gold.Chemscore.Lipo>
95.0802

> <Gold.Chemscore.Internal_Hbond>
0.0000

> <Gold.Chemscore.DEClash>
0.3000

> <Gold.Chemscore.DEInternal>
1.3784

> <Gold.Chemscore.Rot>
1.0000

> <Gold.Chemscore.Internal.Correction>
   9.000000E+99

> <Gold.Chemscore.Hbonds>
donor molecule, donor type, donor heavy atom, donor atom, acceptor molecule, acceptor atom, score
      L1  H     7    22       P1  8028  0.47
      L1  H    10    23       P1  8028  0.96

> <Gold.Chemscore.Hbond.Weighted>
-5.8755

> <Gold.Chemscore.Metal.Weighted>
-0.0000

> <Gold.Chemscore.Lipo.Weighted>
-11.1244

> <Gold.Chemscore.Internal_Hbond.Weighted>
0.0000

> <Gold.Chemscore.DEClash.Weighted>
0.3000

> <Gold.Chemscore.DEInternal.Weighted>
1.3784

> <Gold.Chemscore.Rot.Weighted>
2.5600

> <Gold.Chemscore.Internal.Correction.Weighted>
   9.000000E+99

> <Gold.Protein.RotatedTorsions>
[ 6907 6896 6895 6894 ] final -136.98 input  -60.11 | X-H torsion
[ 7974 7965 7964 7962 ] final -127.04 input  175.53 | X-H torsion
[ 8008 7997 7996 7995 ] final -112.00 input   59.86 | X-H torsion
[ 10167 10162 10161 10158 ] final   84.85 input  -65.29 | X-H torsion
[ 10718 10713 10712 10709 ] final  -35.71 input   66.30 | X-H torsion
[ 10763 10752 10751 10750 ] final -131.39 input  -60.55 | X-H torsion
[ 11005 11000 10999 10996 ] final  101.68 input  -57.11 | X-H torsion

> <Gold.Protein.ActiveResidues>
 VAL166  LYS551  ARG553  GLY616  TRP617  ASP618  TYR619  PRO620  LYS621  CYS622 
 ASP623  PHE694  ASN695  SER759  ASP760  ASP761  ALA762  ILE779  LEU786  VAL792 
 PHE793  MET794  SER795  GLU796  ALA797  LYS798  CYS799  TRP800  GLU811  SER814 

> <Gold.Protein.RotatedAtoms>
  151.0168  133.5914  159.2675 H   0  0  0  0  0  0  0  0  0  0  0  0  # atno 6907 bound_to 6896
  151.3045  135.0777  159.9260 H   0  0  0  0  0  0  0  0  0  0  0  0  # atno 6908 bound_to 6896
  152.5313  133.9843  159.7875 H   0  0  0  0  0  0  0  0  0  0  0  0  # atno 6909 bound_to 6896
  144.9811  140.7641  143.4611 H   0  0  0  0  0  0  0  0  0  0  0  0  # atno 7974 bound_to 7965
  154.9985  140.0394  157.2350 H   0  0  0  0  0  0  0  0  0  0  0  0  # atno 8008 bound_to 7997
  154.7565  140.2776  155.6227 H   0  0  0  0  0  0  0  0  0  0  0  0  # atno 8009 bound_to 7997
  156.2895  140.2637  156.2332 H   0  0  0  0  0  0  0  0  0  0  0  0  # atno 8010 bound_to 7997
  139.9038  144.6313  150.8609 H   0  0  0  0  0  0  0  0  0  0  0  0  # atno 10167 bound_to 10162
  156.3355  130.4285  149.7834 H   0  0  0  0  0  0  0  0  0  0  0  0  # atno 10718 bound_to 10713
  154.8751  135.3831  154.4239 H   0  0  0  0  0  0  0  0  0  0  0  0  # atno 10763 bound_to 10752
  153.4940  135.7030  153.5874 H   0  0  0  0  0  0  0  0  0  0  0  0  # atno 10764 bound_to 10752
  153.4235  135.3896  155.2093 H   0  0  0  0  0  0  0  0  0  0  0  0  # atno 10765 bound_to 10752
  139.8774  134.9193  156.4943 H   0  0  0  0  0  0  0  0  0  0  0  0  # atno 11005 bound_to 11000
  145.2419  139.2068  143.4988 LP  0  0  0  0  0  0  0  0  0  0  0  0  # atno 17320 bound_to 7965
  146.3408  140.2316  142.8593 LP  0  0  0  0  0  0  0  0  0  0  0  0  # atno 17321 bound_to 7965
  140.7701  143.3417  151.2195 LP  0  0  0  0  0  0  0  0  0  0  0  0  # atno 17342 bound_to 10162
  139.7002  143.9546  152.2902 LP  0  0  0  0  0  0  0  0  0  0  0  0  # atno 17343 bound_to 10162
  156.5091  130.8163  151.3162 LP  0  0  0  0  0  0  0  0  0  0  0  0  # atno 17370 bound_to 10713
  157.7438  130.9920  150.2620 LP  0  0  0  0  0  0  0  0  0  0  0  0  # atno 17371 bound_to 10713
  140.8636  133.8041  155.9290 LP  0  0  0  0  0  0  0  0  0  0  0  0  # atno 17394 bound_to 11000
  140.9025  134.2361  157.5033 LP  0  0  0  0  0  0  0  0  0  0  0  0  # atno 17395 bound_to 11000

$$$$
