AV-unprocessed.smi:1484|AV-procd|sdf|5997|dock1
  -GOLD-   22720 6 93D 1   1.00000     0.00000
 Structure written by MMmdl.
 38 39  0  0  0  0  0  0  0  0  1 V2000
  151.5797  145.2528  159.5002 C   0  0  0  0  0  0  0  0  0  0  0  0
  152.1594  143.8756  159.8518 C   0  0  2  0  0  0  0  0  0  0  0  0
  152.6575  143.8294  161.3089 C   0  0  0  0  0  0  0  0  0  0  0  0
  153.2419  142.4530  161.6634 C   0  0  0  0  0  0  0  0  0  0  0  0
  154.3660  142.0536  160.6916 C   0  0  0  0  0  0  0  0  0  0  0  0
  153.9076  142.1023  159.2214 C   0  0  1  0  0  0  0  0  0  0  0  0
  152.9706  141.0138  158.9484 N   0  0  0  0  0  0  0  0  0  0  0  0
  152.4027  140.7515  157.7617 C   0  0  0  0  0  0  0  0  0  0  0  0
  152.6125  141.4224  156.7501 O   0  0  0  0  0  0  0  0  0  0  0  0
  151.4355  139.5590  157.7329 C   0  0  0  0  0  0  0  0  0  0  0  0
  150.7451  139.3943  156.4458 N   0  0  0  0  0  0  0  0  0  0  0  0
  150.8938  138.1368  155.8806 N   0  0  0  0  0  0  0  0  0  0  0  0
  150.3226  137.8634  154.7566 C   0  0  0  0  0  0  0  0  0  0  0  0
  150.4932  136.6050  154.2338 O   0  0  0  0  0  0  0  0  0  0  0  0
  149.5255  138.8509  154.0625 C   0  0  0  0  0  0  0  0  0  0  0  0
  149.3904  140.0745  154.6187 C   0  0  0  0  0  0  0  0  0  0  0  0
  150.0238  140.4176  155.8934 C   0  0  0  0  0  0  0  0  0  0  0  0
  149.9173  141.5237  156.4226 O   0  0  0  0  0  0  0  0  0  0  0  0
  153.2920  143.4778  158.8822 C   0  0  0  0  0  0  0  0  0  0  0  0
  150.0127  136.6030  153.4204 H   0  0  0  0  0  0  0  0  0  0  0  0
  152.3346  146.0350  159.5868 H   0  0  0  0  0  0  0  0  0  0  0  0
  150.7534  145.5120  160.1628 H   0  0  0  0  0  0  0  0  0  0  0  0
  151.1993  145.2687  158.4784 H   0  0  0  0  0  0  0  0  0  0  0  0
  151.3522  143.1490  159.7481 H   0  0  0  0  0  0  0  0  0  0  0  0
  153.4177  144.5965  161.4636 H   0  0  0  0  0  0  0  0  0  0  0  0
  151.8395  144.0645  161.9909 H   0  0  0  0  0  0  0  0  0  0  0  0
  153.6237  142.4656  162.6846 H   0  0  0  0  0  0  0  0  0  0  0  0
  152.4500  141.7033  161.6418 H   0  0  0  0  0  0  0  0  0  0  0  0
  155.2077  142.7346  160.8250 H   0  0  0  0  0  0  0  0  0  0  0  0
  154.7398  141.0592  160.9385 H   0  0  0  0  0  0  0  0  0  0  0  0
  154.7885  141.9523  158.5945 H   0  0  0  0  0  0  0  0  0  0  0  0
  152.7356  140.4141  159.7261 H   0  0  0  0  0  0  0  0  0  0  0  0
  151.9781  138.6457  157.9842 H   0  0  0  0  0  0  0  0  0  0  0  0
  150.7078  139.6957  158.5350 H   0  0  0  0  0  0  0  0  0  0  0  0
  149.0533  138.6075  153.1221 H   0  0  0  0  0  0  0  0  0  0  0  0
  148.7981  140.8217  154.1117 H   0  0  0  0  0  0  0  0  0  0  0  0
  152.9253  143.4831  157.8549 H   0  0  0  0  0  0  0  0  0  0  0  0
  154.0779  144.2335  158.9216 H   0  0  0  0  0  0  0  0  0  0  0  0
  1  2  1  0  0  0  0
  1 21  1  0  0  0  0
  1 22  1  0  0  0  0
  1 23  1  0  0  0  0
  2 19  1  0  0  0  0
  2  3  1  0  0  0  0
  2 24  1  0  0  0  0
  3  4  1  0  0  0  0
  3 25  1  0  0  0  0
  3 26  1  0  0  0  0
  4  5  1  0  0  0  0
  4 27  1  0  0  0  0
  4 28  1  0  0  0  0
  5  6  1  0  0  0  0
  5 29  1  0  0  0  0
  5 30  1  0  0  0  0
  6  7  1  0  0  0  0
  6 19  1  0  0  0  0
  6 31  1  0  0  0  0
  7  8  1  0  0  0  0
  7 32  1  0  0  0  0
  8  9  2  0  0  0  0
  8 10  1  0  0  0  0
 10 33  1  0  0  0  0
 10 34  1  0  0  0  0
 10 11  1  0  0  0  0
 11 12  1  0  0  0  0
 11 17  1  0  0  0  0
 12 13  2  0  0  0  0
 13 14  1  0  0  0  0
 13 15  1  0  0  0  0
 14 20  1  0  0  0  0
 15 35  1  0  0  0  0
 15 16  2  0  0  0  0
 16 36  1  0  0  0  0
 16 17  1  0  0  0  0
 17 18  2  0  0  0  0
 19 37  1  0  0  0  0
 19 38  1  0  0  0  0
M  END
> <s_m_source_file>
AV-unprocessed.smi

> <i_m_source_file_index>
1484

> <i_lp_mmshare_version>
43012

> <i_f3d_flags>
0

> <s_epik_input>
W0NIM11bQ0BASF0xW0NIMl1bQ0gyXVtDSDJdW0NASF0oW0NIMl0xKVtOSF1DKD1PKVtDSDJdbjJbbkhdYyg9TylbY0hdW2NIXWMyPU8=

> <s_epik_cmdline>
J2VwaWtfcHl0aG9uJywgJy1waCcsICc3LjAnLCAnLXRuJywgJzgnLCAnLW1hJywgJzIwMCcsICctbWV0YWxfYmluZGluZycsICctaW1hZScsICc8aW5maWxlLm1hZT4nLCAnLW9tYWUnLCAnPG91dGZpbGUubWFlPic=

> <r_lp_tautomer_probability>
0.9996

> <r_epik_Ionization_Penalty>
2.10343

> <r_epik_Ionization_Penalty_Charging>
3.97871e-08

> <r_epik_Ionization_Penalty_Neutral>
2.10343

> <r_epik_State_Penalty>
1.67966

> <r_epik_Charging_Adjusted_Penalty>
1.67966

> <i_epik_Tot_Q>
0

> <i_epik_Tot_abs_Q>
0

> <r_epik_Metal_State_Penalty>
1.67966

> <b_epik_Metal_Only>
0

> <s_lp_Force_Field>
OPLS_2005

> <r_lp_Energy>
17.3635

> <b_lp_Chiralities_Consistent>
1

> <s_lp_Variant>
AV-unprocessed.smi:1484-5

> <Gold.Version>
5.8.1

> <Gold.Id.Protein>
6NUR|6NUR_protein|mol2

> <Gold.PLP.Fitness>
41.7903

> <Gold.PLP.PLP>
-36.9379

> <Gold.PLP.part.hbond>
-2.0000

> <Gold.PLP.part.metal>
0.0000

> <Gold.PLP.part.buried>
0.7360

> <Gold.PLP.part.nonpolar>
-35.2622

> <Gold.PLP.part.repulsive>
0.2224

> <Gold.PLP.ligand.clash>
0.0000

> <Gold.PLP.ligand.torsion>
0.0529

> <Gold.PLP.Chemscore.Hbond>
1.6503

> <Gold.PLP.Chemscore.CHOScore>
0.0000

> <Gold.PLP.Chemscore.Metal>
0.0000

> <Gold.Chemscore.Hbonds>
donor molecule, donor type, donor heavy atom, donor atom, acceptor molecule, acceptor atom, score
      L1  H    14    20       P1  7948  0.80
      P1  H  7997  8010       L1     9  0.05

> <Gold.PLP.Chemscore.Internal.Correction>
0.0075

> <Gold.Rescore>
     Score         DG    S(hbond)    S(metal)    S(lipo)     H(rot)  DE(clash)    DE(int)     intcor
     15.30     -16.80       1.69        0.00      97.63       2.24       0.68       0.81       ----

> <Gold.Chemscore.Fitness>
15.3041

> <Gold.Chemscore.DG>
-16.7991

> <Gold.Chemscore.ZeroCoef>
-5.4800

> <Gold.Chemscore.Hbond>
1.6875

> <Gold.Chemscore.Metal>
0.0000

> <Gold.Chemscore.Lipo>
97.6299

> <Gold.Chemscore.Internal_Hbond>
0.0000

> <Gold.Chemscore.DEClash>
0.6836

> <Gold.Chemscore.DEInternal>
0.8114

> <Gold.Chemscore.Rot>
2.2421

> <Gold.Chemscore.Internal.Correction>
   9.000000E+99

> <Gold.Chemscore.Hbonds>
donor molecule, donor type, donor heavy atom, donor atom, acceptor molecule, acceptor atom, score
      L1  H    14    20       P1  7948  0.12

> <Gold.Chemscore.Hbond.Weighted>
-5.6362

> <Gold.Chemscore.Metal.Weighted>
-0.0000

> <Gold.Chemscore.Lipo.Weighted>
-11.4227

> <Gold.Chemscore.Internal_Hbond.Weighted>
0.0000

> <Gold.Chemscore.DEClash.Weighted>
0.6836

> <Gold.Chemscore.DEInternal.Weighted>
0.8114

> <Gold.Chemscore.Rot.Weighted>
5.7398

> <Gold.Chemscore.Internal.Correction.Weighted>
   9.000000E+99

> <Gold.Protein.RotatedTorsions>
[ 6907 6896 6895 6894 ] final   54.56 input  -60.11 | X-H torsion
[ 7974 7965 7964 7962 ] final  112.25 input  175.53 | X-H torsion
[ 8008 7997 7996 7995 ] final   63.95 input   59.86 | X-H torsion
[ 10167 10162 10161 10158 ] final  -65.95 input  -65.29 | X-H torsion
[ 10718 10713 10712 10709 ] final -166.97 input   66.30 | X-H torsion
[ 10763 10752 10751 10750 ] final  153.53 input  -60.55 | X-H torsion
[ 11005 11000 10999 10996 ] final   93.77 input  -57.11 | X-H torsion

> <Gold.Protein.ActiveResidues>
 VAL166  LYS551  ARG553  GLY616  TRP617  ASP618  TYR619  PRO620  LYS621  CYS622 
 ASP623  PHE694  ASN695  SER759  ASP760  ASP761  ALA762  ILE779  LEU786  VAL792 
 PHE793  MET794  SER795  GLU796  ALA797  LYS798  CYS799  TRP800  GLU811  SER814 

> <Gold.Protein.RotatedAtoms>
  152.3451  134.7083  160.0252 H   0  0  0  0  0  0  0  0  0  0  0  0  # atno 6907 bound_to 6896
  151.7455  133.3319  159.3385 H   0  0  0  0  0  0  0  0  0  0  0  0  # atno 6908 bound_to 6896
  150.7504  134.6172  159.6162 H   0  0  0  0  0  0  0  0  0  0  0  0  # atno 6909 bound_to 6896
  145.2320  139.2815  143.4163 H   0  0  0  0  0  0  0  0  0  0  0  0  # atno 7974 bound_to 7965
  155.6384  140.3496  155.4706 H   0  0  0  0  0  0  0  0  0  0  0  0  # atno 8008 bound_to 7997
  155.9946  140.1200  157.0629 H   0  0  0  0  0  0  0  0  0  0  0  0  # atno 8009 bound_to 7997
  154.4229  140.1112  156.5599 H   0  0  0  0  0  0  0  0  0  0  0  0  # atno 8010 bound_to 7997
  140.5693  143.2316  151.6572 H   0  0  0  0  0  0  0  0  0  0  0  0  # atno 10167 bound_to 10162
  156.6756  130.9101  151.3050 H   0  0  0  0  0  0  0  0  0  0  0  0  # atno 10718 bound_to 10713
  154.1376  135.2823  155.3169 H   0  0  0  0  0  0  0  0  0  0  0  0  # atno 10763 bound_to 10752
  154.6310  135.5435  153.7684 H   0  0  0  0  0  0  0  0  0  0  0  0  # atno 10764 bound_to 10752
  153.0261  135.6462  154.1524 H   0  0  0  0  0  0  0  0  0  0  0  0  # atno 10765 bound_to 10752
  139.8806  134.8808  156.3767 H   0  0  0  0  0  0  0  0  0  0  0  0  # atno 11005 bound_to 11000
  146.3350  140.2657  142.8604 LP  0  0  0  0  0  0  0  0  0  0  0  0  # atno 17320 bound_to 7965
  144.9668  140.8329  143.5480 LP  0  0  0  0  0  0  0  0  0  0  0  0  # atno 17321 bound_to 7965
  139.5109  144.3528  152.0636 LP  0  0  0  0  0  0  0  0  0  0  0  0  # atno 17342 bound_to 10162
  140.2663  144.4012  150.6167 LP  0  0  0  0  0  0  0  0  0  0  0  0  # atno 17343 bound_to 10162
  157.7062  130.9387  150.0938 LP  0  0  0  0  0  0  0  0  0  0  0  0  # atno 17370 bound_to 10713
  156.1906  130.3654  149.8915 LP  0  0  0  0  0  0  0  0  0  0  0  0  # atno 17371 bound_to 10713
  140.9427  133.7504  156.0167 LP  0  0  0  0  0  0  0  0  0  0  0  0  # atno 17394 bound_to 11000
  140.8200  134.3300  157.5384 LP  0  0  0  0  0  0  0  0  0  0  0  0  # atno 17395 bound_to 11000

$$$$
