AV-unprocessed.smi:1913|AV-procd|sdf|7755|dock1
  -GOLD-   22720 9493D 1   1.00000     0.00000
 Structure written by MMmdl.
 41 43  0  0  0  0  0  0  0  0  2 V2000
  151.5467  145.6496  160.2853 C   0  0  0  0  0  0  0  0  0  0  0  0
  151.0658  144.6065  159.4501 O   0  0  0  0  0  0  0  0  0  0  0  0
  151.8079  143.4480  159.3668 C   0  0  0  0  0  0  0  0  0  0  0  0
  152.9762  143.1946  160.1230 C   0  0  0  0  0  0  0  0  0  0  0  0
  153.6785  141.9856  159.9671 C   0  0  0  0  0  0  0  0  0  0  0  0
  153.2313  140.9979  159.0554 C   0  0  0  0  0  0  0  0  0  0  0  0
  153.8927  139.8038  158.8499 O   0  0  0  0  0  0  0  0  0  0  0  0
  155.0335  139.5145  159.6435 C   0  0  0  0  0  0  0  0  0  0  0  0
  152.0541  141.2433  158.3058 C   0  0  0  0  0  0  0  0  0  0  0  0
  151.5493  140.2139  157.2951 C   0  0  1  0  0  0  0  0  0  0  0  0
  150.3885  139.5414  157.7390 O   0  0  0  0  0  0  0  0  0  0  0  0
  151.2345  140.8477  155.9237 C   0  0  0  0  0  0  0  0  0  0  0  0
  150.4686  139.9541  155.0449 N   0  0  0  0  0  0  0  0  0  0  0  0
  150.7707  138.7068  154.5931 C   0  0  0  0  0  0  0  0  0  0  0  0
  149.7238  138.2799  153.8339 N   0  3  0  0  0  0  0  0  0  0  0  0
  148.7403  139.2709  153.7972 C   0  0  0  0  0  0  0  0  0  0  0  0
  147.5002  139.3015  153.1674 C   0  0  0  0  0  0  0  0  0  0  0  0
  146.7336  140.4733  153.3367 C   0  0  0  0  0  0  0  0  0  0  0  0
  147.2073  141.5573  154.1046 C   0  0  0  0  0  0  0  0  0  0  0  0
  148.4674  141.5162  154.7366 C   0  0  0  0  0  0  0  0  0  0  0  0
  149.2163  140.3528  154.5674 C   0  0  0  0  0  0  0  0  0  0  0  0
  151.3618  142.4642  158.4642 C   0  0  0  0  0  0  0  0  0  0  0  0
  150.8564  146.4919  160.2423 H   0  0  0  0  0  0  0  0  0  0  0  0
  152.5231  146.0071  159.9553 H   0  0  0  0  0  0  0  0  0  0  0  0
  151.6116  145.3295  161.3261 H   0  0  0  0  0  0  0  0  0  0  0  0
  153.3588  143.9150  160.8297 H   0  0  0  0  0  0  0  0  0  0  0  0
  154.5657  141.8410  160.5643 H   0  0  0  0  0  0  0  0  0  0  0  0
  155.4758  138.5779  159.3044 H   0  0  0  0  0  0  0  0  0  0  0  0
  154.7684  139.3941  160.6946 H   0  0  0  0  0  0  0  0  0  0  0  0
  155.7939  140.2906  159.5464 H   0  0  0  0  0  0  0  0  0  0  0  0
  152.3000  139.4348  157.1681 H   0  0  0  0  0  0  0  0  0  0  0  0
  150.0308  140.0145  158.4750 H   0  0  0  0  0  0  0  0  0  0  0  0
  150.6723  141.7754  156.0391 H   0  0  0  0  0  0  0  0  0  0  0  0
  152.1582  141.1045  155.4028 H   0  0  0  0  0  0  0  0  0  0  0  0
  151.6712  138.1504  154.8108 H   0  0  0  0  0  0  0  0  0  0  0  0
  147.1346  138.4729  152.5787 H   0  0  0  0  0  0  0  0  0  0  0  0
  145.7627  140.5420  152.8679 H   0  0  0  0  0  0  0  0  0  0  0  0
  146.5912  142.4383  154.2117 H   0  0  0  0  0  0  0  0  0  0  0  0
  148.8219  142.3496  155.3250 H   0  0  0  0  0  0  0  0  0  0  0  0
  150.4741  142.6579  157.8796 H   0  0  0  0  0  0  0  0  0  0  0  0
  149.6851  137.3770  153.3787 H   0  0  0  0  0  0  0  0  0  0  0  0
  1  2  1  0  0  0  0
  1 23  1  0  0  0  0
  1 24  1  0  0  0  0
  1 25  1  0  0  0  0
  2  3  1  0  0  0  0
  3 22  1  0  0  0  0
  3  4  2  0  0  0  0
  4  5  1  0  0  0  0
  4 26  1  0  0  0  0
  5  6  2  0  0  0  0
  5 27  1  0  0  0  0
  6  7  1  0  0  0  0
  6  9  1  0  0  0  0
  7  8  1  0  0  0  0
  8 28  1  0  0  0  0
  8 29  1  0  0  0  0
  8 30  1  0  0  0  0
  9 10  1  0  0  0  0
  9 22  2  0  0  0  0
 10 11  1  0  0  0  0
 10 12  1  0  0  0  0
 10 31  1  0  0  0  0
 11 32  1  0  0  0  0
 12 13  1  0  0  0  0
 12 33  1  0  0  0  0
 12 34  1  0  0  0  0
 13 21  1  0  0  0  0
 13 14  1  0  0  0  0
 14 15  2  0  0  0  0
 14 35  1  0  0  0  0
 15 16  1  0  0  0  0
 15 41  1  0  0  0  0
 16 21  2  0  0  0  0
 16 17  1  0  0  0  0
 17 18  2  0  0  0  0
 17 36  1  0  0  0  0
 18 19  1  0  0  0  0
 18 37  1  0  0  0  0
 19 20  2  0  0  0  0
 19 38  1  0  0  0  0
 20 21  1  0  0  0  0
 20 39  1  0  0  0  0
 22 40  1  0  0  0  0
M  CHG  1  15   1
M  END
> <s_m_source_file>
AV-unprocessed.smi

> <i_m_source_file_index>
1913

> <i_lp_mmshare_version>
43012

> <i_f3d_flags>
0

> <s_epik_input>
W0NIM11PYzFbY0hdW2NIXWMoT1tDSDNdKWMoW2NIXTEpW0NASF0oW09IXSlbQ0gyXW4oW2NIXW4yKWMoYzIzKVtjSF1bY0hdW2NIXVtjSF0z

> <s_epik_cmdline>
J2VwaWtfcHl0aG9uJywgJy1waCcsICc3LjAnLCAnLXRuJywgJzgnLCAnLW1hJywgJzIwMCcsICctbWV0YWxfYmluZGluZycsICctaW1hZScsICc8aW5maWxlLm1hZT4nLCAnLW9tYWUnLCAnPG91dGZpbGUubWFlPic=

> <r_lp_tautomer_probability>
1

> <r_epik_Ionization_Penalty>
1.3029

> <r_epik_Ionization_Penalty_Charging>
1.3029

> <r_epik_Ionization_Penalty_Neutral>
1.34362e-06

> <r_epik_State_Penalty>
1.377

> <r_epik_Charging_Adjusted_Penalty>
2.6799

> <i_epik_Tot_Q>
1

> <i_epik_Tot_abs_Q>
1

> <r_epik_Metal_State_Penalty>
5.40879

> <b_epik_Metal_Only>
0

> <s_lp_Force_Field>
OPLS_2005

> <r_lp_Energy>
24.0382

> <b_lp_Chiralities_Consistent>
1

> <s_lp_Variant>
AV-unprocessed.smi:1913-4

> <Gold.Version>
5.8.1

> <Gold.Id.Protein>
6NUR|6NUR_protein|mol2

> <Gold.PLP.Fitness>
55.8596

> <Gold.PLP.PLP>
-47.6625

> <Gold.PLP.part.hbond>
-2.4449

> <Gold.PLP.part.metal>
0.0000

> <Gold.PLP.part.buried>
0.6471

> <Gold.PLP.part.nonpolar>
-45.6863

> <Gold.PLP.part.repulsive>
0.1597

> <Gold.PLP.ligand.clash>
0.0000

> <Gold.PLP.ligand.torsion>
0.4230

> <Gold.PLP.Chemscore.Hbond>
3.0000

> <Gold.PLP.Chemscore.CHOScore>
0.0000

> <Gold.PLP.Chemscore.Metal>
0.0000

> <Gold.Chemscore.Hbonds>
donor molecule, donor type, donor heavy atom, donor atom, acceptor molecule, acceptor atom, score
      L1  H    15    41       P1  7948  1.95
      P1  H  7997  8008       L1     7  1.00

> <Gold.PLP.Chemscore.Internal.Correction>
0.0430

> <Gold.Rescore>
     Score         DG    S(hbond)    S(metal)    S(lipo)     H(rot)  DE(clash)    DE(int)     intcor
     17.10     -18.00       1.06        0.00     129.32       2.41       0.34       0.55       ----

> <Gold.Chemscore.Fitness>
17.1030

> <Gold.Chemscore.DG>
-17.9959

> <Gold.Chemscore.ZeroCoef>
-5.4800

> <Gold.Chemscore.Hbond>
1.0650

> <Gold.Chemscore.Metal>
0.0000

> <Gold.Chemscore.Lipo>
129.3245

> <Gold.Chemscore.Internal_Hbond>
0.0000

> <Gold.Chemscore.DEClash>
0.3385

> <Gold.Chemscore.DEInternal>
0.5544

> <Gold.Chemscore.Rot>
2.4109

> <Gold.Chemscore.Internal.Correction>
   9.000000E+99

> <Gold.Chemscore.Hbonds>
donor molecule, donor type, donor heavy atom, donor atom, acceptor molecule, acceptor atom, score
      L1  H    15    41       P1  7948  0.67
      P1  H  7997  8008       L1     7  0.11

> <Gold.Chemscore.Hbond.Weighted>
-3.5569

> <Gold.Chemscore.Metal.Weighted>
-0.0000

> <Gold.Chemscore.Lipo.Weighted>
-15.1310

> <Gold.Chemscore.Internal_Hbond.Weighted>
0.0000

> <Gold.Chemscore.DEClash.Weighted>
0.3385

> <Gold.Chemscore.DEInternal.Weighted>
0.5544

> <Gold.Chemscore.Rot.Weighted>
6.1720

> <Gold.Chemscore.Internal.Correction.Weighted>
   9.000000E+99

> <Gold.Protein.RotatedTorsions>
[ 6907 6896 6895 6894 ] final -169.74 input  -60.11 | X-H torsion
[ 7974 7965 7964 7962 ] final  122.96 input  175.53 | X-H torsion
[ 8008 7997 7996 7995 ] final  -92.11 input   59.86 | X-H torsion
[ 10167 10162 10161 10158 ] final   81.50 input  -65.29 | X-H torsion
[ 10718 10713 10712 10709 ] final   94.45 input   66.30 | X-H torsion
[ 10763 10752 10751 10750 ] final  178.76 input  -60.55 | X-H torsion
[ 11005 11000 10999 10996 ] final  -27.17 input  -57.11 | X-H torsion

> <Gold.Protein.ActiveResidues>
 VAL166  LYS551  ARG553  GLY616  TRP617  ASP618  TYR619  PRO620  LYS621  CYS622 
 ASP623  PHE694  ASN695  SER759  ASP760  ASP761  ALA762  ILE779  LEU786  VAL792 
 PHE793  MET794  SER795  GLU796  ALA797  LYS798  CYS799  TRP800  GLU811  SER814 

> <Gold.Protein.RotatedAtoms>
  151.4965  133.3513  159.2861 H   0  0  0  0  0  0  0  0  0  0  0  0  # atno 6907 bound_to 6896
  150.8800  134.8192  159.7229 H   0  0  0  0  0  0  0  0  0  0  0  0  # atno 6908 bound_to 6896
  152.4756  134.4862  159.9733 H   0  0  0  0  0  0  0  0  0  0  0  0  # atno 6909 bound_to 6896
  145.1015  139.3515  143.4809 H   0  0  0  0  0  0  0  0  0  0  0  0  # atno 7974 bound_to 7965
  154.7191  140.0512  157.0622 H   0  0  0  0  0  0  0  0  0  0  0  0  # atno 8008 bound_to 7997
  155.0451  140.3173  155.4692 H   0  0  0  0  0  0  0  0  0  0  0  0  # atno 8009 bound_to 7997
  156.2811  140.2126  156.5576 H   0  0  0  0  0  0  0  0  0  0  0  0  # atno 8010 bound_to 7997
  139.9386  144.6105  150.8274 H   0  0  0  0  0  0  0  0  0  0  0  0  # atno 10167 bound_to 10162
  157.6948  131.0513  150.4189 H   0  0  0  0  0  0  0  0  0  0  0  0  # atno 10718 bound_to 10713
  154.5119  135.2789  155.1336 H   0  0  0  0  0  0  0  0  0  0  0  0  # atno 10763 bound_to 10752
  154.2928  135.6263  153.5396 H   0  0  0  0  0  0  0  0  0  0  0  0  # atno 10764 bound_to 10752
  152.9920  135.5678  154.5586 H   0  0  0  0  0  0  0  0  0  0  0  0  # atno 10765 bound_to 10752
  140.9095  133.7470  156.0651 H   0  0  0  0  0  0  0  0  0  0  0  0  # atno 11005 bound_to 11000
  146.3529  140.0894  142.8613 LP  0  0  0  0  0  0  0  0  0  0  0  0  # atno 17320 bound_to 7965
  145.0950  140.9309  143.4746 LP  0  0  0  0  0  0  0  0  0  0  0  0  # atno 17321 bound_to 7965
  140.7617  143.3181  151.2685 LP  0  0  0  0  0  0  0  0  0  0  0  0  # atno 17342 bound_to 10162
  139.6723  143.9999  152.2760 LP  0  0  0  0  0  0  0  0  0  0  0  0  # atno 17343 bound_to 10162
  156.4566  130.4023  149.6602 LP  0  0  0  0  0  0  0  0  0  0  0  0  # atno 17370 bound_to 10713
  156.3733  130.7541  151.2527 LP  0  0  0  0  0  0  0  0  0  0  0  0  # atno 17371 bound_to 10713
  140.8128  134.3379  157.5406 LP  0  0  0  0  0  0  0  0  0  0  0  0  # atno 17394 bound_to 11000
  139.8755  134.9264  156.3399 LP  0  0  0  0  0  0  0  0  0  0  0  0  # atno 17395 bound_to 11000

$$$$
