#       Name:                AV-unprocessed.smi:1879
#       Creating user name   scv26
#       Creation time:       Fri Mar 27 09:35:54 2020


#       File generated by GOLD software.
#

@<TRIPOS>MOLECULE
AV-unprocessed.smi:1879
    52    54     1
SMALL
NO_CHARGES


@<TRIPOS>ATOM
      1 ****         0.5255   2.4231   0.2446 O.2            1 S1                 0.0000
      2 ****         0.2132   1.2444   0.4130 C.2            1 S1                 0.0000
      3 ****         1.0687   0.2081   0.4017 N.am           1 S1                 0.0000
      4 ****         2.4773   0.2286   0.1907 C.ar           1 S1                 0.0000
      5 ****         3.2689   1.3385   0.5849 C.ar           1 S1                 0.0000
      6 ****         4.6549   1.3368   0.3401 C.ar           1 S1                 0.0000
      7 ****         5.2325   0.2227  -0.2917 C.ar           1 S1                 0.0000
      8 ****         4.4576  -0.8267  -0.6350 N.pl3          1 S1                 1.0000
      9 ****         3.1209  -0.8915  -0.4124 C.ar           1 S1                 0.0000
     10 ****         2.4419  -2.0657  -0.8109 N.3            1 S1                 0.0000
     11 ****         3.1186  -3.0698  -1.6239 C.3            1 S1                 0.0000
     12 ****         2.2339  -4.3105  -1.5377 C.3            1 S1                 0.0000
     13 ****         1.7048  -4.2352  -0.1086 C.3            1 S1                 0.0000
     14 ****         1.5628  -2.7309   0.1459 C.3            1 S1                 0.0000
     15 ****        -1.0465   0.8314   0.6129 N.am           1 S1                 0.0000
     16 ****        -2.2187   1.6995   0.6776 C.3            1 S1                 0.0000
     17 ****        -3.3252   1.0096   1.4982 C.3            1 S1                 0.0000
     18 ****        -4.6047   1.8605   1.5464 C.3            1 S1                 0.0000
     19 ****        -5.1006   2.1954   0.1292 C.3            1 S1                 0.0000
     20 ****        -6.2346   3.0325   0.2104 O.3            1 S1                 0.0000
     21 ****        -4.0023   2.8946  -0.6900 C.3            1 S1                 0.0000
     22 ****        -2.7221   2.0448  -0.7398 C.3            1 S1                 0.0000
     23 ****         0.6512  -0.7092   0.4565 H              1 S1                 0.0000
     24 ****         2.8355   2.1943   1.0796 H              1 S1                 0.0000
     25 ****         5.2643   2.1797   0.6320 H              1 S1                 0.0000
     26 ****         6.2842   0.1340  -0.5228 H              1 S1                 0.0000
     27 ****         3.2434  -2.7321  -2.6531 H              1 S1                 0.0000
     28 ****         4.1033  -3.2956  -1.2128 H              1 S1                 0.0000
     29 ****         1.4072  -4.2312  -2.2454 H              1 S1                 0.0000
     30 ****         2.7742  -5.2341  -1.7471 H              1 S1                 0.0000
     31 ****         0.7697  -4.7788   0.0296 H              1 S1                 0.0000
     32 ****         2.4421  -4.6558   0.5767 H              1 S1                 0.0000
     33 ****         1.8108  -2.4790   1.1778 H              1 S1                 0.0000
     34 ****         0.5362  -2.4171  -0.0448 H              1 S1                 0.0000
     35 ****        -1.2105  -0.1572   0.7345 H              1 S1                 0.0000
     36 ****        -1.9462   2.6247   1.1895 H              1 S1                 0.0000
     37 ****        -3.5569   0.0362   1.0632 H              1 S1                 0.0000
     38 ****        -2.9743   0.8186   2.5130 H              1 S1                 0.0000
     39 ****        -5.3801   1.3288   2.0991 H              1 S1                 0.0000
     40 ****        -4.4058   2.7803   2.0983 H              1 S1                 0.0000
     41 ****        -5.3989   1.2759  -0.3760 H              1 S1                 0.0000
     42 ****        -5.9836   3.8389   0.6345 H              1 S1                 0.0000
     43 ****        -4.3561   3.0887  -1.7033 H              1 S1                 0.0000
     44 ****        -3.7726   3.8665  -0.2506 H              1 S1                 0.0000
     45 ****        -1.9518   2.5818  -1.2944 H              1 S1                 0.0000
     46 ****        -2.9194   1.1272  -1.2959 H              1 S1                 0.0000
     47 ****         4.9082  -1.6253  -1.0819 H              1 S1                 0.0000
     48 ****         1.4813   2.6690   0.0838 LP             1 S1                 0.0000
     49 ****        -0.1767   3.1347   0.2685 LP             1 S1                 0.0000
     50 ****         1.8716  -1.5428  -1.4444 LP             1 S1                 0.0000
     51 ****        -6.9500   2.5801   0.7428 LP             1 S1                 0.0000
     52 ****        -6.5762   3.2274  -0.7091 LP             1 S1                 0.0000
@<TRIPOS>BOND
    1    1    2 2     
    2    2    3 am    
    3    2   15 am    
    4    3    4 1     
    5    3   23 1     
    6    4    9 ar    
    7    4    5 ar    
    8    5    6 ar    
    9    5   24 1     
   10    6    7 ar    
   11    6   25 1     
   12    7    8 ar    
   13    7   26 1     
   14    8    9 ar    
   15    8   47 1     
   16    9   10 1     
   17   10   14 1     
   18   10   11 1     
   19   11   12 1     
   20   11   27 1     
   21   11   28 1     
   22   12   13 1     
   23   12   29 1     
   24   12   30 1     
   25   13   14 1     
   26   13   31 1     
   27   13   32 1     
   28   14   33 1     
   29   14   34 1     
   30   15   16 1     
   31   15   35 1     
   32   16   22 1     
   33   16   17 1     
   34   16   36 1     
   35   17   18 1     
   36   17   37 1     
   37   17   38 1     
   38   18   19 1     
   39   18   39 1     
   40   18   40 1     
   41   19   20 1     
   42   19   21 1     
   43   19   41 1     
   44   20   42 1     
   45   21   22 1     
   46   21   43 1     
   47   21   44 1     
   48   22   45 1     
   49   22   46 1     
   50    1   48 1     
   51    1   49 1     
   52   10   50 1     
   53   20   51 1     
   54   20   52 1     
@<TRIPOS>SUBSTRUCTURE
      1 S1             1
@<TRIPOS>SET
LONE_PAIRS      STATIC     ATOMS    <user>   **** ""
5 48 49 50 51 52
DONOR_HYDROGENS      STATIC     ATOMS    <user>   **** ""
4 23 47 35 42
ATOM$BLUE        STATIC     ATOMS    COLORGROUP SYSTEM
5 48 49 50 51 52
ATOM$RED        STATIC     ATOMS    COLORGROUP SYSTEM
4 23 47 35 42
