AV-unprocessed.smi:1240|AV-procd|sdf|5210|dock5
  -GOLD-   22720 4303D 1   1.00000     0.00000
 Structure written by MMmdl.
 49 51  0  0  0  0  0  0  0  0  3 V2000
  144.5716  136.7204  152.4327 O   0  0  0  0  0  0  0  0  0  0  0  0
  145.7418  136.5109  152.1144 C   0  0  0  0  0  0  0  0  0  0  0  0
  146.7051  137.4391  152.2047 N   0  0  0  0  0  0  0  0  0  0  0  0
  146.4996  138.8088  152.6636 C   0  0  0  0  0  0  0  0  0  0  0  0
  147.7818  139.4809  153.2338 C   0  0  1  0  0  0  0  0  0  0  0  0
  147.4969  140.5733  154.3032 C   0  0  1  0  0  0  0  0  0  0  0  0
  146.7929  141.8056  153.7574 C   0  0  0  0  0  0  0  0  0  0  0  0
  146.2605  142.4643  155.0240 C   0  0  0  0  0  0  0  0  0  0  0  0
  145.9421  141.3909  155.9001 O   0  0  0  0  0  0  0  0  0  0  0  0
  146.5203  140.1817  155.4198 C   0  0  0  0  0  0  0  0  0  0  0  0
  148.7384  138.4722  153.7816 N   0  3  0  0  0  0  0  0  0  0  0  0
  150.1004  138.9702  154.1026 C   0  0  0  0  0  0  0  0  0  0  0  0
  151.0127  137.7932  154.4852 C   0  0  0  0  0  0  0  0  0  0  0  0
  150.4460  137.0909  155.5850 O   0  0  0  0  0  0  0  0  0  0  0  0
  149.1719  136.5409  155.2707 C   0  0  0  0  0  0  0  0  0  0  0  0
  148.1944  137.6710  154.9056 C   0  0  0  0  0  0  0  0  0  0  0  0
  146.2295  135.3423  151.6628 N   0  0  0  0  0  0  0  0  0  0  0  0
  145.5351  134.1269  151.4125 C   0  0  0  0  0  0  0  0  0  0  0  0
  144.1700  134.0698  151.7726 C   0  0  0  0  0  0  0  0  0  0  0  0
  143.4429  132.8807  151.5601 C   0  0  0  0  0  0  0  0  0  0  0  0
  144.0565  131.8041  151.0240 N   0  3  0  0  0  0  0  0  0  0  0  0
  145.3612  131.8056  150.6763 C   0  0  0  0  0  0  0  0  0  0  0  0
  146.1394  132.9662  150.8649 C   0  0  0  0  0  0  0  0  0  0  0  0
  147.6428  137.1865  151.9274 H   0  0  0  0  0  0  0  0  0  0  0  0
  146.1237  139.3768  151.8126 H   0  0  0  0  0  0  0  0  0  0  0  0
  145.6983  138.8039  153.4032 H   0  0  0  0  0  0  0  0  0  0  0  0
  148.3000  139.9784  152.4125 H   0  0  0  0  0  0  0  0  0  0  0  0
  148.4314  140.8891  154.7693 H   0  0  0  0  0  0  0  0  0  0  0  0
  147.4517  142.4648  153.1914 H   0  0  0  0  0  0  0  0  0  0  0  0
  145.9625  141.5162  153.1110 H   0  0  0  0  0  0  0  0  0  0  0  0
  147.0344  143.0763  155.4888 H   0  0  0  0  0  0  0  0  0  0  0  0
  145.3933  143.0973  154.8348 H   0  0  0  0  0  0  0  0  0  0  0  0
  145.7170  139.5539  155.0320 H   0  0  0  0  0  0  0  0  0  0  0  0
  147.0087  139.6441  156.2326 H   0  0  0  0  0  0  0  0  0  0  0  0
  150.5268  139.4973  153.2497 H   0  0  0  0  0  0  0  0  0  0  0  0
  150.0607  139.6758  154.9331 H   0  0  0  0  0  0  0  0  0  0  0  0
  151.1561  137.1186  153.6395 H   0  0  0  0  0  0  0  0  0  0  0  0
  151.9986  138.1600  154.7711 H   0  0  0  0  0  0  0  0  0  0  0  0
  149.2638  135.8254  154.4520 H   0  0  0  0  0  0  0  0  0  0  0  0
  148.8020  135.9894  156.1352 H   0  0  0  0  0  0  0  0  0  0  0  0
  148.0263  138.3061  155.7758 H   0  0  0  0  0  0  0  0  0  0  0  0
  147.2300  137.2431  154.6295 H   0  0  0  0  0  0  0  0  0  0  0  0
  147.2288  135.3045  151.5237 H   0  0  0  0  0  0  0  0  0  0  0  0
  143.6787  134.9295  152.2046 H   0  0  0  0  0  0  0  0  0  0  0  0
  142.3975  132.7589  151.8034 H   0  0  0  0  0  0  0  0  0  0  0  0
  145.7438  130.8824  150.2663 H   0  0  0  0  0  0  0  0  0  0  0  0
  147.1846  132.9355  150.5979 H   0  0  0  0  0  0  0  0  0  0  0  0
  148.8636  137.8075  153.0314 H   0  0  0  0  0  0  0  0  0  0  0  0
  143.5133  130.9521  150.8805 H   0  0  0  0  0  0  0  0  0  0  0  0
  1  2  2  0  0  0  0
  2  3  1  0  0  0  0
  2 17  1  0  0  0  0
  3  4  1  0  0  0  0
  3 24  1  0  0  0  0
  4  5  1  0  0  0  0
  4 25  1  0  0  0  0
  4 26  1  0  0  0  0
  5  6  1  0  0  0  0
  5 11  1  0  0  0  0
  5 27  1  0  0  0  0
  6 10  1  0  0  0  0
  6  7  1  0  0  0  0
  6 28  1  0  0  0  0
  7  8  1  0  0  0  0
  7 29  1  0  0  0  0
  7 30  1  0  0  0  0
  8  9  1  0  0  0  0
  8 31  1  0  0  0  0
  8 32  1  0  0  0  0
  9 10  1  0  0  0  0
 10 33  1  0  0  0  0
 10 34  1  0  0  0  0
 11 16  1  0  0  0  0
 11 12  1  0  0  0  0
 11 48  1  0  0  0  0
 12 13  1  0  0  0  0
 12 35  1  0  0  0  0
 12 36  1  0  0  0  0
 13 14  1  0  0  0  0
 13 37  1  0  0  0  0
 13 38  1  0  0  0  0
 14 15  1  0  0  0  0
 15 16  1  0  0  0  0
 15 39  1  0  0  0  0
 15 40  1  0  0  0  0
 16 41  1  0  0  0  0
 16 42  1  0  0  0  0
 17 18  1  0  0  0  0
 17 43  1  0  0  0  0
 18 23  1  0  0  0  0
 18 19  2  0  0  0  0
 19 20  1  0  0  0  0
 19 44  1  0  0  0  0
 20 21  2  0  0  0  0
 20 45  1  0  0  0  0
 21 22  1  0  0  0  0
 21 49  1  0  0  0  0
 22 23  2  0  0  0  0
 22 46  1  0  0  0  0
 23 47  1  0  0  0  0
M  CHG  1  11   1
M  CHG  1  21   1
M  END
> <s_m_source_file>
AV-unprocessed.smi

> <i_m_source_file_index>
1240

> <i_lp_mmshare_version>
43012

> <i_f3d_flags>
0

> <s_epik_input>
W2NIXTFbY0hdbltjSF1bY0hdYzFbTkhdQyg9TylbTkhdW0NIMl1bQ0BIXShbQ0BASF0yW0NIMl1bQ0gyXU9bQ0gyXTIpTjNbQ0gyXVtDSDJdT1tDSDJdW0NIMl0z

> <s_epik_cmdline>
J2VwaWtfcHl0aG9uJywgJy1waCcsICc3LjAnLCAnLXRuJywgJzgnLCAnLW1hJywgJzIwMCcsICctbWV0YWxfYmluZGluZycsICctaW1hZScsICc8aW5maWxlLm1hZT4nLCAnLW9tYWUnLCAnPG91dGZpbGUubWFlPic=

> <r_epik_Ionization_Penalty>
2.08105

> <r_epik_Ionization_Penalty_Charging>
2.08103

> <r_epik_Ionization_Penalty_Neutral>
2.04144e-05

> <r_epik_State_Penalty>
2.15598

> <r_epik_Charging_Adjusted_Penalty>
4.23701

> <i_epik_Tot_Q>
2

> <i_epik_Tot_abs_Q>
2

> <r_epik_Metal_State_Penalty>
2.25158

> <b_epik_Metal_Only>
0

> <s_lp_Force_Field>
OPLS_2005

> <r_lp_Energy>
49.3852

> <b_lp_Chiralities_Consistent>
1

> <s_lp_Variant>
AV-unprocessed.smi:1240-16

> <Gold.Version>
5.8.1

> <Gold.Id.Protein>
6NUR|6NUR_protein|mol2

> <Gold.PLP.Fitness>
47.0247

> <Gold.PLP.PLP>
-36.6331

> <Gold.PLP.part.hbond>
-3.6729

> <Gold.PLP.part.metal>
0.0000

> <Gold.PLP.part.buried>
-3.4578

> <Gold.PLP.part.nonpolar>
-31.4394

> <Gold.PLP.part.repulsive>
0.8818

> <Gold.PLP.ligand.clash>
0.0000

> <Gold.PLP.ligand.torsion>
0.7781

> <Gold.PLP.Chemscore.Hbond>
3.8960

> <Gold.PLP.Chemscore.CHOScore>
0.0000

> <Gold.PLP.Chemscore.Metal>
0.0000

> <Gold.Chemscore.Hbonds>
donor molecule, donor type, donor heavy atom, donor atom, acceptor molecule, acceptor atom, score
      L1  H     3    24       P1  7948  1.00
      L1  H    11    48       P1  7948  2.00
      L1  H    17    43       P1  7948  0.93

> <Gold.PLP.Chemscore.Internal.Correction>
0.2597

> <Gold.Rescore>
     Score         DG    S(hbond)    S(metal)    S(lipo)     H(rot)  DE(clash)    DE(int)     intcor
     17.76     -20.74       2.82        0.00      87.99       1.74       0.34       2.65       ----

> <Gold.Chemscore.Fitness>
17.7579

> <Gold.Chemscore.DG>
-20.7426

> <Gold.Chemscore.ZeroCoef>
-5.4800

> <Gold.Chemscore.Hbond>
2.8226

> <Gold.Chemscore.Metal>
0.0000

> <Gold.Chemscore.Lipo>
87.9894

> <Gold.Chemscore.Internal_Hbond>
0.0000

> <Gold.Chemscore.DEClash>
0.3393

> <Gold.Chemscore.DEInternal>
2.6455

> <Gold.Chemscore.Rot>
1.7421

> <Gold.Chemscore.Internal.Correction>
   9.000000E+99

> <Gold.Chemscore.Hbonds>
donor molecule, donor type, donor heavy atom, donor atom, acceptor molecule, acceptor atom, score
      L1  H     3    24       P1  7948  0.98
      L1  H    11    48       P1  7948  0.99
      L1  H    17    43       P1  7948  0.84

> <Gold.Chemscore.Hbond.Weighted>
-9.4276

> <Gold.Chemscore.Metal.Weighted>
-0.0000

> <Gold.Chemscore.Lipo.Weighted>
-10.2948

> <Gold.Chemscore.Internal_Hbond.Weighted>
0.0000

> <Gold.Chemscore.DEClash.Weighted>
0.3393

> <Gold.Chemscore.DEInternal.Weighted>
2.6455

> <Gold.Chemscore.Rot.Weighted>
4.4597

> <Gold.Chemscore.Internal.Correction.Weighted>
   9.000000E+99

> <Gold.Protein.RotatedTorsions>
[ 6907 6896 6895 6894 ] final -106.67 input  -60.11 | X-H torsion
[ 7974 7965 7964 7962 ] final  163.09 input  175.53 | X-H torsion
[ 8008 7997 7996 7995 ] final -118.84 input   59.86 | X-H torsion
[ 10167 10162 10161 10158 ] final  -81.93 input  -65.29 | X-H torsion
[ 10718 10713 10712 10709 ] final  -28.23 input   66.30 | X-H torsion
[ 10763 10752 10751 10750 ] final -155.07 input  -60.55 | X-H torsion
[ 11005 11000 10999 10996 ] final  -41.27 input  -57.11 | X-H torsion

> <Gold.Protein.ActiveResidues>
 VAL166  LYS551  ARG553  GLY616  TRP617  ASP618  TYR619  PRO620  LYS621  CYS622 
 ASP623  PHE694  ASN695  SER759  ASP760  ASP761  ALA762  ILE779  LEU786  VAL792 
 PHE793  MET794  SER795  GLU796  ALA797  LYS798  CYS799  TRP800  GLU811  SER814 

> <Gold.Protein.RotatedAtoms>
  150.7402  133.9941  159.3616 H   0  0  0  0  0  0  0  0  0  0  0  0  # atno 6907 bound_to 6896
  151.7891  135.0738  160.0394 H   0  0  0  0  0  0  0  0  0  0  0  0  # atno 6908 bound_to 6896
  152.3220  133.5828  159.5787 H   0  0  0  0  0  0  0  0  0  0  0  0  # atno 6909 bound_to 6896
  144.7606  139.8132  143.6334 H   0  0  0  0  0  0  0  0  0  0  0  0  # atno 7974 bound_to 7965
  155.1061  140.0396  157.2711 H   0  0  0  0  0  0  0  0  0  0  0  0  # atno 8008 bound_to 7997
  154.6720  140.2614  155.6971 H   0  0  0  0  0  0  0  0  0  0  0  0  # atno 8009 bound_to 7997
  156.2662  140.2795  156.1233 H   0  0  0  0  0  0  0  0  0  0  0  0  # atno 8010 bound_to 7997
  140.4367  143.2529  151.8684 H   0  0  0  0  0  0  0  0  0  0  0  0  # atno 10167 bound_to 10162
  156.4280  130.4439  149.7137 H   0  0  0  0  0  0  0  0  0  0  0  0  # atno 10718 bound_to 10713
  154.7813  135.3176  154.7983 H   0  0  0  0  0  0  0  0  0  0  0  0  # atno 10763 bound_to 10752
  153.8694  135.6846  153.4780 H   0  0  0  0  0  0  0  0  0  0  0  0  # atno 10764 bound_to 10752
  153.1451  135.4723  154.9491 H   0  0  0  0  0  0  0  0  0  0  0  0  # atno 10765 bound_to 10752
  141.0234  133.6852  156.2435 H   0  0  0  0  0  0  0  0  0  0  0  0  # atno 11005 bound_to 11000
  146.1665  139.4798  142.9955 LP  0  0  0  0  0  0  0  0  0  0  0  0  # atno 17320 bound_to 7965
  145.6632  141.0235  143.1697 LP  0  0  0  0  0  0  0  0  0  0  0  0  # atno 17321 bound_to 7965
  139.4787  144.5275  151.8714 LP  0  0  0  0  0  0  0  0  0  0  0  0  # atno 17342 bound_to 10162
  140.4365  144.2044  150.5889 LP  0  0  0  0  0  0  0  0  0  0  0  0  # atno 17343 bound_to 10162
  156.4052  130.7694  151.2704 LP  0  0  0  0  0  0  0  0  0  0  0  0  # atno 17370 bound_to 10713
  157.7508  131.0228  150.3807 LP  0  0  0  0  0  0  0  0  0  0  0  0  # atno 17371 bound_to 10713
  140.6533  134.5044  157.5579 LP  0  0  0  0  0  0  0  0  0  0  0  0  # atno 17394 bound_to 11000
  139.9160  134.8245  156.1364 LP  0  0  0  0  0  0  0  0  0  0  0  0  # atno 17395 bound_to 11000

$$$$
