AV-unprocessed.smi:2329|AV-procd|sdf|9305|dock8
  -GOLD-   2272012523D 1   1.00000     0.00000
 Structure written by MMmdl.
 45 48  0  0  0  0  0  0  0  0  1 V2000
  147.9430  137.4967  163.8009 C   0  0  0  0  0  0  0  0  0  0  0  0
  147.6636  136.5947  162.6175 C   0  0  0  0  0  0  0  0  0  0  0  0
  147.1737  135.2867  162.8017 C   0  0  0  0  0  0  0  0  0  0  0  0
  146.9331  134.5021  161.6598 C   0  0  0  0  0  0  0  0  0  0  0  0
  147.1906  135.0534  160.3900 C   0  0  0  0  0  0  0  0  0  0  0  0
  147.6833  136.3740  160.2929 C   0  0  0  0  0  0  0  0  0  0  0  0
  147.9113  136.8332  158.9700 N   0  0  0  0  0  0  0  0  0  0  0  0
  148.9142  137.6070  158.5110 C   0  0  0  0  0  0  0  0  0  0  0  0
  149.8298  138.0531  159.2001 O   0  0  0  0  0  0  0  0  0  0  0  0
  148.8512  137.8544  157.1906 N   0  0  0  0  0  0  0  0  0  0  0  0
  149.7798  138.6535  156.3889 C   0  0  1  0  0  0  0  0  0  0  0  0
  150.6725  137.7752  155.4972 C   0  0  2  0  0  0  0  0  0  0  0  0
  152.1556  137.7237  155.7426 C   0  0  0  0  0  0  0  0  0  0  0  0
  152.7004  138.7585  154.7545 C   0  0  0  0  0  0  0  0  0  0  0  0
  151.5916  139.6119  154.4809 O   0  0  0  0  0  0  0  0  0  0  0  0
  150.4298  138.7907  154.3915 C   0  0  2  0  0  0  0  0  0  0  0  0
  149.1648  139.2934  155.1193 C   0  0  0  0  0  0  0  0  0  0  0  0
  147.8400  138.7600  154.5690 C   0  0  0  0  0  0  0  0  0  0  0  0
  147.3990  139.7455  153.4879 C   0  0  0  0  0  0  0  0  0  0  0  0
  147.9770  141.0969  153.9177 C   0  0  0  0  0  0  0  0  0  0  0  0
  148.9079  140.8002  155.0998 C   0  0  0  0  0  0  0  0  0  0  0  0
  147.9112  137.1236  161.3999 N   0  0  0  0  0  0  0  0  0  0  0  0
  147.8074  136.9661  164.7437 H   0  0  0  0  0  0  0  0  0  0  0  0
  147.2680  138.3531  163.7914 H   0  0  0  0  0  0  0  0  0  0  0  0
  148.9682  137.8663  163.7632 H   0  0  0  0  0  0  0  0  0  0  0  0
  146.9863  134.8927  163.7898 H   0  0  0  0  0  0  0  0  0  0  0  0
  146.5576  133.4940  161.7554 H   0  0  0  0  0  0  0  0  0  0  0  0
  147.0120  134.4637  159.5024 H   0  0  0  0  0  0  0  0  0  0  0  0
  147.2370  136.5289  158.2833 H   0  0  0  0  0  0  0  0  0  0  0  0
  148.0940  137.4178  156.6848 H   0  0  0  0  0  0  0  0  0  0  0  0
  150.3706  139.3687  156.9661 H   0  0  0  0  0  0  0  0  0  0  0  0
  150.2152  136.8125  155.2612 H   0  0  0  0  0  0  0  0  0  0  0  0
  152.3902  138.0057  156.7696 H   0  0  0  0  0  0  0  0  0  0  0  0
  152.5773  136.7346  155.5622 H   0  0  0  0  0  0  0  0  0  0  0  0
  153.5486  139.3160  155.1525 H   0  0  0  0  0  0  0  0  0  0  0  0
  153.0127  138.2756  153.8273 H   0  0  0  0  0  0  0  0  0  0  0  0
  150.2787  138.3498  153.4050 H   0  0  0  0  0  0  0  0  0  0  0  0
  147.9243  137.7461  154.1765 H   0  0  0  0  0  0  0  0  0  0  0  0
  147.0802  138.7366  155.3509 H   0  0  0  0  0  0  0  0  0  0  0  0
  147.8273  139.4536  152.5283 H   0  0  0  0  0  0  0  0  0  0  0  0
  146.3152  139.7716  153.3717 H   0  0  0  0  0  0  0  0  0  0  0  0
  148.5263  141.5527  153.0931 H   0  0  0  0  0  0  0  0  0  0  0  0
  147.1902  141.7925  154.2117 H   0  0  0  0  0  0  0  0  0  0  0  0
  148.4192  141.1079  156.0243 H   0  0  0  0  0  0  0  0  0  0  0  0
  149.8270  141.3822  155.0308 H   0  0  0  0  0  0  0  0  0  0  0  0
  1  2  1  0  0  0  0
  1 23  1  0  0  0  0
  1 24  1  0  0  0  0
  1 25  1  0  0  0  0
  2 22  1  0  0  0  0
  2  3  2  0  0  0  0
  3  4  1  0  0  0  0
  3 26  1  0  0  0  0
  4  5  2  0  0  0  0
  4 27  1  0  0  0  0
  5  6  1  0  0  0  0
  5 28  1  0  0  0  0
  6  7  1  0  0  0  0
  6 22  2  0  0  0  0
  7  8  1  0  0  0  0
  7 29  1  0  0  0  0
  8  9  2  0  0  0  0
  8 10  1  0  0  0  0
 10 11  1  0  0  0  0
 10 30  1  0  0  0  0
 11 17  1  0  0  0  0
 11 12  1  0  0  0  0
 11 31  1  0  0  0  0
 12 16  1  0  0  0  0
 12 13  1  0  0  0  0
 12 32  1  0  0  0  0
 13 14  1  0  0  0  0
 13 33  1  0  0  0  0
 13 34  1  0  0  0  0
 14 15  1  0  0  0  0
 14 35  1  0  0  0  0
 14 36  1  0  0  0  0
 15 16  1  0  0  0  0
 16 17  1  0  0  0  0
 16 37  1  0  0  0  0
 17 21  1  0  0  0  0
 17 18  1  0  0  0  0
 18 19  1  0  0  0  0
 18 38  1  0  0  0  0
 18 39  1  0  0  0  0
 19 20  1  0  0  0  0
 19 40  1  0  0  0  0
 19 41  1  0  0  0  0
 20 21  1  0  0  0  0
 20 42  1  0  0  0  0
 20 43  1  0  0  0  0
 21 44  1  0  0  0  0
 21 45  1  0  0  0  0
M  END
> <s_m_source_file>
AV-unprocessed.smi

> <i_m_source_file_index>
2329

> <i_lp_mmshare_version>
43012

> <i_f3d_flags>
0

> <s_epik_input>
W0NIM11jMVtjSF1bY0hdW2NIXWMobjEpW05IXUMoPU8pW05IXVtDQEBIXTJbQ0BASF0oW0NIMl1bQ0gyXU8zKVtDQEhdM0MyNFtDSDJdW0NIMl1bQ0gyXVtDSDJdNA==

> <s_epik_cmdline>
J2VwaWtfcHl0aG9uJywgJy1waCcsICc3LjAnLCAnLXRuJywgJzgnLCAnLW1hJywgJzIwMCcsICctbWV0YWxfYmluZGluZycsICctaW1hZScsICc8aW5maWxlLm1hZT4nLCAnLW9tYWUnLCAnPG91dGZpbGUubWFlPic=

> <r_lp_tautomer_probability>
1

> <r_epik_Ionization_Penalty>
8.97002e-05

> <r_epik_Ionization_Penalty_Charging>
0

> <r_epik_Ionization_Penalty_Neutral>
8.97002e-05

> <r_epik_State_Penalty>
-0

> <r_epik_Charging_Adjusted_Penalty>
0

> <i_epik_Tot_Q>
0

> <i_epik_Tot_abs_Q>
0

> <r_epik_Metal_State_Penalty>
-0

> <b_epik_Metal_Only>
0

> <s_lp_Force_Field>
OPLS_2005

> <r_lp_Energy>
64.4638

> <b_lp_Chiralities_Consistent>
1

> <s_lp_Variant>
AV-unprocessed.smi:2329-4

> <Gold.Version>
5.8.1

> <Gold.Id.Protein>
6NUR|6NUR_protein|mol2

> <Gold.PLP.Fitness>
45.7390

> <Gold.PLP.PLP>
-39.2436

> <Gold.PLP.part.hbond>
-4.0000

> <Gold.PLP.part.metal>
0.0000

> <Gold.PLP.part.buried>
-1.0768

> <Gold.PLP.part.nonpolar>
-33.9318

> <Gold.PLP.part.repulsive>
0.2432

> <Gold.PLP.ligand.clash>
0.0000

> <Gold.PLP.ligand.torsion>
0.5493

> <Gold.PLP.Chemscore.Hbond>
2.4701

> <Gold.PLP.Chemscore.CHOScore>
0.0000

> <Gold.PLP.Chemscore.Metal>
0.0000

> <Gold.Chemscore.Hbonds>
donor molecule, donor type, donor heavy atom, donor atom, acceptor molecule, acceptor atom, score
      P1  H  6931  6943       L1    22  0.85
      P1  H  6934  6947       L1    22  0.63
      P1  H  7989  7998       L1    15  1.00

> <Gold.PLP.Chemscore.Internal.Correction>
0.1838

> <Gold.Rescore>
     Score         DG    S(hbond)    S(metal)    S(lipo)     H(rot)  DE(clash)    DE(int)     intcor
     18.46     -20.47       1.69        0.00     101.77       1.00       0.72       1.29       ----

> <Gold.Chemscore.Fitness>
18.4625

> <Gold.Chemscore.DG>
-20.4657

> <Gold.Chemscore.ZeroCoef>
-5.4800

> <Gold.Chemscore.Hbond>
1.6881

> <Gold.Chemscore.Metal>
0.0000

> <Gold.Chemscore.Lipo>
101.7723

> <Gold.Chemscore.Internal_Hbond>
0.0000

> <Gold.Chemscore.DEClash>
0.7151

> <Gold.Chemscore.DEInternal>
1.2881

> <Gold.Chemscore.Rot>
1.0000

> <Gold.Chemscore.Internal.Correction>
   9.000000E+99

> <Gold.Chemscore.Hbonds>
donor molecule, donor type, donor heavy atom, donor atom, acceptor molecule, acceptor atom, score
      P1  H  6931  6943       L1    22  0.14
      P1  H  6934  6947       L1    22  0.33
      P1  H  7989  7998       L1    15  0.89

> <Gold.Chemscore.Hbond.Weighted>
-5.6383

> <Gold.Chemscore.Metal.Weighted>
-0.0000

> <Gold.Chemscore.Lipo.Weighted>
-11.9074

> <Gold.Chemscore.Internal_Hbond.Weighted>
0.0000

> <Gold.Chemscore.DEClash.Weighted>
0.7151

> <Gold.Chemscore.DEInternal.Weighted>
1.2881

> <Gold.Chemscore.Rot.Weighted>
2.5600

> <Gold.Chemscore.Internal.Correction.Weighted>
   9.000000E+99

> <Gold.Protein.RotatedTorsions>
[ 6907 6896 6895 6894 ] final   93.08 input  -60.11 | X-H torsion
[ 7974 7965 7964 7962 ] final  102.91 input  175.53 | X-H torsion
[ 8008 7997 7996 7995 ] final  -45.94 input   59.86 | X-H torsion
[ 10167 10162 10161 10158 ] final -102.46 input  -65.29 | X-H torsion
[ 10718 10713 10712 10709 ] final  -66.57 input   66.30 | X-H torsion
[ 10763 10752 10751 10750 ] final -114.70 input  -60.55 | X-H torsion
[ 11005 11000 10999 10996 ] final -110.19 input  -57.11 | X-H torsion

> <Gold.Protein.ActiveResidues>
 VAL166  LYS551  ARG553  GLY616  TRP617  ASP618  TYR619  PRO620  LYS621  CYS622 
 ASP623  PHE694  ASN695  SER759  ASP760  ASP761  ALA762  ILE779  LEU786  VAL792 
 PHE793  MET794  SER795  GLU796  ALA797  LYS798  CYS799  TRP800  GLU811  SER814 

> <Gold.Protein.RotatedAtoms>
  152.5453  134.1404  159.8476 H   0  0  0  0  0  0  0  0  0  0  0  0  # atno 6907 bound_to 6896
  151.1440  133.4945  159.2604 H   0  0  0  0  0  0  0  0  0  0  0  0  # atno 6908 bound_to 6896
  151.1542  135.0252  159.8736 H   0  0  0  0  0  0  0  0  0  0  0  0  # atno 6909 bound_to 6896
  145.3529  139.2435  143.3548 H   0  0  0  0  0  0  0  0  0  0  0  0  # atno 7974 bound_to 7965
  154.4004  140.1384  156.3929 H   0  0  0  0  0  0  0  0  0  0  0  0  # atno 8008 bound_to 7997
  155.7897  140.3479  155.5322 H   0  0  0  0  0  0  0  0  0  0  0  0  # atno 8009 bound_to 7997
  155.8591  140.0953  157.1615 H   0  0  0  0  0  0  0  0  0  0  0  0  # atno 8010 bound_to 7997
  140.2304  143.3611  152.0891 H   0  0  0  0  0  0  0  0  0  0  0  0  # atno 10167 bound_to 10162
  156.0605  130.4264  150.1728 H   0  0  0  0  0  0  0  0  0  0  0  0  # atno 10718 bound_to 10713
  154.8451  135.4408  154.1546 H   0  0  0  0  0  0  0  0  0  0  0  0  # atno 10763 bound_to 10752
  153.2698  135.6944  153.7498 H   0  0  0  0  0  0  0  0  0  0  0  0  # atno 10764 bound_to 10752
  153.6743  135.3413  155.3137 H   0  0  0  0  0  0  0  0  0  0  0  0  # atno 10765 bound_to 10752
  141.0806  133.9226  157.2297 H   0  0  0  0  0  0  0  0  0  0  0  0  # atno 11005 bound_to 11000
  146.2960  140.4148  142.8721 LP  0  0  0  0  0  0  0  0  0  0  0  0  # atno 17320 bound_to 7965
  144.8704  140.7265  143.6050 LP  0  0  0  0  0  0  0  0  0  0  0  0  # atno 17321 bound_to 7965
  139.5112  144.6897  151.5794 LP  0  0  0  0  0  0  0  0  0  0  0  0  # atno 17342 bound_to 10162
  140.6189  143.9296  150.6510 LP  0  0  0  0  0  0  0  0  0  0  0  0  # atno 17343 bound_to 10162
  156.9798  130.9860  151.3440 LP  0  0  0  0  0  0  0  0  0  0  0  0  # atno 17370 bound_to 10713
  157.5609  130.8245  149.8265 LP  0  0  0  0  0  0  0  0  0  0  0  0  # atno 17371 bound_to 10713
  139.9620  135.0152  156.9285 LP  0  0  0  0  0  0  0  0  0  0  0  0  # atno 17394 bound_to 11000
  140.5477  134.0658  155.7360 LP  0  0  0  0  0  0  0  0  0  0  0  0  # atno 17395 bound_to 11000

$$$$
