AV-unprocessed.smi:698|AV-procd|sdf|3397|dock7
  -GOLD-   22720 0373D 1   1.00000     0.00000
 Structure written by MMmdl.
 33 34  0  0  0  0  0  0  0  0  1 V2000
  154.4724  140.4673  161.7922 C   0  0  0  0  0  0  0  0  0  0  0  0
  153.9476  141.7414  161.1260 C   0  0  0  0  0  0  0  0  0  0  0  0
  152.8859  141.3931  160.2422 O   0  0  0  0  0  0  0  0  0  0  0  0
  152.4282  142.3475  159.3570 C   0  0  0  0  0  0  0  0  0  0  0  0
  152.7925  143.6916  159.5630 C   0  0  0  0  0  0  0  0  0  0  0  0
  152.3235  144.6603  158.6581 C   0  0  0  0  0  0  0  0  0  0  0  0
  151.5094  144.2505  157.5850 C   0  0  0  0  0  0  0  0  0  0  0  0
  151.1851  142.8833  157.4435 C   0  0  0  0  0  0  0  0  0  0  0  0
  150.3582  142.5695  156.3330 N   0  0  0  0  0  0  0  0  0  0  0  0
  150.2144  141.3862  155.7053 C   0  0  0  0  0  0  0  0  0  0  0  0
  150.7966  140.3508  156.0300 O   0  0  0  0  0  0  0  0  0  0  0  0
  149.2366  141.3576  154.5228 C   0  0  2  0  0  0  0  0  0  0  0  0
  147.8309  141.8530  154.8648 C   0  0  0  0  0  0  0  0  0  0  0  0
  147.0103  141.2066  153.7705 C   0  0  0  0  0  0  0  0  0  0  0  0
  147.7074  139.8602  153.5795 C   0  0  0  0  0  0  0  0  0  0  0  0
  149.0377  140.0205  154.0671 O   0  0  0  0  0  0  0  0  0  0  0  0
  151.6442  141.9585  158.3219 N   0  0  0  0  0  0  0  0  0  0  0  0
  155.2922  140.6942  162.4740 H   0  0  0  0  0  0  0  0  0  0  0  0
  154.8418  139.7611  161.0483 H   0  0  0  0  0  0  0  0  0  0  0  0
  153.6875  139.9730  162.3649 H   0  0  0  0  0  0  0  0  0  0  0  0
  153.5944  142.4352  161.8906 H   0  0  0  0  0  0  0  0  0  0  0  0
  154.7571  142.2264  160.5780 H   0  0  0  0  0  0  0  0  0  0  0  0
  153.4186  143.9724  160.3969 H   0  0  0  0  0  0  0  0  0  0  0  0
  152.5833  145.7009  158.7843 H   0  0  0  0  0  0  0  0  0  0  0  0
  151.1404  144.9818  156.8803 H   0  0  0  0  0  0  0  0  0  0  0  0
  149.8177  143.3362  155.9595 H   0  0  0  0  0  0  0  0  0  0  0  0
  149.6476  141.9446  153.6998 H   0  0  0  0  0  0  0  0  0  0  0  0
  147.5112  141.4875  155.8423 H   0  0  0  0  0  0  0  0  0  0  0  0
  147.7512  142.9405  154.8608 H   0  0  0  0  0  0  0  0  0  0  0  0
  145.9550  141.1080  154.0268 H   0  0  0  0  0  0  0  0  0  0  0  0
  147.0838  141.7973  152.8562 H   0  0  0  0  0  0  0  0  0  0  0  0
  147.2162  139.0840  154.1669 H   0  0  0  0  0  0  0  0  0  0  0  0
  147.7059  139.5457  152.5356 H   0  0  0  0  0  0  0  0  0  0  0  0
  1  2  1  0  0  0  0
  1 18  1  0  0  0  0
  1 19  1  0  0  0  0
  1 20  1  0  0  0  0
  2  3  1  0  0  0  0
  2 21  1  0  0  0  0
  2 22  1  0  0  0  0
  3  4  1  0  0  0  0
  4 17  1  0  0  0  0
  4  5  2  0  0  0  0
  5  6  1  0  0  0  0
  5 23  1  0  0  0  0
  6  7  2  0  0  0  0
  6 24  1  0  0  0  0
  7  8  1  0  0  0  0
  7 25  1  0  0  0  0
  8  9  1  0  0  0  0
  8 17  2  0  0  0  0
  9 10  1  0  0  0  0
  9 26  1  0  0  0  0
 10 11  2  0  0  0  0
 10 12  1  0  0  0  0
 12 16  1  0  0  0  0
 12 13  1  0  0  0  0
 12 27  1  0  0  0  0
 13 14  1  0  0  0  0
 13 28  1  0  0  0  0
 13 29  1  0  0  0  0
 14 15  1  0  0  0  0
 14 30  1  0  0  0  0
 14 31  1  0  0  0  0
 15 16  1  0  0  0  0
 15 32  1  0  0  0  0
 15 33  1  0  0  0  0
M  END
> <s_m_source_file>
AV-unprocessed.smi

> <i_m_source_file_index>
698

> <i_lp_mmshare_version>
43012

> <i_f3d_flags>
0

> <s_epik_input>
W0NIM11bQ0gyXU9jMVtjSF1bY0hdW2NIXWMobjEpW05IXUMoPU8pW0NAQEhdMltDSDJdW0NIMl1bQ0gyXU8y

> <s_epik_cmdline>
J2VwaWtfcHl0aG9uJywgJy1waCcsICc3LjAnLCAnLXRuJywgJzgnLCAnLW1hJywgJzIwMCcsICctbWV0YWxfYmluZGluZycsICctaW1hZScsICc8aW5maWxlLm1hZT4nLCAnLW9tYWUnLCAnPG91dGZpbGUubWFlPic=

> <r_lp_tautomer_probability>
1

> <r_epik_Ionization_Penalty>
3.42089e-05

> <r_epik_Ionization_Penalty_Charging>
0

> <r_epik_Ionization_Penalty_Neutral>
3.42089e-05

> <r_epik_State_Penalty>
-0

> <r_epik_Charging_Adjusted_Penalty>
0

> <i_epik_Tot_Q>
0

> <i_epik_Tot_abs_Q>
0

> <r_epik_Metal_State_Penalty>
-0

> <b_epik_Metal_Only>
0

> <s_lp_Force_Field>
OPLS_2005

> <r_lp_Energy>
21.1038

> <b_lp_Chiralities_Consistent>
1

> <s_lp_Variant>
AV-unprocessed.smi:698-1

> <Gold.Version>
5.8.1

> <Gold.Id.Protein>
6NUR|6NUR_protein|mol2

> <Gold.PLP.Fitness>
43.0055

> <Gold.PLP.PLP>
-40.7837

> <Gold.PLP.part.hbond>
-1.0000

> <Gold.PLP.part.metal>
0.0000

> <Gold.PLP.part.buried>
-3.3802

> <Gold.PLP.part.nonpolar>
-36.6559

> <Gold.PLP.part.repulsive>
0.8746

> <Gold.PLP.ligand.clash>
0.0000

> <Gold.PLP.ligand.torsion>
0.3964

> <Gold.PLP.Chemscore.Hbond>
1.0000

> <Gold.PLP.Chemscore.CHOScore>
0.0000

> <Gold.PLP.Chemscore.Metal>
0.0000

> <Gold.Chemscore.Hbonds>
donor molecule, donor type, donor heavy atom, donor atom, acceptor molecule, acceptor atom, score
      L1  H     9    26       P1  8028  1.00

> <Gold.PLP.Chemscore.Internal.Correction>
0.0146

> <Gold.Rescore>
     Score         DG    S(hbond)    S(metal)    S(lipo)     H(rot)  DE(clash)    DE(int)     intcor
     13.73     -15.33       1.00        0.00      86.71       1.42       0.09       1.51       ----

> <Gold.Chemscore.Fitness>
13.7348

> <Gold.Chemscore.DG>
-15.3339

> <Gold.Chemscore.ZeroCoef>
-5.4800

> <Gold.Chemscore.Hbond>
1.0000

> <Gold.Chemscore.Metal>
0.0000

> <Gold.Chemscore.Lipo>
86.7108

> <Gold.Chemscore.Internal_Hbond>
0.0000

> <Gold.Chemscore.DEClash>
0.0875

> <Gold.Chemscore.DEInternal>
1.5116

> <Gold.Chemscore.Rot>
1.4185

> <Gold.Chemscore.Internal.Correction>
   9.000000E+99

> <Gold.Chemscore.Hbonds>
donor molecule, donor type, donor heavy atom, donor atom, acceptor molecule, acceptor atom, score
      L1  H     9    26       P1  8028  1.00

> <Gold.Chemscore.Hbond.Weighted>
-3.3400

> <Gold.Chemscore.Metal.Weighted>
-0.0000

> <Gold.Chemscore.Lipo.Weighted>
-10.1452

> <Gold.Chemscore.Internal_Hbond.Weighted>
0.0000

> <Gold.Chemscore.DEClash.Weighted>
0.0875

> <Gold.Chemscore.DEInternal.Weighted>
1.5116

> <Gold.Chemscore.Rot.Weighted>
3.6313

> <Gold.Chemscore.Internal.Correction.Weighted>
   9.000000E+99

> <Gold.Protein.RotatedTorsions>
[ 6907 6896 6895 6894 ] final -142.11 input  -60.11 | X-H torsion
[ 7974 7965 7964 7962 ] final    5.07 input  175.53 | X-H torsion
[ 8008 7997 7996 7995 ] final   20.83 input   59.86 | X-H torsion
[ 10167 10162 10161 10158 ] final   92.31 input  -65.29 | X-H torsion
[ 10718 10713 10712 10709 ] final -145.54 input   66.30 | X-H torsion
[ 10763 10752 10751 10750 ] final  -47.80 input  -60.55 | X-H torsion
[ 11005 11000 10999 10996 ] final   88.41 input  -57.11 | X-H torsion

> <Gold.Protein.ActiveResidues>
 VAL166  LYS551  ARG553  GLY616  TRP617  ASP618  TYR619  PRO620  LYS621  CYS622 
 ASP623  PHE694  ASN695  SER759  ASP760  ASP761  ALA762  ILE779  LEU786  VAL792 
 PHE793  MET794  SER795  GLU796  ALA797  LYS798  CYS799  TRP800  GLU811  SER814 

> <Gold.Protein.RotatedAtoms>
  151.0827  133.5377  159.2619 H   0  0  0  0  0  0  0  0  0  0  0  0  # atno 6907 bound_to 6896
  151.2274  135.0541  159.8984 H   0  0  0  0  0  0  0  0  0  0  0  0  # atno 6908 bound_to 6896
  152.5425  134.0621  159.8210 H   0  0  0  0  0  0  0  0  0  0  0  0  # atno 6909 bound_to 6896
  146.2442  140.0440  142.8380 H   0  0  0  0  0  0  0  0  0  0  0  0  # atno 7974 bound_to 7965
  154.9415  140.3054  155.5118 H   0  0  0  0  0  0  0  0  0  0  0  0  # atno 8008 bound_to 7997
  156.2995  140.2335  156.4422 H   0  0  0  0  0  0  0  0  0  0  0  0  # atno 8009 bound_to 7997
  154.8141  140.0427  157.1352 H   0  0  0  0  0  0  0  0  0  0  0  0  # atno 8010 bound_to 7997
  139.8289  144.6696  150.9425 H   0  0  0  0  0  0  0  0  0  0  0  0  # atno 10167 bound_to 10162
  156.3838  130.7850  151.2046 H   0  0  0  0  0  0  0  0  0  0  0  0  # atno 10718 bound_to 10713
  154.0674  135.6609  153.4819 H   0  0  0  0  0  0  0  0  0  0  0  0  # atno 10763 bound_to 10752
  153.0404  135.5149  154.7600 H   0  0  0  0  0  0  0  0  0  0  0  0  # atno 10764 bound_to 10752
  154.6655  135.3021  154.9778 H   0  0  0  0  0  0  0  0  0  0  0  0  # atno 10765 bound_to 10752
  139.8897  134.8485  156.2996 H   0  0  0  0  0  0  0  0  0  0  0  0  # atno 11005 bound_to 11000
  145.1044  140.9366  143.4694 LP  0  0  0  0  0  0  0  0  0  0  0  0  # atno 17320 bound_to 7965
  145.0640  139.3083  143.5866 LP  0  0  0  0  0  0  0  0  0  0  0  0  # atno 17321 bound_to 7965
  140.7808  143.4020  151.1133 LP  0  0  0  0  0  0  0  0  0  0  0  0  # atno 17342 bound_to 10162
  139.7675  143.8543  152.3113 LP  0  0  0  0  0  0  0  0  0  0  0  0  # atno 17343 bound_to 10162
  157.7494  131.0336  150.4279 LP  0  0  0  0  0  0  0  0  0  0  0  0  # atno 17370 bound_to 10713
  156.4528  130.4015  149.6625 LP  0  0  0  0  0  0  0  0  0  0  0  0  # atno 17371 bound_to 10713
  140.9922  133.7202  156.0831 LP  0  0  0  0  0  0  0  0  0  0  0  0  # atno 17394 bound_to 11000
  140.7610  134.3939  157.5525 LP  0  0  0  0  0  0  0  0  0  0  0  0  # atno 17395 bound_to 11000

$$$$
