AV-unprocessed.smi:2109|AV-procd|sdf|8607|dock3
  -GOLD-   2272011343D 1   1.00000     0.00000
 Structure written by MMmdl.
 46 47  0  0  0  0  0  0  0  0  2 V2000
  149.0709  132.8686  152.5320 C   0  0  0  0  0  0  0  0  0  0  0  0
  150.1749  132.7797  153.6002 C   0  0  0  0  0  0  0  0  0  0  0  0
  150.2177  131.3717  154.2121 C   0  0  0  0  0  0  0  0  0  0  0  0
  150.0265  133.8471  154.7047 C   0  0  0  0  0  0  0  0  0  0  0  0
  150.2298  135.2023  154.1999 N   0  0  0  0  0  0  0  0  0  0  0  0
  151.1662  136.0602  154.6291 C   0  0  0  0  0  0  0  0  0  0  0  0
  151.9815  135.8108  155.5168 O   0  0  0  0  0  0  0  0  0  0  0  0
  151.1135  137.2255  153.9686 N   0  0  0  0  0  0  0  0  0  0  0  0
  151.9691  138.3801  154.2332 C   0  0  0  0  0  0  0  0  0  0  0  0
  151.2636  139.6227  154.7682 C   0  0  0  0  0  0  0  0  0  0  0  0
  150.0828  140.0569  154.1305 C   0  0  0  0  0  0  0  0  0  0  0  0
  149.4180  141.1993  154.6120 C   0  0  0  0  0  0  0  0  0  0  0  0
  149.9111  141.8634  155.6780 N   0  3  0  0  0  0  0  0  0  0  0  0
  151.0350  141.4979  156.3409 C   0  0  0  0  0  0  0  0  0  0  0  0
  151.4312  142.2739  157.4530 N   0  0  0  0  0  0  0  0  0  0  0  0
  150.4622  143.2041  158.0268 C   0  0  0  0  0  0  0  0  0  0  0  0
  151.1528  144.1705  159.0035 C   0  0  0  0  0  0  0  0  0  0  0  0
  151.8658  143.4296  159.9869 O   0  0  0  0  0  0  0  0  0  0  0  0
  152.8962  142.6390  159.4048 C   0  0  0  0  0  0  0  0  0  0  0  0
  152.2810  141.6102  158.4410 C   0  0  0  0  0  0  0  0  0  0  0  0
  151.7378  140.3529  155.8857 C   0  0  0  0  0  0  0  0  0  0  0  0
  148.0808  132.7611  152.9765 H   0  0  0  0  0  0  0  0  0  0  0  0
  149.1855  132.0842  151.7834 H   0  0  0  0  0  0  0  0  0  0  0  0
  149.0972  133.8215  152.0036 H   0  0  0  0  0  0  0  0  0  0  0  0
  151.1308  132.9441  153.1007 H   0  0  0  0  0  0  0  0  0  0  0  0
  149.2855  131.1348  154.7263 H   0  0  0  0  0  0  0  0  0  0  0  0
  151.0290  131.2798  154.9348 H   0  0  0  0  0  0  0  0  0  0  0  0
  150.3764  130.6135  153.4445 H   0  0  0  0  0  0  0  0  0  0  0  0
  149.0572  133.7512  155.1973 H   0  0  0  0  0  0  0  0  0  0  0  0
  150.7744  133.6772  155.4796 H   0  0  0  0  0  0  0  0  0  0  0  0
  149.6062  135.5085  153.4673 H   0  0  0  0  0  0  0  0  0  0  0  0
  150.4103  137.3349  153.2523 H   0  0  0  0  0  0  0  0  0  0  0  0
  152.7164  138.0688  154.9637 H   0  0  0  0  0  0  0  0  0  0  0  0
  152.5230  138.6523  153.3331 H   0  0  0  0  0  0  0  0  0  0  0  0
  149.6892  139.5207  153.2789 H   0  0  0  0  0  0  0  0  0  0  0  0
  148.5104  141.5978  154.1819 H   0  0  0  0  0  0  0  0  0  0  0  0
  149.9827  143.7867  157.2398 H   0  0  0  0  0  0  0  0  0  0  0  0
  149.6838  142.6411  158.5433 H   0  0  0  0  0  0  0  0  0  0  0  0
  151.8319  144.8409  158.4739 H   0  0  0  0  0  0  0  0  0  0  0  0
  150.4105  144.7968  159.4987 H   0  0  0  0  0  0  0  0  0  0  0  0
  153.6126  143.2785  158.8864 H   0  0  0  0  0  0  0  0  0  0  0  0
  153.4426  142.1287  160.1982 H   0  0  0  0  0  0  0  0  0  0  0  0
  151.6773  140.8917  158.9969 H   0  0  0  0  0  0  0  0  0  0  0  0
  153.0873  141.0512  157.9662 H   0  0  0  0  0  0  0  0  0  0  0  0
  152.6383  140.0342  156.3850 H   0  0  0  0  0  0  0  0  0  0  0  0
  149.4033  142.6845  156.0078 H   0  0  0  0  0  0  0  0  0  0  0  0
  1  2  1  0  0  0  0
  1 22  1  0  0  0  0
  1 23  1  0  0  0  0
  1 24  1  0  0  0  0
  2  3  1  0  0  0  0
  2  4  1  0  0  0  0
  2 25  1  0  0  0  0
  3 26  1  0  0  0  0
  3 27  1  0  0  0  0
  3 28  1  0  0  0  0
  4  5  1  0  0  0  0
  4 29  1  0  0  0  0
  4 30  1  0  0  0  0
  5  6  1  0  0  0  0
  5 31  1  0  0  0  0
  6  7  2  0  0  0  0
  6  8  1  0  0  0  0
  8  9  1  0  0  0  0
  8 32  1  0  0  0  0
  9 10  1  0  0  0  0
  9 33  1  0  0  0  0
  9 34  1  0  0  0  0
 10 21  1  0  0  0  0
 10 11  2  0  0  0  0
 11 12  1  0  0  0  0
 11 35  1  0  0  0  0
 12 13  2  0  0  0  0
 12 36  1  0  0  0  0
 13 14  1  0  0  0  0
 13 46  1  0  0  0  0
 14 15  1  0  0  0  0
 14 21  2  0  0  0  0
 15 20  1  0  0  0  0
 15 16  1  0  0  0  0
 16 17  1  0  0  0  0
 16 37  1  0  0  0  0
 16 38  1  0  0  0  0
 17 18  1  0  0  0  0
 17 39  1  0  0  0  0
 17 40  1  0  0  0  0
 18 19  1  0  0  0  0
 19 20  1  0  0  0  0
 19 41  1  0  0  0  0
 19 42  1  0  0  0  0
 20 43  1  0  0  0  0
 20 44  1  0  0  0  0
 21 45  1  0  0  0  0
M  CHG  1  13   1
M  END
> <s_m_source_file>
AV-unprocessed.smi

> <i_m_source_file_index>
2109

> <i_lp_mmshare_version>
43012

> <i_f3d_flags>
0

> <s_epik_input>
W0NIM11bQ0hdKFtDSDNdKVtDSDJdW05IXUMoPU8pW05IXVtDSDJdYzFbY0hdW2NIXW5jKFtjSF0xKU4yW0NIMl1bQ0gyXU9bQ0gyXVtDSDJdMg==

> <s_epik_cmdline>
J2VwaWtfcHl0aG9uJywgJy1waCcsICc3LjAnLCAnLXRuJywgJzgnLCAnLW1hJywgJzIwMCcsICctbWV0YWxfYmluZGluZycsICctaW1hZScsICc8aW5maWxlLm1hZT4nLCAnLW9tYWUnLCAnPG91dGZpbGUubWFlPic=

> <r_lp_tautomer_probability>
0.999994

> <r_epik_Ionization_Penalty>
2.29114

> <r_epik_Ionization_Penalty_Charging>
2.2911

> <r_epik_Ionization_Penalty_Neutral>
4.11828e-05

> <r_epik_State_Penalty>
2.44112

> <r_epik_Charging_Adjusted_Penalty>
4.73222

> <i_epik_Tot_Q>
1

> <i_epik_Tot_abs_Q>
1

> <r_epik_Metal_State_Penalty>
2.45346

> <b_epik_Metal_Only>
0

> <s_lp_Force_Field>
OPLS_2005

> <r_lp_Energy>
19.1618

> <b_lp_Chiralities_Consistent>
1

> <s_lp_Variant>
AV-unprocessed.smi:2109-2

> <Gold.Version>
5.8.1

> <Gold.Id.Protein>
6NUR|6NUR_protein|mol2

> <Gold.PLP.Fitness>
57.7879

> <Gold.PLP.PLP>
-45.2692

> <Gold.PLP.part.hbond>
-5.0000

> <Gold.PLP.part.metal>
0.0000

> <Gold.PLP.part.buried>
0.1861

> <Gold.PLP.part.nonpolar>
-39.6406

> <Gold.PLP.part.repulsive>
0.3941

> <Gold.PLP.ligand.clash>
0.0000

> <Gold.PLP.ligand.torsion>
0.7153

> <Gold.PLP.Chemscore.Hbond>
4.4840

> <Gold.PLP.Chemscore.CHOScore>
0.0000

> <Gold.PLP.Chemscore.Metal>
0.0000

> <Gold.Chemscore.Hbonds>
donor molecule, donor type, donor heavy atom, donor atom, acceptor molecule, acceptor atom, score
      L1  H     5    31       P1  7948  0.70
      L1  H     8    32       P1  7948  0.25
      L1  H    13    46       P1  8028  1.41
      P1  H 10752 10764       L1     7  0.47

> <Gold.PLP.Chemscore.Internal.Correction>
0.4972

> <Gold.Rescore>
     Score         DG    S(hbond)    S(metal)    S(lipo)     H(rot)  DE(clash)    DE(int)     intcor
     18.38     -19.39       2.26        0.00      94.11       1.82       0.18       0.83       ----

> <Gold.Chemscore.Fitness>
18.3780

> <Gold.Chemscore.DG>
-19.3929

> <Gold.Chemscore.ZeroCoef>
-5.4800

> <Gold.Chemscore.Hbond>
2.2624

> <Gold.Chemscore.Metal>
0.0000

> <Gold.Chemscore.Lipo>
94.1075

> <Gold.Chemscore.Internal_Hbond>
0.0000

> <Gold.Chemscore.DEClash>
0.1836

> <Gold.Chemscore.DEInternal>
0.8313

> <Gold.Chemscore.Rot>
1.8180

> <Gold.Chemscore.Internal.Correction>
   9.000000E+99

> <Gold.Chemscore.Hbonds>
donor molecule, donor type, donor heavy atom, donor atom, acceptor molecule, acceptor atom, score
      L1  H     5    31       P1  7948  0.07
      L1  H     8    32       P1  7948  0.02
      L1  H    13    46       P1  8028  0.68
      P1  H 10752 10764       L1     7  0.42

> <Gold.Chemscore.Hbond.Weighted>
-7.5565

> <Gold.Chemscore.Metal.Weighted>
-0.0000

> <Gold.Chemscore.Lipo.Weighted>
-11.0106

> <Gold.Chemscore.Internal_Hbond.Weighted>
0.0000

> <Gold.Chemscore.DEClash.Weighted>
0.1836

> <Gold.Chemscore.DEInternal.Weighted>
0.8313

> <Gold.Chemscore.Rot.Weighted>
4.6541

> <Gold.Chemscore.Internal.Correction.Weighted>
   9.000000E+99

> <Gold.Protein.RotatedTorsions>
[ 6907 6896 6895 6894 ] final   81.95 input  -60.11 | X-H torsion
[ 7974 7965 7964 7962 ] final -146.25 input  175.53 | X-H torsion
[ 8008 7997 7996 7995 ] final  -69.87 input   59.86 | X-H torsion
[ 10167 10162 10161 10158 ] final -147.77 input  -65.29 | X-H torsion
[ 10718 10713 10712 10709 ] final  142.46 input   66.30 | X-H torsion
[ 10763 10752 10751 10750 ] final  -25.19 input  -60.55 | X-H torsion
[ 11005 11000 10999 10996 ] final   56.23 input  -57.11 | X-H torsion

> <Gold.Protein.ActiveResidues>
 VAL166  LYS551  ARG553  GLY616  TRP617  ASP618  TYR619  PRO620  LYS621  CYS622 
 ASP623  PHE694  ASN695  SER759  ASP760  ASP761  ALA762  ILE779  LEU786  VAL792 
 PHE793  MET794  SER795  GLU796  ALA797  LYS798  CYS799  TRP800  GLU811  SER814 

> <Gold.Protein.RotatedAtoms>
  152.5284  134.3126  159.9118 H   0  0  0  0  0  0  0  0  0  0  0  0  # atno 6907 bound_to 6896
  151.3075  133.4088  159.2652 H   0  0  0  0  0  0  0  0  0  0  0  0  # atno 6908 bound_to 6896
  151.0066  134.9381  159.8041 H   0  0  0  0  0  0  0  0  0  0  0  0  # atno 6909 bound_to 6896
  144.8172  140.5480  143.5603 H   0  0  0  0  0  0  0  0  0  0  0  0  # atno 7974 bound_to 7965
  154.4970  140.0845  156.7718 H   0  0  0  0  0  0  0  0  0  0  0  0  # atno 8008 bound_to 7997
  155.4093  140.3440  155.4244 H   0  0  0  0  0  0  0  0  0  0  0  0  # atno 8009 bound_to 7997
  156.1407  140.1528  156.8913 H   0  0  0  0  0  0  0  0  0  0  0  0  # atno 8010 bound_to 7997
  139.7592  143.8402  152.2603 H   0  0  0  0  0  0  0  0  0  0  0  0  # atno 10167 bound_to 10162
  157.3803  131.0991  151.0745 H   0  0  0  0  0  0  0  0  0  0  0  0  # atno 10718 bound_to 10713
  153.6959  135.6959  153.5076 H   0  0  0  0  0  0  0  0  0  0  0  0  # atno 10763 bound_to 10752
  153.2378  135.4316  155.0664 H   0  0  0  0  0  0  0  0  0  0  0  0  # atno 10764 bound_to 10752
  154.8359  135.3500  154.6500 H   0  0  0  0  0  0  0  0  0  0  0  0  # atno 10765 bound_to 10752
  140.0545  134.5690  155.9224 H   0  0  0  0  0  0  0  0  0  0  0  0  # atno 11005 bound_to 11000
  145.5187  139.1477  143.3564 LP  0  0  0  0  0  0  0  0  0  0  0  0  # atno 17320 bound_to 7965
  146.2476  140.5328  142.8907 LP  0  0  0  0  0  0  0  0  0  0  0  0  # atno 17321 bound_to 7965
  139.8403  144.7213  150.9339 LP  0  0  0  0  0  0  0  0  0  0  0  0  # atno 17342 bound_to 10162
  140.7805  143.3989  151.1182 LP  0  0  0  0  0  0  0  0  0  0  0  0  # atno 17343 bound_to 10162
  157.1816  130.6312  149.5674 LP  0  0  0  0  0  0  0  0  0  0  0  0  # atno 17370 bound_to 10713
  155.9774  130.4751  150.6592 LP  0  0  0  0  0  0  0  0  0  0  0  0  # atno 17371 bound_to 10713
  141.1945  133.6583  156.5601 LP  0  0  0  0  0  0  0  0  0  0  0  0  # atno 17394 bound_to 11000
  140.3866  134.7477  157.4695 LP  0  0  0  0  0  0  0  0  0  0  0  0  # atno 17395 bound_to 11000

$$$$
