AV-unprocessed.smi:138|AV-procd|sdf|1179|dock6
  -GOLD-   2262018333D 1   1.00000     0.00000
 Structure written by MMmdl.
 52 55  0  0  0  0  0  0  0  0  1 V2000
  148.1157  141.8652  156.3883 C   0  0  0  0  0  0  0  0  0  0  0  0
  148.7775  140.7137  157.0758 C   0  0  0  0  0  0  0  0  0  0  0  0
  148.2380  139.5386  157.5084 C   0  0  0  0  0  0  0  0  0  0  0  0
  149.2694  138.7554  158.0968 C   0  0  0  0  0  0  0  0  0  0  0  0
  149.1747  137.3953  158.6852 C   0  0  0  0  0  0  0  0  0  0  0  0
  150.1303  136.8189  159.2078 O   0  0  0  0  0  0  0  0  0  0  0  0
  147.7910  136.7236  158.6028 C   0  0  0  0  0  0  0  0  0  0  0  0
  147.6059  135.6758  159.5993 N   0  0  0  0  0  0  0  0  0  0  0  0
  147.2946  136.0695  160.9249 C   0  0  0  0  0  0  0  0  0  0  0  0
  147.1837  137.2536  161.2478 O   0  0  0  0  0  0  0  0  0  0  0  0
  147.1064  134.9632  161.8571 C   0  0  0  0  0  0  0  0  0  0  0  0
  146.8176  135.2208  163.1441 F   0  0  0  0  0  0  0  0  0  0  0  0
  147.2155  133.6802  161.4498 C   0  0  0  0  0  0  0  0  0  0  0  0
  147.5070  133.3247  160.1429 N   0  0  0  0  0  0  0  0  0  0  0  0
  147.6052  131.8795  159.7071 C   0  0  2  0  0  0  0  0  0  0  0  0
  146.5311  131.5610  158.6520 C   0  0  0  0  0  0  0  0  0  0  0  0
  145.9109  130.2862  159.1864 C   0  0  0  0  0  0  0  0  0  0  0  0
  146.0794  130.4622  160.6881 C   0  0  0  0  0  0  0  0  0  0  0  0
  147.3760  131.0359  160.8000 O   0  0  0  0  0  0  0  0  0  0  0  0
  147.7095  134.3300  159.1728 C   0  0  0  0  0  0  0  0  0  0  0  0
  147.9527  134.0345  158.0001 O   0  0  0  0  0  0  0  0  0  0  0  0
  150.4321  139.4880  158.0253 C   0  0  0  0  0  0  0  0  0  0  0  0
  151.8201  139.1618  158.5043 C   0  0  0  0  0  0  0  0  0  0  0  0
  150.1341  140.6903  157.3796 N   0  0  0  0  0  0  0  0  0  0  0  0
  151.0800  141.7593  157.0726 C   0  0  0  0  0  0  0  0  0  0  0  0
  151.5906  142.4466  158.2975 C   0  0  0  0  0  0  0  0  0  0  0  0
  152.2868  142.0202  159.3948 C   0  0  0  0  0  0  0  0  0  0  0  0
  152.4785  143.1634  160.2186 C   0  0  0  0  0  0  0  0  0  0  0  0
  151.8857  144.2037  159.5619 C   0  0  0  0  0  0  0  0  0  0  0  0
  151.3410  143.7839  158.3881 O   0  0  0  0  0  0  0  0  0  0  0  0
  147.0370  141.7166  156.3350 H   0  0  0  0  0  0  0  0  0  0  0  0
  148.4854  141.9755  155.3688 H   0  0  0  0  0  0  0  0  0  0  0  0
  148.2946  142.7989  156.9212 H   0  0  0  0  0  0  0  0  0  0  0  0
  147.1980  139.2668  157.4028 H   0  0  0  0  0  0  0  0  0  0  0  0
  146.9930  137.4569  158.7297 H   0  0  0  0  0  0  0  0  0  0  0  0
  147.6267  136.2846  157.6178 H   0  0  0  0  0  0  0  0  0  0  0  0
  147.0637  132.9123  162.1922 H   0  0  0  0  0  0  0  0  0  0  0  0
  148.6300  131.7395  159.3586 H   0  0  0  0  0  0  0  0  0  0  0  0
  145.7875  132.3592  158.6182 H   0  0  0  0  0  0  0  0  0  0  0  0
  146.9745  131.4463  157.6625 H   0  0  0  0  0  0  0  0  0  0  0  0
  144.8709  130.1569  158.8855 H   0  0  0  0  0  0  0  0  0  0  0  0
  146.4787  129.4198  158.8448 H   0  0  0  0  0  0  0  0  0  0  0  0
  145.3292  131.1478  161.0839 H   0  0  0  0  0  0  0  0  0  0  0  0
  146.0092  129.5213  161.2341 H   0  0  0  0  0  0  0  0  0  0  0  0
  151.7977  138.8055  159.5341 H   0  0  0  0  0  0  0  0  0  0  0  0
  152.4929  140.0162  158.4890 H   0  0  0  0  0  0  0  0  0  0  0  0
  152.2631  138.3791  157.8883 H   0  0  0  0  0  0  0  0  0  0  0  0
  151.9066  141.3472  156.4941 H   0  0  0  0  0  0  0  0  0  0  0  0
  150.6081  142.4875  156.4138 H   0  0  0  0  0  0  0  0  0  0  0  0
  152.6162  141.0091  159.5820 H   0  0  0  0  0  0  0  0  0  0  0  0
  152.9855  143.2178  161.1708 H   0  0  0  0  0  0  0  0  0  0  0  0
  151.7655  145.2553  159.7763 H   0  0  0  0  0  0  0  0  0  0  0  0
  1  2  1  0  0  0  0
  1 31  1  0  0  0  0
  1 32  1  0  0  0  0
  1 33  1  0  0  0  0
  2 24  1  0  0  0  0
  2  3  2  0  0  0  0
  3  4  1  0  0  0  0
  3 34  1  0  0  0  0
  4  5  1  0  0  0  0
  4 22  2  0  0  0  0
  5  6  2  0  0  0  0
  5  7  1  0  0  0  0
  7  8  1  0  0  0  0
  7 35  1  0  0  0  0
  7 36  1  0  0  0  0
  8 20  1  0  0  0  0
  8  9  1  0  0  0  0
  9 10  2  0  0  0  0
  9 11  1  0  0  0  0
 11 12  1  0  0  0  0
 11 13  2  0  0  0  0
 13 14  1  0  0  0  0
 13 37  1  0  0  0  0
 14 15  1  0  0  0  0
 14 20  1  0  0  0  0
 15 19  1  0  0  0  0
 15 16  1  0  0  0  0
 15 38  1  0  0  0  0
 16 17  1  0  0  0  0
 16 39  1  0  0  0  0
 16 40  1  0  0  0  0
 17 18  1  0  0  0  0
 17 41  1  0  0  0  0
 17 42  1  0  0  0  0
 18 19  1  0  0  0  0
 18 43  1  0  0  0  0
 18 44  1  0  0  0  0
 20 21  2  0  0  0  0
 22 23  1  0  0  0  0
 22 24  1  0  0  0  0
 23 45  1  0  0  0  0
 23 46  1  0  0  0  0
 23 47  1  0  0  0  0
 24 25  1  0  0  0  0
 25 26  1  0  0  0  0
 25 48  1  0  0  0  0
 25 49  1  0  0  0  0
 26 30  1  0  0  0  0
 26 27  2  0  0  0  0
 27 28  1  0  0  0  0
 27 50  1  0  0  0  0
 28 29  2  0  0  0  0
 28 51  1  0  0  0  0
 29 30  1  0  0  0  0
 29 52  1  0  0  0  0
M  END
> <s_m_source_file>
AV-unprocessed.smi

> <i_m_source_file_index>
138

> <i_lp_mmshare_version>
43012

> <i_f3d_flags>
0

> <s_epik_input>
bzFbY0hdW2NIXVtjSF1jMVtDSDJdbjJjKFtDSDNdKWMoW2NIXWMyW0NIM10pQyg9TylbQ0gyXW4zYyg9TyljKEYpW2NIXW4oYzM9TylbQ0BASF00W0NIMl1bQ0gyXVtDSDJdTzQ=

> <s_epik_cmdline>
J2VwaWtfcHl0aG9uJywgJy1waCcsICc3LjAnLCAnLXRuJywgJzgnLCAnLW1hJywgJzIwMCcsICctbWV0YWxfYmluZGluZycsICctaW1hZScsICc8aW5maWxlLm1hZT4nLCAnLW9tYWUnLCAnPG91dGZpbGUubWFlPic=

> <r_lp_tautomer_probability>
1

> <r_epik_Ionization_Penalty>
5.03107e-09

> <r_epik_Ionization_Penalty_Charging>
5.01743e-09

> <r_epik_Ionization_Penalty_Neutral>
1.36377e-11

> <r_epik_State_Penalty>
-0

> <r_epik_Charging_Adjusted_Penalty>
5.01743e-09

> <i_epik_Tot_Q>
0

> <i_epik_Tot_abs_Q>
0

> <r_epik_Metal_State_Penalty>
-0

> <b_epik_Metal_Only>
0

> <s_epik_Chemistry_Notes>
This compound contains an acetal/aminal-like group ( X-CH(R)-Y where X, Y are N, S, or O) that may be acid/base labile, releasing an aldehyde.

> <s_lp_Force_Field>
OPLS_2005

> <r_lp_Energy>
38.6842

> <b_lp_Chiralities_Consistent>
1

> <s_lp_Variant>
AV-unprocessed.smi:138-1

> <Gold.Version>
5.8.1

> <Gold.Id.Protein>
6NUR|6NUR_protein|mol2

> <Gold.PLP.Fitness>
54.1542

> <Gold.PLP.PLP>
-47.0844

> <Gold.PLP.part.hbond>
-3.0000

> <Gold.PLP.part.metal>
0.0000

> <Gold.PLP.part.buried>
-6.3358

> <Gold.PLP.part.nonpolar>
-37.9478

> <Gold.PLP.part.repulsive>
0.1028

> <Gold.PLP.ligand.clash>
0.0000

> <Gold.PLP.ligand.torsion>
0.6305

> <Gold.PLP.Chemscore.Hbond>
2.7600

> <Gold.PLP.Chemscore.CHOScore>
0.0000

> <Gold.PLP.Chemscore.Metal>
0.0000

> <Gold.Chemscore.Hbonds>
donor molecule, donor type, donor heavy atom, donor atom, acceptor molecule, acceptor atom, score
      P1  H  6896  6908       L1     6  0.80
      P1  H  6931  6943       L1    10  0.47
      P1  H  6934  6947       L1    10  1.00

> <Gold.PLP.Chemscore.Internal.Correction>
0.0507

> <Gold.Rescore>
     Score         DG    S(hbond)    S(metal)    S(lipo)     H(rot)  DE(clash)    DE(int)     intcor
     17.89     -20.58       2.70        0.00      95.71       2.00       0.67       2.02       ----

> <Gold.Chemscore.Fitness>
17.8894

> <Gold.Chemscore.DG>
-20.5816

> <Gold.Chemscore.ZeroCoef>
-5.4800

> <Gold.Chemscore.Hbond>
2.6983

> <Gold.Chemscore.Metal>
0.0000

> <Gold.Chemscore.Lipo>
95.7144

> <Gold.Chemscore.Internal_Hbond>
0.0000

> <Gold.Chemscore.DEClash>
0.6743

> <Gold.Chemscore.DEInternal>
2.0179

> <Gold.Chemscore.Rot>
1.9958

> <Gold.Chemscore.Internal.Correction>
   9.000000E+99

> <Gold.Chemscore.Hbonds>
donor molecule, donor type, donor heavy atom, donor atom, acceptor molecule, acceptor atom, score
      P1  H  6896  6908       L1     6  0.78
      P1  H  6931  6943       L1    10  0.44
      P1  H  6934  6947       L1    10  0.98

> <Gold.Chemscore.Hbond.Weighted>
-9.0122

> <Gold.Chemscore.Metal.Weighted>
-0.0000

> <Gold.Chemscore.Lipo.Weighted>
-11.1986

> <Gold.Chemscore.Internal_Hbond.Weighted>
0.0000

> <Gold.Chemscore.DEClash.Weighted>
0.6743

> <Gold.Chemscore.DEInternal.Weighted>
2.0179

> <Gold.Chemscore.Rot.Weighted>
5.1092

> <Gold.Chemscore.Internal.Correction.Weighted>
   9.000000E+99

> <Gold.Protein.RotatedTorsions>
[ 6907 6896 6895 6894 ] final -166.82 input  -60.11 | X-H torsion
[ 7974 7965 7964 7962 ] final  144.60 input  175.53 | X-H torsion
[ 8008 7997 7996 7995 ] final  -68.78 input   59.86 | X-H torsion
[ 10167 10162 10161 10158 ] final  -27.05 input  -65.29 | X-H torsion
[ 10718 10713 10712 10709 ] final  172.19 input   66.30 | X-H torsion
[ 10763 10752 10751 10750 ] final  171.14 input  -60.55 | X-H torsion
[ 11005 11000 10999 10996 ] final  -33.36 input  -57.11 | X-H torsion

> <Gold.Protein.ActiveResidues>
 VAL166  LYS551  ARG553  GLY616  TRP617  ASP618  TYR619  PRO620  LYS621  CYS622 
 ASP623  PHE694  ASN695  SER759  ASP760  ASP761  ALA762  ILE779  LEU786  VAL792 
 PHE793  MET794  SER795  GLU796  ALA797  LYS798  CYS799  TRP800  GLU811  SER814 

> <Gold.Protein.RotatedAtoms>
  151.4497  133.3621  159.2793 H   0  0  0  0  0  0  0  0  0  0  0  0  # atno 6907 bound_to 6896
  150.9099  134.8517  159.7429 H   0  0  0  0  0  0  0  0  0  0  0  0  # atno 6908 bound_to 6896
  152.4927  134.4426  159.9600 H   0  0  0  0  0  0  0  0  0  0  0  0  # atno 6909 bound_to 6896
  144.8822  139.5682  143.5837 H   0  0  0  0  0  0  0  0  0  0  0  0  # atno 7974 bound_to 7965
  154.4892  140.0866  156.7556 H   0  0  0  0  0  0  0  0  0  0  0  0  # atno 8008 bound_to 7997
  155.4273  140.3448  155.4258 H   0  0  0  0  0  0  0  0  0  0  0  0  # atno 8009 bound_to 7997
  156.1305  140.1500  156.9060 H   0  0  0  0  0  0  0  0  0  0  0  0  # atno 8010 bound_to 7997
  140.7279  143.4126  151.1081 H   0  0  0  0  0  0  0  0  0  0  0  0  # atno 10167 bound_to 10162
  156.9826  131.0123  151.2878 H   0  0  0  0  0  0  0  0  0  0  0  0  # atno 10718 bound_to 10713
  154.4076  135.2756  155.2057 H   0  0  0  0  0  0  0  0  0  0  0  0  # atno 10763 bound_to 10752
  154.4056  135.6034  153.5926 H   0  0  0  0  0  0  0  0  0  0  0  0  # atno 10764 bound_to 10752
  152.9831  135.5937  154.4353 H   0  0  0  0  0  0  0  0  0  0  0  0  # atno 10765 bound_to 10752
  140.9629  133.7154  156.1397 H   0  0  0  0  0  0  0  0  0  0  0  0  # atno 11005 bound_to 11000
  146.3002  139.7401  142.9097 LP  0  0  0  0  0  0  0  0  0  0  0  0  # atno 17320 bound_to 7965
  145.3934  141.0375  143.3111 LP  0  0  0  0  0  0  0  0  0  0  0  0  # atno 17321 bound_to 7965
  139.7761  143.8423  152.3129 LP  0  0  0  0  0  0  0  0  0  0  0  0  # atno 17342 bound_to 10162
  139.8358  144.7233  150.9393 LP  0  0  0  0  0  0  0  0  0  0  0  0  # atno 17343 bound_to 10162
  157.5516  130.8186  149.8152 LP  0  0  0  0  0  0  0  0  0  0  0  0  # atno 17370 bound_to 10713
  156.0238  130.3786  150.1882 LP  0  0  0  0  0  0  0  0  0  0  0  0  # atno 17371 bound_to 10713
  140.7442  134.4116  157.5550 LP  0  0  0  0  0  0  0  0  0  0  0  0  # atno 17394 bound_to 11000
  139.8884  134.8857  156.2476 LP  0  0  0  0  0  0  0  0  0  0  0  0  # atno 17395 bound_to 11000

$$$$
