AV-unprocessed.smi:147|AV-procd|sdf|1201|dock1
  -GOLD-   2262018363D 1   1.00000     0.00000
 Structure written by MMmdl.
 55 57  0  0  0  0  0  0  0  0  1 V2000
  152.9266  143.1241  159.4275 C   0  0  0  0  0  0  0  0  0  0  0  0
  151.7767  144.0643  159.0302 C   0  0  0  0  0  0  0  0  0  0  0  0
  151.4324  145.0360  160.1705 C   0  0  0  0  0  0  0  0  0  0  0  0
  150.5371  143.2634  158.6116 C   0  0  0  0  0  0  0  0  0  0  0  0
  149.5049  143.3229  159.2809 O   0  0  0  0  0  0  0  0  0  0  0  0
  150.6501  142.5205  157.4998 N   0  0  0  0  0  0  0  0  0  0  0  0
  149.5866  141.7051  156.9270 C   0  0  0  0  0  0  0  0  0  0  0  0
  150.1544  140.6278  155.9846 C   0  0  0  0  0  0  0  0  0  0  0  0
  149.3014  140.3994  154.8176 N   0  0  0  0  0  0  0  0  0  0  0  0
  148.8528  141.5641  154.0638 C   0  0  0  0  0  0  0  0  0  0  0  0
  148.6665  139.2038  154.6443 C   0  0  0  0  0  0  0  0  0  0  0  0
  148.8753  138.2147  155.5555 N   0  0  0  0  0  0  0  0  0  0  0  0
  148.2729  137.0296  155.4351 C   0  0  0  0  0  0  0  0  0  0  0  0
  147.4354  136.6152  154.4858 N   0  0  0  0  0  0  0  0  0  0  0  0
  147.2253  137.5885  153.5550 C   0  0  0  0  0  0  0  0  0  0  0  0
  147.7878  138.8993  153.5580 C   0  0  0  0  0  0  0  0  0  0  0  0
  147.3265  139.5981  152.4462 N   0  0  0  0  0  0  0  0  0  0  0  0
  146.5363  138.7598  151.8348 C   0  0  0  0  0  0  0  0  0  0  0  0
  146.4421  137.5173  152.4161 N   0  0  0  0  0  0  0  0  0  0  0  0
  145.6261  136.4235  151.9767 C   0  0  0  0  0  0  0  0  0  0  0  0
  145.7904  135.0254  152.5766 C   0  0  0  0  0  0  0  0  0  0  0  0
  145.4068  134.4024  151.2157 C   0  0  0  0  0  0  0  0  0  0  0  0
  146.2414  133.1842  150.7884 C   0  0  0  0  0  0  0  0  0  0  0  0
  147.4812  133.1498  151.4653 O   0  0  0  0  0  0  0  0  0  0  0  0
  143.9097  134.0782  151.0394 C   0  0  0  0  0  0  0  0  0  0  0  0
  143.6054  133.7570  149.6972 O   0  0  0  0  0  0  0  0  0  0  0  0
  145.8612  135.7535  150.6203 C   0  0  0  0  0  0  0  0  0  0  0  0
  153.1708  142.4325  158.6202 H   0  0  0  0  0  0  0  0  0  0  0  0
  152.6761  142.5326  160.3091 H   0  0  0  0  0  0  0  0  0  0  0  0
  153.8298  143.6899  159.6566 H   0  0  0  0  0  0  0  0  0  0  0  0
  152.1089  144.6552  158.1750 H   0  0  0  0  0  0  0  0  0  0  0  0
  150.6186  145.7056  159.8892 H   0  0  0  0  0  0  0  0  0  0  0  0
  152.2917  145.6567  160.4253 H   0  0  0  0  0  0  0  0  0  0  0  0
  151.1296  144.5048  161.0738 H   0  0  0  0  0  0  0  0  0  0  0  0
  151.5332  142.5280  157.0104 H   0  0  0  0  0  0  0  0  0  0  0  0
  149.0442  141.2393  157.7500 H   0  0  0  0  0  0  0  0  0  0  0  0
  148.8695  142.3394  156.4035 H   0  0  0  0  0  0  0  0  0  0  0  0
  151.1378  140.9362  155.6279 H   0  0  0  0  0  0  0  0  0  0  0  0
  150.3236  139.6959  156.5257 H   0  0  0  0  0  0  0  0  0  0  0  0
  149.2032  141.5110  153.0329 H   0  0  0  0  0  0  0  0  0  0  0  0
  149.2432  142.4851  154.4975 H   0  0  0  0  0  0  0  0  0  0  0  0
  147.7646  141.6353  154.0642 H   0  0  0  0  0  0  0  0  0  0  0  0
  148.4962  136.3098  156.2087 H   0  0  0  0  0  0  0  0  0  0  0  0
  146.0055  139.0252  150.9320 H   0  0  0  0  0  0  0  0  0  0  0  0
  144.5929  136.7625  152.0675 H   0  0  0  0  0  0  0  0  0  0  0  0
  146.8222  134.8176  152.8662 H   0  0  0  0  0  0  0  0  0  0  0  0
  145.1065  134.8069  153.3973 H   0  0  0  0  0  0  0  0  0  0  0  0
  145.7149  132.2564  151.0140 H   0  0  0  0  0  0  0  0  0  0  0  0
  146.4230  133.1779  149.7135 H   0  0  0  0  0  0  0  0  0  0  0  0
  148.0077  132.4603  151.0906 H   0  0  0  0  0  0  0  0  0  0  0  0
  143.6147  133.2311  151.6587 H   0  0  0  0  0  0  0  0  0  0  0  0
  143.2811  134.9124  151.3513 H   0  0  0  0  0  0  0  0  0  0  0  0
  142.8263  134.2286  149.4450 H   0  0  0  0  0  0  0  0  0  0  0  0
  145.2337  136.1333  149.8136 H   0  0  0  0  0  0  0  0  0  0  0  0
  146.9136  135.7551  150.3294 H   0  0  0  0  0  0  0  0  0  0  0  0
  1  2  1  0  0  0  0
  1 28  1  0  0  0  0
  1 29  1  0  0  0  0
  1 30  1  0  0  0  0
  2  3  1  0  0  0  0
  2  4  1  0  0  0  0
  2 31  1  0  0  0  0
  3 32  1  0  0  0  0
  3 33  1  0  0  0  0
  3 34  1  0  0  0  0
  4  5  2  0  0  0  0
  4  6  1  0  0  0  0
  6  7  1  0  0  0  0
  6 35  1  0  0  0  0
  7  8  1  0  0  0  0
  7 36  1  0  0  0  0
  7 37  1  0  0  0  0
  8  9  1  0  0  0  0
  8 38  1  0  0  0  0
  8 39  1  0  0  0  0
  9 10  1  0  0  0  0
  9 11  1  0  0  0  0
 10 40  1  0  0  0  0
 10 41  1  0  0  0  0
 10 42  1  0  0  0  0
 11 16  1  0  0  0  0
 11 12  2  0  0  0  0
 12 13  1  0  0  0  0
 13 14  2  0  0  0  0
 13 43  1  0  0  0  0
 14 15  1  0  0  0  0
 15 19  1  0  0  0  0
 15 16  2  0  0  0  0
 16 17  1  0  0  0  0
 17 18  2  0  0  0  0
 18 19  1  0  0  0  0
 18 44  1  0  0  0  0
 19 20  1  0  0  0  0
 20 27  1  0  0  0  0
 20 21  1  0  0  0  0
 20 45  1  0  0  0  0
 21 22  1  0  0  0  0
 21 46  1  0  0  0  0
 21 47  1  0  0  0  0
 22 23  1  0  0  0  0
 22 25  1  0  0  0  0
 22 27  1  0  0  0  0
 23 24  1  0  0  0  0
 23 48  1  0  0  0  0
 23 49  1  0  0  0  0
 24 50  1  0  0  0  0
 25 26  1  0  0  0  0
 25 51  1  0  0  0  0
 25 52  1  0  0  0  0
 26 53  1  0  0  0  0
 27 54  1  0  0  0  0
 27 55  1  0  0  0  0
M  END
> <s_m_source_file>
AV-unprocessed.smi

> <i_m_source_file_index>
147

> <i_lp_mmshare_version>
43012

> <i_f3d_flags>
0

> <s_epik_input>
W0NIM11bQ0hdKFtDSDNdKUMoPU8pW05IXVtDSDJdW0NIMl1OKFtDSDNdKWMobltjSF1uMSljKGMxMiluW2NIXW4yW0NIXShbQ0gyXTMpW0NIMl1DMyhbQ0gyXVtPSF0pW0NIMl1bT0hd

> <s_epik_cmdline>
J2VwaWtfcHl0aG9uJywgJy1waCcsICc3LjAnLCAnLXRuJywgJzgnLCAnLW1hJywgJzIwMCcsICctbWV0YWxfYmluZGluZycsICctaW1hZScsICc8aW5maWxlLm1hZT4nLCAnLW9tYWUnLCAnPG91dGZpbGUubWFlPic=

> <r_lp_tautomer_probability>
1

> <r_epik_Ionization_Penalty>
0.00124047

> <r_epik_Ionization_Penalty_Charging>
0

> <r_epik_Ionization_Penalty_Neutral>
0.00124047

> <r_epik_State_Penalty>
0.000682986

> <r_epik_Charging_Adjusted_Penalty>
0.000682986

> <i_epik_Tot_Q>
0

> <i_epik_Tot_abs_Q>
0

> <r_epik_Metal_State_Penalty>
-0

> <b_epik_Metal_Only>
0

> <s_lp_Force_Field>
OPLS_2005

> <r_lp_Energy>
28.5646

> <b_lp_Chiralities_Consistent>
1

> <s_lp_Variant>
AV-unprocessed.smi:147-1

> <Gold.Version>
5.8.1

> <Gold.Id.Protein>
6NUR|6NUR_protein|mol2

> <Gold.PLP.Fitness>
51.2631

> <Gold.PLP.PLP>
-43.5091

> <Gold.PLP.part.hbond>
-3.0786

> <Gold.PLP.part.metal>
0.0000

> <Gold.PLP.part.buried>
-2.5182

> <Gold.PLP.part.nonpolar>
-39.9943

> <Gold.PLP.part.repulsive>
1.0643

> <Gold.PLP.ligand.clash>
0.0000

> <Gold.PLP.ligand.torsion>
1.3450

> <Gold.PLP.Chemscore.Hbond>
2.0000

> <Gold.PLP.Chemscore.CHOScore>
1.2196

> <Gold.PLP.Chemscore.Metal>
0.0000

> <Gold.Chemscore.Hbonds>
donor molecule, donor type, donor heavy atom, donor atom, acceptor molecule, acceptor atom, score
      L1  H    24    50       P1 10747  0.99
      L1  H    26    53       P1 10186  0.99
      L1  C    18    44       P1 10171  1.00

> <Gold.PLP.Chemscore.Internal.Correction>
0.7850

> <Gold.Rescore>
     Score         DG    S(hbond)    S(metal)    S(lipo)     H(rot)  DE(clash)    DE(int)     intcor
      6.97     -12.08       1.94        0.00      91.72       4.15       1.52       3.59       ----

> <Gold.Chemscore.Fitness>
6.9738

> <Gold.Chemscore.DG>
-12.0848

> <Gold.Chemscore.ZeroCoef>
-5.4800

> <Gold.Chemscore.Hbond>
1.9433

> <Gold.Chemscore.Metal>
0.0000

> <Gold.Chemscore.Lipo>
91.7162

> <Gold.Chemscore.Internal_Hbond>
0.0000

> <Gold.Chemscore.DEClash>
1.5215

> <Gold.Chemscore.DEInternal>
3.5895

> <Gold.Chemscore.Rot>
4.1472

> <Gold.Chemscore.Internal.Correction>
   9.000000E+99

> <Gold.Chemscore.Hbonds>
donor molecule, donor type, donor heavy atom, donor atom, acceptor molecule, acceptor atom, score
      L1  H    24    50       P1 10747  0.92
      L1  H    26    53       P1 10186  0.94

> <Gold.Chemscore.Hbond.Weighted>
-6.4907

> <Gold.Chemscore.Metal.Weighted>
-0.0000

> <Gold.Chemscore.Lipo.Weighted>
-10.7308

> <Gold.Chemscore.Internal_Hbond.Weighted>
0.0000

> <Gold.Chemscore.DEClash.Weighted>
1.5215

> <Gold.Chemscore.DEInternal.Weighted>
3.5895

> <Gold.Chemscore.Rot.Weighted>
10.6167

> <Gold.Chemscore.Internal.Correction.Weighted>
   9.000000E+99

> <Gold.Protein.RotatedTorsions>
[ 6907 6896 6895 6894 ] final  120.56 input  -60.11 | X-H torsion
[ 7974 7965 7964 7962 ] final  100.82 input  175.53 | X-H torsion
[ 8008 7997 7996 7995 ] final -160.12 input   59.86 | X-H torsion
[ 10167 10162 10161 10158 ] final   68.15 input  -65.29 | X-H torsion
[ 10718 10713 10712 10709 ] final  -46.78 input   66.30 | X-H torsion
[ 10763 10752 10751 10750 ] final    1.58 input  -60.55 | X-H torsion
[ 11005 11000 10999 10996 ] final  -63.14 input  -57.11 | X-H torsion

> <Gold.Protein.ActiveResidues>
 VAL166  LYS551  ARG553  GLY616  TRP617  ASP618  TYR619  PRO620  LYS621  CYS622 
 ASP623  PHE694  ASN695  SER759  ASP760  ASP761  ALA762  ILE779  LEU786  VAL792 
 PHE793  MET794  SER795  GLU796  ALA797  LYS798  CYS799  TRP800  GLU811  SER814 

> <Gold.Protein.RotatedAtoms>
  152.4389  133.7411  159.6641 H   0  0  0  0  0  0  0  0  0  0  0  0  # atno 6907 bound_to 6896
  150.8276  133.8134  159.3118 H   0  0  0  0  0  0  0  0  0  0  0  0  # atno 6908 bound_to 6896
  151.5798  135.1061  160.0066 H   0  0  0  0  0  0  0  0  0  0  0  0  # atno 6909 bound_to 6896
  145.3805  139.2380  143.3406 H   0  0  0  0  0  0  0  0  0  0  0  0  # atno 7974 bound_to 7965
  155.7727  140.0854  157.2099 H   0  0  0  0  0  0  0  0  0  0  0  0  # atno 8008 bound_to 7997
  154.3995  140.1522  156.3018 H   0  0  0  0  0  0  0  0  0  0  0  0  # atno 8009 bound_to 7997
  155.8731  140.3424  155.5837 H   0  0  0  0  0  0  0  0  0  0  0  0  # atno 8010 bound_to 7997
  140.0818  144.5065  150.7157 H   0  0  0  0  0  0  0  0  0  0  0  0  # atno 10167 bound_to 10162
  156.2149  130.4163  149.9067 H   0  0  0  0  0  0  0  0  0  0  0  0  # atno 10718 bound_to 10713
  153.3063  135.6959  153.7157 H   0  0  0  0  0  0  0  0  0  0  0  0  # atno 10763 bound_to 10752
  153.6052  135.3455  155.2960 H   0  0  0  0  0  0  0  0  0  0  0  0  # atno 10764 bound_to 10752
  154.8564  135.4350  154.2188 H   0  0  0  0  0  0  0  0  0  0  0  0  # atno 10765 bound_to 10752
  141.1383  133.6648  156.5635 H   0  0  0  0  0  0  0  0  0  0  0  0  # atno 11005 bound_to 11000
  146.2844  140.4472  142.8763 LP  0  0  0  0  0  0  0  0  0  0  0  0  # atno 17320 bound_to 7965
  144.8511  140.7002  143.6168 LP  0  0  0  0  0  0  0  0  0  0  0  0  # atno 17321 bound_to 7965
  140.7074  143.2478  151.4685 LP  0  0  0  0  0  0  0  0  0  0  0  0  # atno 17342 bound_to 10162
  139.5775  144.1785  152.1924 LP  0  0  0  0  0  0  0  0  0  0  0  0  # atno 17343 bound_to 10162
  156.6733  130.8829  151.3565 LP  0  0  0  0  0  0  0  0  0  0  0  0  # atno 17370 bound_to 10713
  157.7058  130.9383  150.0926 LP  0  0  0  0  0  0  0  0  0  0  0  0  # atno 17371 bound_to 10713
  140.3969  134.7391  157.4756 LP  0  0  0  0  0  0  0  0  0  0  0  0  # atno 17394 bound_to 11000
  140.0525  134.6111  155.8845 LP  0  0  0  0  0  0  0  0  0  0  0  0  # atno 17395 bound_to 11000

$$$$
