AV-unprocessed.smi:2774|AV-procd|sdf|10680|dock1
  -GOLD-   2272015123D 1   1.00000     0.00000
 Structure written by MMmdl.
 35 36  0  0  0  0  0  0  0  0  2 V2000
  147.1370  138.6531  151.0950 O   0  0  0  0  0  0  0  0  0  0  0  0
  146.2628  138.4098  152.1795 C   0  0  2  0  0  0  0  0  0  0  0  0
  147.0726  138.4618  153.4869 C   0  0  0  0  0  0  0  0  0  0  0  0
  148.5212  138.5985  153.2210 N   0  3  0  0  0  0  0  0  0  0  0  0
  149.3418  138.9973  154.3859 C   0  0  2  0  0  0  0  0  0  0  0  0
  149.1702  140.5082  154.6376 C   0  0  0  0  0  0  0  0  0  0  0  0
  149.9209  140.9953  155.8882 C   0  0  0  0  0  0  0  0  0  0  0  0
  151.4355  140.7711  155.7869 C   0  0  0  0  0  0  0  0  0  0  0  0
  151.8250  139.0078  155.6343 S   0  0  0  0  0  0  0  0  0  0  0  0
  150.8252  138.6333  154.1683 C   0  0  0  0  0  0  0  0  0  0  0  0
  145.5444  137.0783  152.0290 C   0  0  0  0  0  0  0  0  0  0  0  0
  144.5977  136.6498  152.9846 C   0  0  0  0  0  0  0  0  0  0  0  0
  143.9570  135.4099  152.7898 C   0  0  0  0  0  0  0  0  0  0  0  0
  144.2020  134.6076  151.7321 N   0  0  0  0  0  0  0  0  0  0  0  0
  145.1085  135.0219  150.8212 C   0  0  0  0  0  0  0  0  0  0  0  0
  145.8041  136.2436  150.9219 C   0  0  0  0  0  0  0  0  0  0  0  0
  147.7106  139.3682  151.3272 H   0  0  0  0  0  0  0  0  0  0  0  0
  145.5183  139.2076  152.1848 H   0  0  0  0  0  0  0  0  0  0  0  0
  146.7487  139.3165  154.0824 H   0  0  0  0  0  0  0  0  0  0  0  0
  146.8801  137.5687  154.0816 H   0  0  0  0  0  0  0  0  0  0  0  0
  148.8731  137.7249  152.8552 H   0  0  0  0  0  0  0  0  0  0  0  0
  148.9660  138.4650  155.2612 H   0  0  0  0  0  0  0  0  0  0  0  0
  149.5098  141.0719  153.7672 H   0  0  0  0  0  0  0  0  0  0  0  0
  148.1104  140.7388  154.7544 H   0  0  0  0  0  0  0  0  0  0  0  0
  149.7252  142.0582  156.0335 H   0  0  0  0  0  0  0  0  0  0  0  0
  149.5324  140.4905  156.7735 H   0  0  0  0  0  0  0  0  0  0  0  0
  151.8433  141.3019  154.9259 H   0  0  0  0  0  0  0  0  0  0  0  0
  151.9362  141.1648  156.6718 H   0  0  0  0  0  0  0  0  0  0  0  0
  150.9453  137.5718  153.9546 H   0  0  0  0  0  0  0  0  0  0  0  0
  151.2326  139.1766  153.3148 H   0  0  0  0  0  0  0  0  0  0  0  0
  144.3635  137.2549  153.8482 H   0  0  0  0  0  0  0  0  0  0  0  0
  143.2276  135.0539  153.5023 H   0  0  0  0  0  0  0  0  0  0  0  0
  145.2841  134.3605  149.9857 H   0  0  0  0  0  0  0  0  0  0  0  0
  146.5192  136.5265  150.1633 H   0  0  0  0  0  0  0  0  0  0  0  0
  148.6288  139.3077  152.5101 H   0  0  0  0  0  0  0  0  0  0  0  0
  1  2  1  0  0  0  0
  1 17  1  0  0  0  0
  2  3  1  0  0  0  0
  2 11  1  0  0  0  0
  2 18  1  0  0  0  0
  3  4  1  0  0  0  0
  3 19  1  0  0  0  0
  3 20  1  0  0  0  0
  4  5  1  0  0  0  0
  4 21  1  0  0  0  0
  4 35  1  0  0  0  0
  5 10  1  0  0  0  0
  5  6  1  0  0  0  0
  5 22  1  0  0  0  0
  6  7  1  0  0  0  0
  6 23  1  0  0  0  0
  6 24  1  0  0  0  0
  7  8  1  0  0  0  0
  7 25  1  0  0  0  0
  7 26  1  0  0  0  0
  8  9  1  0  0  0  0
  8 27  1  0  0  0  0
  8 28  1  0  0  0  0
  9 10  1  0  0  0  0
 10 29  1  0  0  0  0
 10 30  1  0  0  0  0
 11 16  1  0  0  0  0
 11 12  2  0  0  0  0
 12 13  1  0  0  0  0
 12 31  1  0  0  0  0
 13 14  2  0  0  0  0
 13 32  1  0  0  0  0
 14 15  1  0  0  0  0
 15 16  2  0  0  0  0
 15 33  1  0  0  0  0
 16 34  1  0  0  0  0
M  CHG  1   4   1
M  END
> <s_m_source_file>
AV-unprocessed.smi

> <i_m_source_file_index>
2774

> <i_lp_mmshare_version>
43012

> <i_f3d_flags>
0

> <s_epik_input>
W2NIXTFbY0hdbltjSF1bY0hdYzFbQ0BIXShbT0hdKVtDSDJdW05IXVtDQEBIXTJbQ0gyXVtDSDJdW0NIMl1TW0NIMl0y

> <s_epik_cmdline>
J2VwaWtfcHl0aG9uJywgJy1waCcsICc3LjAnLCAnLXRuJywgJzgnLCAnLW1hJywgJzIwMCcsICctbWV0YWxfYmluZGluZycsICctaW1hZScsICc8aW5maWxlLm1hZT4nLCAnLW9tYWUnLCAnPG91dGZpbGUubWFlPic=

> <r_epik_Ionization_Penalty>
0.0205977

> <r_epik_Ionization_Penalty_Charging>
0.0185619

> <r_epik_Ionization_Penalty_Neutral>
0.00203589

> <r_epik_State_Penalty>
0.0147768

> <r_epik_Charging_Adjusted_Penalty>
0.0333386

> <i_epik_Tot_Q>
1

> <i_epik_Tot_abs_Q>
1

> <r_epik_Metal_State_Penalty>
0.0152254

> <b_epik_Metal_Only>
0

> <s_lp_Force_Field>
OPLS_2005

> <r_lp_Energy>
9.96587

> <b_lp_Chiralities_Consistent>
1

> <s_lp_Variant>
AV-unprocessed.smi:2774-1

> <Gold.Version>
5.8.1

> <Gold.Id.Protein>
6NUR|6NUR_protein|mol2

> <Gold.PLP.Fitness>
49.6784

> <Gold.PLP.PLP>
-34.1011

> <Gold.PLP.part.hbond>
-5.0000

> <Gold.PLP.part.metal>
0.0000

> <Gold.PLP.part.buried>
-2.1369

> <Gold.PLP.part.nonpolar>
-27.0615

> <Gold.PLP.part.repulsive>
0.1937

> <Gold.PLP.ligand.clash>
0.0000

> <Gold.PLP.ligand.torsion>
0.9612

> <Gold.PLP.Chemscore.Hbond>
4.8240

> <Gold.PLP.Chemscore.CHOScore>
0.9988

> <Gold.PLP.Chemscore.Metal>
0.0000

> <Gold.Chemscore.Hbonds>
donor molecule, donor type, donor heavy atom, donor atom, acceptor molecule, acceptor atom, score
      L1  H     1    17       P1  7957  0.85
      L1  H     4    21       P1  7948  2.00
      L1  H     4    35       P1  7957  0.99
      P1  H  7954  7966       L1     1  0.88
      L1  C    15    33       P1  7921  0.98

> <Gold.PLP.Chemscore.Internal.Correction>
0.0314

> <Gold.Rescore>
     Score         DG    S(hbond)    S(metal)    S(lipo)     H(rot)  DE(clash)    DE(int)     intcor
     19.24     -20.47       3.08        0.00      83.26       1.97       0.36       0.86       ----

> <Gold.Chemscore.Fitness>
19.2374

> <Gold.Chemscore.DG>
-20.4651

> <Gold.Chemscore.ZeroCoef>
-5.4800

> <Gold.Chemscore.Hbond>
3.0788

> <Gold.Chemscore.Metal>
0.0000

> <Gold.Chemscore.Lipo>
83.2617

> <Gold.Chemscore.Internal_Hbond>
0.0000

> <Gold.Chemscore.DEClash>
0.3650

> <Gold.Chemscore.DEInternal>
0.8627

> <Gold.Chemscore.Rot>
1.9686

> <Gold.Chemscore.Internal.Correction>
   9.000000E+99

> <Gold.Chemscore.Hbonds>
donor molecule, donor type, donor heavy atom, donor atom, acceptor molecule, acceptor atom, score
      L1  H     1    17       P1  7957  0.74
      L1  H     4    21       P1  7948  1.00
      L1  H     4    35       P1  7957  0.93
      P1  H  7954  7966       L1     1  0.17

> <Gold.Chemscore.Hbond.Weighted>
-10.2831

> <Gold.Chemscore.Metal.Weighted>
-0.0000

> <Gold.Chemscore.Lipo.Weighted>
-9.7416

> <Gold.Chemscore.Internal_Hbond.Weighted>
0.0000

> <Gold.Chemscore.DEClash.Weighted>
0.3650

> <Gold.Chemscore.DEInternal.Weighted>
0.8627

> <Gold.Chemscore.Rot.Weighted>
5.0396

> <Gold.Chemscore.Internal.Correction.Weighted>
   9.000000E+99

> <Gold.Protein.RotatedTorsions>
[ 6907 6896 6895 6894 ] final   54.62 input  -60.11 | X-H torsion
[ 7974 7965 7964 7962 ] final  -95.79 input  175.53 | X-H torsion
[ 8008 7997 7996 7995 ] final  -25.94 input   59.86 | X-H torsion
[ 10167 10162 10161 10158 ] final    4.52 input  -65.29 | X-H torsion
[ 10718 10713 10712 10709 ] final  147.89 input   66.30 | X-H torsion
[ 10763 10752 10751 10750 ] final   22.98 input  -60.55 | X-H torsion
[ 11005 11000 10999 10996 ] final  108.27 input  -57.11 | X-H torsion

> <Gold.Protein.ActiveResidues>
 VAL166  LYS551  ARG553  GLY616  TRP617  ASP618  TYR619  PRO620  LYS621  CYS622 
 ASP623  PHE694  ASN695  SER759  ASP760  ASP761  ALA762  ILE779  LEU786  VAL792 
 PHE793  MET794  SER795  GLU796  ALA797  LYS798  CYS799  TRP800  GLU811  SER814 

> <Gold.Protein.RotatedAtoms>
  152.3458  134.7074  160.0250 H   0  0  0  0  0  0  0  0  0  0  0  0  # atno 6907 bound_to 6896
  151.7444  133.3318  159.3382 H   0  0  0  0  0  0  0  0  0  0  0  0  # atno 6908 bound_to 6896
  150.7508  134.6182  159.6166 H   0  0  0  0  0  0  0  0  0  0  0  0  # atno 6909 bound_to 6896
  145.3554  140.9483  143.2531 H   0  0  0  0  0  0  0  0  0  0  0  0  # atno 7974 bound_to 7965
  154.4450  140.1913  156.0698 H   0  0  0  0  0  0  0  0  0  0  0  0  # atno 8008 bound_to 7997
  156.0520  140.3307  155.7335 H   0  0  0  0  0  0  0  0  0  0  0  0  # atno 8009 bound_to 7997
  155.5543  140.0598  157.2834 H   0  0  0  0  0  0  0  0  0  0  0  0  # atno 8010 bound_to 7997
  140.6530  143.7497  150.7607 H   0  0  0  0  0  0  0  0  0  0  0  0  # atno 10167 bound_to 10162
  157.3154  131.0895  151.1283 H   0  0  0  0  0  0  0  0  0  0  0  0  # atno 10718 bound_to 10713
  153.0873  135.6636  153.9924 H   0  0  0  0  0  0  0  0  0  0  0  0  # atno 10763 bound_to 10752
  153.9530  135.2982  155.3439 H   0  0  0  0  0  0  0  0  0  0  0  0  # atno 10764 bound_to 10752
  154.7283  135.5134  153.8994 H   0  0  0  0  0  0  0  0  0  0  0  0  # atno 10765 bound_to 10752
  139.8841  134.9425  156.5946 H   0  0  0  0  0  0  0  0  0  0  0  0  # atno 11005 bound_to 11000
  144.8686  139.5070  143.6778 LP  0  0  0  0  0  0  0  0  0  0  0  0  # atno 17320 bound_to 7965
  146.2950  139.7252  142.9133 LP  0  0  0  0  0  0  0  0  0  0  0  0  # atno 17321 bound_to 7965
  140.1151  143.4663  152.2347 LP  0  0  0  0  0  0  0  0  0  0  0  0  # atno 17342 bound_to 10162
  139.5748  144.7482  151.3794 LP  0  0  0  0  0  0  0  0  0  0  0  0  # atno 17343 bound_to 10162
  157.2589  130.6649  149.5965 LP  0  0  0  0  0  0  0  0  0  0  0  0  # atno 17370 bound_to 10713
  155.9681  130.4515  150.5737 LP  0  0  0  0  0  0  0  0  0  0  0  0  # atno 17371 bound_to 10713
  140.7929  133.8567  155.8661 LP  0  0  0  0  0  0  0  0  0  0  0  0  # atno 17394 bound_to 11000
  140.9661  134.1593  157.4615 LP  0  0  0  0  0  0  0  0  0  0  0  0  # atno 17395 bound_to 11000

$$$$
