#       Name:                AV-unprocessed.smi:13
#       Creating user name   scv26
#       Creation time:       Thu Mar 26 15:20:09 2020


#       File generated by GOLD software.
#

@<TRIPOS>MOLECULE
AV-unprocessed.smi:13
    64    68     1
SMALL
NO_CHARGES


@<TRIPOS>ATOM
      1 ****        -3.8424   1.6825  -3.3787 C.3            1 S1                 0.0000
      2 ****        -3.4544   0.7575  -2.2251 C.3            1 S1                 0.0000
      3 ****        -4.7462   0.0692  -1.7633 C.3            1 S1                 0.0000
      4 ****        -2.2648  -0.1787  -2.4864 C.3            1 S1                 0.0000
      5 ****        -1.8196   0.1276  -1.1388 N.3            1 S1                 0.0000
      6 ****        -0.4026   0.1700  -1.0172 C.ar           1 S1                 0.0000
      7 ****         0.3025   1.3071  -1.2659 N.ar           1 S1                 0.0000
      8 ****         1.6330   1.3305  -1.1451 C.ar           1 S1                 0.0000
      9 ****         2.4549   0.3416  -0.7924 N.ar           1 S1                 0.0000
     10 ****         1.7614  -0.8043  -0.5399 C.ar           1 S1                 0.0000
     11 ****         0.3509  -0.9723  -0.6334 C.ar           1 S1                 0.0000
     12 ****         0.0071  -2.2791  -0.3119 N.2            1 S1                 0.0000
     13 ****         1.1487  -2.8509  -0.0422 C.2            1 S1                 0.0000
     14 ****         2.2539  -2.0353  -0.1421 N.pl3          1 S1                 0.0000
     15 ****         3.6394  -2.4065   0.1042 C.3            1 S1                 0.0000
     16 ****         4.1040  -2.1484   1.5576 C.3            1 S1                 0.0000
     17 ****         3.9910  -0.7654   1.8448 O.3            1 S1                 0.0000
     18 ****         5.5491  -2.5680   1.7981 C.3            1 S1                 0.0000
     19 ****         5.5517  -2.9394   3.2747 C.3            1 S1                 0.0000
     20 ****         4.3069  -3.5974   3.4354 O.3            1 S1                 0.0000
     21 ****         3.3306  -2.9365   2.6356 C.3            1 S1                 0.0000
     22 ****        -2.5544   1.3902  -1.1397 C.3            1 S1                 0.0000
     23 ****        -3.1094   1.7439   0.2465 C.3            1 S1                 0.0000
     24 ****        -2.0690   2.3307   1.2073 C.3            1 S1                 0.0000
     25 ****        -2.1080   3.8053   0.8807 C.3            1 S1                 0.0000
     26 ****        -3.5956   4.0124   0.6280 C.3            1 S1                 0.0000
     27 ****        -4.0615   2.7920   0.0597 O.3            1 S1                 0.0000
     28 ****        -4.2920   1.1292  -4.2038 H              1 S1                 0.0000
     29 ****        -2.9748   2.2082  -3.7787 H              1 S1                 0.0000
     30 ****        -4.5583   2.4402  -3.0582 H              1 S1                 0.0000
     31 ****        -4.5591  -0.6457  -0.9617 H              1 S1                 0.0000
     32 ****        -5.2172  -0.4829  -2.5772 H              1 S1                 0.0000
     33 ****        -5.4745   0.7904  -1.3909 H              1 S1                 0.0000
     34 ****        -2.5317  -1.2256  -2.6330 H              1 S1                 0.0000
     35 ****        -1.5830   0.1862  -3.2574 H              1 S1                 0.0000
     36 ****         2.1057   2.2772  -1.3607 H              1 S1                 0.0000
     37 ****         1.2143  -3.8911   0.2415 H              1 S1                 0.0000
     38 ****         3.7553  -3.4620  -0.1442 H              1 S1                 0.0000
     39 ****         4.2714  -1.8579  -0.5956 H              1 S1                 0.0000
     40 ****         4.2800  -0.6182   2.7323 H              1 S1                 0.0000
     41 ****         5.7895  -3.4544   1.2090 H              1 S1                 0.0000
     42 ****         6.2784  -1.7963   1.5479 H              1 S1                 0.0000
     43 ****         6.3868  -3.5846   3.5478 H              1 S1                 0.0000
     44 ****         5.5807  -2.0484   3.9040 H              1 S1                 0.0000
     45 ****         2.7121  -2.2879   3.2584 H              1 S1                 0.0000
     46 ****         2.6778  -3.6962   2.2073 H              1 S1                 0.0000
     47 ****        -1.9820   2.2058  -1.5842 H              1 S1                 0.0000
     48 ****        -3.6010   0.8837   0.7022 H              1 S1                 0.0000
     49 ****        -2.3929   2.1775   2.2375 H              1 S1                 0.0000
     50 ****        -1.0759   1.8940   1.1084 H              1 S1                 0.0000
     51 ****        -1.7185   4.4341   1.6817 H              1 S1                 0.0000
     52 ****        -1.5348   4.0077  -0.0250 H              1 S1                 0.0000
     53 ****        -4.1215   4.1806   1.5685 H              1 S1                 0.0000
     54 ****        -3.7944   4.8595  -0.0288 H              1 S1                 0.0000
     55 ****        -1.9887  -0.4928  -0.3729 LP             1 S1                 0.0000
     56 ****        -0.1819   2.1368  -1.5429 LP             1 S1                 0.0000
     57 ****         3.4486   0.4291  -0.7224 LP             1 S1                 0.0000
     58 ****        -0.9053  -2.6878  -0.2917 LP             1 S1                 0.0000
     59 ****         3.0382  -0.4778   1.7485 LP             1 S1                 0.0000
     60 ****         4.5627  -0.2421   1.2129 LP             1 S1                 0.0000
     61 ****         4.0317  -3.5655   4.3963 LP             1 S1                 0.0000
     62 ****         4.3906  -4.5504   3.1442 LP             1 S1                 0.0000
     63 ****        -4.9220   2.5342   0.4991 LP             1 S1                 0.0000
     64 ****        -4.2139   2.9245  -0.9196 LP             1 S1                 0.0000
@<TRIPOS>BOND
    1    1    2 1     
    2    1   28 1     
    3    1   29 1     
    4    1   30 1     
    5    2   22 1     
    6    2    3 1     
    7    2    4 1     
    8    3   31 1     
    9    3   32 1     
   10    3   33 1     
   11    4    5 1     
   12    4   34 1     
   13    4   35 1     
   14    5    6 1     
   15    5   22 1     
   16    6   11 ar    
   17    6    7 ar    
   18    7    8 ar    
   19    8    9 ar    
   20    8   36 1     
   21    9   10 ar    
   22   10   14 1     
   23   10   11 ar    
   24   11   12 1     
   25   12   13 2     
   26   13   14 1     
   27   13   37 1     
   28   14   15 1     
   29   15   16 1     
   30   15   38 1     
   31   15   39 1     
   32   16   21 1     
   33   16   17 1     
   34   16   18 1     
   35   17   40 1     
   36   18   19 1     
   37   18   41 1     
   38   18   42 1     
   39   19   20 1     
   40   19   43 1     
   41   19   44 1     
   42   20   21 1     
   43   21   45 1     
   44   21   46 1     
   45   22   23 1     
   46   22   47 1     
   47   23   27 1     
   48   23   24 1     
   49   23   48 1     
   50   24   25 1     
   51   24   49 1     
   52   24   50 1     
   53   25   26 1     
   54   25   51 1     
   55   25   52 1     
   56   26   27 1     
   57   26   53 1     
   58   26   54 1     
   59    5   55 1     
   60    7   56 1     
   61    9   57 1     
   62   12   58 1     
   63   17   59 1     
   64   17   60 1     
   65   20   61 1     
   66   20   62 1     
   67   27   63 1     
   68   27   64 1     
@<TRIPOS>SUBSTRUCTURE
      1 S1             1
@<TRIPOS>SET
LONE_PAIRS      STATIC     ATOMS    <user>   **** ""
10 55 56 57 58 59 60 61 62 63 64
DONOR_HYDROGENS      STATIC     ATOMS    <user>   **** ""
1 40
ATOM$BLUE        STATIC     ATOMS    COLORGROUP SYSTEM
10 55 56 57 58 59 60 61 62 63 64
ATOM$RED        STATIC     ATOMS    COLORGROUP SYSTEM
1 40
