AV-unprocessed.smi:3306|AV-procd|sdf|12703|dock5
  -GOLD-   2272019 33D 1   1.00000     0.00000
 Structure written by MMmdl.
 44 45  0  0  0  0  0  0  0  0  2 V2000
  151.6386  140.3065  158.0965 C   0  0  0  0  0  0  0  0  0  0  0  0
  151.7797  141.2916  156.9143 C   0  0  0  0  0  0  0  0  0  0  0  0
  151.2737  142.6752  157.3802 C   0  0  0  0  0  0  0  0  0  0  0  0
  151.0613  140.8145  155.7131 N   0  0  0  0  0  0  0  0  0  0  0  0
  149.6077  140.9995  155.8515 C   0  0  0  0  0  0  0  0  0  0  0  0
  148.8648  140.5887  154.5686 C   0  0  0  0  0  0  0  0  0  0  0  0
  149.1240  139.1184  154.2253 C   0  0  0  0  0  0  0  0  0  0  0  0
  148.4605  138.7671  152.9501 N   0  3  0  0  0  0  0  0  0  0  0  0
  146.9934  138.6067  153.0251 C   0  0  0  0  0  0  0  0  0  0  0  0
  146.4177  138.1854  151.6662 C   0  0  0  0  0  0  0  0  0  0  0  0
  145.5306  136.9594  151.7724 C   0  0  0  0  0  0  0  0  0  0  0  0
  145.6890  135.8747  150.8836 C   0  0  0  0  0  0  0  0  0  0  0  0
  144.8359  134.7628  151.0241 C   0  0  0  0  0  0  0  0  0  0  0  0
  143.8622  134.7793  152.0411 C   0  0  0  0  0  0  0  0  0  0  0  0
  143.7836  135.9118  152.8759 C   0  0  0  0  0  0  0  0  0  0  0  0
  144.5955  136.9839  152.7486 N   0  0  0  0  0  0  0  0  0  0  0  0
  150.6435  138.9086  154.1653 C   0  0  0  0  0  0  0  0  0  0  0  0
  151.3205  139.3878  155.4617 C   0  0  0  0  0  0  0  0  0  0  0  0
  152.0327  140.7400  159.0162 H   0  0  0  0  0  0  0  0  0  0  0  0
  152.1985  139.3848  157.9435 H   0  0  0  0  0  0  0  0  0  0  0  0
  150.5949  140.0485  158.2794 H   0  0  0  0  0  0  0  0  0  0  0  0
  152.8404  141.3835  156.6746 H   0  0  0  0  0  0  0  0  0  0  0  0
  151.6916  142.9381  158.3525 H   0  0  0  0  0  0  0  0  0  0  0  0
  150.1876  142.6917  157.4773 H   0  0  0  0  0  0  0  0  0  0  0  0
  151.5712  143.4774  156.7059 H   0  0  0  0  0  0  0  0  0  0  0  0
  149.2368  140.4308  156.7057 H   0  0  0  0  0  0  0  0  0  0  0  0
  149.3632  142.0441  156.0328 H   0  0  0  0  0  0  0  0  0  0  0  0
  147.7950  140.7585  154.6969 H   0  0  0  0  0  0  0  0  0  0  0  0
  149.1832  141.2298  153.7447 H   0  0  0  0  0  0  0  0  0  0  0  0
  148.7019  138.4995  155.0188 H   0  0  0  0  0  0  0  0  0  0  0  0
  148.6495  139.5111  152.2938 H   0  0  0  0  0  0  0  0  0  0  0  0
  146.7442  137.8590  153.7782 H   0  0  0  0  0  0  0  0  0  0  0  0
  146.5419  139.5484  153.3405 H   0  0  0  0  0  0  0  0  0  0  0  0
  145.8439  139.0057  151.2331 H   0  0  0  0  0  0  0  0  0  0  0  0
  147.2273  137.9745  150.9656 H   0  0  0  0  0  0  0  0  0  0  0  0
  146.4443  135.8907  150.1117 H   0  0  0  0  0  0  0  0  0  0  0  0
  144.9265  133.9129  150.3640 H   0  0  0  0  0  0  0  0  0  0  0  0
  143.1912  133.9441  152.1784 H   0  0  0  0  0  0  0  0  0  0  0  0
  143.0487  135.9581  153.6659 H   0  0  0  0  0  0  0  0  0  0  0  0
  150.8787  137.8552  154.0132 H   0  0  0  0  0  0  0  0  0  0  0  0
  151.0643  139.4466  153.3141 H   0  0  0  0  0  0  0  0  0  0  0  0
  152.3861  139.2005  155.3442 H   0  0  0  0  0  0  0  0  0  0  0  0
  150.9826  138.7913  156.3107 H   0  0  0  0  0  0  0  0  0  0  0  0
  148.8694  137.9151  152.5932 H   0  0  0  0  0  0  0  0  0  0  0  0
  1  2  1  0  0  0  0
  1 19  1  0  0  0  0
  1 20  1  0  0  0  0
  1 21  1  0  0  0  0
  2  3  1  0  0  0  0
  2  4  1  0  0  0  0
  2 22  1  0  0  0  0
  3 23  1  0  0  0  0
  3 24  1  0  0  0  0
  3 25  1  0  0  0  0
  4 18  1  0  0  0  0
  4  5  1  0  0  0  0
  5  6  1  0  0  0  0
  5 26  1  0  0  0  0
  5 27  1  0  0  0  0
  6  7  1  0  0  0  0
  6 28  1  0  0  0  0
  6 29  1  0  0  0  0
  7  8  1  0  0  0  0
  7 17  1  0  0  0  0
  7 30  1  0  0  0  0
  8  9  1  0  0  0  0
  8 31  1  0  0  0  0
  8 44  1  0  0  0  0
  9 10  1  0  0  0  0
  9 32  1  0  0  0  0
  9 33  1  0  0  0  0
 10 11  1  0  0  0  0
 10 34  1  0  0  0  0
 10 35  1  0  0  0  0
 11 16  1  0  0  0  0
 11 12  2  0  0  0  0
 12 13  1  0  0  0  0
 12 36  1  0  0  0  0
 13 14  2  0  0  0  0
 13 37  1  0  0  0  0
 14 15  1  0  0  0  0
 14 38  1  0  0  0  0
 15 16  2  0  0  0  0
 15 39  1  0  0  0  0
 17 18  1  0  0  0  0
 17 40  1  0  0  0  0
 17 41  1  0  0  0  0
 18 42  1  0  0  0  0
 18 43  1  0  0  0  0
M  CHG  1   8   1
M  END
> <s_m_source_file>
AV-unprocessed.smi

> <i_m_source_file_index>
3306

> <i_lp_mmshare_version>
43012

> <i_f3d_flags>
0

> <s_epik_input>
W0NIM11bQ0hdKFtDSDNdKU4xW0NIMl1bQ0gyXVtDSF0oW0NIMl1bQ0gyXTEpW05IXVtDSDJdW0NIMl1jMltjSF1bY0hdW2NIXVtjSF1uMg==

> <s_epik_cmdline>
J2VwaWtfcHl0aG9uJywgJy1waCcsICc3LjAnLCAnLXRuJywgJzgnLCAnLW1hJywgJzIwMCcsICctbWV0YWxfYmluZGluZycsICctaW1hZScsICc8aW5maWxlLm1hZT4nLCAnLW9tYWUnLCAnPG91dGZpbGUubWFlPic=

> <r_epik_Ionization_Penalty>
1.34673

> <r_epik_Ionization_Penalty_Charging>
0.000531593

> <r_epik_Ionization_Penalty_Neutral>
1.3462

> <r_epik_State_Penalty>
1.43277

> <r_epik_Charging_Adjusted_Penalty>
1.4333

> <i_epik_Tot_Q>
1

> <i_epik_Tot_abs_Q>
1

> <r_epik_Metal_State_Penalty>
1.43418

> <b_epik_Metal_Only>
0

> <s_lp_Force_Field>
OPLS_2005

> <r_lp_Energy>
21.3297

> <b_lp_Chiralities_Consistent>
1

> <s_lp_Variant>
AV-unprocessed.smi:3306-3

> <Gold.Version>
5.8.1

> <Gold.Id.Protein>
6NUR|6NUR_protein|mol2

> <Gold.PLP.Fitness>
43.6856

> <Gold.PLP.PLP>
-36.1815

> <Gold.PLP.part.hbond>
-2.2679

> <Gold.PLP.part.metal>
0.0000

> <Gold.PLP.part.buried>
-2.4307

> <Gold.PLP.part.nonpolar>
-32.5767

> <Gold.PLP.part.repulsive>
0.3090

> <Gold.PLP.ligand.clash>
0.0000

> <Gold.PLP.ligand.torsion>
0.8013

> <Gold.PLP.Chemscore.Hbond>
3.0205

> <Gold.PLP.Chemscore.CHOScore>
0.0000

> <Gold.PLP.Chemscore.Metal>
0.0000

> <Gold.Chemscore.Hbonds>
donor molecule, donor type, donor heavy atom, donor atom, acceptor molecule, acceptor atom, score
      L1  H     8    31       P1  7957  0.91
      L1  H     8    44       P1  7948  2.00

> <Gold.PLP.Chemscore.Internal.Correction>
0.0452

> <Gold.Rescore>
     Score         DG    S(hbond)    S(metal)    S(lipo)     H(rot)  DE(clash)    DE(int)     intcor
     18.33     -19.48       1.95        0.00      94.83       1.41       0.16       0.99       ----

> <Gold.Chemscore.Fitness>
18.3328

> <Gold.Chemscore.DG>
-19.4761

> <Gold.Chemscore.ZeroCoef>
-5.4800

> <Gold.Chemscore.Hbond>
1.9496

> <Gold.Chemscore.Metal>
0.0000

> <Gold.Chemscore.Lipo>
94.8330

> <Gold.Chemscore.Internal_Hbond>
0.0000

> <Gold.Chemscore.DEClash>
0.1568

> <Gold.Chemscore.DEInternal>
0.9865

> <Gold.Chemscore.Rot>
1.4106

> <Gold.Chemscore.Internal.Correction>
   9.000000E+99

> <Gold.Chemscore.Hbonds>
donor molecule, donor type, donor heavy atom, donor atom, acceptor molecule, acceptor atom, score
      L1  H     8    31       P1  7957  0.87
      L1  H     8    44       P1  7948  0.99

> <Gold.Chemscore.Hbond.Weighted>
-6.5118

> <Gold.Chemscore.Metal.Weighted>
-0.0000

> <Gold.Chemscore.Lipo.Weighted>
-11.0955

> <Gold.Chemscore.Internal_Hbond.Weighted>
0.0000

> <Gold.Chemscore.DEClash.Weighted>
0.1568

> <Gold.Chemscore.DEInternal.Weighted>
0.9865

> <Gold.Chemscore.Rot.Weighted>
3.6112

> <Gold.Chemscore.Internal.Correction.Weighted>
   9.000000E+99

> <Gold.Protein.RotatedTorsions>
[ 6907 6896 6895 6894 ] final  158.85 input  -60.11 | X-H torsion
[ 7974 7965 7964 7962 ] final  -37.30 input  175.53 | X-H torsion
[ 8008 7997 7996 7995 ] final -136.92 input   59.86 | X-H torsion
[ 10167 10162 10161 10158 ] final  -67.29 input  -65.29 | X-H torsion
[ 10718 10713 10712 10709 ] final -119.12 input   66.30 | X-H torsion
[ 10763 10752 10751 10750 ] final  -34.52 input  -60.55 | X-H torsion
[ 11005 11000 10999 10996 ] final  135.61 input  -57.11 | X-H torsion

> <Gold.Protein.ActiveResidues>
 VAL166  LYS551  ARG553  GLY616  TRP617  ASP618  TYR619  PRO620  LYS621  CYS622 
 ASP623  PHE694  ASN695  SER759  ASP760  ASP761  ALA762  ILE779  LEU786  VAL792 
 PHE793  MET794  SER795  GLU796  ALA797  LYS798  CYS799  TRP800  GLU811  SER814 

> <Gold.Protein.RotatedAtoms>
  151.9943  133.3802  159.4156 H   0  0  0  0  0  0  0  0  0  0  0  0  # atno 6907 bound_to 6896
  150.6918  134.3903  159.5082 H   0  0  0  0  0  0  0  0  0  0  0  0  # atno 6908 bound_to 6896
  152.1641  134.8888  160.0590 H   0  0  0  0  0  0  0  0  0  0  0  0  # atno 6909 bound_to 6896
  146.0587  140.6380  142.9007 H   0  0  0  0  0  0  0  0  0  0  0  0  # atno 7974 bound_to 7965
  155.4032  140.0507  157.3035 H   0  0  0  0  0  0  0  0  0  0  0  0  # atno 8008 bound_to 7997
  154.4981  140.2146  155.9365 H   0  0  0  0  0  0  0  0  0  0  0  0  # atno 8009 bound_to 7997
  156.1431  140.3150  155.8533 H   0  0  0  0  0  0  0  0  0  0  0  0  # atno 8010 bound_to 7997
  140.5593  143.2312  151.6758 H   0  0  0  0  0  0  0  0  0  0  0  0  # atno 10167 bound_to 10162
  156.1157  130.6284  150.9376 H   0  0  0  0  0  0  0  0  0  0  0  0  # atno 10718 bound_to 10713
  153.8480  135.6851  153.4795 H   0  0  0  0  0  0  0  0  0  0  0  0  # atno 10763 bound_to 10752
  153.1414  135.4656  154.9499 H   0  0  0  0  0  0  0  0  0  0  0  0  # atno 10764 bound_to 10752
  154.7815  135.3270  154.7927 H   0  0  0  0  0  0  0  0  0  0  0  0  # atno 10765 bound_to 10752
  139.9991  134.9485  157.0031 H   0  0  0  0  0  0  0  0  0  0  0  0  # atno 11005 bound_to 11000
  144.7162  140.4218  143.7042 LP  0  0  0  0  0  0  0  0  0  0  0  0  # atno 17320 bound_to 7965
  145.6598  139.1579  143.2814 LP  0  0  0  0  0  0  0  0  0  0  0  0  # atno 17321 bound_to 7965
  139.5063  144.3688  152.0491 LP  0  0  0  0  0  0  0  0  0  0  0  0  # atno 17342 bound_to 10162
  140.2813  144.3857  150.6118 LP  0  0  0  0  0  0  0  0  0  0  0  0  # atno 17343 bound_to 10162
  157.6340  131.0918  150.8385 LP  0  0  0  0  0  0  0  0  0  0  0  0  # atno 17370 bound_to 10713
  156.8489  130.5073  149.5314 LP  0  0  0  0  0  0  0  0  0  0  0  0  # atno 17371 bound_to 10713
  140.4762  134.1336  155.7210 LP  0  0  0  0  0  0  0  0  0  0  0  0  # atno 17394 bound_to 11000
  141.1628  133.8761  157.1801 LP  0  0  0  0  0  0  0  0  0  0  0  0  # atno 17395 bound_to 11000

$$$$
