#       Name:                AV-unprocessed.smi:697
#       Creating user name   scv26
#       Creation time:       Fri Mar 27 00:37:47 2020


#       File generated by GOLD software.
#

@<TRIPOS>MOLECULE
AV-unprocessed.smi:697
    50    51     1
SMALL
NO_CHARGES


@<TRIPOS>ATOM
      1 ****        -3.8078  -3.3264  -2.1078 C.3            1 S1                 0.0000
      2 ****        -3.2188  -2.7370  -0.9558 O.3            1 S1                 0.0000
      3 ****        -2.9832  -1.3292  -1.0148 C.3            1 S1                 0.0000
      4 ****        -4.3203  -0.5740  -1.0711 C.3            1 S1                 0.0000
      5 ****        -1.9058  -0.9650  -2.0524 C.3            1 S1                 0.0000
      6 ****        -1.3374  -0.0156  -1.0003 C.3            1 S1                 0.0000
      7 ****         0.1204   0.0367  -1.0193 N.am           1 S1                 0.0000
      8 ****         0.8603   0.8300  -0.2334 C.2            1 S1                 0.0000
      9 ****         0.3708   1.6220   0.5716 O.2            1 S1                 0.0000
     10 ****         2.1722   0.6327  -0.4573 N.am           1 S1                 0.0000
     11 ****         3.2894   1.2119   0.1694 C.2            1 S1                 0.0000
     12 ****         3.2481   1.9631   1.3050 C.2            1 S1                 0.0000
     13 ****         4.4474   2.5240   1.9139 C.2            1 S1                 0.0000
     14 ****         4.4266   3.4419   3.1234 C.3            1 S1                 0.0000
     15 ****         5.3973   4.3529   3.0523 F              1 S1                 0.0000
     16 ****         3.2590   4.0778   3.2203 F              1 S1                 0.0000
     17 ****         4.6053   2.7303   4.2352 F              1 S1                 0.0000
     18 ****         5.5906   2.2135   1.2035 C.2            1 S1                 0.0000
     19 ****         5.7217   1.4594   0.0904 N.pl3          1 S1                -1.0000
     20 ****         4.5939   0.9367  -0.4686 C.2            1 S1                 0.0000
     21 ****         4.6418   0.2440  -1.4858 O.2            1 S1                 0.0000
     22 ****        -1.9421  -0.9425   0.0856 C.3            1 S1                 0.0000
     23 ****        -2.4852  -0.2401   1.3344 C.3            1 S1                 0.0000
     24 ****        -1.0451  -2.0856   0.6030 C.3            1 S1                 0.0000
     25 ****        -3.8343  -4.4084  -1.9799 H              1 S1                 0.0000
     26 ****        -3.2371  -3.1159  -3.0124 H              1 S1                 0.0000
     27 ****        -4.8347  -2.9932  -2.2545 H              1 S1                 0.0000
     28 ****        -4.1833   0.5026  -0.9730 H              1 S1                 0.0000
     29 ****        -4.9892  -0.8922  -0.2712 H              1 S1                 0.0000
     30 ****        -4.8363  -0.7316  -2.0178 H              1 S1                 0.0000
     31 ****        -1.2396  -1.7929  -2.3028 H              1 S1                 0.0000
     32 ****        -2.2825  -0.4714  -2.9486 H              1 S1                 0.0000
     33 ****        -1.8153   0.9658  -1.0401 H              1 S1                 0.0000
     34 ****         0.5953  -0.5829  -1.6592 H              1 S1                 0.0000
     35 ****         2.4060  -0.0188  -1.1923 H              1 S1                 0.0000
     36 ****         2.3176   2.1577   1.8110 H              1 S1                 0.0000
     37 ****         6.5437   2.6373   1.5855 H              1 S1                 0.0000
     38 ****        -1.6826   0.0442   2.0159 H              1 S1                 0.0000
     39 ****        -3.1732  -0.8819   1.8853 H              1 S1                 0.0000
     40 ****        -3.0211   0.6758   1.0871 H              1 S1                 0.0000
     41 ****        -0.2255  -1.7089   1.2158 H              1 S1                 0.0000
     42 ****        -0.5979  -2.6607  -0.2077 H              1 S1                 0.0000
     43 ****        -1.6095  -2.7870   1.2182 H              1 S1                 0.0000
     44 ****        -2.3394  -3.1867  -0.7994 LP             1 S1                 0.0000
     45 ****        -3.8253  -2.9121  -0.1802 LP             1 S1                 0.0000
     46 ****        -0.6226   1.6944   0.6609 LP             1 S1                 0.0000
     47 ****         0.9665   2.1932   1.1364 LP             1 S1                 0.0000
     48 ****         6.6212   1.2894  -0.3122 LP             1 S1                 0.0000
     49 ****         3.8004  -0.1295  -1.8765 LP             1 S1                 0.0000
     50 ****         5.5221   0.0551  -1.9211 LP             1 S1                 0.0000
@<TRIPOS>BOND
    1    1    2 1     
    2    1   25 1     
    3    1   26 1     
    4    1   27 1     
    5    2    3 1     
    6    3   22 1     
    7    3    4 1     
    8    3    5 1     
    9    4   28 1     
   10    4   29 1     
   11    4   30 1     
   12    5    6 1     
   13    5   31 1     
   14    5   32 1     
   15    6    7 1     
   16    6   22 1     
   17    6   33 1     
   18    7    8 am    
   19    7   34 1     
   20    8    9 2     
   21    8   10 am    
   22   10   11 1     
   23   10   35 1     
   24   11   20 1     
   25   11   12 2     
   26   12   13 1     
   27   12   36 1     
   28   13   14 1     
   29   13   18 2     
   30   14   15 1     
   31   14   16 1     
   32   14   17 1     
   33   18   19 1     
   34   18   37 1     
   35   19   20 1     
   36   20   21 2     
   37   22   23 1     
   38   22   24 1     
   39   23   38 1     
   40   23   39 1     
   41   23   40 1     
   42   24   41 1     
   43   24   42 1     
   44   24   43 1     
   45    2   44 1     
   46    2   45 1     
   47    9   46 1     
   48    9   47 1     
   49   19   48 1     
   50   21   49 1     
   51   21   50 1     
@<TRIPOS>SUBSTRUCTURE
      1 S1             1
@<TRIPOS>SET
LONE_PAIRS      STATIC     ATOMS    <user>   **** ""
7 44 45 46 47 48 49 50
DONOR_HYDROGENS      STATIC     ATOMS    <user>   **** ""
2 34 35
ATOM$BLUE        STATIC     ATOMS    COLORGROUP SYSTEM
7 44 45 46 47 48 49 50
ATOM$RED        STATIC     ATOMS    COLORGROUP SYSTEM
2 34 35
