AV-unprocessed.smi:1749|AV-procd|sdf|7046|dock3
  -GOLD-   22720 8263D 1   1.00000     0.00000
 Structure written by MMmdl.
 32 33  0  0  0  0  0  0  0  0  1 V2000
  153.0743  140.9741  160.2576 C   0  0  0  0  0  0  0  0  0  0  0  0
  152.9182  142.1789  159.3189 C   0  0  2  0  0  0  0  0  0  0  0  0
  152.7451  143.4899  160.1098 C   0  0  0  0  0  0  0  0  0  0  0  0
  152.5851  144.6969  159.1723 C   0  0  0  0  0  0  0  0  0  0  0  0
  151.4161  144.4931  158.1966 C   0  0  0  0  0  0  0  0  0  0  0  0
  151.5756  143.1876  157.3961 C   0  0  2  0  0  0  0  0  0  0  0  0
  150.4045  142.9859  156.5482 N   0  0  0  0  0  0  0  0  0  0  0  0
  150.1050  141.8757  155.8532 C   0  0  0  0  0  0  0  0  0  0  0  0
  150.8247  140.8786  155.8436 O   0  0  0  0  0  0  0  0  0  0  0  0
  148.9538  141.9030  155.1473 N   0  0  0  0  0  0  0  0  0  0  0  0
  148.3266  140.9324  154.3117 C   0  0  0  0  0  0  0  0  0  0  0  0
  147.2735  141.1760  153.5140 N   0  0  0  0  0  0  0  0  0  0  0  0
  146.8676  140.0433  152.8216 N   0  0  0  0  0  0  0  0  0  0  0  0
  147.6263  138.9866  153.1240 C   0  0  0  0  0  0  0  0  0  0  0  0
  148.9109  139.2737  154.2846 S   0  0  0  0  0  0  0  0  0  0  0  0
  151.7453  141.9809  158.3387 C   0  0  0  0  0  0  0  0  0  0  0  0
  152.1880  140.8374  160.8781 H   0  0  0  0  0  0  0  0  0  0  0  0
  153.9294  141.1021  160.9219 H   0  0  0  0  0  0  0  0  0  0  0  0
  153.2302  140.0542  159.6935 H   0  0  0  0  0  0  0  0  0  0  0  0
  153.8348  142.2588  158.7325 H   0  0  0  0  0  0  0  0  0  0  0  0
  151.8715  143.4171  160.7592 H   0  0  0  0  0  0  0  0  0  0  0  0
  153.6031  143.6473  160.7643 H   0  0  0  0  0  0  0  0  0  0  0  0
  152.4259  145.6030  159.7577 H   0  0  0  0  0  0  0  0  0  0  0  0
  153.5079  144.8493  158.6113 H   0  0  0  0  0  0  0  0  0  0  0  0
  150.4796  144.4724  158.7563 H   0  0  0  0  0  0  0  0  0  0  0  0
  151.3518  145.3438  157.5168 H   0  0  0  0  0  0  0  0  0  0  0  0
  152.4767  143.2732  156.7862 H   0  0  0  0  0  0  0  0  0  0  0  0
  149.7537  143.7565  156.4932 H   0  0  0  0  0  0  0  0  0  0  0  0
  148.4582  142.7808  155.2025 H   0  0  0  0  0  0  0  0  0  0  0  0
  147.4278  138.0314  152.6610 H   0  0  0  0  0  0  0  0  0  0  0  0
  151.9055  141.0763  157.7504 H   0  0  0  0  0  0  0  0  0  0  0  0
  150.8236  141.8222  158.9012 H   0  0  0  0  0  0  0  0  0  0  0  0
  1  2  1  0  0  0  0
  1 17  1  0  0  0  0
  1 18  1  0  0  0  0
  1 19  1  0  0  0  0
  2 16  1  0  0  0  0
  2  3  1  0  0  0  0
  2 20  1  0  0  0  0
  3  4  1  0  0  0  0
  3 21  1  0  0  0  0
  3 22  1  0  0  0  0
  4  5  1  0  0  0  0
  4 23  1  0  0  0  0
  4 24  1  0  0  0  0
  5  6  1  0  0  0  0
  5 25  1  0  0  0  0
  5 26  1  0  0  0  0
  6  7  1  0  0  0  0
  6 16  1  0  0  0  0
  6 27  1  0  0  0  0
  7  8  1  0  0  0  0
  7 28  1  0  0  0  0
  8  9  2  0  0  0  0
  8 10  1  0  0  0  0
 10 11  1  0  0  0  0
 10 29  1  0  0  0  0
 11 15  1  0  0  0  0
 11 12  2  0  0  0  0
 12 13  1  0  0  0  0
 13 14  2  0  0  0  0
 14 15  1  0  0  0  0
 14 30  1  0  0  0  0
 16 31  1  0  0  0  0
 16 32  1  0  0  0  0
M  END
> <s_m_source_file>
AV-unprocessed.smi

> <i_m_source_file_index>
1749

> <i_lp_mmshare_version>
43012

> <i_f3d_flags>
0

> <s_epik_input>
W0NIM11bQ0BASF0xW0NIMl1bQ0gyXVtDSDJdW0NASF0oW0NIMl0xKVtOSF1DKD1PKVtOSF1jMm5uW2NIXXMy

> <s_epik_cmdline>
J2VwaWtfcHl0aG9uJywgJy1waCcsICc3LjAnLCAnLXRuJywgJzgnLCAnLW1hJywgJzIwMCcsICctbWV0YWxfYmluZGluZycsICctaW1hZScsICc8aW5maWxlLm1hZT4nLCAnLW9tYWUnLCAnPG91dGZpbGUubWFlPic=

> <r_lp_tautomer_probability>
1

> <r_epik_Ionization_Penalty>
0.000318591

> <r_epik_Ionization_Penalty_Charging>
0

> <r_epik_Ionization_Penalty_Neutral>
0.000318591

> <r_epik_State_Penalty>
-0

> <r_epik_Charging_Adjusted_Penalty>
0

> <i_epik_Tot_Q>
0

> <i_epik_Tot_abs_Q>
0

> <r_epik_Metal_State_Penalty>
0.169791

> <b_epik_Metal_Only>
0

> <s_lp_Force_Field>
OPLS_2005

> <r_lp_Energy>
11.6734

> <b_lp_Chiralities_Consistent>
1

> <s_lp_Variant>
AV-unprocessed.smi:1749-3

> <Gold.Version>
5.8.1

> <Gold.Id.Protein>
6NUR|6NUR_protein|mol2

> <Gold.PLP.Fitness>
41.3007

> <Gold.PLP.PLP>
-33.2790

> <Gold.PLP.part.hbond>
-1.8633

> <Gold.PLP.part.metal>
0.0000

> <Gold.PLP.part.buried>
-4.2052

> <Gold.PLP.part.nonpolar>
-28.0980

> <Gold.PLP.part.repulsive>
0.6908

> <Gold.PLP.ligand.clash>
0.0000

> <Gold.PLP.ligand.torsion>
0.1321

> <Gold.PLP.Chemscore.Hbond>
1.7613

> <Gold.PLP.Chemscore.CHOScore>
1.0000

> <Gold.PLP.Chemscore.Metal>
0.0000

> <Gold.Chemscore.Hbonds>
donor molecule, donor type, donor heavy atom, donor atom, acceptor molecule, acceptor atom, score
      L1  H     7    28       P1  8028  1.00
      L1  H    10    29       P1  8028  0.77
      L1  C    14    30       P1  7948  1.00

> <Gold.PLP.Chemscore.Internal.Correction>
0.0021

> <Gold.Rescore>
     Score         DG    S(hbond)    S(metal)    S(lipo)     H(rot)  DE(clash)    DE(int)     intcor
     16.20     -19.26       1.76        0.00      89.51       1.00       0.44       2.62       ----

> <Gold.Chemscore.Fitness>
16.2009

> <Gold.Chemscore.DG>
-19.2649

> <Gold.Chemscore.ZeroCoef>
-5.4800

> <Gold.Chemscore.Hbond>
1.7582

> <Gold.Chemscore.Metal>
0.0000

> <Gold.Chemscore.Lipo>
89.5088

> <Gold.Chemscore.Internal_Hbond>
0.0000

> <Gold.Chemscore.DEClash>
0.4411

> <Gold.Chemscore.DEInternal>
2.6229

> <Gold.Chemscore.Rot>
1.0000

> <Gold.Chemscore.Internal.Correction>
   9.000000E+99

> <Gold.Chemscore.Hbonds>
donor molecule, donor type, donor heavy atom, donor atom, acceptor molecule, acceptor atom, score
      L1  H     7    28       P1  8028  0.89
      L1  H    10    29       P1  8028  0.73
      P1  H  7989  7998       L1     9  0.01

> <Gold.Chemscore.Hbond.Weighted>
-5.8723

> <Gold.Chemscore.Metal.Weighted>
-0.0000

> <Gold.Chemscore.Lipo.Weighted>
-10.4725

> <Gold.Chemscore.Internal_Hbond.Weighted>
0.0000

> <Gold.Chemscore.DEClash.Weighted>
0.4411

> <Gold.Chemscore.DEInternal.Weighted>
2.6229

> <Gold.Chemscore.Rot.Weighted>
2.5600

> <Gold.Chemscore.Internal.Correction.Weighted>
   9.000000E+99

> <Gold.Protein.RotatedTorsions>
[ 6907 6896 6895 6894 ] final   35.66 input  -60.11 | X-H torsion
[ 7974 7965 7964 7962 ] final   44.24 input  175.53 | X-H torsion
[ 8008 7997 7996 7995 ] final -104.51 input   59.86 | X-H torsion
[ 10167 10162 10161 10158 ] final  130.89 input  -65.29 | X-H torsion
[ 10718 10713 10712 10709 ] final  108.27 input   66.30 | X-H torsion
[ 10763 10752 10751 10750 ] final   58.73 input  -60.55 | X-H torsion
[ 11005 11000 10999 10996 ] final   38.35 input  -57.11 | X-H torsion

> <Gold.Protein.ActiveResidues>
 VAL166  LYS551  ARG553  GLY616  TRP617  ASP618  TYR619  PRO620  LYS621  CYS622 
 ASP623  PHE694  ASN695  SER759  ASP760  ASP761  ALA762  ILE779  LEU786  VAL792 
 PHE793  MET794  SER795  GLU796  ALA797  LYS798  CYS799  TRP800  GLU811  SER814 

> <Gold.Protein.RotatedAtoms>
  152.1191  134.9218  160.0563 H   0  0  0  0  0  0  0  0  0  0  0  0  # atno 6907 bound_to 6896
  152.0366  133.3955  159.4327 H   0  0  0  0  0  0  0  0  0  0  0  0  # atno 6908 bound_to 6896
  150.6848  134.3382  159.4900 H   0  0  0  0  0  0  0  0  0  0  0  0  # atno 6909 bound_to 6896
  146.0586  139.5097  142.9673 H   0  0  0  0  0  0  0  0  0  0  0  0  # atno 7974 bound_to 7965
  154.8864  140.0417  157.1812 H   0  0  0  0  0  0  0  0  0  0  0  0  # atno 8008 bound_to 7997
  154.8586  140.2940  155.5532 H   0  0  0  0  0  0  0  0  0  0  0  0  # atno 8009 bound_to 7997
  156.2998  140.2451  156.3557 H   0  0  0  0  0  0  0  0  0  0  0  0  # atno 8010 bound_to 7997
  139.5409  144.6729  151.4628 H   0  0  0  0  0  0  0  0  0  0  0  0  # atno 10167 bound_to 10162
  157.6593  131.0890  150.6280 H   0  0  0  0  0  0  0  0  0  0  0  0  # atno 10718 bound_to 10713
  152.9877  135.5596  154.5599 H   0  0  0  0  0  0  0  0  0  0  0  0  # atno 10763 bound_to 10752
  154.5020  135.2798  155.1415 H   0  0  0  0  0  0  0  0  0  0  0  0  # atno 10764 bound_to 10752
  154.2842  135.6339  153.5412 H   0  0  0  0  0  0  0  0  0  0  0  0  # atno 10765 bound_to 10752
  140.2135  134.3726  155.8038 H   0  0  0  0  0  0  0  0  0  0  0  0  # atno 11005 bound_to 11000
  145.6600  141.0243  143.1714 LP  0  0  0  0  0  0  0  0  0  0  0  0  # atno 17320 bound_to 7965
  144.7162  139.8189  143.7398 LP  0  0  0  0  0  0  0  0  0  0  0  0  # atno 17321 bound_to 7965
  140.6638  143.8441  150.6918 LP  0  0  0  0  0  0  0  0  0  0  0  0  # atno 17342 bound_to 10162
  140.1844  143.4088  152.1909 LP  0  0  0  0  0  0  0  0  0  0  0  0  # atno 17343 bound_to 10162
  156.6584  130.4505  149.5696 LP  0  0  0  0  0  0  0  0  0  0  0  0  # atno 17370 bound_to 10713
  156.2086  130.6664  151.1245 LP  0  0  0  0  0  0  0  0  0  0  0  0  # atno 17371 bound_to 10713
  141.2225  133.7155  156.8458 LP  0  0  0  0  0  0  0  0  0  0  0  0  # atno 17394 bound_to 11000
  140.1925  134.8955  157.3077 LP  0  0  0  0  0  0  0  0  0  0  0  0  # atno 17395 bound_to 11000

$$$$
