AV-unprocessed.smi:232|AV-procd|sdf|1770|dock7
  -GOLD-   2262020313D 1   1.00000     0.00000
 Structure written by MMmdl.
 52 55  0  0  0  0  0  0  0  0  1 V2000
  152.3540  144.5981  159.4970 C   0  0  0  0  0  0  0  0  0  0  0  0
  153.2505  143.3781  159.2510 C   0  0  0  0  0  0  0  0  0  0  0  0
  152.4717  142.0443  159.2620 C   0  0  1  0  0  0  0  0  0  0  0  0
  151.2512  142.0476  158.3207 C   0  0  0  0  0  0  0  0  0  0  0  0
  151.3595  140.7592  157.4970 C   0  0  0  0  0  0  0  0  0  0  0  0
  152.3982  139.9121  158.2334 C   0  0  2  0  0  0  0  0  0  0  0  0
  151.7396  138.9847  159.2762 C   0  0  0  0  0  0  0  0  0  0  0  0
  153.2841  140.9069  158.8291 N   0  0  0  0  0  0  0  0  0  0  0  0
  154.3113  140.4430  159.5908 C   0  0  0  0  0  0  0  0  0  0  0  0
  155.2485  139.6245  159.0418 N   0  0  0  0  0  0  0  0  0  0  0  0
  156.2739  139.1807  159.7739 C   0  0  0  0  0  0  0  0  0  0  0  0
  156.5534  139.4287  161.0544 N   0  0  0  0  0  0  0  0  0  0  0  0
  155.6173  140.2478  161.6130 C   0  0  0  0  0  0  0  0  0  0  0  0
  154.4759  140.7952  160.9607 C   0  0  0  0  0  0  0  0  0  0  0  0
  153.7522  141.5755  161.8556 N   0  0  0  0  0  0  0  0  0  0  0  0
  154.4323  141.5037  162.9670 C   0  0  0  0  0  0  0  0  0  0  0  0
  155.5667  140.7275  162.9097 N   0  0  0  0  0  0  0  0  0  0  0  0
  156.5023  140.4775  163.9924 C   0  0  0  0  0  0  0  0  0  0  0  0
  156.0529  139.3183  164.9082 C   0  0  2  0  0  0  0  0  0  0  0  0
  157.1701  138.4847  165.1520 O   0  0  0  0  0  0  0  0  0  0  0  0
  154.9456  138.4485  164.2800 C   0  0  2  0  0  0  0  0  0  0  0  0
  154.5209  137.2433  165.1204 C   0  0  0  0  0  0  0  0  0  0  0  0
  153.9280  136.2909  164.0964 C   0  0  0  0  0  0  0  0  0  0  0  0
  154.5304  136.7608  162.7699 C   0  0  0  0  0  0  0  0  0  0  0  0
  155.4363  137.8003  163.1160 O   0  0  0  0  0  0  0  0  0  0  0  0
  152.9427  145.5158  159.5038 H   0  0  0  0  0  0  0  0  0  0  0  0
  151.8464  144.5229  160.4590 H   0  0  0  0  0  0  0  0  0  0  0  0
  151.5933  144.7002  158.7231 H   0  0  0  0  0  0  0  0  0  0  0  0
  153.7730  143.4925  158.3006 H   0  0  0  0  0  0  0  0  0  0  0  0
  154.0249  143.3714  160.0177 H   0  0  0  0  0  0  0  0  0  0  0  0
  152.1205  141.8451  160.2756 H   0  0  0  0  0  0  0  0  0  0  0  0
  150.3300  142.0617  158.9042 H   0  0  0  0  0  0  0  0  0  0  0  0
  151.2321  142.9154  157.6603 H   0  0  0  0  0  0  0  0  0  0  0  0
  150.4013  140.2545  157.3698 H   0  0  0  0  0  0  0  0  0  0  0  0
  151.7343  141.0013  156.5015 H   0  0  0  0  0  0  0  0  0  0  0  0
  152.9374  139.3056  157.5063 H   0  0  0  0  0  0  0  0  0  0  0  0
  151.0443  138.2958  158.7965 H   0  0  0  0  0  0  0  0  0  0  0  0
  151.1822  139.5476  160.0254 H   0  0  0  0  0  0  0  0  0  0  0  0
  152.4817  138.3802  159.7983 H   0  0  0  0  0  0  0  0  0  0  0  0
  156.9713  138.5366  159.2591 H   0  0  0  0  0  0  0  0  0  0  0  0
  154.1245  142.0195  163.8648 H   0  0  0  0  0  0  0  0  0  0  0  0
  157.4737  140.2610  163.5472 H   0  0  0  0  0  0  0  0  0  0  0  0
  156.6240  141.3945  164.5706 H   0  0  0  0  0  0  0  0  0  0  0  0
  155.7063  139.7257  165.8590 H   0  0  0  0  0  0  0  0  0  0  0  0
  157.1279  138.1792  166.0451 H   0  0  0  0  0  0  0  0  0  0  0  0
  154.0683  139.0485  164.0285 H   0  0  0  0  0  0  0  0  0  0  0  0
  155.3947  136.7821  165.5831 H   0  0  0  0  0  0  0  0  0  0  0  0
  153.8167  137.5024  165.9115 H   0  0  0  0  0  0  0  0  0  0  0  0
  154.1820  135.2546  164.3215 H   0  0  0  0  0  0  0  0  0  0  0  0
  152.8409  136.3739  164.0684 H   0  0  0  0  0  0  0  0  0  0  0  0
  155.0471  135.9608  162.2392 H   0  0  0  0  0  0  0  0  0  0  0  0
  153.7546  137.1591  162.1145 H   0  0  0  0  0  0  0  0  0  0  0  0
  1  2  1  0  0  0  0
  1 26  1  0  0  0  0
  1 27  1  0  0  0  0
  1 28  1  0  0  0  0
  2  3  1  0  0  0  0
  2 29  1  0  0  0  0
  2 30  1  0  0  0  0
  3  8  1  0  0  0  0
  3  4  1  0  0  0  0
  3 31  1  0  0  0  0
  4  5  1  0  0  0  0
  4 32  1  0  0  0  0
  4 33  1  0  0  0  0
  5  6  1  0  0  0  0
  5 34  1  0  0  0  0
  5 35  1  0  0  0  0
  6  7  1  0  0  0  0
  6  8  1  0  0  0  0
  6 36  1  0  0  0  0
  7 37  1  0  0  0  0
  7 38  1  0  0  0  0
  7 39  1  0  0  0  0
  8  9  1  0  0  0  0
  9 14  1  0  0  0  0
  9 10  2  0  0  0  0
 10 11  1  0  0  0  0
 11 12  2  0  0  0  0
 11 40  1  0  0  0  0
 12 13  1  0  0  0  0
 13 17  1  0  0  0  0
 13 14  2  0  0  0  0
 14 15  1  0  0  0  0
 15 16  2  0  0  0  0
 16 17  1  0  0  0  0
 16 41  1  0  0  0  0
 17 18  1  0  0  0  0
 18 19  1  0  0  0  0
 18 42  1  0  0  0  0
 18 43  1  0  0  0  0
 19 20  1  0  0  0  0
 19 21  1  0  0  0  0
 19 44  1  0  0  0  0
 20 45  1  0  0  0  0
 21 25  1  0  0  0  0
 21 22  1  0  0  0  0
 21 46  1  0  0  0  0
 22 23  1  0  0  0  0
 22 47  1  0  0  0  0
 22 48  1  0  0  0  0
 23 24  1  0  0  0  0
 23 49  1  0  0  0  0
 23 50  1  0  0  0  0
 24 25  1  0  0  0  0
 24 51  1  0  0  0  0
 24 52  1  0  0  0  0
M  END
> <s_m_source_file>
AV-unprocessed.smi

> <i_m_source_file_index>
232

> <i_lp_mmshare_version>
43012

> <i_f3d_flags>
0

> <s_epik_input>
W0NIM11bQ0gyXVtDQEBIXTFbQ0gyXVtDSDJdW0NAQEhdKFtDSDNdKU4xYyhuW2NIXW4yKWMoYzIzKW5bY0hdbjNbQ0gyXVtDQEhdKFtPSF0pW0NAQEhdNFtDSDJdW0NIMl1bQ0gyXU80

> <s_epik_cmdline>
J2VwaWtfcHl0aG9uJywgJy1waCcsICc3LjAnLCAnLXRuJywgJzgnLCAnLW1hJywgJzIwMCcsICctbWV0YWxfYmluZGluZycsICctaW1hZScsICc8aW5maWxlLm1hZT4nLCAnLW9tYWUnLCAnPG91dGZpbGUubWFlPic=

> <r_lp_tautomer_probability>
1

> <r_epik_Ionization_Penalty>
0.00258048

> <r_epik_Ionization_Penalty_Charging>
0

> <r_epik_Ionization_Penalty_Neutral>
0.00258048

> <r_epik_State_Penalty>
0.00168551

> <r_epik_Charging_Adjusted_Penalty>
0.00168551

> <i_epik_Tot_Q>
0

> <i_epik_Tot_abs_Q>
0

> <r_epik_Metal_State_Penalty>
-0

> <b_epik_Metal_Only>
0

> <s_lp_Force_Field>
OPLS_2005

> <r_lp_Energy>
53.6071

> <b_lp_Chiralities_Consistent>
1

> <s_lp_Variant>
AV-unprocessed.smi:232-4

> <Gold.Version>
5.8.1

> <Gold.Id.Protein>
6NUR|6NUR_protein|mol2

> <Gold.PLP.Fitness>
40.6336

> <Gold.PLP.PLP>
-39.7815

> <Gold.PLP.part.hbond>
-1.7238

> <Gold.PLP.part.metal>
0.0000

> <Gold.PLP.part.buried>
3.0165

> <Gold.PLP.part.nonpolar>
-39.4593

> <Gold.PLP.part.repulsive>
0.0091

> <Gold.PLP.ligand.clash>
0.0000

> <Gold.PLP.ligand.torsion>
1.2356

> <Gold.PLP.Chemscore.Hbond>
1.0000

> <Gold.PLP.Chemscore.CHOScore>
0.0000

> <Gold.PLP.Chemscore.Metal>
0.0000

> <Gold.Chemscore.Hbonds>
donor molecule, donor type, donor heavy atom, donor atom, acceptor molecule, acceptor atom, score
      P1  H  7997  8009       L1    10  1.00

> <Gold.PLP.Chemscore.Internal.Correction>
0.3233

> <Gold.Rescore>
     Score         DG    S(hbond)    S(metal)    S(lipo)     H(rot)  DE(clash)    DE(int)     intcor
     10.78     -14.86       0.85        0.00     108.98       2.43       1.72       2.37       ----

> <Gold.Chemscore.Fitness>
10.7776

> <Gold.Chemscore.DG>
-14.8635

> <Gold.Chemscore.ZeroCoef>
-5.4800

> <Gold.Chemscore.Hbond>
0.8514

> <Gold.Chemscore.Metal>
0.0000

> <Gold.Chemscore.Lipo>
108.9800

> <Gold.Chemscore.Internal_Hbond>
0.0000

> <Gold.Chemscore.DEClash>
1.7207

> <Gold.Chemscore.DEInternal>
2.3652

> <Gold.Chemscore.Rot>
2.4260

> <Gold.Chemscore.Internal.Correction>
   9.000000E+99

> <Gold.Chemscore.Hbonds>
donor molecule, donor type, donor heavy atom, donor atom, acceptor molecule, acceptor atom, score
      P1  H  7997  8009       L1    10  0.50

> <Gold.Chemscore.Hbond.Weighted>
-2.8436

> <Gold.Chemscore.Metal.Weighted>
-0.0000

> <Gold.Chemscore.Lipo.Weighted>
-12.7507

> <Gold.Chemscore.Internal_Hbond.Weighted>
0.0000

> <Gold.Chemscore.DEClash.Weighted>
1.7207

> <Gold.Chemscore.DEInternal.Weighted>
2.3652

> <Gold.Chemscore.Rot.Weighted>
6.2107

> <Gold.Chemscore.Internal.Correction.Weighted>
   9.000000E+99

> <Gold.Protein.RotatedTorsions>
[ 6907 6896 6895 6894 ] final  160.31 input  -60.11 | X-H torsion
[ 7974 7965 7964 7962 ] final  114.64 input  175.53 | X-H torsion
[ 8008 7997 7996 7995 ] final  112.46 input   59.86 | X-H torsion
[ 10167 10162 10161 10158 ] final   49.63 input  -65.29 | X-H torsion
[ 10718 10713 10712 10709 ] final -166.90 input   66.30 | X-H torsion
[ 10763 10752 10751 10750 ] final   41.61 input  -60.55 | X-H torsion
[ 11005 11000 10999 10996 ] final   95.16 input  -57.11 | X-H torsion

> <Gold.Protein.ActiveResidues>
 VAL166  LYS551  ARG553  GLY616  TRP617  ASP618  TYR619  PRO620  LYS621  CYS622 
 ASP623  PHE694  ASN695  SER759  ASP760  ASP761  ALA762  ILE779  LEU786  VAL792 
 PHE793  MET794  SER795  GLU796  ALA797  LYS798  CYS799  TRP800  GLU811  SER814 

> <Gold.Protein.RotatedAtoms>
  151.9726  133.3731  159.4076 H   0  0  0  0  0  0  0  0  0  0  0  0  # atno 6907 bound_to 6896
  150.6946  134.4124  159.5177 H   0  0  0  0  0  0  0  0  0  0  0  0  # atno 6908 bound_to 6896
  152.1830  134.8737  160.0575 H   0  0  0  0  0  0  0  0  0  0  0  0  # atno 6909 bound_to 6896
  145.2019  139.2948  143.4314 H   0  0  0  0  0  0  0  0  0  0  0  0  # atno 7974 bound_to 7965
  156.2194  140.2999  155.9915 H   0  0  0  0  0  0  0  0  0  0  0  0  # atno 8008 bound_to 7997
  155.2522  140.0426  157.3005 H   0  0  0  0  0  0  0  0  0  0  0  0  # atno 8009 bound_to 7997
  154.5816  140.2377  155.8053 H   0  0  0  0  0  0  0  0  0  0  0  0  # atno 8010 bound_to 7997
  140.2809  144.3157  150.6264 H   0  0  0  0  0  0  0  0  0  0  0  0  # atno 10167 bound_to 10162
  156.6746  130.9097  151.3048 H   0  0  0  0  0  0  0  0  0  0  0  0  # atno 10718 bound_to 10713
  152.9904  135.6156  154.2815 H   0  0  0  0  0  0  0  0  0  0  0  0  # atno 10763 bound_to 10752
  154.2544  135.2784  155.2805 H   0  0  0  0  0  0  0  0  0  0  0  0  # atno 10764 bound_to 10752
  154.5260  135.5801  153.6777 H   0  0  0  0  0  0  0  0  0  0  0  0  # atno 10765 bound_to 10752
  139.8791  134.8884  156.3970 H   0  0  0  0  0  0  0  0  0  0  0  0  # atno 11005 bound_to 11000
  146.3416  140.2266  142.8592 LP  0  0  0  0  0  0  0  0  0  0  0  0  # atno 17320 bound_to 7965
  144.9940  140.8572  143.5322 LP  0  0  0  0  0  0  0  0  0  0  0  0  # atno 17321 bound_to 7965
  140.5812  143.2172  151.7424 LP  0  0  0  0  0  0  0  0  0  0  0  0  # atno 17342 bound_to 10162
  139.4963  144.4077  152.0114 LP  0  0  0  0  0  0  0  0  0  0  0  0  # atno 17343 bound_to 10162
  157.7065  130.9391  150.0949 LP  0  0  0  0  0  0  0  0  0  0  0  0  # atno 17370 bound_to 10713
  156.1913  130.3655  149.8906 LP  0  0  0  0  0  0  0  0  0  0  0  0  # atno 17371 bound_to 10713
  140.9293  133.7590  156.0004 LP  0  0  0  0  0  0  0  0  0  0  0  0  # atno 17394 bound_to 11000
  140.8349  134.3134  157.5335 LP  0  0  0  0  0  0  0  0  0  0  0  0  # atno 17395 bound_to 11000

$$$$
