AV-unprocessed.smi:2145|AV-procd|sdf|8734|dock2
  -GOLD-   2272011503D 1   1.00000     0.00000
 Structure written by MMmdl.
 44 46  0  0  0  0  0  0  0  0  1 V2000
  144.2464  133.8113  163.2953 C   0  0  0  0  0  0  0  0  0  0  0  0
  145.7451  133.5166  163.2647 C   0  0  0  0  0  0  0  0  0  0  0  0
  146.1500  132.4623  163.7533 O   0  0  0  0  0  0  0  0  0  0  0  0
  146.6408  134.5296  162.6374 C   0  0  0  0  0  0  0  0  0  0  0  0
  146.0760  135.6002  161.9091 C   0  0  0  0  0  0  0  0  0  0  0  0
  146.8997  136.5677  161.3030 C   0  0  0  0  0  0  0  0  0  0  0  0
  148.3025  136.4887  161.4043 C   0  0  0  0  0  0  0  0  0  0  0  0
  149.0323  137.4744  160.7755 O   0  0  0  0  0  0  0  0  0  0  0  0
  150.4246  137.5606  161.0498 C   0  0  0  0  0  0  0  0  0  0  0  0
  151.0820  138.4494  159.9830 C   0  0  2  0  0  0  0  0  0  0  0  0
  151.2005  137.6985  158.7905 O   0  0  0  0  0  0  0  0  0  0  0  0
  152.4819  138.9295  160.4172 C   0  0  0  0  0  0  0  0  0  0  0  0
  152.4562  140.2397  161.0538 N   0  0  0  0  0  0  0  0  0  0  0  0
  152.6091  140.5287  162.3694 C   0  0  0  0  0  0  0  0  0  0  0  0
  152.8456  139.4607  163.3896 C   0  0  0  0  0  0  0  0  0  0  0  0
  152.5405  141.8196  162.6941 N   0  0  0  0  0  0  0  0  0  0  0  0
  152.3250  142.4277  161.4722 C   0  0  0  0  0  0  0  0  0  0  0  0
  152.1628  143.7922  161.1418 C   0  0  0  0  0  0  0  0  0  0  0  0
  151.9521  144.1825  159.8030 C   0  0  0  0  0  0  0  0  0  0  0  0
  151.8998  143.2161  158.7778 C   0  0  0  0  0  0  0  0  0  0  0  0
  152.0584  141.8511  159.0853 C   0  0  0  0  0  0  0  0  0  0  0  0
  152.2691  141.4664  160.4231 C   0  0  0  0  0  0  0  0  0  0  0  0
  148.8715  135.4174  162.1359 C   0  0  0  0  0  0  0  0  0  0  0  0
  148.0488  134.4500  162.7453 C   0  0  0  0  0  0  0  0  0  0  0  0
  143.8592  133.9238  162.2826 H   0  0  0  0  0  0  0  0  0  0  0  0
  144.0472  134.7270  163.8519 H   0  0  0  0  0  0  0  0  0  0  0  0
  143.7076  132.9953  163.7775 H   0  0  0  0  0  0  0  0  0  0  0  0
  145.0042  135.6919  161.8063 H   0  0  0  0  0  0  0  0  0  0  0  0
  146.4484  137.3786  160.7503 H   0  0  0  0  0  0  0  0  0  0  0  0
  150.5535  138.0198  162.0313 H   0  0  0  0  0  0  0  0  0  0  0  0
  150.8943  136.5756  161.0768 H   0  0  0  0  0  0  0  0  0  0  0  0
  150.4483  139.3157  159.7914 H   0  0  0  0  0  0  0  0  0  0  0  0
  150.4551  137.8895  158.2417 H   0  0  0  0  0  0  0  0  0  0  0  0
  152.9296  138.2157  161.1089 H   0  0  0  0  0  0  0  0  0  0  0  0
  153.1509  138.9732  159.5567 H   0  0  0  0  0  0  0  0  0  0  0  0
  152.8648  139.8879  164.3927 H   0  0  0  0  0  0  0  0  0  0  0  0
  153.8024  138.9714  163.2066 H   0  0  0  0  0  0  0  0  0  0  0  0
  152.0528  138.7138  163.3516 H   0  0  0  0  0  0  0  0  0  0  0  0
  152.2008  144.5400  161.9201 H   0  0  0  0  0  0  0  0  0  0  0  0
  151.8293  145.2282  159.5620 H   0  0  0  0  0  0  0  0  0  0  0  0
  151.7363  143.5230  157.7551 H   0  0  0  0  0  0  0  0  0  0  0  0
  152.0146  141.1080  158.3031 H   0  0  0  0  0  0  0  0  0  0  0  0
  149.9402  135.3142  162.2459 H   0  0  0  0  0  0  0  0  0  0  0  0
  148.5243  133.6501  163.2926 H   0  0  0  0  0  0  0  0  0  0  0  0
  1  2  1  0  0  0  0
  1 25  1  0  0  0  0
  1 26  1  0  0  0  0
  1 27  1  0  0  0  0
  2  3  2  0  0  0  0
  2  4  1  0  0  0  0
  4 24  1  0  0  0  0
  4  5  2  0  0  0  0
  5  6  1  0  0  0  0
  5 28  1  0  0  0  0
  6  7  2  0  0  0  0
  6 29  1  0  0  0  0
  7  8  1  0  0  0  0
  7 23  1  0  0  0  0
  8  9  1  0  0  0  0
  9 10  1  0  0  0  0
  9 30  1  0  0  0  0
  9 31  1  0  0  0  0
 10 11  1  0  0  0  0
 10 12  1  0  0  0  0
 10 32  1  0  0  0  0
 11 33  1  0  0  0  0
 12 13  1  0  0  0  0
 12 34  1  0  0  0  0
 12 35  1  0  0  0  0
 13 22  1  0  0  0  0
 13 14  1  0  0  0  0
 14 15  1  0  0  0  0
 14 16  2  0  0  0  0
 15 36  1  0  0  0  0
 15 37  1  0  0  0  0
 15 38  1  0  0  0  0
 16 17  1  0  0  0  0
 17 22  2  0  0  0  0
 17 18  1  0  0  0  0
 18 19  2  0  0  0  0
 18 39  1  0  0  0  0
 19 20  1  0  0  0  0
 19 40  1  0  0  0  0
 20 21  2  0  0  0  0
 20 41  1  0  0  0  0
 21 22  1  0  0  0  0
 21 42  1  0  0  0  0
 23 24  2  0  0  0  0
 23 43  1  0  0  0  0
 24 44  1  0  0  0  0
M  END
> <s_m_source_file>
AV-unprocessed.smi

> <i_m_source_file_index>
2145

> <i_lp_mmshare_version>
43012

> <i_f3d_flags>
0

> <s_epik_input>
W0NIM11DKD1PKWMxW2NIXVtjSF1jKFtjSF1bY0hdMSlPW0NIMl1bQ0BIXShbT0hdKVtDSDJdbihjKG4yKVtDSDNdKWMoYzIzKVtjSF1bY0hdW2NIXVtjSF0z

> <s_epik_cmdline>
J2VwaWtfcHl0aG9uJywgJy1waCcsICc3LjAnLCAnLXRuJywgJzgnLCAnLW1hJywgJzIwMCcsICctbWV0YWxfYmluZGluZycsICctaW1hZScsICc8aW5maWxlLm1hZT4nLCAnLW9tYWUnLCAnPG91dGZpbGUubWFlPic=

> <r_lp_tautomer_probability>
0.99995

> <r_epik_Ionization_Penalty>
0.109398

> <r_epik_Ionization_Penalty_Charging>
0

> <r_epik_Ionization_Penalty_Neutral>
0.109398

> <r_epik_State_Penalty>
0.0991698

> <r_epik_Charging_Adjusted_Penalty>
0.0991698

> <i_epik_Tot_Q>
0

> <i_epik_Tot_abs_Q>
0

> <r_epik_Metal_State_Penalty>
0.000107943

> <b_epik_Metal_Only>
0

> <s_lp_Force_Field>
OPLS_2005

> <r_lp_Energy>
22.0083

> <b_lp_Chiralities_Consistent>
1

> <s_lp_Variant>
AV-unprocessed.smi:2145-1

> <Gold.Version>
5.8.1

> <Gold.Id.Protein>
6NUR|6NUR_protein|mol2

> <Gold.PLP.Fitness>
41.1175

> <Gold.PLP.PLP>
-42.8404

> <Gold.PLP.part.hbond>
-1.7916

> <Gold.PLP.part.metal>
0.0000

> <Gold.PLP.part.buried>
-4.7992

> <Gold.PLP.part.nonpolar>
-37.0599

> <Gold.PLP.part.repulsive>
0.0560

> <Gold.PLP.ligand.clash>
0.0000

> <Gold.PLP.ligand.torsion>
0.9602

> <Gold.PLP.Chemscore.Hbond>
0.0272

> <Gold.PLP.Chemscore.CHOScore>
0.0000

> <Gold.PLP.Chemscore.Metal>
0.0000

> <Gold.Chemscore.Hbonds>
donor molecule, donor type, donor heavy atom, donor atom, acceptor molecule, acceptor atom, score
      P1  H  6934  6947       L1     8  0.01

> <Gold.PLP.Chemscore.Internal.Correction>
0.1161

> <Gold.Rescore>
     Score         DG    S(hbond)    S(metal)    S(lipo)     H(rot)  DE(clash)    DE(int)     intcor
     13.08     -13.79       0.00        0.00     119.54       2.22       0.04       0.67       ----

> <Gold.Chemscore.Fitness>
13.0795

> <Gold.Chemscore.DG>
-13.7897

> <Gold.Chemscore.ZeroCoef>
-5.4800

> <Gold.Chemscore.Hbond>
0.0001

> <Gold.Chemscore.Metal>
0.0000

> <Gold.Chemscore.Lipo>
119.5396

> <Gold.Chemscore.Internal_Hbond>
0.0000

> <Gold.Chemscore.DEClash>
0.0417

> <Gold.Chemscore.DEInternal>
0.6685

> <Gold.Chemscore.Rot>
2.2176

> <Gold.Chemscore.Internal.Correction>
   9.000000E+99

> <Gold.Chemscore.Hbond.Weighted>
-0.0005

> <Gold.Chemscore.Metal.Weighted>
-0.0000

> <Gold.Chemscore.Lipo.Weighted>
-13.9861

> <Gold.Chemscore.Internal_Hbond.Weighted>
0.0000

> <Gold.Chemscore.DEClash.Weighted>
0.0417

> <Gold.Chemscore.DEInternal.Weighted>
0.6685

> <Gold.Chemscore.Rot.Weighted>
5.6769

> <Gold.Chemscore.Internal.Correction.Weighted>
   9.000000E+99

> <Gold.Protein.RotatedTorsions>
[ 6907 6896 6895 6894 ] final  143.82 input  -60.11 | X-H torsion
[ 7974 7965 7964 7962 ] final   98.97 input  175.53 | X-H torsion
[ 8008 7997 7996 7995 ] final   10.78 input   59.86 | X-H torsion
[ 10167 10162 10161 10158 ] final  169.89 input  -65.29 | X-H torsion
[ 10718 10713 10712 10709 ] final   27.96 input   66.30 | X-H torsion
[ 10763 10752 10751 10750 ] final  -88.35 input  -60.55 | X-H torsion
[ 11005 11000 10999 10996 ] final   23.28 input  -57.11 | X-H torsion

> <Gold.Protein.ActiveResidues>
 VAL166  LYS551  ARG553  GLY616  TRP617  ASP618  TYR619  PRO620  LYS621  CYS622 
 ASP623  PHE694  ASN695  SER759  ASP760  ASP761  ALA762  ILE779  LEU786  VAL792 
 PHE793  MET794  SER795  GLU796  ALA797  LYS798  CYS799  TRP800  GLU811  SER814 

> <Gold.Protein.RotatedAtoms>
  152.2015  133.4844  159.5060 H   0  0  0  0  0  0  0  0  0  0  0  0  # atno 6907 bound_to 6896
  150.6971  134.1584  159.4176 H   0  0  0  0  0  0  0  0  0  0  0  0  # atno 6908 bound_to 6896
  151.9501  135.0172  160.0592 H   0  0  0  0  0  0  0  0  0  0  0  0  # atno 6909 bound_to 6896
  145.4051  139.2342  143.3279 H   0  0  0  0  0  0  0  0  0  0  0  0  # atno 7974 bound_to 7965
  154.7980  140.2847  155.5942 H   0  0  0  0  0  0  0  0  0  0  0  0  # atno 8008 bound_to 7997
  156.2973  140.2592  156.2771 H   0  0  0  0  0  0  0  0  0  0  0  0  # atno 8009 bound_to 7997
  154.9592  140.0378  157.2171 H   0  0  0  0  0  0  0  0  0  0  0  0  # atno 8010 bound_to 7997
  139.5004  144.3656  151.9778 H   0  0  0  0  0  0  0  0  0  0  0  0  # atno 10167 bound_to 10162
  157.2272  130.7006  149.6296 H   0  0  0  0  0  0  0  0  0  0  0  0  # atno 10718 bound_to 10713
  154.6436  135.5380  153.7818 H   0  0  0  0  0  0  0  0  0  0  0  0  # atno 10763 bound_to 10752
  153.0347  135.6465  154.1122 H   0  0  0  0  0  0  0  0  0  0  0  0  # atno 10764 bound_to 10752
  154.1045  135.2931  155.3224 H   0  0  0  0  0  0  0  0  0  0  0  0  # atno 10765 bound_to 10752
  140.3714  134.2019  155.7666 H   0  0  0  0  0  0  0  0  0  0  0  0  # atno 11005 bound_to 11000
  146.2733  140.4754  142.8806 LP  0  0  0  0  0  0  0  0  0  0  0  0  # atno 17320 bound_to 7965
  144.8347  140.6763  143.6268 LP  0  0  0  0  0  0  0  0  0  0  0  0  # atno 17321 bound_to 7965
  140.3092  144.3557  150.6038 LP  0  0  0  0  0  0  0  0  0  0  0  0  # atno 17342 bound_to 10162
  140.5812  143.2172  151.7425 LP  0  0  0  0  0  0  0  0  0  0  0  0  # atno 17343 bound_to 10162
  155.9678  130.4501  150.5683 LP  0  0  0  0  0  0  0  0  0  0  0  0  # atno 17370 bound_to 10713
  157.3516  131.0734  151.1709 LP  0  0  0  0  0  0  0  0  0  0  0  0  # atno 17371 bound_to 10713
  141.1953  133.8108  157.0719 LP  0  0  0  0  0  0  0  0  0  0  0  0  # atno 17394 bound_to 11000
  140.0549  134.9786  157.1202 LP  0  0  0  0  0  0  0  0  0  0  0  0  # atno 17395 bound_to 11000

$$$$
