#       Name:                AV-unprocessed.smi:1697
#       Creating user name   scv26
#       Creation time:       Fri Mar 27 07:57:21 2020


#       File generated by GOLD software.
#

@<TRIPOS>MOLECULE
AV-unprocessed.smi:1697
    59    61     1
SMALL
NO_CHARGES


@<TRIPOS>ATOM
      1 ****        -4.7182   5.9689   0.7583 C.3            1 S1                 0.0000
      2 ****        -4.3667   4.5004   1.0069 C.3            1 S1                 0.0000
      3 ****        -3.9988   3.9059  -0.2289 O.3            1 S1                 0.0000
      4 ****        -3.6937   2.5197  -0.1527 C.3            1 S1                 0.0000
      5 ****        -2.2756   2.2877   0.4019 C.3            1 S1                 0.0000
      6 ****        -1.8827   0.8028   0.3200 C.3            1 S1                 0.0000
      7 ****        -1.9879   0.2963  -1.0743 N.4            1 S1                 1.0000
      8 ****        -1.4861  -1.0926  -1.2381 C.3            1 S1                 0.0000
      9 ****         0.0518  -1.1537  -1.3180 C.3            1 S1                 0.0000
     10 ****         0.4744  -0.4740  -2.4851 O.3            1 S1                 0.0000
     11 ****         0.5705  -2.6041  -1.3584 C.3            1 S1                 0.0000
     12 ****         2.0202  -2.6694  -1.3943 N.pl3          1 S1                 0.0000
     13 ****         2.8024  -2.8728  -2.4722 C.2            1 S1                 0.0000
     14 ****         4.1175  -2.8865  -2.2758 N.2            1 S1                 0.0000
     15 ****         4.1982  -2.6704  -0.9108 C.ar           1 S1                 0.0000
     16 ****         5.3225  -2.5711  -0.0625 C.ar           1 S1                 0.0000
     17 ****         5.1668  -2.3434   1.3234 C.ar           1 S1                 0.0000
     18 ****         6.4036  -2.2405   2.1984 C.3            1 S1                 0.0000
     19 ****         3.8694  -2.2135   1.8811 C.ar           1 S1                 0.0000
     20 ****         3.6780  -1.9726   3.3679 C.3            1 S1                 0.0000
     21 ****         2.7353  -2.3079   1.0477 C.ar           1 S1                 0.0000
     22 ****         2.9038  -2.5330  -0.3298 C.ar           1 S1                 0.0000
     23 ****        -3.3604   0.4725  -1.6139 C.3            1 S1                 0.0000
     24 ****        -3.7811   1.9506  -1.5764 C.3            1 S1                 0.0000
     25 ****        -5.0114   6.4617   1.6856 H              1 S1                 0.0000
     26 ****        -5.5461   6.0595   0.0548 H              1 S1                 0.0000
     27 ****        -3.8666   6.5112   0.3462 H              1 S1                 0.0000
     28 ****        -3.5513   4.4364   1.7273 H              1 S1                 0.0000
     29 ****        -5.2270   3.9826   1.4335 H              1 S1                 0.0000
     30 ****        -4.4284   2.0075   0.4716 H              1 S1                 0.0000
     31 ****        -1.5578   2.8857  -0.1614 H              1 S1                 0.0000
     32 ****        -2.2090   2.6194   1.4378 H              1 S1                 0.0000
     33 ****        -0.8655   0.6864   0.6919 H              1 S1                 0.0000
     34 ****        -2.5254   0.2103   0.9732 H              1 S1                 0.0000
     35 ****        -1.8539  -1.7073  -0.4150 H              1 S1                 0.0000
     36 ****        -1.8957  -1.5322  -2.1491 H              1 S1                 0.0000
     37 ****         0.4942  -0.6529  -0.4573 H              1 S1                 0.0000
     38 ****         0.1818  -0.9588  -3.2422 H              1 S1                 0.0000
     39 ****         0.2294  -3.1510  -0.4785 H              1 S1                 0.0000
     40 ****         0.1736  -3.1322  -2.2269 H              1 S1                 0.0000
     41 ****         2.3833  -3.0134  -3.4578 H              1 S1                 0.0000
     42 ****         6.3104  -2.6719  -0.4875 H              1 S1                 0.0000
     43 ****         6.3988  -3.0208   2.9598 H              1 S1                 0.0000
     44 ****         6.4405  -1.2707   2.6951 H              1 S1                 0.0000
     45 ****         7.3166  -2.3504   1.6123 H              1 S1                 0.0000
     46 ****         2.6208  -1.9254   3.6305 H              1 S1                 0.0000
     47 ****         4.1396  -1.0304   3.6643 H              1 S1                 0.0000
     48 ****         4.1304  -2.7777   3.9475 H              1 S1                 0.0000
     49 ****         1.7417  -2.2098   1.4590 H              1 S1                 0.0000
     50 ****        -3.3996   0.1189  -2.6450 H              1 S1                 0.0000
     51 ****        -4.0618  -0.1363  -1.0410 H              1 S1                 0.0000
     52 ****        -4.7973   2.0573  -1.9575 H              1 S1                 0.0000
     53 ****        -3.1391   2.5275  -2.2439 H              1 S1                 0.0000
     54 ****        -1.3883   0.8766  -1.6443 H              1 S1                 0.0000
     55 ****        -3.1922   4.3839  -0.5767 LP             1 S1                 0.0000
     56 ****        -4.7578   4.0232  -0.8693 LP             1 S1                 0.0000
     57 ****         1.4722  -0.4080  -2.4930 LP             1 S1                 0.0000
     58 ****         0.0795   0.4446  -2.5008 LP             1 S1                 0.0000
     59 ****         4.8540  -3.0182  -2.9392 LP             1 S1                 0.0000
@<TRIPOS>BOND
    1    1    2 1     
    2    1   25 1     
    3    1   26 1     
    4    1   27 1     
    5    2    3 1     
    6    2   28 1     
    7    2   29 1     
    8    3    4 1     
    9    4   24 1     
   10    4    5 1     
   11    4   30 1     
   12    5    6 1     
   13    5   31 1     
   14    5   32 1     
   15    6    7 1     
   16    6   33 1     
   17    6   34 1     
   18    7    8 1     
   19    7   23 1     
   20    7   54 1     
   21    8    9 1     
   22    8   35 1     
   23    8   36 1     
   24    9   10 1     
   25    9   11 1     
   26    9   37 1     
   27   10   38 1     
   28   11   12 1     
   29   11   39 1     
   30   11   40 1     
   31   12   22 1     
   32   12   13 1     
   33   13   14 2     
   34   13   41 1     
   35   14   15 1     
   36   15   22 ar    
   37   15   16 ar    
   38   16   17 ar    
   39   16   42 1     
   40   17   18 1     
   41   17   19 ar    
   42   18   43 1     
   43   18   44 1     
   44   18   45 1     
   45   19   20 1     
   46   19   21 ar    
   47   20   46 1     
   48   20   47 1     
   49   20   48 1     
   50   21   22 ar    
   51   21   49 1     
   52   23   24 1     
   53   23   50 1     
   54   23   51 1     
   55   24   52 1     
   56   24   53 1     
   57    3   55 1     
   58    3   56 1     
   59   10   57 1     
   60   10   58 1     
   61   14   59 1     
@<TRIPOS>SUBSTRUCTURE
      1 S1             1
@<TRIPOS>SET
LONE_PAIRS      STATIC     ATOMS    <user>   **** ""
5 55 56 57 58 59
DONOR_HYDROGENS      STATIC     ATOMS    <user>   **** ""
2 54 38
ATOM$BLUE        STATIC     ATOMS    COLORGROUP SYSTEM
5 55 56 57 58 59
ATOM$RED        STATIC     ATOMS    COLORGROUP SYSTEM
2 54 38
