AV-unprocessed.smi:3112|AV-procd|sdf|11845|dock3
  -GOLD-   2272017223D 1   1.00000     0.00000
 Structure written by MMmdl.
 36 36  0  0  0  0  0  0  0  0  1 V2000
  146.8434  141.2406  153.9896 C   0  0  0  0  0  0  0  0  0  0  0  0
  148.2027  141.6930  154.5398 C   0  0  0  0  0  0  0  0  0  0  0  0
  149.0192  140.5441  155.1648 C   0  0  1  0  0  0  0  0  0  0  0  0
  149.1604  139.4710  154.2554 O   0  0  0  0  0  0  0  0  0  0  0  0
  150.4133  140.9573  155.6734 C   0  0  0  0  0  0  0  0  0  0  0  0
  150.3548  142.0847  156.6081 N   0  0  0  0  0  0  0  0  0  0  0  0
  151.3142  142.0227  157.7150 C   0  0  2  0  0  0  0  0  0  0  0  0
  151.1978  140.6354  158.3745 C   0  0  0  0  0  0  0  0  0  0  0  0
  151.0948  143.1813  158.7340 C   0  0  2  0  0  0  0  0  0  0  0  0
  151.2142  144.5934  158.1312 C   0  0  0  0  0  0  0  0  0  0  0  0
  151.9826  143.0669  159.8851 N   0  0  0  0  0  0  0  0  0  0  0  0
  153.1162  142.2908  160.0147 C   0  0  0  0  0  0  0  0  0  0  0  0
  153.6191  142.5070  161.2656 C   0  0  0  0  0  0  0  0  0  0  0  0
  152.7126  143.4427  161.8371 C   0  0  0  0  0  0  0  0  0  0  0  0
  151.7350  143.7757  161.0104 N   0  0  0  0  0  0  0  0  0  0  0  0
  146.2874  142.0876  153.5874 H   0  0  0  0  0  0  0  0  0  0  0  0
  146.2338  140.7842  154.7699 H   0  0  0  0  0  0  0  0  0  0  0  0
  146.9616  140.5128  153.1867 H   0  0  0  0  0  0  0  0  0  0  0  0
  148.7720  142.1721  153.7425 H   0  0  0  0  0  0  0  0  0  0  0  0
  148.0307  142.4600  155.2956 H   0  0  0  0  0  0  0  0  0  0  0  0
  148.4651  140.1547  156.0196 H   0  0  0  0  0  0  0  0  0  0  0  0
  149.2553  139.8256  153.3850 H   0  0  0  0  0  0  0  0  0  0  0  0
  150.8629  140.1024  156.1801 H   0  0  0  0  0  0  0  0  0  0  0  0
  151.0611  141.1723  154.8261 H   0  0  0  0  0  0  0  0  0  0  0  0
  149.4132  142.1549  156.9799 H   0  0  0  0  0  0  0  0  0  0  0  0
  152.3279  142.0934  157.3174 H   0  0  0  0  0  0  0  0  0  0  0  0
  151.9739  140.4742  159.1228 H   0  0  0  0  0  0  0  0  0  0  0  0
  151.3033  139.8405  157.6354 H   0  0  0  0  0  0  0  0  0  0  0  0
  150.2312  140.5077  158.8630 H   0  0  0  0  0  0  0  0  0  0  0  0
  150.0793  143.0878  159.1229 H   0  0  0  0  0  0  0  0  0  0  0  0
  150.3982  144.8003  157.4397 H   0  0  0  0  0  0  0  0  0  0  0  0
  152.1565  144.7245  157.5985 H   0  0  0  0  0  0  0  0  0  0  0  0
  151.1637  145.3559  158.9092 H   0  0  0  0  0  0  0  0  0  0  0  0
  153.4680  141.6571  159.2139 H   0  0  0  0  0  0  0  0  0  0  0  0
  154.5003  142.0642  161.7055 H   0  0  0  0  0  0  0  0  0  0  0  0
  152.7354  143.8870  162.8211 H   0  0  0  0  0  0  0  0  0  0  0  0
  1  2  1  0  0  0  0
  1 16  1  0  0  0  0
  1 17  1  0  0  0  0
  1 18  1  0  0  0  0
  2  3  1  0  0  0  0
  2 19  1  0  0  0  0
  2 20  1  0  0  0  0
  3  4  1  0  0  0  0
  3  5  1  0  0  0  0
  3 21  1  0  0  0  0
  4 22  1  0  0  0  0
  5  6  1  0  0  0  0
  5 23  1  0  0  0  0
  5 24  1  0  0  0  0
  6  7  1  0  0  0  0
  6 25  1  0  0  0  0
  7  8  1  0  0  0  0
  7  9  1  0  0  0  0
  7 26  1  0  0  0  0
  8 27  1  0  0  0  0
  8 28  1  0  0  0  0
  8 29  1  0  0  0  0
  9 10  1  0  0  0  0
  9 11  1  0  0  0  0
  9 30  1  0  0  0  0
 10 31  1  0  0  0  0
 10 32  1  0  0  0  0
 10 33  1  0  0  0  0
 11 15  1  0  0  0  0
 11 12  1  0  0  0  0
 12 13  2  0  0  0  0
 12 34  1  0  0  0  0
 13 14  1  0  0  0  0
 13 35  1  0  0  0  0
 14 15  2  0  0  0  0
 14 36  1  0  0  0  0
M  END
> <s_m_source_file>
AV-unprocessed.smi

> <i_m_source_file_index>
3112

> <i_lp_mmshare_version>
43012

> <i_f3d_flags>
0

> <s_epik_input>
W0NIM11bQ0gyXVtDQEhdKFtPSF0pW0NIMl1bTkhdW0NASF0oW0NIM10pW0NASF0oW0NIM10pbjFbY0hdW2NIXVtjSF1uMQ==

> <s_epik_cmdline>
J2VwaWtfcHl0aG9uJywgJy1waCcsICc3LjAnLCAnLXRuJywgJzgnLCAnLW1hJywgJzIwMCcsICctbWV0YWxfYmluZGluZycsICctaW1hZScsICc8aW5maWxlLm1hZT4nLCAnLW9tYWUnLCAnPG91dGZpbGUubWFlPic=

> <r_lp_tautomer_probability>
1

> <r_epik_Ionization_Penalty>
2.16876

> <r_epik_Ionization_Penalty_Charging>
0

> <r_epik_Ionization_Penalty_Neutral>
2.16876

> <r_epik_State_Penalty>
2.30854

> <r_epik_Charging_Adjusted_Penalty>
2.30854

> <i_epik_Tot_Q>
0

> <i_epik_Tot_abs_Q>
0

> <r_epik_Metal_State_Penalty>
2.3073

> <b_epik_Metal_Only>
0

> <s_lp_Force_Field>
OPLS_2005

> <r_lp_Energy>
23.3328

> <b_lp_Chiralities_Consistent>
1

> <s_lp_Variant>
AV-unprocessed.smi:3112-10

> <Gold.Version>
5.8.1

> <Gold.Id.Protein>
6NUR|6NUR_protein|mol2

> <Gold.PLP.Fitness>
40.9986

> <Gold.PLP.PLP>
-38.9921

> <Gold.PLP.part.hbond>
-2.2680

> <Gold.PLP.part.metal>
0.0000

> <Gold.PLP.part.buried>
-3.5454

> <Gold.PLP.part.nonpolar>
-32.6159

> <Gold.PLP.part.repulsive>
0.1362

> <Gold.PLP.ligand.clash>
0.0000

> <Gold.PLP.ligand.torsion>
0.5763

> <Gold.PLP.Chemscore.Hbond>
1.0000

> <Gold.PLP.Chemscore.CHOScore>
0.0000

> <Gold.PLP.Chemscore.Metal>
0.0000

> <Gold.Chemscore.Hbonds>
donor molecule, donor type, donor heavy atom, donor atom, acceptor molecule, acceptor atom, score
      L1  H     4    22       P1  7957  0.42

> <Gold.PLP.Chemscore.Internal.Correction>
0.1590

> <Gold.Rescore>
     Score         DG    S(hbond)    S(metal)    S(lipo)     H(rot)  DE(clash)    DE(int)     intcor
     13.05     -13.91       0.99        0.00      94.48       2.31       0.34       0.52       ----

> <Gold.Chemscore.Fitness>
13.0546

> <Gold.Chemscore.DG>
-13.9142

> <Gold.Chemscore.ZeroCoef>
-5.4800

> <Gold.Chemscore.Hbond>
0.9868

> <Gold.Chemscore.Metal>
0.0000

> <Gold.Chemscore.Lipo>
94.4775

> <Gold.Chemscore.Internal_Hbond>
0.0000

> <Gold.Chemscore.DEClash>
0.3435

> <Gold.Chemscore.DEInternal>
0.5161

> <Gold.Chemscore.Rot>
2.3108

> <Gold.Chemscore.Internal.Correction>
   9.000000E+99

> <Gold.Chemscore.Hbonds>
donor molecule, donor type, donor heavy atom, donor atom, acceptor molecule, acceptor atom, score
      L1  H     4    22       P1  7957  0.41

> <Gold.Chemscore.Hbond.Weighted>
-3.2960

> <Gold.Chemscore.Metal.Weighted>
-0.0000

> <Gold.Chemscore.Lipo.Weighted>
-11.0539

> <Gold.Chemscore.Internal_Hbond.Weighted>
0.0000

> <Gold.Chemscore.DEClash.Weighted>
0.3435

> <Gold.Chemscore.DEInternal.Weighted>
0.5161

> <Gold.Chemscore.Rot.Weighted>
5.9157

> <Gold.Chemscore.Internal.Correction.Weighted>
   9.000000E+99

> <Gold.Protein.RotatedTorsions>
[ 6907 6896 6895 6894 ] final  -42.40 input  -60.11 | X-H torsion
[ 7974 7965 7964 7962 ] final   27.85 input  175.53 | X-H torsion
[ 8008 7997 7996 7995 ] final  -38.76 input   59.86 | X-H torsion
[ 10167 10162 10161 10158 ] final -162.29 input  -65.29 | X-H torsion
[ 10718 10713 10712 10709 ] final   68.05 input   66.30 | X-H torsion
[ 10763 10752 10751 10750 ] final  165.52 input  -60.55 | X-H torsion
[ 11005 11000 10999 10996 ] final   38.10 input  -57.11 | X-H torsion

> <Gold.Protein.ActiveResidues>
 VAL166  LYS551  ARG553  GLY616  TRP617  ASP618  TYR619  PRO620  LYS621  CYS622 
 ASP623  PHE694  ASN695  SER759  ASP760  ASP761  ALA762  ILE779  LEU786  VAL792 
 PHE793  MET794  SER795  GLU796  ALA797  LYS798  CYS799  TRP800  GLU811  SER814 

> <Gold.Protein.RotatedAtoms>
  150.9557  134.8951  159.7699 H   0  0  0  0  0  0  0  0  0  0  0  0  # atno 6907 bound_to 6896
  152.5137  134.3744  159.9339 H   0  0  0  0  0  0  0  0  0  0  0  0  # atno 6908 bound_to 6896
  151.3758  133.3798  159.2739 H   0  0  0  0  0  0  0  0  0  0  0  0  # atno 6909 bound_to 6896
  146.1762  139.7136  142.8933 H   0  0  0  0  0  0  0  0  0  0  0  0  # atno 7974 bound_to 7965
  154.4032  140.1569  156.2752 H   0  0  0  0  0  0  0  0  0  0  0  0  # atno 8008 bound_to 7997
  155.8918  140.3438  155.5939 H   0  0  0  0  0  0  0  0  0  0  0  0  # atno 8009 bound_to 7997
  155.7549  140.0810  157.2174 H   0  0  0  0  0  0  0  0  0  0  0  0  # atno 8010 bound_to 7997
  139.6403  144.0272  152.2086 H   0  0  0  0  0  0  0  0  0  0  0  0  # atno 10167 bound_to 10162
  157.6266  130.9353  150.0325 H   0  0  0  0  0  0  0  0  0  0  0  0  # atno 10718 bound_to 10713
  154.3253  135.2755  155.2499 H   0  0  0  0  0  0  0  0  0  0  0  0  # atno 10763 bound_to 10752
  154.4834  135.5852  153.6410 H   0  0  0  0  0  0  0  0  0  0  0  0  # atno 10764 bound_to 10752
  152.9872  135.6117  154.3441 H   0  0  0  0  0  0  0  0  0  0  0  0  # atno 10765 bound_to 10752
  140.2160  134.3698  155.8027 H   0  0  0  0  0  0  0  0  0  0  0  0  # atno 11005 bound_to 11000
  145.4206  141.0406  143.2966 LP  0  0  0  0  0  0  0  0  0  0  0  0  # atno 17320 bound_to 7965
  144.8239  139.5743  143.6974 LP  0  0  0  0  0  0  0  0  0  0  0  0  # atno 17321 bound_to 7965
  139.9960  144.6327  150.7772 LP  0  0  0  0  0  0  0  0  0  0  0  0  # atno 17342 bound_to 10162
  140.7487  143.2927  151.3288 LP  0  0  0  0  0  0  0  0  0  0  0  0  # atno 17343 bound_to 10162
  156.1443  130.3642  149.9535 LP  0  0  0  0  0  0  0  0  0  0  0  0  # atno 17370 bound_to 10713
  156.7569  130.9136  151.3640 LP  0  0  0  0  0  0  0  0  0  0  0  0  # atno 17371 bound_to 10713
  141.2225  133.7168  156.8497 LP  0  0  0  0  0  0  0  0  0  0  0  0  # atno 17394 bound_to 11000
  140.1900  134.8972  157.3049 LP  0  0  0  0  0  0  0  0  0  0  0  0  # atno 17395 bound_to 11000

$$$$
