AV-unprocessed.smi:625|AV-procd|sdf|3107|dock8
  -GOLD-   22720 0 33D 1   1.00000     0.00000
 Structure written by MMmdl.
 49 51  0  0  0  0  0  0  0  0  1 V2000
  154.3133  133.1177  164.1893 C   0  0  0  0  0  0  0  0  0  0  0  0
  154.5900  134.5450  164.1288 N   0  0  0  0  0  0  0  0  0  0  0  0
  154.8570  135.2218  162.9995 C   0  0  0  0  0  0  0  0  0  0  0  0
  154.8888  134.6619  161.9024 O   0  0  0  0  0  0  0  0  0  0  0  0
  155.0983  136.6516  163.2091 C   0  0  0  0  0  0  0  0  0  0  0  0
  155.2596  137.2467  164.5277 C   0  0  0  0  0  0  0  0  0  0  0  0
  155.4700  138.5710  164.6611 C   0  0  0  0  0  0  0  0  0  0  0  0
  155.5474  139.4613  163.4997 C   0  0  0  0  0  0  0  0  0  0  0  0
  155.7356  140.6729  163.6167 O   0  0  0  0  0  0  0  0  0  0  0  0
  155.3968  138.8610  162.2795 N   0  0  0  0  0  0  0  0  0  0  0  0
  155.4505  139.6566  161.0417 C   0  0  0  0  0  0  0  0  0  0  0  0
  154.0956  139.7163  160.3252 C   0  0  0  0  0  0  0  0  0  0  0  0
  153.4441  138.6879  160.1390 O   0  0  0  0  0  0  0  0  0  0  0  0
  153.6925  140.9330  159.9281 N   0  0  0  0  0  0  0  0  0  0  0  0
  152.4080  141.2505  159.3083 C   0  0  2  0  0  0  0  0  0  0  0  0
  152.1314  140.2424  158.1823 C   0  0  0  0  0  0  0  0  0  0  0  0
  152.4252  142.7101  158.7955 C   0  0  1  0  0  0  0  0  0  0  0  0
  151.1005  143.1939  158.1639 C   0  0  0  0  0  0  0  0  0  0  0  0
  150.8506  144.5397  158.8706 C   0  0  1  0  0  0  0  0  0  0  0  0
  150.3896  144.2717  160.3149 C   0  0  0  0  0  0  0  0  0  0  0  0
  151.6822  143.7890  160.9972 C   0  0  0  0  0  0  0  0  0  0  0  0
  152.7082  143.8154  159.8454 C   0  0  2  0  0  0  0  0  0  0  0  0
  152.2667  145.0617  159.0852 C   0  0  0  0  0  0  0  0  0  0  0  0
  155.1735  137.4765  162.1462 C   0  0  0  0  0  0  0  0  0  0  0  0
  154.1418  132.8168  165.2227 H   0  0  0  0  0  0  0  0  0  0  0  0
  155.1542  132.5415  163.8015 H   0  0  0  0  0  0  0  0  0  0  0  0
  153.4233  132.8701  163.6096 H   0  0  0  0  0  0  0  0  0  0  0  0
  154.5763  135.0547  165.0001 H   0  0  0  0  0  0  0  0  0  0  0  0
  155.2143  136.6470  165.4248 H   0  0  0  0  0  0  0  0  0  0  0  0
  155.5854  138.9899  165.6499 H   0  0  0  0  0  0  0  0  0  0  0  0
  155.7994  140.6668  161.2662 H   0  0  0  0  0  0  0  0  0  0  0  0
  156.1845  139.2488  160.3457 H   0  0  0  0  0  0  0  0  0  0  0  0
  154.3050  141.7131  160.1174 H   0  0  0  0  0  0  0  0  0  0  0  0
  151.6033  141.1496  160.0377 H   0  0  0  0  0  0  0  0  0  0  0  0
  151.1667  140.4292  157.7103 H   0  0  0  0  0  0  0  0  0  0  0  0
  152.1136  139.2220  158.5666 H   0  0  0  0  0  0  0  0  0  0  0  0
  152.8962  140.2918  157.4063 H   0  0  0  0  0  0  0  0  0  0  0  0
  153.2067  142.7830  158.0367 H   0  0  0  0  0  0  0  0  0  0  0  0
  151.2187  143.3316  157.0885 H   0  0  0  0  0  0  0  0  0  0  0  0
  150.2738  142.4993  158.3181 H   0  0  0  0  0  0  0  0  0  0  0  0
  150.1894  145.2081  158.3182 H   0  0  0  0  0  0  0  0  0  0  0  0
  150.0274  145.1869  160.7850 H   0  0  0  0  0  0  0  0  0  0  0  0
  149.5909  143.5308  160.3651 H   0  0  0  0  0  0  0  0  0  0  0  0
  151.9773  144.4849  161.7835 H   0  0  0  0  0  0  0  0  0  0  0  0
  151.5731  142.8092  161.4599 H   0  0  0  0  0  0  0  0  0  0  0  0
  153.7437  143.8398  160.1869 H   0  0  0  0  0  0  0  0  0  0  0  0
  152.8147  145.2225  158.1552 H   0  0  0  0  0  0  0  0  0  0  0  0
  152.3064  145.9730  159.6849 H   0  0  0  0  0  0  0  0  0  0  0  0
  155.0602  137.1397  161.1251 H   0  0  0  0  0  0  0  0  0  0  0  0
  1  2  1  0  0  0  0
  1 25  1  0  0  0  0
  1 26  1  0  0  0  0
  1 27  1  0  0  0  0
  2  3  1  0  0  0  0
  2 28  1  0  0  0  0
  3  4  2  0  0  0  0
  3  5  1  0  0  0  0
  5 24  2  0  0  0  0
  5  6  1  0  0  0  0
  6  7  2  0  0  0  0
  6 29  1  0  0  0  0
  7  8  1  0  0  0  0
  7 30  1  0  0  0  0
  8  9  2  0  0  0  0
  8 10  1  0  0  0  0
 10 11  1  0  0  0  0
 10 24  1  0  0  0  0
 11 12  1  0  0  0  0
 11 31  1  0  0  0  0
 11 32  1  0  0  0  0
 12 13  2  0  0  0  0
 12 14  1  0  0  0  0
 14 15  1  0  0  0  0
 14 33  1  0  0  0  0
 15 16  1  0  0  0  0
 15 17  1  0  0  0  0
 15 34  1  0  0  0  0
 16 35  1  0  0  0  0
 16 36  1  0  0  0  0
 16 37  1  0  0  0  0
 17 22  1  0  0  0  0
 17 18  1  0  0  0  0
 17 38  1  0  0  0  0
 18 19  1  0  0  0  0
 18 39  1  0  0  0  0
 18 40  1  0  0  0  0
 19 23  1  0  0  0  0
 19 20  1  0  0  0  0
 19 41  1  0  0  0  0
 20 21  1  0  0  0  0
 20 42  1  0  0  0  0
 20 43  1  0  0  0  0
 21 22  1  0  0  0  0
 21 44  1  0  0  0  0
 21 45  1  0  0  0  0
 22 23  1  0  0  0  0
 22 46  1  0  0  0  0
 23 47  1  0  0  0  0
 23 48  1  0  0  0  0
 24 49  1  0  0  0  0
M  END
> <s_m_source_file>
AV-unprocessed.smi

> <i_m_source_file_index>
625

> <i_lp_mmshare_version>
43012

> <i_f3d_flags>
0

> <s_epik_input>
W0NIM11bTkhdQyg9TyljMVtjSF1bY0hdYyg9TyluKFtjSF0xKVtDSDJdQyg9TylbTkhdW0NASF0oW0NIM10pW0NASF0oW0NIMl1bQ0BIXTIzKVtDQEhdKFtDSDJdMylbQ0gyXVtDSDJdMg==

> <s_epik_cmdline>
J2VwaWtfcHl0aG9uJywgJy1waCcsICc3LjAnLCAnLXRuJywgJzgnLCAnLW1hJywgJzIwMCcsICctbWV0YWxfYmluZGluZycsICctaW1hZScsICc8aW5maWxlLm1hZT4nLCAnLW9tYWUnLCAnPG91dGZpbGUubWFlPic=

> <r_lp_tautomer_probability>
1

> <r_epik_Ionization_Penalty>
3.7129e-07

> <r_epik_Ionization_Penalty_Charging>
5.04114e-08

> <r_epik_Ionization_Penalty_Neutral>
3.20879e-07

> <r_epik_State_Penalty>
-0

> <r_epik_Charging_Adjusted_Penalty>
5.04114e-08

> <i_epik_Tot_Q>
0

> <i_epik_Tot_abs_Q>
0

> <r_epik_Metal_State_Penalty>
-0

> <b_epik_Metal_Only>
0

> <s_lp_Force_Field>
OPLS_2005

> <r_lp_Energy>
63.4891

> <b_lp_Chiralities_Consistent>
1

> <s_lp_Variant>
AV-unprocessed.smi:625-7

> <Gold.Version>
5.8.1

> <Gold.Id.Protein>
6NUR|6NUR_protein|mol2

> <Gold.PLP.Fitness>
50.2346

> <Gold.PLP.PLP>
-50.8644

> <Gold.PLP.part.hbond>
-2.0000

> <Gold.PLP.part.metal>
0.0000

> <Gold.PLP.part.buried>
-7.4715

> <Gold.PLP.part.nonpolar>
-41.3717

> <Gold.PLP.part.repulsive>
0.1269

> <Gold.PLP.ligand.clash>
0.0000

> <Gold.PLP.ligand.torsion>
0.3451

> <Gold.PLP.Chemscore.Hbond>
0.0000

> <Gold.PLP.Chemscore.CHOScore>
0.0000

> <Gold.PLP.Chemscore.Metal>
0.0000

> <Gold.PLP.Chemscore.Internal.Correction>
0.0604

> <Gold.Rescore>
     Score         DG    S(hbond)    S(metal)    S(lipo)     H(rot)  DE(clash)    DE(int)     intcor
     13.78     -17.25       0.00        0.00     137.17       1.67       0.79       2.69       ----

> <Gold.Chemscore.Fitness>
13.7789

> <Gold.Chemscore.DG>
-17.2515

> <Gold.Chemscore.ZeroCoef>
-5.4800

> <Gold.Chemscore.Hbond>
0.0000

> <Gold.Chemscore.Metal>
0.0000

> <Gold.Chemscore.Lipo>
137.1697

> <Gold.Chemscore.Internal_Hbond>
0.0000

> <Gold.Chemscore.DEClash>
0.7861

> <Gold.Chemscore.DEInternal>
2.6865

> <Gold.Chemscore.Rot>
1.6709

> <Gold.Chemscore.Internal.Correction>
   9.000000E+99

> <Gold.Chemscore.Hbond.Weighted>
-0.0000

> <Gold.Chemscore.Metal.Weighted>
-0.0000

> <Gold.Chemscore.Lipo.Weighted>
-16.0489

> <Gold.Chemscore.Internal_Hbond.Weighted>
0.0000

> <Gold.Chemscore.DEClash.Weighted>
0.7861

> <Gold.Chemscore.DEInternal.Weighted>
2.6865

> <Gold.Chemscore.Rot.Weighted>
4.2774

> <Gold.Chemscore.Internal.Correction.Weighted>
   9.000000E+99

> <Gold.Protein.RotatedTorsions>
[ 6907 6896 6895 6894 ] final  -35.36 input  -60.11 | X-H torsion
[ 7974 7965 7964 7962 ] final  174.14 input  175.53 | X-H torsion
[ 8008 7997 7996 7995 ] final  -87.53 input   59.86 | X-H torsion
[ 10167 10162 10161 10158 ] final  -14.76 input  -65.29 | X-H torsion
[ 10718 10713 10712 10709 ] final  127.50 input   66.30 | X-H torsion
[ 10763 10752 10751 10750 ] final -176.58 input  -60.55 | X-H torsion
[ 11005 11000 10999 10996 ] final   56.06 input  -57.11 | X-H torsion

> <Gold.Protein.ActiveResidues>
 VAL166  LYS551  ARG553  GLY616  TRP617  ASP618  TYR619  PRO620  LYS621  CYS622 
 ASP623  PHE694  ASN695  SER759  ASP760  ASP761  ALA762  ILE779  LEU786  VAL792 
 PHE793  MET794  SER795  GLU796  ALA797  LYS798  CYS799  TRP800  GLU811  SER814 

> <Gold.Protein.RotatedAtoms>
  151.0408  134.9605  159.8160 H   0  0  0  0  0  0  0  0  0  0  0  0  # atno 6907 bound_to 6896
  152.5363  134.2661  159.8963 H   0  0  0  0  0  0  0  0  0  0  0  0  # atno 6908 bound_to 6896
  151.2673  133.4230  159.2653 H   0  0  0  0  0  0  0  0  0  0  0  0  # atno 6909 bound_to 6896
  144.7228  139.9753  143.6438 H   0  0  0  0  0  0  0  0  0  0  0  0  # atno 7974 bound_to 7965
  154.6643  140.0564  157.0097 H   0  0  0  0  0  0  0  0  0  0  0  0  # atno 8008 bound_to 7997
  155.1182  140.3245  155.4485 H   0  0  0  0  0  0  0  0  0  0  0  0  # atno 8009 bound_to 7997
  156.2631  140.2002  156.6305 H   0  0  0  0  0  0  0  0  0  0  0  0  # atno 8010 bound_to 7997
  140.7207  143.5288  150.9545 H   0  0  0  0  0  0  0  0  0  0  0  0  # atno 10167 bound_to 10162
  157.5327  131.1098  150.8983 H   0  0  0  0  0  0  0  0  0  0  0  0  # atno 10718 bound_to 10713
  154.5706  135.2827  155.0831 H   0  0  0  0  0  0  0  0  0  0  0  0  # atno 10763 bound_to 10752
  154.2205  135.6392  153.5147 H   0  0  0  0  0  0  0  0  0  0  0  0  # atno 10764 bound_to 10752
  153.0056  135.5513  154.6328 H   0  0  0  0  0  0  0  0  0  0  0  0  # atno 10765 bound_to 10752
  140.0558  134.5671  155.9209 H   0  0  0  0  0  0  0  0  0  0  0  0  # atno 11005 bound_to 11000
  146.0531  139.3530  143.0627 LP  0  0  0  0  0  0  0  0  0  0  0  0  # atno 17320 bound_to 7965
  145.8190  140.9689  143.0909 LP  0  0  0  0  0  0  0  0  0  0  0  0  # atno 17321 bound_to 7965
  139.9007  143.6839  152.3131 LP  0  0  0  0  0  0  0  0  0  0  0  0  # atno 17342 bound_to 10162
  139.7187  144.7607  151.0990 LP  0  0  0  0  0  0  0  0  0  0  0  0  # atno 17343 bound_to 10162
  156.9560  130.5437  149.5284 LP  0  0  0  0  0  0  0  0  0  0  0  0  # atno 17370 bound_to 10713
  156.0435  130.5514  150.8826 LP  0  0  0  0  0  0  0  0  0  0  0  0  # atno 17371 bound_to 10713
  141.1951  133.6586  156.5629 LP  0  0  0  0  0  0  0  0  0  0  0  0  # atno 17394 bound_to 11000
  140.3846  134.7494  157.4683 LP  0  0  0  0  0  0  0  0  0  0  0  0  # atno 17395 bound_to 11000

$$$$
