AV-unprocessed.smi:41|AV-procd|sdf|385|dock5
  -GOLD-   2262016243D 1   1.00000     0.00000
 Structure written by MMmdl.
 26 27  0  0  0  0  0  0  0  0  1 V2000
  151.2106  139.3450  154.0705 N   0  0  0  0  0  0  0  0  0  0  0  0
  151.2104  140.0697  155.1989 C   0  0  0  0  0  0  0  0  0  0  0  0
  152.1386  139.8417  156.1071 N   0  0  0  0  0  0  0  0  0  0  0  0
  152.2194  140.5291  157.2900 C   0  0  0  0  0  0  0  0  0  0  0  0
  153.1260  140.2886  158.0863 O   0  0  0  0  0  0  0  0  0  0  0  0
  151.2266  141.5083  157.5510 N   0  0  0  0  0  0  0  0  0  0  0  0
  151.2876  142.3183  158.7667 C   0  0  2  0  0  0  0  0  0  0  0  0
  150.2954  143.4953  158.8078 C   0  0  0  0  0  0  0  0  0  0  0  0
  150.9618  144.6571  160.0077 S   0  0  0  0  0  0  0  0  0  0  0  0
  152.5615  143.8113  159.9591 C   0  0  1  0  0  0  0  0  0  0  0  0
  152.8851  143.1531  161.3143 C   0  0  0  0  0  0  0  0  0  0  0  0
  151.6924  142.7715  161.9659 O   0  0  0  0  0  0  0  0  0  0  0  0
  152.5702  142.8391  158.9195 O   0  0  0  0  0  0  0  0  0  0  0  0
  150.2698  141.7799  156.5797 C   0  0  0  0  0  0  0  0  0  0  0  0
  150.2160  141.0944  155.4177 C   0  0  0  0  0  0  0  0  0  0  0  0
  149.2743  141.3639  154.4969 F   0  0  0  0  0  0  0  0  0  0  0  0
  151.0921  141.6868  159.6337 H   0  0  0  0  0  0  0  0  0  0  0  0
  153.3162  144.5660  159.7348 H   0  0  0  0  0  0  0  0  0  0  0  0
  150.5098  139.5142  153.3634 H   0  0  0  0  0  0  0  0  0  0  0  0
  151.9098  138.6300  153.9314 H   0  0  0  0  0  0  0  0  0  0  0  0
  150.2281  144.0121  157.8537 H   0  0  0  0  0  0  0  0  0  0  0  0
  149.3003  143.1471  159.0853 H   0  0  0  0  0  0  0  0  0  0  0  0
  153.4666  142.2439  161.1589 H   0  0  0  0  0  0  0  0  0  0  0  0
  153.4761  143.8017  161.9604 H   0  0  0  0  0  0  0  0  0  0  0  0
  151.6407  143.2292  162.7911 H   0  0  0  0  0  0  0  0  0  0  0  0
  149.5437  142.5648  156.7244 H   0  0  0  0  0  0  0  0  0  0  0  0
  1  2  1  0  0  0  0
  1 19  1  0  0  0  0
  1 20  1  0  0  0  0
  2 15  1  0  0  0  0
  2  3  2  0  0  0  0
  3  4  1  0  0  0  0
  4  5  2  0  0  0  0
  4  6  1  0  0  0  0
  6  7  1  0  0  0  0
  6 14  1  0  0  0  0
  7 17  1  0  0  0  0
  7 13  1  0  0  0  0
  7  8  1  0  0  0  0
  8  9  1  0  0  0  0
  8 21  1  0  0  0  0
  8 22  1  0  0  0  0
  9 10  1  0  0  0  0
 10 18  1  0  0  0  0
 10 11  1  0  0  0  0
 10 13  1  0  0  0  0
 11 12  1  0  0  0  0
 11 23  1  0  0  0  0
 11 24  1  0  0  0  0
 12 25  1  0  0  0  0
 14 15  2  0  0  0  0
 14 26  1  0  0  0  0
 15 16  1  0  0  0  0
M  END
> <s_m_source_file>
AV-unprocessed.smi

> <i_m_source_file_index>
41

> <i_lp_mmshare_version>
43012

> <i_f3d_flags>
0

> <s_epik_input>
W05IMl1jMW5jKD1PKW4oW2NIXWMxRilbQ0BASF0yW0NIMl1TW0NAQEhdKE8yKVtDSDJdW09IXQ==

> <s_epik_cmdline>
J2VwaWtfcHl0aG9uJywgJy1waCcsICc3LjAnLCAnLXRuJywgJzgnLCAnLW1hJywgJzIwMCcsICctbWV0YWxfYmluZGluZycsICctaW1hZScsICc8aW5maWxlLm1hZT4nLCAnLW9tYWUnLCAnPG91dGZpbGUubWFlPic=

> <r_lp_tautomer_probability>
1

> <r_epik_Ionization_Penalty>
0.000101883

> <r_epik_Ionization_Penalty_Charging>
1.48607e-08

> <r_epik_Ionization_Penalty_Neutral>
0.000101868

> <r_epik_State_Penalty>
-0

> <r_epik_Charging_Adjusted_Penalty>
1.48607e-08

> <i_epik_Tot_Q>
0

> <i_epik_Tot_abs_Q>
0

> <r_epik_Metal_State_Penalty>
-0

> <b_epik_Metal_Only>
0

> <s_epik_Chemistry_Notes>
This compound contains an acetal/aminal-like group ( X-CH(R)-Y where X, Y are N, S, or O) that may be acid/base labile, releasing an aldehyde.

> <s_lp_Force_Field>
OPLS_2005

> <r_lp_Energy>
16.0015

> <b_lp_Chiralities_Consistent>
1

> <s_lp_Variant>
AV-unprocessed.smi:41-3

> <Gold.Version>
5.8.1

> <Gold.Id.Protein>
6NUR|6NUR_protein|mol2

> <Gold.PLP.Fitness>
40.9153

> <Gold.PLP.PLP>
-33.5400

> <Gold.PLP.part.hbond>
-3.0000

> <Gold.PLP.part.metal>
0.0000

> <Gold.PLP.part.buried>
-5.1728

> <Gold.PLP.part.nonpolar>
-25.5091

> <Gold.PLP.part.repulsive>
0.8599

> <Gold.PLP.ligand.clash>
0.0000

> <Gold.PLP.ligand.torsion>
0.5210

> <Gold.PLP.Chemscore.Hbond>
1.7913

> <Gold.PLP.Chemscore.CHOScore>
1.0000

> <Gold.PLP.Chemscore.Metal>
0.0000

> <Gold.Chemscore.Hbonds>
donor molecule, donor type, donor heavy atom, donor atom, acceptor molecule, acceptor atom, score
      L1  H     1    19       P1  7957  0.02
      P1  H  6933  6945       L1    12  0.57
      P1  H  7997  8008       L1     5  0.91
      L1  C    14    26       P1  8028  1.00

> <Gold.PLP.Chemscore.Internal.Correction>
0.0436

> <Gold.Rescore>
     Score         DG    S(hbond)    S(metal)    S(lipo)     H(rot)  DE(clash)    DE(int)     intcor
      8.85     -10.79       1.27        0.00      57.23       2.19       0.24       1.70       ----

> <Gold.Chemscore.Fitness>
8.8463

> <Gold.Chemscore.DG>
-10.7872

> <Gold.Chemscore.ZeroCoef>
-5.4800

> <Gold.Chemscore.Hbond>
1.2651

> <Gold.Chemscore.Metal>
0.0000

> <Gold.Chemscore.Lipo>
57.2261

> <Gold.Chemscore.Internal_Hbond>
0.0000

> <Gold.Chemscore.DEClash>
0.2402

> <Gold.Chemscore.DEInternal>
1.7008

> <Gold.Chemscore.Rot>
2.1929

> <Gold.Chemscore.Internal.Correction>
   9.000000E+99

> <Gold.Chemscore.Hbonds>
donor molecule, donor type, donor heavy atom, donor atom, acceptor molecule, acceptor atom, score
      L1  H     1    19       P1  7957  0.07
      P1  H  6933  6945       L1    12  0.06
      P1  H  7997  8008       L1     5  0.36

> <Gold.Chemscore.Hbond.Weighted>
-4.2255

> <Gold.Chemscore.Metal.Weighted>
-0.0000

> <Gold.Chemscore.Lipo.Weighted>
-6.6954

> <Gold.Chemscore.Internal_Hbond.Weighted>
0.0000

> <Gold.Chemscore.DEClash.Weighted>
0.2402

> <Gold.Chemscore.DEInternal.Weighted>
1.7008

> <Gold.Chemscore.Rot.Weighted>
5.6137

> <Gold.Chemscore.Internal.Correction.Weighted>
   9.000000E+99

> <Gold.Protein.RotatedTorsions>
[ 6907 6896 6895 6894 ] final -113.75 input  -60.11 | X-H torsion
[ 7974 7965 7964 7962 ] final   48.15 input  175.53 | X-H torsion
[ 8008 7997 7996 7995 ] final  -84.43 input   59.86 | X-H torsion
[ 10167 10162 10161 10158 ] final  122.67 input  -65.29 | X-H torsion
[ 10718 10713 10712 10709 ] final  -61.45 input   66.30 | X-H torsion
[ 10763 10752 10751 10750 ] final   35.77 input  -60.55 | X-H torsion
[ 11005 11000 10999 10996 ] final  -39.19 input  -57.11 | X-H torsion

> <Gold.Protein.ActiveResidues>
 VAL166  LYS551  ARG553  GLY616  TRP617  ASP618  TYR619  PRO620  LYS621  CYS622 
 ASP623  PHE694  ASN695  SER759  ASP760  ASP761  ALA762  ILE779  LEU786  VAL792 
 PHE793  MET794  SER795  GLU796  ALA797  LYS798  CYS799  TRP800  GLU811  SER814 

> <Gold.Protein.RotatedAtoms>
  150.7852  133.8900  159.3310 H   0  0  0  0  0  0  0  0  0  0  0  0  # atno 6907 bound_to 6896
  151.6752  135.0968  160.0215 H   0  0  0  0  0  0  0  0  0  0  0  0  # atno 6908 bound_to 6896
  152.3914  133.6645  159.6276 H   0  0  0  0  0  0  0  0  0  0  0  0  # atno 6909 bound_to 6896
  146.0231  139.4674  142.9885 H   0  0  0  0  0  0  0  0  0  0  0  0  # atno 7974 bound_to 7965
  154.6297  140.0605  156.9717 H   0  0  0  0  0  0  0  0  0  0  0  0  # atno 8008 bound_to 7997
  155.1685  140.3289  155.4379 H   0  0  0  0  0  0  0  0  0  0  0  0  # atno 8009 bound_to 7997
  156.2476  140.1918  156.6789 H   0  0  0  0  0  0  0  0  0  0  0  0  # atno 8010 bound_to 7997
  139.5845  144.7000  151.3445 H   0  0  0  0  0  0  0  0  0  0  0  0  # atno 10167 bound_to 10162
  156.0921  130.4198  150.0996 H   0  0  0  0  0  0  0  0  0  0  0  0  # atno 10718 bound_to 10713
  153.0105  135.6324  154.1879 H   0  0  0  0  0  0  0  0  0  0  0  0  # atno 10763 bound_to 10752
  154.1621  135.2823  155.3107 H   0  0  0  0  0  0  0  0  0  0  0  0  # atno 10764 bound_to 10752
  154.5973  135.5598  153.7399 H   0  0  0  0  0  0  0  0  0  0  0  0  # atno 10765 bound_to 10752
  141.0084  133.6920  156.2154 H   0  0  0  0  0  0  0  0  0  0  0  0  # atno 11005 bound_to 11000
  145.7162  141.0090  143.1427 LP  0  0  0  0  0  0  0  0  0  0  0  0  # atno 17320 bound_to 7965
  144.6998  139.8815  143.7447 LP  0  0  0  0  0  0  0  0  0  0  0  0  # atno 17321 bound_to 7965
  140.7118  143.7369  150.7582 LP  0  0  0  0  0  0  0  0  0  0  0  0  # atno 17342 bound_to 10162
  140.0910  143.4877  152.2478 LP  0  0  0  0  0  0  0  0  0  0  0  0  # atno 17343 bound_to 10162
  156.9003  130.9618  151.3577 LP  0  0  0  0  0  0  0  0  0  0  0  0  # atno 17370 bound_to 10713
  157.6073  130.8556  149.8895 LP  0  0  0  0  0  0  0  0  0  0  0  0  # atno 17371 bound_to 10713
  140.6775  134.4802  157.5588 LP  0  0  0  0  0  0  0  0  0  0  0  0  # atno 17394 bound_to 11000
  139.9076  134.8415  156.1648 LP  0  0  0  0  0  0  0  0  0  0  0  0  # atno 17395 bound_to 11000

$$$$
