#       Name:                AV-unprocessed.smi:1108
#       Creating user name   scv26
#       Creation time:       Fri Mar 27 03:33:13 2020


#       File generated by GOLD software.
#

@<TRIPOS>MOLECULE
AV-unprocessed.smi:1108
    34    35     1
SMALL
NO_CHARGES


@<TRIPOS>ATOM
      1 ****        -0.4001  -2.5741   2.3276 C.3            1 S1                 0.0000
      2 ****         0.0746  -1.8954   1.0356 C.3            1 S1                 0.0000
      3 ****         1.6159  -1.8471   0.9614 C.3            1 S1                 0.0000
      4 ****         2.1038  -1.3916  -0.3282 N.pl3          1 S1                 0.0000
      5 ****         2.6220  -0.1580  -0.6622 C.2            1 S1                 0.0000
      6 ****         2.9317  -0.1941  -1.9915 C.2            1 S1                 0.0000
      7 ****         2.5664  -1.5111  -2.3875 C.2            1 S1                 0.0000
      8 ****         2.0753  -2.2269  -1.3889 N.2            1 S1                 0.0000
      9 ****        -0.4926  -0.5487   0.9730 N.am           1 S1                 0.0000
     10 ****        -0.9868   0.0426  -0.1249 C.2            1 S1                 0.0000
     11 ****        -1.0276  -0.4854  -1.2363 O.2            1 S1                 0.0000
     12 ****        -1.4206   1.2829   0.1352 N.am           1 S1                 0.0000
     13 ****        -1.9868   2.1775  -0.8214 C.3            1 S1                 0.0000
     14 ****        -1.6946   3.6538  -0.6619 C.3            1 S1                 0.0000
     15 ****        -3.0661   3.1250  -0.3440 C.3            1 S1                 0.0000
     16 ****        -0.0234  -3.5951   2.3949 H              1 S1                 0.0000
     17 ****        -1.4888  -2.6234   2.3686 H              1 S1                 0.0000
     18 ****        -0.0565  -2.0343   3.2107 H              1 S1                 0.0000
     19 ****        -0.2999  -2.4943   0.2032 H              1 S1                 0.0000
     20 ****         2.0172  -1.1950   1.7384 H              1 S1                 0.0000
     21 ****         2.0313  -2.8391   1.1452 H              1 S1                 0.0000
     22 ****         2.7191   0.6354   0.0641 H              1 S1                 0.0000
     23 ****         3.3531   0.5994  -2.5903 H              1 S1                 0.0000
     24 ****         2.6438  -1.9654  -3.3641 H              1 S1                 0.0000
     25 ****        -0.5061  -0.0253   1.8361 H              1 S1                 0.0000
     26 ****        -1.3404   1.6242   1.0820 H              1 S1                 0.0000
     27 ****        -2.0871   1.8175  -1.8446 H              1 S1                 0.0000
     28 ****        -1.0695   3.9624   0.1737 H              1 S1                 0.0000
     29 ****        -1.5809   4.2427  -1.5698 H              1 S1                 0.0000
     30 ****        -3.8690   3.3613  -1.0392 H              1 S1                 0.0000
     31 ****        -3.3564   3.0800   0.7040 H              1 S1                 0.0000
     32 ****         1.7549  -3.1739  -1.4140 LP             1 S1                 0.0000
     33 ****        -0.6779  -1.4138  -1.3619 LP             1 S1                 0.0000
     34 ****        -1.4105   0.0141  -2.0134 LP             1 S1                 0.0000
@<TRIPOS>BOND
    1    1    2 1     
    2    1   16 1     
    3    1   17 1     
    4    1   18 1     
    5    2    3 1     
    6    2    9 1     
    7    2   19 1     
    8    3    4 1     
    9    3   20 1     
   10    3   21 1     
   11    4    8 1     
   12    4    5 1     
   13    5    6 2     
   14    5   22 1     
   15    6    7 1     
   16    6   23 1     
   17    7    8 2     
   18    7   24 1     
   19    9   10 am    
   20    9   25 1     
   21   10   11 2     
   22   10   12 am    
   23   12   13 1     
   24   12   26 1     
   25   13   15 1     
   26   13   14 1     
   27   13   27 1     
   28   14   15 1     
   29   14   28 1     
   30   14   29 1     
   31   15   30 1     
   32   15   31 1     
   33    8   32 1     
   34   11   33 1     
   35   11   34 1     
@<TRIPOS>SUBSTRUCTURE
      1 S1             1
@<TRIPOS>SET
LONE_PAIRS      STATIC     ATOMS    <user>   **** ""
3 32 33 34
DONOR_HYDROGENS      STATIC     ATOMS    <user>   **** ""
2 25 26
ATOM$BLUE        STATIC     ATOMS    COLORGROUP SYSTEM
3 32 33 34
ATOM$RED        STATIC     ATOMS    COLORGROUP SYSTEM
2 25 26
