AV-unprocessed.smi:2353|AV-procd|sdf|9383|dock9
  -GOLD-   2272013 13D 1   1.00000     0.00000
 Structure written by MMmdl.
 46 48  0  0  0  0  0  0  0  0  2 V2000
  151.7916  143.7822  159.2060 C   0  0  0  0  0  0  0  0  0  0  0  0
  152.4238  142.4647  159.6056 C   0  0  0  0  0  0  0  0  0  0  0  0
  153.0888  142.3428  160.8408 C   0  0  0  0  0  0  0  0  0  0  0  0
  153.6755  141.1176  161.2045 C   0  0  0  0  0  0  0  0  0  0  0  0
  153.6019  140.0081  160.3371 C   0  0  0  0  0  0  0  0  0  0  0  0
  154.2397  138.6939  160.7474 C   0  0  0  0  0  0  0  0  0  0  0  0
  152.9374  140.1163  159.0934 C   0  0  0  0  0  0  0  0  0  0  0  0
  152.9017  138.9929  158.2930 O   0  0  0  0  0  0  0  0  0  0  0  0
  152.2954  139.0887  157.0108 C   0  0  0  0  0  0  0  0  0  0  0  0
  153.3822  138.8969  155.9386 C   0  0  1  0  0  0  0  0  0  0  0  0
  154.0375  137.6783  156.2314 O   0  0  0  0  0  0  0  0  0  0  0  0
  152.7852  138.7919  154.5171 C   0  0  0  0  0  0  0  0  0  0  0  0
  151.4270  138.2340  154.5364 N   0  0  0  0  0  0  0  0  0  0  0  0
  151.3848  136.8507  154.5106 N   0  0  0  0  0  0  0  0  0  0  0  0
  150.2583  136.2163  154.5388 C   0  0  0  0  0  0  0  0  0  0  0  0
  150.2234  134.7621  154.5141 N   0  0  0  0  0  0  0  0  0  0  0  0
  151.0615  133.9012  155.1792 C   0  0  0  0  0  0  0  0  0  0  0  0
  150.6502  132.6340  154.8558 C   0  0  0  0  0  0  0  0  0  0  0  0
  149.5823  132.7746  154.0096 N   0  3  0  0  0  0  0  0  0  0  0  0
  149.3198  134.0697  153.7997 C   0  0  0  0  0  0  0  0  0  0  0  0
  149.0094  136.9685  154.5974 C   0  0  0  0  0  0  0  0  0  0  0  0
  149.0626  138.3176  154.6254 C   0  0  0  0  0  0  0  0  0  0  0  0
  150.3304  139.0440  154.6000 C   0  0  0  0  0  0  0  0  0  0  0  0
  150.4036  140.2712  154.6388 O   0  0  0  0  0  0  0  0  0  0  0  0
  152.3505  141.3574  158.7364 C   0  0  0  0  0  0  0  0  0  0  0  0
  151.6486  144.4301  160.0714 H   0  0  0  0  0  0  0  0  0  0  0  0
  150.8178  143.6156  158.7447 H   0  0  0  0  0  0  0  0  0  0  0  0
  152.4276  144.3021  158.4892 H   0  0  0  0  0  0  0  0  0  0  0  0
  153.1518  143.1865  161.5125 H   0  0  0  0  0  0  0  0  0  0  0  0
  154.1829  141.0338  162.1543 H   0  0  0  0  0  0  0  0  0  0  0  0
  153.4738  137.9303  160.8840 H   0  0  0  0  0  0  0  0  0  0  0  0
  154.7919  138.7925  161.6821 H   0  0  0  0  0  0  0  0  0  0  0  0
  154.9340  138.3515  159.9798 H   0  0  0  0  0  0  0  0  0  0  0  0
  151.4913  138.3610  156.8862 H   0  0  0  0  0  0  0  0  0  0  0  0
  151.8616  140.0856  156.9183 H   0  0  0  0  0  0  0  0  0  0  0  0
  154.0907  139.7252  155.9887 H   0  0  0  0  0  0  0  0  0  0  0  0
  154.9176  137.7186  155.8888 H   0  0  0  0  0  0  0  0  0  0  0  0
  152.8282  139.7512  153.9972 H   0  0  0  0  0  0  0  0  0  0  0  0
  153.4022  138.1253  153.9119 H   0  0  0  0  0  0  0  0  0  0  0  0
  151.8662  134.2398  155.8164 H   0  0  0  0  0  0  0  0  0  0  0  0
  151.0274  131.6673  155.1569 H   0  0  0  0  0  0  0  0  0  0  0  0
  148.5298  134.4397  153.1732 H   0  0  0  0  0  0  0  0  0  0  0  0
  148.0443  136.4900  154.6201 H   0  0  0  0  0  0  0  0  0  0  0  0
  148.1414  138.8800  154.6694 H   0  0  0  0  0  0  0  0  0  0  0  0
  151.8358  141.4848  157.7962 H   0  0  0  0  0  0  0  0  0  0  0  0
  149.0630  132.0083  153.5994 H   0  0  0  0  0  0  0  0  0  0  0  0
  1  2  1  0  0  0  0
  1 26  1  0  0  0  0
  1 27  1  0  0  0  0
  1 28  1  0  0  0  0
  2 25  1  0  0  0  0
  2  3  2  0  0  0  0
  3  4  1  0  0  0  0
  3 29  1  0  0  0  0
  4  5  2  0  0  0  0
  4 30  1  0  0  0  0
  5  6  1  0  0  0  0
  5  7  1  0  0  0  0
  6 31  1  0  0  0  0
  6 32  1  0  0  0  0
  6 33  1  0  0  0  0
  7  8  1  0  0  0  0
  7 25  2  0  0  0  0
  8  9  1  0  0  0  0
  9 10  1  0  0  0  0
  9 34  1  0  0  0  0
  9 35  1  0  0  0  0
 10 11  1  0  0  0  0
 10 12  1  0  0  0  0
 10 36  1  0  0  0  0
 11 37  1  0  0  0  0
 12 13  1  0  0  0  0
 12 38  1  0  0  0  0
 12 39  1  0  0  0  0
 13 23  1  0  0  0  0
 13 14  1  0  0  0  0
 14 15  2  0  0  0  0
 15 16  1  0  0  0  0
 15 21  1  0  0  0  0
 16 20  1  0  0  0  0
 16 17  1  0  0  0  0
 17 18  2  0  0  0  0
 17 40  1  0  0  0  0
 18 19  1  0  0  0  0
 18 41  1  0  0  0  0
 19 20  2  0  0  0  0
 19 46  1  0  0  0  0
 20 42  1  0  0  0  0
 21 22  2  0  0  0  0
 21 43  1  0  0  0  0
 22 23  1  0  0  0  0
 22 44  1  0  0  0  0
 23 24  2  0  0  0  0
 25 45  1  0  0  0  0
M  CHG  1  19   1
M  END
> <s_m_source_file>
AV-unprocessed.smi

> <i_m_source_file_index>
2353

> <i_lp_mmshare_version>
43012

> <i_f3d_flags>
0

> <s_epik_input>
W0NIM11jMVtjSF1bY0hdYyhbQ0gzXSljKFtjSF0xKU9bQ0gyXVtDQEhdKFtPSF0pW0NIMl1uMm5jKFtjSF1bY0hdYzI9TyktbjNbY0hdW2NIXW5bY0hdMw==

> <s_epik_cmdline>
J2VwaWtfcHl0aG9uJywgJy1waCcsICc3LjAnLCAnLXRuJywgJzgnLCAnLW1hJywgJzIwMCcsICctbWV0YWxfYmluZGluZycsICctaW1hZScsICc8aW5maWxlLm1hZT4nLCAnLW9tYWUnLCAnPG91dGZpbGUubWFlPic=

> <r_lp_tautomer_probability>
1

> <r_epik_Ionization_Penalty>
1.66053

> <r_epik_Ionization_Penalty_Charging>
2.43903e-09

> <r_epik_Ionization_Penalty_Neutral>
1.66053

> <r_epik_State_Penalty>
1.76336

> <r_epik_Charging_Adjusted_Penalty>
1.76336

> <i_epik_Tot_Q>
1

> <i_epik_Tot_abs_Q>
1

> <r_epik_Metal_State_Penalty>
1.79856

> <b_epik_Metal_Only>
0

> <s_lp_Force_Field>
OPLS_2005

> <r_lp_Energy>
39.4345

> <b_lp_Chiralities_Consistent>
1

> <s_lp_Variant>
AV-unprocessed.smi:2353-4

> <Gold.Version>
5.8.1

> <Gold.Id.Protein>
6NUR|6NUR_protein|mol2

> <Gold.PLP.Fitness>
49.7009

> <Gold.PLP.PLP>
-47.1881

> <Gold.PLP.part.hbond>
-3.2441

> <Gold.PLP.part.metal>
0.0000

> <Gold.PLP.part.buried>
-2.7212

> <Gold.PLP.part.nonpolar>
-42.4581

> <Gold.PLP.part.repulsive>
0.2493

> <Gold.PLP.ligand.clash>
0.0000

> <Gold.PLP.ligand.torsion>
1.7710

> <Gold.PLP.Chemscore.Hbond>
2.0000

> <Gold.PLP.Chemscore.CHOScore>
0.0000

> <Gold.PLP.Chemscore.Metal>
0.0000

> <Gold.Chemscore.Hbonds>
donor molecule, donor type, donor heavy atom, donor atom, acceptor molecule, acceptor atom, score
      P1  H  7989  7998       L1    24  1.00
      P1  H 10752 10765       L1    14  1.00
      L1  C    20    42       P1  7948  0.75

> <Gold.PLP.Chemscore.Internal.Correction>
0.0548

> <Gold.Rescore>
     Score         DG    S(hbond)    S(metal)    S(lipo)     H(rot)  DE(clash)    DE(int)     intcor
     15.28     -18.73       1.90        0.00     117.14       2.65       1.62       1.83       ----

> <Gold.Chemscore.Fitness>
15.2764

> <Gold.Chemscore.DG>
-18.7265

> <Gold.Chemscore.ZeroCoef>
-5.4800

> <Gold.Chemscore.Hbond>
1.8967

> <Gold.Chemscore.Metal>
0.0000

> <Gold.Chemscore.Lipo>
117.1377

> <Gold.Chemscore.Internal_Hbond>
0.0000

> <Gold.Chemscore.DEClash>
1.6220

> <Gold.Chemscore.DEInternal>
1.8281

> <Gold.Chemscore.Rot>
2.6537

> <Gold.Chemscore.Internal.Correction>
   9.000000E+99

> <Gold.Chemscore.Hbonds>
donor molecule, donor type, donor heavy atom, donor atom, acceptor molecule, acceptor atom, score
      P1  H  7989  7998       L1    24  0.77
      P1  H 10752 10765       L1    14  0.80

> <Gold.Chemscore.Hbond.Weighted>
-6.3349

> <Gold.Chemscore.Metal.Weighted>
-0.0000

> <Gold.Chemscore.Lipo.Weighted>
-13.7051

> <Gold.Chemscore.Internal_Hbond.Weighted>
0.0000

> <Gold.Chemscore.DEClash.Weighted>
1.6220

> <Gold.Chemscore.DEInternal.Weighted>
1.8281

> <Gold.Chemscore.Rot.Weighted>
6.7935

> <Gold.Chemscore.Internal.Correction.Weighted>
   9.000000E+99

> <Gold.Protein.RotatedTorsions>
[ 6907 6896 6895 6894 ] final  -45.82 input  -60.11 | X-H torsion
[ 7974 7965 7964 7962 ] final  134.12 input  175.53 | X-H torsion
[ 8008 7997 7996 7995 ] final   99.90 input   59.86 | X-H torsion
[ 10167 10162 10161 10158 ] final   87.69 input  -65.29 | X-H torsion
[ 10718 10713 10712 10709 ] final  -81.17 input   66.30 | X-H torsion
[ 10763 10752 10751 10750 ] final  178.88 input  -60.55 | X-H torsion
[ 11005 11000 10999 10996 ] final   52.59 input  -57.11 | X-H torsion

> <Gold.Protein.ActiveResidues>
 VAL166  LYS551  ARG553  GLY616  TRP617  ASP618  TYR619  PRO620  LYS621  CYS622 
 ASP623  PHE694  ASN695  SER759  ASP760  ASP761  ALA762  ILE779  LEU786  VAL792 
 PHE793  MET794  SER795  GLU796  ALA797  LYS798  CYS799  TRP800  GLU811  SER814 

> <Gold.Protein.RotatedAtoms>
  150.9178  134.8596  159.7468 H   0  0  0  0  0  0  0  0  0  0  0  0  # atno 6907 bound_to 6896
  152.4977  134.4263  159.9507 H   0  0  0  0  0  0  0  0  0  0  0  0  # atno 6908 bound_to 6896
  151.4299  133.3634  159.2802 H   0  0  0  0  0  0  0  0  0  0  0  0  # atno 6909 bound_to 6896
  144.9796  139.4518  143.5393 H   0  0  0  0  0  0  0  0  0  0  0  0  # atno 7974 bound_to 7965
  156.1150  140.3221  155.8127 H   0  0  0  0  0  0  0  0  0  0  0  0  # atno 8008 bound_to 7997
  155.4605  140.0539  157.3008 H   0  0  0  0  0  0  0  0  0  0  0  0  # atno 8009 bound_to 7997
  154.4787  140.2043  155.9830 H   0  0  0  0  0  0  0  0  0  0  0  0  # atno 8010 bound_to 7997
  139.8748  144.6473  150.8909 H   0  0  0  0  0  0  0  0  0  0  0  0  # atno 10167 bound_to 10162
  156.0055  130.4596  150.3911 H   0  0  0  0  0  0  0  0  0  0  0  0  # atno 10718 bound_to 10713
  154.5134  135.2790  155.1323 H   0  0  0  0  0  0  0  0  0  0  0  0  # atno 10763 bound_to 10752
  154.2909  135.6267  153.5389 H   0  0  0  0  0  0  0  0  0  0  0  0  # atno 10764 bound_to 10752
  152.9923  135.5674  154.5605 H   0  0  0  0  0  0  0  0  0  0  0  0  # atno 10765 bound_to 10752
  140.0837  134.5304  155.8921 H   0  0  0  0  0  0  0  0  0  0  0  0  # atno 11005 bound_to 11000
  146.3404  139.9060  142.8787 LP  0  0  0  0  0  0  0  0  0  0  0  0  # atno 17320 bound_to 7965
  145.2440  141.0020  143.3919 LP  0  0  0  0  0  0  0  0  0  0  0  0  # atno 17321 bound_to 7965
  140.7755  143.3634  151.1785 LP  0  0  0  0  0  0  0  0  0  0  0  0  # atno 17342 bound_to 10162
  139.7250  143.9162  152.2999 LP  0  0  0  0  0  0  0  0  0  0  0  0  # atno 17343 bound_to 10162
  157.1986  131.0432  151.2662 LP  0  0  0  0  0  0  0  0  0  0  0  0  # atno 17370 bound_to 10713
  157.3996  130.7326  149.6757 LP  0  0  0  0  0  0  0  0  0  0  0  0  # atno 17371 bound_to 10713
  141.2055  133.6648  156.6186 LP  0  0  0  0  0  0  0  0  0  0  0  0  # atno 17394 bound_to 11000
  140.3451  134.7816  157.4426 LP  0  0  0  0  0  0  0  0  0  0  0  0  # atno 17395 bound_to 11000

$$$$
