AV-unprocessed.smi:212|AV-procd|sdf|1617|dock10
  -GOLD-   2262019543D 1   1.00000     0.00000
 Structure written by MMmdl.
 65 68  0  0  0  0  0  0  0  0  2 V2000
  148.0294  136.5363  156.9024 C   0  0  0  0  0  0  0  0  0  0  0  0
  146.9839  136.9739  155.8584 C   0  0  2  0  0  0  0  0  0  0  0  0
  147.0097  136.0911  154.5938 C   0  0  0  0  0  0  0  0  0  0  0  0
  145.9451  136.4987  153.6418 N   0  3  2  0  0  0  0  0  0  0  0  0
  145.8407  135.6032  152.4591 C   0  0  0  0  0  0  0  0  0  0  0  0
  144.3761  135.3615  152.0251 C   0  0  0  0  0  0  0  0  0  0  0  0
  144.3380  134.6944  150.6401 C   0  0  0  0  0  0  0  0  0  0  0  0
  143.5956  134.5132  153.0464 C   0  0  0  0  0  0  0  0  0  0  0  0
  143.7225  136.6078  151.8895 O   0  0  0  0  0  0  0  0  0  0  0  0
  146.0294  137.9382  153.2829 C   0  0  0  0  0  0  0  0  0  0  0  0
  146.0493  138.8324  154.5395 C   0  0  0  0  0  0  0  0  0  0  0  0
  147.0505  138.3971  155.5103 N   0  0  0  0  0  0  0  0  0  0  0  0
  148.2750  138.9556  155.3616 C   0  0  0  0  0  0  0  0  0  0  0  0
  149.1149  138.5191  154.3875 N   0  0  0  0  0  0  0  0  0  0  0  0
  150.3267  139.0676  154.2556 C   0  0  0  0  0  0  0  0  0  0  0  0
  150.8853  140.0419  154.9776 N   0  0  0  0  0  0  0  0  0  0  0  0
  150.0424  140.4791  155.9569 C   0  0  0  0  0  0  0  0  0  0  0  0
  148.7301  139.9946  156.2144 C   0  0  0  0  0  0  0  0  0  0  0  0
  148.1710  140.6737  157.2889 N   0  0  0  0  0  0  0  0  0  0  0  0
  149.1020  141.5153  157.6483 C   0  0  0  0  0  0  0  0  0  0  0  0
  150.2566  141.4696  156.8994 N   0  0  0  0  0  0  0  0  0  0  0  0
  151.4433  142.2862  157.0893 C   0  0  0  0  0  0  0  0  0  0  0  0
  151.4085  143.1280  158.3898 C   0  0  2  0  0  0  0  0  0  0  0  0
  151.3810  144.6449  158.0686 C   0  0  0  0  0  0  0  0  0  0  0  0
  150.3614  145.3149  158.7795 O   0  0  0  0  0  0  0  0  0  0  0  0
  152.5967  142.7458  159.3158 C   0  0  2  0  0  0  0  0  0  0  0  0
  152.7236  141.2609  159.6172 C   0  0  0  0  0  0  0  0  0  0  0  0
  153.6280  141.2495  160.8442 C   0  0  0  0  0  0  0  0  0  0  0  0
  153.3326  142.4481  161.5501 O   0  0  0  0  0  0  0  0  0  0  0  0
  152.5269  143.3011  160.7435 C   0  0  0  0  0  0  0  0  0  0  0  0
  147.8609  135.5042  157.2101 H   0  0  0  0  0  0  0  0  0  0  0  0
  147.9747  137.1564  157.7978 H   0  0  0  0  0  0  0  0  0  0  0  0
  149.0462  136.5974  156.5125 H   0  0  0  0  0  0  0  0  0  0  0  0
  146.0085  136.8362  156.3273 H   0  0  0  0  0  0  0  0  0  0  0  0
  147.9821  136.1447  154.1023 H   0  0  0  0  0  0  0  0  0  0  0  0
  146.8558  135.0492  154.8779 H   0  0  0  0  0  0  0  0  0  0  0  0
  146.4247  136.0053  151.6293 H   0  0  0  0  0  0  0  0  0  0  0  0
  146.2943  134.6372  152.6874 H   0  0  0  0  0  0  0  0  0  0  0  0
  144.8246  133.7187  150.6590 H   0  0  0  0  0  0  0  0  0  0  0  0
  144.8483  135.3008  149.8907 H   0  0  0  0  0  0  0  0  0  0  0  0
  143.3138  134.5426  150.2970 H   0  0  0  0  0  0  0  0  0  0  0  0
  144.0680  133.5409  153.1919 H   0  0  0  0  0  0  0  0  0  0  0  0
  142.5725  134.3339  152.7133 H   0  0  0  0  0  0  0  0  0  0  0  0
  143.5373  135.0000  154.0201 H   0  0  0  0  0  0  0  0  0  0  0  0
  144.0721  137.0509  151.1307 H   0  0  0  0  0  0  0  0  0  0  0  0
  146.9237  138.1074  152.6826 H   0  0  0  0  0  0  0  0  0  0  0  0
  145.1816  138.2150  152.6561 H   0  0  0  0  0  0  0  0  0  0  0  0
  146.2187  139.8732  154.2595 H   0  0  0  0  0  0  0  0  0  0  0  0
  145.0737  138.8008  155.0261 H   0  0  0  0  0  0  0  0  0  0  0  0
  150.9369  138.6678  153.4591 H   0  0  0  0  0  0  0  0  0  0  0  0
  148.9715  142.1993  158.4746 H   0  0  0  0  0  0  0  0  0  0  0  0
  152.2956  141.6075  157.0879 H   0  0  0  0  0  0  0  0  0  0  0  0
  151.5666  142.9380  156.2235 H   0  0  0  0  0  0  0  0  0  0  0  0
  150.4808  142.8777  158.9073 H   0  0  0  0  0  0  0  0  0  0  0  0
  152.3447  145.1049  158.2897 H   0  0  0  0  0  0  0  0  0  0  0  0
  151.1830  144.8290  157.0137 H   0  0  0  0  0  0  0  0  0  0  0  0
  149.5885  145.3491  158.2366 H   0  0  0  0  0  0  0  0  0  0  0  0
  153.5300  143.0813  158.8605 H   0  0  0  0  0  0  0  0  0  0  0  0
  151.7490  140.8380  159.8666 H   0  0  0  0  0  0  0  0  0  0  0  0
  153.1461  140.6854  158.7931 H   0  0  0  0  0  0  0  0  0  0  0  0
  153.4733  140.3693  161.4683 H   0  0  0  0  0  0  0  0  0  0  0  0
  154.6763  141.2733  160.5443 H   0  0  0  0  0  0  0  0  0  0  0  0
  152.8737  144.3327  160.8082 H   0  0  0  0  0  0  0  0  0  0  0  0
  151.5052  143.2623  161.1242 H   0  0  0  0  0  0  0  0  0  0  0  0
  145.0760  136.3871  154.1442 H   0  0  0  0  0  0  0  0  0  0  0  0
  1  2  1  0  0  0  0
  1 31  1  0  0  0  0
  1 32  1  0  0  0  0
  1 33  1  0  0  0  0
  2 12  1  0  0  0  0
  2  3  1  0  0  0  0
  2 34  1  0  0  0  0
  3  4  1  0  0  0  0
  3 35  1  0  0  0  0
  3 36  1  0  0  0  0
  4  5  1  0  0  0  0
  4 10  1  0  0  0  0
  4 65  1  0  0  0  0
  5  6  1  0  0  0  0
  5 37  1  0  0  0  0
  5 38  1  0  0  0  0
  6  7  1  0  0  0  0
  6  8  1  0  0  0  0
  6  9  1  0  0  0  0
  7 39  1  0  0  0  0
  7 40  1  0  0  0  0
  7 41  1  0  0  0  0
  8 42  1  0  0  0  0
  8 43  1  0  0  0  0
  8 44  1  0  0  0  0
  9 45  1  0  0  0  0
 10 11  1  0  0  0  0
 10 46  1  0  0  0  0
 10 47  1  0  0  0  0
 11 12  1  0  0  0  0
 11 48  1  0  0  0  0
 11 49  1  0  0  0  0
 12 13  1  0  0  0  0
 13 18  1  0  0  0  0
 13 14  2  0  0  0  0
 14 15  1  0  0  0  0
 15 16  2  0  0  0  0
 15 50  1  0  0  0  0
 16 17  1  0  0  0  0
 17 21  1  0  0  0  0
 17 18  2  0  0  0  0
 18 19  1  0  0  0  0
 19 20  2  0  0  0  0
 20 21  1  0  0  0  0
 20 51  1  0  0  0  0
 21 22  1  0  0  0  0
 22 23  1  0  0  0  0
 22 52  1  0  0  0  0
 22 53  1  0  0  0  0
 23 24  1  0  0  0  0
 23 26  1  0  0  0  0
 23 54  1  0  0  0  0
 24 25  1  0  0  0  0
 24 55  1  0  0  0  0
 24 56  1  0  0  0  0
 25 57  1  0  0  0  0
 26 30  1  0  0  0  0
 26 27  1  0  0  0  0
 26 58  1  0  0  0  0
 27 28  1  0  0  0  0
 27 59  1  0  0  0  0
 27 60  1  0  0  0  0
 28 29  1  0  0  0  0
 28 61  1  0  0  0  0
 28 62  1  0  0  0  0
 29 30  1  0  0  0  0
 30 63  1  0  0  0  0
 30 64  1  0  0  0  0
M  CHG  1   4   1
M  END
> <s_m_source_file>
AV-unprocessed.smi

> <i_m_source_file_index>
212

> <i_lp_mmshare_version>
43012

> <i_f3d_flags>
0

> <s_epik_input>
W0NIM11bQ0BASF0xW0NIMl1OKFtDSDJdQyhbQ0gzXSkoW0NIM10pW09IXSlbQ0gyXVtDSDJdTjFjKG5bY0hdbjIpYyhjMjMpbltjSF1uM1tDSDJdW0NASF0oW0NIMl1bT0hdKVtDQEBIXTRbQ0gyXVtDSDJdT1tDSDJdNA==

> <s_epik_cmdline>
J2VwaWtfcHl0aG9uJywgJy1waCcsICc3LjAnLCAnLXRuJywgJzgnLCAnLW1hJywgJzIwMCcsICctbWV0YWxfYmluZGluZycsICctaW1hZScsICc8aW5maWxlLm1hZT4nLCAnLW9tYWUnLCAnPG91dGZpbGUubWFlPic=

> <r_lp_tautomer_probability>
1

> <r_epik_Ionization_Penalty>
0.00182193

> <r_epik_Ionization_Penalty_Charging>
0.00173996

> <r_epik_Ionization_Penalty_Neutral>
8.19718e-05

> <r_epik_State_Penalty>
-0

> <r_epik_Charging_Adjusted_Penalty>
0.00173996

> <i_epik_Tot_Q>
1

> <i_epik_Tot_abs_Q>
1

> <r_epik_Metal_State_Penalty>
-0

> <b_epik_Metal_Only>
0

> <s_lp_Force_Field>
OPLS_2005

> <r_lp_Energy>
60.482

> <b_lp_Chiralities_Consistent>
1

> <s_lp_Variant>
AV-unprocessed.smi:212-1

> <Gold.Version>
5.8.1

> <Gold.Id.Protein>
6NUR|6NUR_protein|mol2

> <Gold.PLP.Fitness>
47.8022

> <Gold.PLP.PLP>
-42.9102

> <Gold.PLP.part.hbond>
-3.0291

> <Gold.PLP.part.metal>
0.0000

> <Gold.PLP.part.buried>
-4.9466

> <Gold.PLP.part.nonpolar>
-34.2568

> <Gold.PLP.part.repulsive>
0.3394

> <Gold.PLP.ligand.clash>
0.0000

> <Gold.PLP.ligand.torsion>
2.3142

> <Gold.PLP.Chemscore.Hbond>
2.6000

> <Gold.PLP.Chemscore.CHOScore>
0.2212

> <Gold.PLP.Chemscore.Metal>
0.0000

> <Gold.Chemscore.Hbonds>
donor molecule, donor type, donor heavy atom, donor atom, acceptor molecule, acceptor atom, score
      L1  H     9    45       P1 10171  0.93
      L1  H    25    57       P1  8029  1.00
      P1  H  7989  7998       L1    16  0.70

> <Gold.PLP.Chemscore.Internal.Correction>
1.0570

> <Gold.Rescore>
     Score         DG    S(hbond)    S(metal)    S(lipo)     H(rot)  DE(clash)    DE(int)     intcor
     11.78     -14.34       1.82        0.00     104.35       3.68       0.30       2.26       ----

> <Gold.Chemscore.Fitness>
11.7836

> <Gold.Chemscore.DG>
-14.3428

> <Gold.Chemscore.ZeroCoef>
-5.4800

> <Gold.Chemscore.Hbond>
1.8197

> <Gold.Chemscore.Metal>
0.0000

> <Gold.Chemscore.Lipo>
104.3494

> <Gold.Chemscore.Internal_Hbond>
0.0000

> <Gold.Chemscore.DEClash>
0.2997

> <Gold.Chemscore.DEInternal>
2.2596

> <Gold.Chemscore.Rot>
3.6812

> <Gold.Chemscore.Internal.Correction>
   9.000000E+99

> <Gold.Chemscore.Hbonds>
donor molecule, donor type, donor heavy atom, donor atom, acceptor molecule, acceptor atom, score
      L1  H     9    45       P1 10171  0.84
      L1  H    25    57       P1  8029  0.47
      P1  H  7989  7998       L1    16  0.07

> <Gold.Chemscore.Hbond.Weighted>
-6.0779

> <Gold.Chemscore.Metal.Weighted>
-0.0000

> <Gold.Chemscore.Lipo.Weighted>
-12.2089

> <Gold.Chemscore.Internal_Hbond.Weighted>
0.0000

> <Gold.Chemscore.DEClash.Weighted>
0.2997

> <Gold.Chemscore.DEInternal.Weighted>
2.2596

> <Gold.Chemscore.Rot.Weighted>
9.4239

> <Gold.Chemscore.Internal.Correction.Weighted>
   9.000000E+99

> <Gold.Protein.RotatedTorsions>
[ 6907 6896 6895 6894 ] final -169.20 input  -60.11 | X-H torsion
[ 7974 7965 7964 7962 ] final  -77.38 input  175.53 | X-H torsion
[ 8008 7997 7996 7995 ] final -128.49 input   59.86 | X-H torsion
[ 10167 10162 10161 10158 ] final   64.40 input  -65.29 | X-H torsion
[ 10718 10713 10712 10709 ] final  -36.88 input   66.30 | X-H torsion
[ 10763 10752 10751 10750 ] final   61.92 input  -60.55 | X-H torsion
[ 11005 11000 10999 10996 ] final  -53.01 input  -57.11 | X-H torsion

> <Gold.Protein.ActiveResidues>
 VAL166  LYS551  ARG553  GLY616  TRP617  ASP618  TYR619  PRO620  LYS621  CYS622 
 ASP623  PHE694  ASN695  SER759  ASP760  ASP761  ALA762  ILE779  LEU786  VAL792 
 PHE793  MET794  SER795  GLU796  ALA797  LYS798  CYS799  TRP800  GLU811  SER814 

> <Gold.Protein.RotatedAtoms>
  151.4877  133.3532  159.2848 H   0  0  0  0  0  0  0  0  0  0  0  0  # atno 6907 bound_to 6896
  150.8855  134.8254  159.7267 H   0  0  0  0  0  0  0  0  0  0  0  0  # atno 6908 bound_to 6896
  152.4790  134.4781  159.9708 H   0  0  0  0  0  0  0  0  0  0  0  0  # atno 6909 bound_to 6896
  145.6005  140.9410  143.1243 H   0  0  0  0  0  0  0  0  0  0  0  0  # atno 7974 bound_to 7965
  155.2636  140.0437  157.3000 H   0  0  0  0  0  0  0  0  0  0  0  0  # atno 8008 bound_to 7997
  154.5696  140.2370  155.8181 H   0  0  0  0  0  0  0  0  0  0  0  0  # atno 8009 bound_to 7997
  156.2112  140.2998  155.9744 H   0  0  0  0  0  0  0  0  0  0  0  0  # atno 8010 bound_to 7997
  140.1225  144.4718  150.6912 H   0  0  0  0  0  0  0  0  0  0  0  0  # atno 10167 bound_to 10162
  156.3217  130.4266  149.7954 H   0  0  0  0  0  0  0  0  0  0  0  0  # atno 10718 bound_to 10713
  152.9966  135.5483  154.6111 H   0  0  0  0  0  0  0  0  0  0  0  0  # atno 10763 bound_to 10752
  154.5432  135.2821  155.1079 H   0  0  0  0  0  0  0  0  0  0  0  0  # atno 10764 bound_to 10752
  154.2348  135.6427  153.5240 H   0  0  0  0  0  0  0  0  0  0  0  0  # atno 10765 bound_to 10752
  141.0954  133.6625  156.4109 H   0  0  0  0  0  0  0  0  0  0  0  0  # atno 11005 bound_to 11000
  144.7312  139.7720  143.7346 LP  0  0  0  0  0  0  0  0  0  0  0  0  # atno 17320 bound_to 7965
  146.1580  139.4684  143.0006 LP  0  0  0  0  0  0  0  0  0  0  0  0  # atno 17321 bound_to 7965
  140.6864  143.2352  151.5250 LP  0  0  0  0  0  0  0  0  0  0  0  0  # atno 17342 bound_to 10162
  139.5561  144.2272  152.1614 LP  0  0  0  0  0  0  0  0  0  0  0  0  # atno 17343 bound_to 10162
  156.5260  130.8236  151.3220 LP  0  0  0  0  0  0  0  0  0  0  0  0  # atno 17370 bound_to 10713
  157.7413  130.9867  150.2436 LP  0  0  0  0  0  0  0  0  0  0  0  0  # atno 17371 bound_to 10713
  140.5153  134.6356  157.5299 LP  0  0  0  0  0  0  0  0  0  0  0  0  # atno 17394 bound_to 11000
  139.9789  134.7169  155.9896 LP  0  0  0  0  0  0  0  0  0  0  0  0  # atno 17395 bound_to 11000

$$$$
