AV-unprocessed.smi:1264|AV-procd|sdf|5314|dock5
  -GOLD-   22720 4443D 1   1.00000     0.00000
 Structure written by MMmdl.
 43 43  0  0  0  0  0  0  0  0  1 V2000
  155.2319  140.0286  161.7379 C   0  0  0  0  0  0  0  0  0  0  0  0
  154.0950  140.8018  161.2631 N   0  0  0  0  0  0  0  0  0  0  0  0
  153.6801  140.8284  159.9885 C   0  0  0  0  0  0  0  0  0  0  0  0
  154.2392  140.2021  159.0860 O   0  0  0  0  0  0  0  0  0  0  0  0
  152.4576  141.7132  159.6896 C   0  0  1  0  0  0  0  0  0  0  0  0
  152.8243  143.1690  160.0639 C   0  0  0  0  0  0  0  0  0  0  0  0
  151.9448  144.2593  159.4100 C   0  0  0  0  0  0  0  0  0  0  0  0
  152.5002  144.6426  158.0301 C   0  0  0  0  0  0  0  0  0  0  0  0
  151.8020  145.5092  160.2944 C   0  0  0  0  0  0  0  0  0  0  0  0
  152.1450  141.6596  158.2624 N   0  0  0  0  0  0  0  0  0  0  0  0
  151.6438  140.5973  157.6127 C   0  0  0  0  0  0  0  0  0  0  0  0
  151.3419  139.5404  158.1663 O   0  0  0  0  0  0  0  0  0  0  0  0
  151.4733  140.7486  156.1022 C   0  0  0  0  0  0  0  0  0  0  0  0
  151.2595  139.3904  155.4845 C   0  0  0  0  0  0  0  0  0  0  0  0
  152.1448  138.2746  155.4980 C   0  0  0  0  0  0  0  0  0  0  0  0
  153.5034  138.1688  156.1288 C   0  0  0  0  0  0  0  0  0  0  0  0
  151.6405  137.2352  154.8543 N   0  0  0  0  0  0  0  0  0  0  0  0
  150.3904  137.6467  154.3826 O   0  0  0  0  0  0  0  0  0  0  0  0
  150.1871  138.9317  154.7692 C   0  0  0  0  0  0  0  0  0  0  0  0
  148.9018  139.5596  154.3476 C   0  0  0  0  0  0  0  0  0  0  0  0
  155.3586  140.1745  162.8106 H   0  0  0  0  0  0  0  0  0  0  0  0
  156.1500  140.3424  161.2394 H   0  0  0  0  0  0  0  0  0  0  0  0
  155.0813  138.9639  161.5538 H   0  0  0  0  0  0  0  0  0  0  0  0
  153.5876  141.3463  161.9458 H   0  0  0  0  0  0  0  0  0  0  0  0
  151.6059  141.3691  160.2783 H   0  0  0  0  0  0  0  0  0  0  0  0
  152.7765  143.2899  161.1478 H   0  0  0  0  0  0  0  0  0  0  0  0
  153.8659  143.3532  159.7929 H   0  0  0  0  0  0  0  0  0  0  0  0
  150.9468  143.8518  159.2460 H   0  0  0  0  0  0  0  0  0  0  0  0
  153.5016  145.0676  158.1099 H   0  0  0  0  0  0  0  0  0  0  0  0
  151.8639  145.3801  157.5402 H   0  0  0  0  0  0  0  0  0  0  0  0
  152.5586  143.7743  157.3731 H   0  0  0  0  0  0  0  0  0  0  0  0
  152.7750  145.9411  160.5309 H   0  0  0  0  0  0  0  0  0  0  0  0
  151.2976  145.2837  161.2335 H   0  0  0  0  0  0  0  0  0  0  0  0
  151.2124  146.2772  159.7928 H   0  0  0  0  0  0  0  0  0  0  0  0
  152.3692  142.4807  157.7198 H   0  0  0  0  0  0  0  0  0  0  0  0
  150.6324  141.4142  155.9043 H   0  0  0  0  0  0  0  0  0  0  0  0
  152.3527  141.2427  155.6876 H   0  0  0  0  0  0  0  0  0  0  0  0
  154.0881  139.0714  155.9500 H   0  0  0  0  0  0  0  0  0  0  0  0
  154.0692  137.3263  155.7291 H   0  0  0  0  0  0  0  0  0  0  0  0
  153.4223  138.0341  157.2073 H   0  0  0  0  0  0  0  0  0  0  0  0
  148.6010  140.3397  155.0467 H   0  0  0  0  0  0  0  0  0  0  0  0
  148.1019  138.8202  154.3043 H   0  0  0  0  0  0  0  0  0  0  0  0
  149.0009  140.0106  153.3602 H   0  0  0  0  0  0  0  0  0  0  0  0
  1  2  1  0  0  0  0
  1 21  1  0  0  0  0
  1 22  1  0  0  0  0
  1 23  1  0  0  0  0
  2  3  1  0  0  0  0
  2 24  1  0  0  0  0
  3  4  2  0  0  0  0
  3  5  1  0  0  0  0
  5  6  1  0  0  0  0
  5 10  1  0  0  0  0
  5 25  1  0  0  0  0
  6  7  1  0  0  0  0
  6 26  1  0  0  0  0
  6 27  1  0  0  0  0
  7  8  1  0  0  0  0
  7  9  1  0  0  0  0
  7 28  1  0  0  0  0
  8 29  1  0  0  0  0
  8 30  1  0  0  0  0
  8 31  1  0  0  0  0
  9 32  1  0  0  0  0
  9 33  1  0  0  0  0
  9 34  1  0  0  0  0
 10 11  1  0  0  0  0
 10 35  1  0  0  0  0
 11 12  2  0  0  0  0
 11 13  1  0  0  0  0
 13 14  1  0  0  0  0
 13 36  1  0  0  0  0
 13 37  1  0  0  0  0
 14 19  2  0  0  0  0
 14 15  1  0  0  0  0
 15 16  1  0  0  0  0
 15 17  2  0  0  0  0
 16 38  1  0  0  0  0
 16 39  1  0  0  0  0
 16 40  1  0  0  0  0
 17 18  1  0  0  0  0
 18 19  1  0  0  0  0
 19 20  1  0  0  0  0
 20 41  1  0  0  0  0
 20 42  1  0  0  0  0
 20 43  1  0  0  0  0
M  END
> <s_m_source_file>
AV-unprocessed.smi

> <i_m_source_file_index>
1264

> <i_lp_mmshare_version>
43012

> <i_f3d_flags>
0

> <s_epik_input>
W0NIM11bTkhdQyg9TylbQ0BIXShbQ0gyXVtDSF0oW0NIM10pW0NIM10pW05IXUMoPU8pW0NIMl1jMWMoW0NIM10pbm9jMVtDSDNd

> <s_epik_cmdline>
J2VwaWtfcHl0aG9uJywgJy1waCcsICc3LjAnLCAnLXRuJywgJzgnLCAnLW1hJywgJzIwMCcsICctbWV0YWxfYmluZGluZycsICctaW1hZScsICc8aW5maWxlLm1hZT4nLCAnLW9tYWUnLCAnPG91dGZpbGUubWFlPic=

> <r_lp_tautomer_probability>
1

> <r_epik_Ionization_Penalty>
6.00781e-08

> <r_epik_Ionization_Penalty_Charging>
0

> <r_epik_Ionization_Penalty_Neutral>
6.00781e-08

> <r_epik_State_Penalty>
-0

> <r_epik_Charging_Adjusted_Penalty>
0

> <i_epik_Tot_Q>
0

> <i_epik_Tot_abs_Q>
0

> <r_epik_Metal_State_Penalty>
-0

> <b_epik_Metal_Only>
0

> <s_lp_Force_Field>
OPLS_2005

> <r_lp_Energy>
-0.987692

> <b_lp_Chiralities_Consistent>
1

> <s_lp_Variant>
AV-unprocessed.smi:1264-2

> <Gold.Version>
5.8.1

> <Gold.Id.Protein>
6NUR|6NUR_protein|mol2

> <Gold.PLP.Fitness>
46.9965

> <Gold.PLP.PLP>
-42.6666

> <Gold.PLP.part.hbond>
-2.0000

> <Gold.PLP.part.metal>
0.0000

> <Gold.PLP.part.buried>
-3.5715

> <Gold.PLP.part.nonpolar>
-37.8530

> <Gold.PLP.part.repulsive>
0.4276

> <Gold.PLP.ligand.clash>
0.0000

> <Gold.PLP.ligand.torsion>
0.7875

> <Gold.PLP.Chemscore.Hbond>
1.9353

> <Gold.PLP.Chemscore.CHOScore>
0.0000

> <Gold.PLP.Chemscore.Metal>
0.0000

> <Gold.Chemscore.Hbonds>
donor molecule, donor type, donor heavy atom, donor atom, acceptor molecule, acceptor atom, score
      P1  H  7997  8009       L1     4  0.91
      P1  H 10752 10763       L1    17  0.81

> <Gold.PLP.Chemscore.Internal.Correction>
0.0990

> <Gold.Rescore>
     Score         DG    S(hbond)    S(metal)    S(lipo)     H(rot)  DE(clash)    DE(int)     intcor
     16.81     -18.45       1.64        0.00     109.72       2.09       0.44       1.20       ----

> <Gold.Chemscore.Fitness>
16.8096

> <Gold.Chemscore.DG>
-18.4511

> <Gold.Chemscore.ZeroCoef>
-5.4800

> <Gold.Chemscore.Hbond>
1.6443

> <Gold.Chemscore.Metal>
0.0000

> <Gold.Chemscore.Lipo>
109.7231

> <Gold.Chemscore.Internal_Hbond>
0.0000

> <Gold.Chemscore.DEClash>
0.4412

> <Gold.Chemscore.DEInternal>
1.2004

> <Gold.Chemscore.Rot>
2.0931

> <Gold.Chemscore.Internal.Correction>
   9.000000E+99

> <Gold.Chemscore.Hbonds>
donor molecule, donor type, donor heavy atom, donor atom, acceptor molecule, acceptor atom, score
      P1  H  7997  8009       L1     4  0.89
      P1  H 10752 10763       L1    17  0.74

> <Gold.Chemscore.Hbond.Weighted>
-5.4919

> <Gold.Chemscore.Metal.Weighted>
-0.0000

> <Gold.Chemscore.Lipo.Weighted>
-12.8376

> <Gold.Chemscore.Internal_Hbond.Weighted>
0.0000

> <Gold.Chemscore.DEClash.Weighted>
0.4412

> <Gold.Chemscore.DEInternal.Weighted>
1.2004

> <Gold.Chemscore.Rot.Weighted>
5.3584

> <Gold.Chemscore.Internal.Correction.Weighted>
   9.000000E+99

> <Gold.Protein.RotatedTorsions>
[ 6907 6896 6895 6894 ] final -145.51 input  -60.11 | X-H torsion
[ 7974 7965 7964 7962 ] final -142.42 input  175.53 | X-H torsion
[ 8008 7997 7996 7995 ] final  123.16 input   59.86 | X-H torsion
[ 10167 10162 10161 10158 ] final   90.98 input  -65.29 | X-H torsion
[ 10718 10713 10712 10709 ] final -139.23 input   66.30 | X-H torsion
[ 10763 10752 10751 10750 ] final   44.58 input  -60.55 | X-H torsion
[ 11005 11000 10999 10996 ] final   14.21 input  -57.11 | X-H torsion

> <Gold.Protein.ActiveResidues>
 VAL166  LYS551  ARG553  GLY616  TRP617  ASP618  TYR619  PRO620  LYS621  CYS622 
 ASP623  PHE694  ASN695  SER759  ASP760  ASP761  ALA762  ILE779  LEU786  VAL792 
 PHE793  MET794  SER795  GLU796  ALA797  LYS798  CYS799  TRP800  GLU811  SER814 

> <Gold.Protein.RotatedAtoms>
  151.1288  133.5052  159.2599 H   0  0  0  0  0  0  0  0  0  0  0  0  # atno 6907 bound_to 6896
  151.1781  135.0348  159.8790 H   0  0  0  0  0  0  0  0  0  0  0  0  # atno 6908 bound_to 6896
  152.5459  134.1143  159.8425 H   0  0  0  0  0  0  0  0  0  0  0  0  # atno 6909 bound_to 6896
  144.8445  140.5961  143.5430 H   0  0  0  0  0  0  0  0  0  0  0  0  # atno 7974 bound_to 7965
  156.2755  140.2769  156.1583 H   0  0  0  0  0  0  0  0  0  0  0  0  # atno 8008 bound_to 7997
  155.0780  140.0387  157.2648 H   0  0  0  0  0  0  0  0  0  0  0  0  # atno 8009 bound_to 7997
  154.6987  140.2644  155.6747 H   0  0  0  0  0  0  0  0  0  0  0  0  # atno 8010 bound_to 7997
  139.8420  144.6636  150.9272 H   0  0  0  0  0  0  0  0  0  0  0  0  # atno 10167 bound_to 10162
  156.3084  130.7468  151.1537 H   0  0  0  0  0  0  0  0  0  0  0  0  # atno 10718 bound_to 10713
  152.9838  135.6066  154.3297 H   0  0  0  0  0  0  0  0  0  0  0  0  # atno 10763 bound_to 10752
  154.3002  135.2773  155.2616 H   0  0  0  0  0  0  0  0  0  0  0  0  # atno 10764 bound_to 10752
  154.4872  135.5901  153.6489 H   0  0  0  0  0  0  0  0  0  0  0  0  # atno 10765 bound_to 10752
  140.4721  134.1021  155.7734 H   0  0  0  0  0  0  0  0  0  0  0  0  # atno 11005 bound_to 11000
  145.4625  139.1511  143.3858 LP  0  0  0  0  0  0  0  0  0  0  0  0  # atno 17320 bound_to 7965
  146.2732  140.4756  142.8806 LP  0  0  0  0  0  0  0  0  0  0  0  0  # atno 17321 bound_to 7965
  140.7797  143.3904  151.1320 LP  0  0  0  0  0  0  0  0  0  0  0  0  # atno 17342 bound_to 10162
  139.7550  143.8722  152.3086 LP  0  0  0  0  0  0  0  0  0  0  0  0  # atno 17343 bound_to 10162
  157.7385  131.0540  150.5291 LP  0  0  0  0  0  0  0  0  0  0  0  0  # atno 17370 bound_to 10713
  156.5427  130.4212  149.6146 LP  0  0  0  0  0  0  0  0  0  0  0  0  # atno 17371 bound_to 10713
  141.1572  133.8861  157.1946 LP  0  0  0  0  0  0  0  0  0  0  0  0  # atno 17394 bound_to 11000
  139.9879  135.0075  156.9905 LP  0  0  0  0  0  0  0  0  0  0  0  0  # atno 17395 bound_to 11000

$$$$
