AV-unprocessed.smi:589|AV-procd|sdf|3005|dock4
  -GOLD-   2262023513D 1   1.00000     0.00000
 Structure written by MMmdl.
 40 41  0  0  0  0  0  0  0  0  1 V2000
  148.7161  136.6715  159.8562 C   0  0  0  0  0  0  0  0  0  0  0  0
  149.5330  137.2254  158.7078 C   0  0  0  0  0  0  0  0  0  0  0  0
  149.6481  136.5234  157.4950 C   0  0  0  0  0  0  0  0  0  0  0  0
  150.4149  137.0842  156.4533 C   0  0  0  0  0  0  0  0  0  0  0  0
  150.4940  136.3323  155.1326 C   0  0  0  0  0  0  0  0  0  0  0  0
  151.0592  138.3355  156.6720 C   0  0  0  0  0  0  0  0  0  0  0  0
  151.8875  138.9943  155.5968 C   0  0  0  0  0  0  0  0  0  0  0  0
  152.9370  138.2955  155.1552 N   0  0  0  0  0  0  0  0  0  0  0  0
  151.6228  140.1218  155.1833 O   0  0  0  0  0  0  0  0  0  0  0  0
  150.8657  138.9680  157.9346 C   0  0  0  0  0  0  0  0  0  0  0  0
  151.4678  140.2047  158.2266 N   0  0  0  0  0  0  0  0  0  0  0  0
  152.3480  140.1740  159.3862 C   0  0  0  0  0  0  0  0  0  0  0  0
  153.0932  141.5165  159.5142 C   0  0  2  0  0  0  0  0  0  0  0  0
  153.9536  141.5801  160.7804 C   0  0  0  0  0  0  0  0  0  0  0  0
  152.1411  142.5774  159.5666 O   0  0  0  0  0  0  0  0  0  0  0  0
  151.3301  142.6480  158.3951 C   0  0  2  0  0  0  0  0  0  0  0  0
  150.4023  143.8602  158.5223 C   0  0  0  0  0  0  0  0  0  0  0  0
  150.5449  141.3316  158.2494 C   0  0  0  0  0  0  0  0  0  0  0  0
  150.1232  138.4163  158.9241 N   0  0  0  0  0  0  0  0  0  0  0  0
  148.2430  135.7267  159.5868 H   0  0  0  0  0  0  0  0  0  0  0  0
  147.9324  137.3752  160.1378 H   0  0  0  0  0  0  0  0  0  0  0  0
  149.3518  136.4987  160.7250 H   0  0  0  0  0  0  0  0  0  0  0  0
  149.1482  135.5751  157.3627 H   0  0  0  0  0  0  0  0  0  0  0  0
  150.3217  137.0015  154.2890 H   0  0  0  0  0  0  0  0  0  0  0  0
  149.7411  135.5451  155.0835 H   0  0  0  0  0  0  0  0  0  0  0  0
  151.4719  135.8651  155.0166 H   0  0  0  0  0  0  0  0  0  0  0  0
  153.5289  138.6783  154.4327 H   0  0  0  0  0  0  0  0  0  0  0  0
  153.1307  137.3838  155.5438 H   0  0  0  0  0  0  0  0  0  0  0  0
  151.7610  139.9827  160.2857 H   0  0  0  0  0  0  0  0  0  0  0  0
  153.0618  139.3553  159.2849 H   0  0  0  0  0  0  0  0  0  0  0  0
  153.7400  141.6604  158.6467 H   0  0  0  0  0  0  0  0  0  0  0  0
  154.7060  140.7912  160.7835 H   0  0  0  0  0  0  0  0  0  0  0  0
  153.3442  141.4660  161.6772 H   0  0  0  0  0  0  0  0  0  0  0  0
  154.4736  142.5358  160.8504 H   0  0  0  0  0  0  0  0  0  0  0  0
  151.9721  142.7907  157.5236 H   0  0  0  0  0  0  0  0  0  0  0  0
  149.7653  143.9596  157.6430 H   0  0  0  0  0  0  0  0  0  0  0  0
  150.9761  144.7817  158.6231 H   0  0  0  0  0  0  0  0  0  0  0  0
  149.7560  143.7721  159.3961 H   0  0  0  0  0  0  0  0  0  0  0  0
  149.9574  141.3426  157.3305 H   0  0  0  0  0  0  0  0  0  0  0  0
  149.8468  141.2198  159.0803 H   0  0  0  0  0  0  0  0  0  0  0  0
  1  2  1  0  0  0  0
  1 20  1  0  0  0  0
  1 21  1  0  0  0  0
  1 22  1  0  0  0  0
  2 19  1  0  0  0  0
  2  3  2  0  0  0  0
  3  4  1  0  0  0  0
  3 23  1  0  0  0  0
  4  5  1  0  0  0  0
  4  6  2  0  0  0  0
  5 24  1  0  0  0  0
  5 25  1  0  0  0  0
  5 26  1  0  0  0  0
  6  7  1  0  0  0  0
  6 10  1  0  0  0  0
  7  8  1  0  0  0  0
  7  9  2  0  0  0  0
  8 27  1  0  0  0  0
  8 28  1  0  0  0  0
 10 11  1  0  0  0  0
 10 19  2  0  0  0  0
 11 18  1  0  0  0  0
 11 12  1  0  0  0  0
 12 13  1  0  0  0  0
 12 29  1  0  0  0  0
 12 30  1  0  0  0  0
 13 14  1  0  0  0  0
 13 15  1  0  0  0  0
 13 31  1  0  0  0  0
 14 32  1  0  0  0  0
 14 33  1  0  0  0  0
 14 34  1  0  0  0  0
 15 16  1  0  0  0  0
 16 17  1  0  0  0  0
 16 18  1  0  0  0  0
 16 35  1  0  0  0  0
 17 36  1  0  0  0  0
 17 37  1  0  0  0  0
 17 38  1  0  0  0  0
 18 39  1  0  0  0  0
 18 40  1  0  0  0  0
M  END
> <s_m_source_file>
AV-unprocessed.smi

> <i_m_source_file_index>
589

> <i_lp_mmshare_version>
43012

> <i_f3d_flags>
0

> <s_epik_input>
W0NIM11jMVtjSF1jKFtDSDNdKWMoQyg9TylbTkgyXSljKG4xKU4yW0NIMl1bQ0BASF0oW0NIM10pT1tDQEBIXShbQ0gzXSlbQ0gyXTI=

> <s_epik_cmdline>
J2VwaWtfcHl0aG9uJywgJy1waCcsICc3LjAnLCAnLXRuJywgJzgnLCAnLW1hJywgJzIwMCcsICctbWV0YWxfYmluZGluZycsICctaW1hZScsICc8aW5maWxlLm1hZT4nLCAnLW9tYWUnLCAnPG91dGZpbGUubWFlPic=

> <r_lp_tautomer_probability>
1

> <r_epik_Ionization_Penalty>
0.000626871

> <r_epik_Ionization_Penalty_Charging>
0

> <r_epik_Ionization_Penalty_Neutral>
0.000626871

> <r_epik_State_Penalty>
0.000395665

> <r_epik_Charging_Adjusted_Penalty>
0.000395665

> <i_epik_Tot_Q>
0

> <i_epik_Tot_abs_Q>
0

> <r_epik_Metal_State_Penalty>
-0

> <b_epik_Metal_Only>
0

> <s_lp_Force_Field>
OPLS_2005

> <r_lp_Energy>
24.7039

> <b_lp_Chiralities_Consistent>
1

> <s_lp_Variant>
AV-unprocessed.smi:589-1

> <Gold.Version>
5.8.1

> <Gold.Id.Protein>
6NUR|6NUR_protein|mol2

> <Gold.PLP.Fitness>
29.3981

> <Gold.PLP.PLP>
-28.8166

> <Gold.PLP.part.hbond>
-1.2304

> <Gold.PLP.part.metal>
0.0000

> <Gold.PLP.part.buried>
-6.9913

> <Gold.PLP.part.nonpolar>
-21.3874

> <Gold.PLP.part.repulsive>
0.2587

> <Gold.PLP.ligand.clash>
0.0000

> <Gold.PLP.ligand.torsion>
1.2442

> <Gold.PLP.Chemscore.Hbond>
0.9120

> <Gold.PLP.Chemscore.CHOScore>
0.0000

> <Gold.PLP.Chemscore.Metal>
0.0000

> <Gold.Chemscore.Hbonds>
donor molecule, donor type, donor heavy atom, donor atom, acceptor molecule, acceptor atom, score
      P1  H  7989  7998       L1     9  0.98

> <Gold.PLP.Chemscore.Internal.Correction>
0.3340

> <Gold.Rescore>
     Score         DG    S(hbond)    S(metal)    S(lipo)     H(rot)  DE(clash)    DE(int)     intcor
     13.32     -14.72       0.99        0.00      72.44       1.00       0.00       1.40       ----

> <Gold.Chemscore.Fitness>
13.3194

> <Gold.Chemscore.DG>
-14.7160

> <Gold.Chemscore.ZeroCoef>
-5.4800

> <Gold.Chemscore.Hbond>
0.9943

> <Gold.Chemscore.Metal>
0.0000

> <Gold.Chemscore.Lipo>
72.4356

> <Gold.Chemscore.Internal_Hbond>
0.0000

> <Gold.Chemscore.DEClash>
0.0000

> <Gold.Chemscore.DEInternal>
1.3966

> <Gold.Chemscore.Rot>
1.0000

> <Gold.Chemscore.Internal.Correction>
   9.000000E+99

> <Gold.Chemscore.Hbonds>
donor molecule, donor type, donor heavy atom, donor atom, acceptor molecule, acceptor atom, score
      P1  H  7989  7998       L1     9  0.93

> <Gold.Chemscore.Hbond.Weighted>
-3.3210

> <Gold.Chemscore.Metal.Weighted>
-0.0000

> <Gold.Chemscore.Lipo.Weighted>
-8.4750

> <Gold.Chemscore.Internal_Hbond.Weighted>
0.0000

> <Gold.Chemscore.DEClash.Weighted>
0.0000

> <Gold.Chemscore.DEInternal.Weighted>
1.3966

> <Gold.Chemscore.Rot.Weighted>
2.5600

> <Gold.Chemscore.Internal.Correction.Weighted>
   9.000000E+99

> <Gold.Protein.RotatedTorsions>
[ 6907 6896 6895 6894 ] final  -43.55 input  -60.11 | X-H torsion
[ 7974 7965 7964 7962 ] final   54.21 input  175.53 | X-H torsion
[ 8008 7997 7996 7995 ] final  110.85 input   59.86 | X-H torsion
[ 10167 10162 10161 10158 ] final -136.34 input  -65.29 | X-H torsion
[ 10718 10713 10712 10709 ] final -168.54 input   66.30 | X-H torsion
[ 10763 10752 10751 10750 ] final   99.09 input  -60.55 | X-H torsion
[ 11005 11000 10999 10996 ] final   70.72 input  -57.11 | X-H torsion

> <Gold.Protein.ActiveResidues>
 VAL166  LYS551  ARG553  GLY616  TRP617  ASP618  TYR619  PRO620  LYS621  CYS622 
 ASP623  PHE694  ASN695  SER759  ASP760  ASP761  ALA762  ILE779  LEU786  VAL792 
 PHE793  MET794  SER795  GLU796  ALA797  LYS798  CYS799  TRP800  GLU811  SER814 

> <Gold.Protein.RotatedAtoms>
  150.9426  134.8834  159.7621 H   0  0  0  0  0  0  0  0  0  0  0  0  # atno 6907 bound_to 6896
  152.5087  134.3919  159.9397 H   0  0  0  0  0  0  0  0  0  0  0  0  # atno 6908 bound_to 6896
  151.3940  133.3739  159.2759 H   0  0  0  0  0  0  0  0  0  0  0  0  # atno 6909 bound_to 6896
  145.9632  139.4078  143.0235 H   0  0  0  0  0  0  0  0  0  0  0  0  # atno 7974 bound_to 7965
  156.2082  140.3030  155.9674 H   0  0  0  0  0  0  0  0  0  0  0  0  # atno 8008 bound_to 7997
  155.2788  140.0437  157.3031 H   0  0  0  0  0  0  0  0  0  0  0  0  # atno 8009 bound_to 7997
  154.5663  140.2335  155.8267 H   0  0  0  0  0  0  0  0  0  0  0  0  # atno 8010 bound_to 7997
  139.8688  143.6983  152.2642 H   0  0  0  0  0  0  0  0  0  0  0  0  # atno 10167 bound_to 10162
  156.6984  130.9187  151.3077 H   0  0  0  0  0  0  0  0  0  0  0  0  # atno 10718 bound_to 10713
  153.2972  135.4125  155.1220 H   0  0  0  0  0  0  0  0  0  0  0  0  # atno 10763 bound_to 10752
  154.8538  135.3532  154.5901 H   0  0  0  0  0  0  0  0  0  0  0  0  # atno 10764 bound_to 10752
  153.6325  135.7060  153.5328 H   0  0  0  0  0  0  0  0  0  0  0  0  # atno 10765 bound_to 10752
  139.9582  134.7107  156.0705 H   0  0  0  0  0  0  0  0  0  0  0  0  # atno 11005 bound_to 11000
  145.8011  140.9770  143.0998 LP  0  0  0  0  0  0  0  0  0  0  0  0  # atno 17320 bound_to 7965
  144.6819  139.9802  143.7483 LP  0  0  0  0  0  0  0  0  0  0  0  0  # atno 17321 bound_to 7965
  139.7303  144.7583  151.0812 LP  0  0  0  0  0  0  0  0  0  0  0  0  # atno 17342 bound_to 10162
  140.7764  143.5096  150.9669 LP  0  0  0  0  0  0  0  0  0  0  0  0  # atno 17343 bound_to 10162
  157.6982  130.9305  150.0707 LP  0  0  0  0  0  0  0  0  0  0  0  0  # atno 17370 bound_to 10713
  156.1746  130.3647  149.9118 LP  0  0  0  0  0  0  0  0  0  0  0  0  # atno 17371 bound_to 10713
  141.1256  133.6600  156.3328 LP  0  0  0  0  0  0  0  0  0  0  0  0  # atno 17394 bound_to 11000
  140.5560  134.5981  157.5421 LP  0  0  0  0  0  0  0  0  0  0  0  0  # atno 17395 bound_to 11000

$$$$
