#       Name:                AV-unprocessed.smi:2346
#       Creating user name   scv26
#       Creation time:       Fri Mar 27 12:59:30 2020


#       File generated by GOLD software.
#

@<TRIPOS>MOLECULE
AV-unprocessed.smi:2346
    52    54     1
SMALL
NO_CHARGES


@<TRIPOS>ATOM
      1 ****        -5.7478   0.1423   0.2364 C.3            1 S1                 0.0000
      2 ****        -4.3279   0.1607   0.2510 O.3            1 S1                 0.0000
      3 ****        -3.6872   1.3817   0.1973 C.ar           1 S1                 0.0000
      4 ****        -4.3685   2.6253   0.1772 C.ar           1 S1                 0.0000
      5 ****        -3.6495   3.8350   0.1183 C.ar           1 S1                 0.0000
      6 ****        -4.3583   5.1037   0.0980 C.1            1 S1                 0.0000
      7 ****        -4.9228   6.1134   0.0818 N.1            1 S1                 0.0000
      8 ****        -2.2434   3.8120   0.0790 C.ar           1 S1                 0.0000
      9 ****        -1.5587   2.5837   0.1005 C.ar           1 S1                 0.0000
     10 ****        -2.2738   1.3608   0.1598 C.ar           1 S1                 0.0000
     11 ****        -1.6683   0.1212   0.1825 O.3            1 S1                 0.0000
     12 ****        -0.2521   0.0565   0.1040 C.3            1 S1                 0.0000
     13 ****         0.1645  -1.4188   0.1010 C.3            1 S1                 0.0000
     14 ****         1.6209  -1.5772  -0.0191 N.pl3          1 S1                 0.0000
     15 ****         2.4133  -1.7148  -1.1232 C.2            1 S1                 0.0000
     16 ****         1.9843  -1.7191  -2.5586 C.3            1 S1                 0.0000
     17 ****         2.2162  -0.3450  -3.2006 C.3            1 S1                 0.0000
     18 ****         2.6765  -2.6908  -3.3145 O.3            1 S1                 0.0000
     19 ****         3.6997  -1.8186  -0.6823 N.pl3          1 S1                 1.0000
     20 ****         3.7330  -1.7454   0.7098 C.ar           1 S1                 0.0000
     21 ****         4.8014  -1.8024   1.5993 C.ar           1 S1                 0.0000
     22 ****         4.4901  -1.6859   2.9698 C.ar           1 S1                 0.0000
     23 ****         3.1606  -1.5191   3.4088 C.ar           1 S1                 0.0000
     24 ****         2.0855  -1.4640   2.4969 C.ar           1 S1                 0.0000
     25 ****         2.4014  -1.5835   1.1434 C.ar           1 S1                 0.0000
     26 ****        -6.0935  -0.8909   0.2588 H              1 S1                 0.0000
     27 ****        -6.1435   0.6010  -0.6709 H              1 S1                 0.0000
     28 ****        -6.1631   0.6478   1.1092 H              1 S1                 0.0000
     29 ****        -5.4470   2.6712   0.2067 H              1 S1                 0.0000
     30 ****        -1.6818   4.7342   0.0323 H              1 S1                 0.0000
     31 ****        -0.4802   2.6082   0.0702 H              1 S1                 0.0000
     32 ****         0.0953   0.5385  -0.8107 H              1 S1                 0.0000
     33 ****         0.1982   0.5692   0.9554 H              1 S1                 0.0000
     34 ****        -0.1775  -1.9241   1.0044 H              1 S1                 0.0000
     35 ****        -0.3042  -1.9420  -0.7319 H              1 S1                 0.0000
     36 ****         0.9242  -1.9622  -2.6177 H              1 S1                 0.0000
     37 ****         1.6671   0.4339  -2.6712 H              1 S1                 0.0000
     38 ****         1.8810  -0.3345  -4.2382 H              1 S1                 0.0000
     39 ****         3.2722  -0.0725  -3.1892 H              1 S1                 0.0000
     40 ****         2.4282  -3.5475  -3.0017 H              1 S1                 0.0000
     41 ****         5.8208  -1.9277   1.2645 H              1 S1                 0.0000
     42 ****         5.2869  -1.7233   3.6984 H              1 S1                 0.0000
     43 ****         2.9608  -1.4316   4.4670 H              1 S1                 0.0000
     44 ****         1.0718  -1.3330   2.8455 H              1 S1                 0.0000
     45 ****         4.4954  -1.9284  -1.2980 H              1 S1                 0.0000
     46 ****        -4.0171  -0.3712  -0.5367 LP             1 S1                 0.0000
     47 ****        -4.0350  -0.2901   1.0942 LP             1 S1                 0.0000
     48 ****        -5.4107   6.9862   0.0678 LP             1 S1                 0.0000
     49 ****        -2.0307  -0.3983  -0.5912 LP             1 S1                 0.0000
     50 ****        -1.9370  -0.3227   1.0373 LP             1 S1                 0.0000
     51 ****         3.6623  -2.5642  -3.2044 LP             1 S1                 0.0000
     52 ****         2.4348  -2.6014  -4.2807 LP             1 S1                 0.0000
@<TRIPOS>BOND
    1    1    2 1     
    2    1   26 1     
    3    1   27 1     
    4    1   28 1     
    5    2    3 1     
    6    3   10 ar    
    7    3    4 ar    
    8    4    5 ar    
    9    4   29 1     
   10    5    6 1     
   11    5    8 ar    
   12    6    7 3     
   13    8    9 ar    
   14    8   30 1     
   15    9   10 ar    
   16    9   31 1     
   17   10   11 1     
   18   11   12 1     
   19   12   13 1     
   20   12   32 1     
   21   12   33 1     
   22   13   14 1     
   23   13   34 1     
   24   13   35 1     
   25   14   25 1     
   26   14   15 1     
   27   15   16 1     
   28   15   19 2     
   29   16   17 1     
   30   16   18 1     
   31   16   36 1     
   32   17   37 1     
   33   17   38 1     
   34   17   39 1     
   35   18   40 1     
   36   19   20 1     
   37   19   45 1     
   38   20   25 ar    
   39   20   21 ar    
   40   21   22 ar    
   41   21   41 1     
   42   22   23 ar    
   43   22   42 1     
   44   23   24 ar    
   45   23   43 1     
   46   24   25 ar    
   47   24   44 1     
   48    2   46 1     
   49    2   47 1     
   50    7   48 1     
   51   11   49 1     
   52   11   50 1     
   53   18   51 1     
   54   18   52 1     
@<TRIPOS>SUBSTRUCTURE
      1 S1             1
@<TRIPOS>SET
LONE_PAIRS      STATIC     ATOMS    <user>   **** ""
7 46 47 48 49 50 51 52
DONOR_HYDROGENS      STATIC     ATOMS    <user>   **** ""
2 40 45
ATOM$BLUE        STATIC     ATOMS    COLORGROUP SYSTEM
7 46 47 48 49 50 51 52
ATOM$RED        STATIC     ATOMS    COLORGROUP SYSTEM
2 40 45
