AV-unprocessed.smi:1222|AV-procd|sdf|5125|dock6
  -GOLD-   22720 4183D 1   1.00000     0.00000
 Structure written by MMmdl.
 35 37  0  0  0  0  0  0  0  0  2 V2000
  152.0071  139.9307  154.6656 O   0  0  0  0  0  0  0  0  0  0  0  0
  150.9891  139.6166  155.2863 C   0  0  0  0  0  0  0  0  0  0  0  0
  149.9457  138.9054  154.8009 N   0  5  0  0  0  0  0  0  0  0  0  0
  148.8943  139.5406  154.2579 C   0  0  0  0  0  0  0  0  0  0  0  0
  147.8046  138.9034  153.8140 N   0  0  0  0  0  0  0  0  0  0  0  0
  146.8335  139.7610  153.2936 C   0  0  0  0  0  0  0  0  0  0  0  0
  147.1875  141.0828  153.3521 C   0  0  0  0  0  0  0  0  0  0  0  0
  148.7616  141.2910  154.0651 S   0  0  0  0  0  0  0  0  0  0  0  0
  150.8377  139.9860  156.5668 N   0  0  0  0  0  0  0  0  0  0  0  0
  151.7808  140.7617  157.3702 C   0  0  0  0  0  0  0  0  0  0  0  0
  152.1421  139.9967  158.6530 C   0  0  0  0  0  0  0  0  0  0  0  0
  153.0138  140.8606  159.5816 C   0  0  0  0  0  0  0  0  0  0  0  0
  152.3180  142.1019  159.9239 N   0  0  0  0  0  0  0  0  0  0  0  0
  153.1557  142.8750  160.8263 C   0  0  0  0  0  0  0  0  0  0  0  0
  153.2242  142.4315  162.2698 C   0  0  0  0  0  0  0  0  0  0  0  0
  152.4658  143.6837  161.9010 C   0  0  0  0  0  0  0  0  0  0  0  0
  152.0777  142.8884  158.7132 C   0  0  0  0  0  0  0  0  0  0  0  0
  151.1621  142.1161  157.7471 C   0  0  0  0  0  0  0  0  0  0  0  0
  145.9178  139.3432  152.9026 H   0  0  0  0  0  0  0  0  0  0  0  0
  146.6226  141.9416  153.0224 H   0  0  0  0  0  0  0  0  0  0  0  0
  149.9846  139.7008  157.0253 H   0  0  0  0  0  0  0  0  0  0  0  0
  152.6998  140.9537  156.8137 H   0  0  0  0  0  0  0  0  0  0  0  0
  151.2342  139.6998  159.1808 H   0  0  0  0  0  0  0  0  0  0  0  0
  152.6696  139.0759  158.4021 H   0  0  0  0  0  0  0  0  0  0  0  0
  153.2353  140.3042  160.4932 H   0  0  0  0  0  0  0  0  0  0  0  0
  153.9687  141.0837  159.1029 H   0  0  0  0  0  0  0  0  0  0  0  0
  154.0710  143.3153  160.4335 H   0  0  0  0  0  0  0  0  0  0  0  0
  152.6411  141.5609  162.5645 H   0  0  0  0  0  0  0  0  0  0  0  0
  154.1737  142.5531  162.7867 H   0  0  0  0  0  0  0  0  0  0  0  0
  152.9103  144.6391  162.1718 H   0  0  0  0  0  0  0  0  0  0  0  0
  151.3790  143.6451  161.9496 H   0  0  0  0  0  0  0  0  0  0  0  0
  151.6061  143.8344  158.9813 H   0  0  0  0  0  0  0  0  0  0  0  0
  153.0239  143.1287  158.2259 H   0  0  0  0  0  0  0  0  0  0  0  0
  150.9893  142.7096  156.8487 H   0  0  0  0  0  0  0  0  0  0  0  0
  150.1865  141.9668  158.2129 H   0  0  0  0  0  0  0  0  0  0  0  0
  1  2  2  0  0  0  0
  2  3  1  0  0  0  0
  2  9  1  0  0  0  0
  3  4  1  0  0  0  0
  4  8  1  0  0  0  0
  4  5  2  0  0  0  0
  5  6  1  0  0  0  0
  6  7  2  0  0  0  0
  6 19  1  0  0  0  0
  7  8  1  0  0  0  0
  7 20  1  0  0  0  0
  9 10  1  0  0  0  0
  9 21  1  0  0  0  0
 10 18  1  0  0  0  0
 10 11  1  0  0  0  0
 10 22  1  0  0  0  0
 11 12  1  0  0  0  0
 11 23  1  0  0  0  0
 11 24  1  0  0  0  0
 12 13  1  0  0  0  0
 12 25  1  0  0  0  0
 12 26  1  0  0  0  0
 13 14  1  0  0  0  0
 13 17  1  0  0  0  0
 14 16  1  0  0  0  0
 14 15  1  0  0  0  0
 14 27  1  0  0  0  0
 15 16  1  0  0  0  0
 15 28  1  0  0  0  0
 15 29  1  0  0  0  0
 16 30  1  0  0  0  0
 16 31  1  0  0  0  0
 17 18  1  0  0  0  0
 17 32  1  0  0  0  0
 17 33  1  0  0  0  0
 18 34  1  0  0  0  0
 18 35  1  0  0  0  0
M  CHG  1   3  -1
M  END
> <s_m_source_file>
AV-unprocessed.smi

> <i_m_source_file_index>
1222

> <i_lp_mmshare_version>
43012

> <i_f3d_flags>
0

> <s_epik_input>
czFbY0hdW2NIXW5jMVtOSF1DKD1PKVtOSF1bQ0hdMltDSDJdW0NIMl1OKFtDSDJdW0NIMl0yKVtDSF0zW0NIMl1bQ0gyXTM=

> <s_epik_cmdline>
J2VwaWtfcHl0aG9uJywgJy1waCcsICc3LjAnLCAnLXRuJywgJzgnLCAnLW1hJywgJzIwMCcsICctbWV0YWxfYmluZGluZycsICctaW1hZScsICc8aW5maWxlLm1hZT4nLCAnLW9tYWUnLCAnPG91dGZpbGUubWFlPic=

> <r_lp_tautomer_probability>
0.999

> <r_epik_Ionization_Penalty>
8.0332

> <r_epik_Ionization_Penalty_Charging>
5.90974

> <r_epik_Ionization_Penalty_Neutral>
2.12346

> <r_epik_State_Penalty>
6.94233

> <r_epik_Charging_Adjusted_Penalty>
12.8521

> <i_epik_Tot_Q>
-1

> <i_epik_Tot_abs_Q>
1

> <r_epik_Metal_State_Penalty>
2.92331

> <b_epik_Metal_Only>
1

> <s_lp_Force_Field>
OPLS_2005

> <r_lp_Energy>
17.9204

> <b_lp_Chiralities_Consistent>
1

> <s_lp_Variant>
AV-unprocessed.smi:1222-6

> <Gold.Version>
5.8.1

> <Gold.Id.Protein>
6NUR|6NUR_protein|mol2

> <Gold.PLP.Fitness>
42.6426

> <Gold.PLP.PLP>
-38.5779

> <Gold.PLP.part.hbond>
-0.7794

> <Gold.PLP.part.metal>
0.0000

> <Gold.PLP.part.buried>
-4.8092

> <Gold.PLP.part.nonpolar>
-31.6934

> <Gold.PLP.part.repulsive>
0.4296

> <Gold.PLP.ligand.clash>
0.0000

> <Gold.PLP.ligand.torsion>
1.3757

> <Gold.PLP.Chemscore.Hbond>
0.8800

> <Gold.PLP.Chemscore.CHOScore>
0.9984

> <Gold.PLP.Chemscore.Metal>
0.0000

> <Gold.Chemscore.Hbonds>
donor molecule, donor type, donor heavy atom, donor atom, acceptor molecule, acceptor atom, score
      P1  H  7989  7998       L1     1  0.84
      L1  C     6    19       P1 10175  0.97

> <Gold.PLP.Chemscore.Internal.Correction>
1.1809

> <Gold.Rescore>
     Score         DG    S(hbond)    S(metal)    S(lipo)     H(rot)  DE(clash)    DE(int)     intcor
     15.47     -16.87       0.94        0.00      97.33       1.23       0.01       1.38       ----

> <Gold.Chemscore.Fitness>
15.4716

> <Gold.Chemscore.DG>
-16.8659

> <Gold.Chemscore.ZeroCoef>
-5.4800

> <Gold.Chemscore.Hbond>
0.9429

> <Gold.Chemscore.Metal>
0.0000

> <Gold.Chemscore.Lipo>
97.3298

> <Gold.Chemscore.Internal_Hbond>
0.0000

> <Gold.Chemscore.DEClash>
0.0119

> <Gold.Chemscore.DEInternal>
1.3824

> <Gold.Chemscore.Rot>
1.2308

> <Gold.Chemscore.Internal.Correction>
   9.000000E+99

> <Gold.Chemscore.Hbonds>
donor molecule, donor type, donor heavy atom, donor atom, acceptor molecule, acceptor atom, score
      P1  H  7989  7998       L1     1  0.62

> <Gold.Chemscore.Hbond.Weighted>
-3.1491

> <Gold.Chemscore.Metal.Weighted>
-0.0000

> <Gold.Chemscore.Lipo.Weighted>
-11.3876

> <Gold.Chemscore.Internal_Hbond.Weighted>
0.0000

> <Gold.Chemscore.DEClash.Weighted>
0.0119

> <Gold.Chemscore.DEInternal.Weighted>
1.3824

> <Gold.Chemscore.Rot.Weighted>
3.1508

> <Gold.Chemscore.Internal.Correction.Weighted>
   9.000000E+99

> <Gold.Protein.RotatedTorsions>
[ 6907 6896 6895 6894 ] final  102.38 input  -60.11 | X-H torsion
[ 7974 7965 7964 7962 ] final   75.92 input  175.53 | X-H torsion
[ 8008 7997 7996 7995 ] final   66.54 input   59.86 | X-H torsion
[ 10167 10162 10161 10158 ] final -122.81 input  -65.29 | X-H torsion
[ 10718 10713 10712 10709 ] final  178.30 input   66.30 | X-H torsion
[ 10763 10752 10751 10750 ] final  -71.17 input  -60.55 | X-H torsion
[ 11005 11000 10999 10996 ] final -147.82 input  -57.11 | X-H torsion

> <Gold.Protein.ActiveResidues>
 VAL166  LYS551  ARG553  GLY616  TRP617  ASP618  TYR619  PRO620  LYS621  CYS622 
 ASP623  PHE694  ASN695  SER759  ASP760  ASP761  ALA762  ILE779  LEU786  VAL792 
 PHE793  MET794  SER795  GLU796  ALA797  LYS798  CYS799  TRP800  GLU811  SER814 

> <Gold.Protein.RotatedAtoms>
  152.5325  133.9985  159.7883 H   0  0  0  0  0  0  0  0  0  0  0  0  # atno 6907 bound_to 6896
  151.0208  133.5871  159.2678 H   0  0  0  0  0  0  0  0  0  0  0  0  # atno 6908 bound_to 6896
  151.2911  135.0749  159.9258 H   0  0  0  0  0  0  0  0  0  0  0  0  # atno 6909 bound_to 6896
  145.7095  139.2609  143.1659 H   0  0  0  0  0  0  0  0  0  0  0  0  # atno 7974 bound_to 7965
  155.6789  140.3496  155.4847 H   0  0  0  0  0  0  0  0  0  0  0  0  # atno 8008 bound_to 7997
  155.9624  140.1140  157.0907 H   0  0  0  0  0  0  0  0  0  0  0  0  # atno 8009 bound_to 7997
  154.4146  140.1173  156.5183 H   0  0  0  0  0  0  0  0  0  0  0  0  # atno 8010 bound_to 7997
  140.0102  143.5449  152.2266 H   0  0  0  0  0  0  0  0  0  0  0  0  # atno 10167 bound_to 10162
  156.8925  130.9852  151.3047 H   0  0  0  0  0  0  0  0  0  0  0  0  # atno 10718 bound_to 10713
  154.4280  135.5970  153.6051 H   0  0  0  0  0  0  0  0  0  0  0  0  # atno 10763 bound_to 10752
  152.9797  135.5968  154.3873 H   0  0  0  0  0  0  0  0  0  0  0  0  # atno 10764 bound_to 10752
  154.3708  135.2841  155.2246 H   0  0  0  0  0  0  0  0  0  0  0  0  # atno 10765 bound_to 10752
  140.7677  134.3225  157.5084 H   0  0  0  0  0  0  0  0  0  0  0  0  # atno 11005 bound_to 11000
  146.0726  140.7853  142.9681 LP  0  0  0  0  0  0  0  0  0  0  0  0  # atno 17320 bound_to 7965
  144.6946  140.3365  143.7207 LP  0  0  0  0  0  0  0  0  0  0  0  0  # atno 17321 bound_to 7965
  139.6210  144.7629  151.2740 LP  0  0  0  0  0  0  0  0  0  0  0  0  # atno 17342 bound_to 10162
  140.7384  143.6649  150.8132 LP  0  0  0  0  0  0  0  0  0  0  0  0  # atno 17343 bound_to 10162
  157.6075  130.8558  149.8898 LP  0  0  0  0  0  0  0  0  0  0  0  0  # atno 17370 bound_to 10713
  156.0622  130.3698  150.0958 LP  0  0  0  0  0  0  0  0  0  0  0  0  # atno 17371 bound_to 10713
  139.8760  134.9241  156.3342 LP  0  0  0  0  0  0  0  0  0  0  0  0  # atno 17394 bound_to 11000
  140.9603  133.7393  156.0393 LP  0  0  0  0  0  0  0  0  0  0  0  0  # atno 17395 bound_to 11000

$$$$
