AV-unprocessed.smi:657|AV-procd|sdf|3226|dock5
  -GOLD-   22720 0163D 1   1.00000     0.00000
 Structure written by MMmdl.
 46 47  0  0  0  0  0  0  0  0  3 V2000
  148.4234  140.1908  154.9678 C   0  0  0  0  0  0  0  0  0  0  0  0
  148.5178  139.1154  153.8679 C   0  0  0  0  0  0  0  0  0  0  0  0
  147.2633  139.0995  152.9775 C   0  0  0  0  0  0  0  0  0  0  0  0
  148.8358  137.7433  154.3911 N   0  3  2  0  0  0  0  0  0  0  0  0
  147.6427  137.0386  154.9470 C   0  0  0  0  0  0  0  0  0  0  0  0
  147.9446  135.5776  155.3009 C   0  0  0  0  0  0  0  0  0  0  0  0
  149.0795  135.5079  156.3221 C   0  0  0  0  0  0  0  0  0  0  0  0
  150.3150  136.1984  155.7419 C   0  0  0  0  0  0  0  0  0  0  0  0
  150.0258  137.6594  155.3087 C   0  0  1  0  0  0  0  0  0  0  0  0
  151.3211  138.2593  154.7190 C   0  0  0  0  0  0  0  0  0  0  0  0
  152.1161  137.4912  154.1687 O   0  0  0  0  0  0  0  0  0  0  0  0
  151.3902  139.6070  154.9168 N   0  5  0  0  0  0  0  0  0  0  0  0
  151.7959  140.2224  156.1769 C   0  0  0  0  0  0  0  0  0  0  0  0
  150.7199  141.2264  156.6339 C   0  0  0  0  0  0  0  0  0  0  0  0
  151.2276  142.1961  157.6728 C   0  0  0  0  0  0  0  0  0  0  0  0
  151.3256  143.6152  157.5745 C   0  0  0  0  0  0  0  0  0  0  0  0
  151.8068  144.1773  158.6713 N   0  0  0  0  0  0  0  0  0  0  0  0
  152.0278  143.1435  159.5086 N   0  0  0  0  0  0  0  0  0  0  0  0
  152.5647  143.3970  160.8283 C   0  0  0  0  0  0  0  0  0  0  0  0
  151.6833  141.9380  158.9366 C   0  0  0  0  0  0  0  0  0  0  0  0
  148.3195  141.1818  154.5251 H   0  0  0  0  0  0  0  0  0  0  0  0
  149.3181  140.2102  155.5900 H   0  0  0  0  0  0  0  0  0  0  0  0
  147.5613  140.0404  155.6175 H   0  0  0  0  0  0  0  0  0  0  0  0
  149.3122  139.4368  153.1974 H   0  0  0  0  0  0  0  0  0  0  0  0
  147.1380  140.0575  152.4722 H   0  0  0  0  0  0  0  0  0  0  0  0
  146.3517  138.9166  153.5454 H   0  0  0  0  0  0  0  0  0  0  0  0
  147.3408  138.3324  152.2062 H   0  0  0  0  0  0  0  0  0  0  0  0
  147.2929  137.5507  155.8438 H   0  0  0  0  0  0  0  0  0  0  0  0
  146.8210  137.0567  154.2328 H   0  0  0  0  0  0  0  0  0  0  0  0
  147.0511  135.1010  155.7055 H   0  0  0  0  0  0  0  0  0  0  0  0
  148.2146  135.0239  154.4007 H   0  0  0  0  0  0  0  0  0  0  0  0
  148.7807  135.9930  157.2523 H   0  0  0  0  0  0  0  0  0  0  0  0
  149.3067  134.4696  156.5657 H   0  0  0  0  0  0  0  0  0  0  0  0
  151.1191  136.1788  156.4790 H   0  0  0  0  0  0  0  0  0  0  0  0
  150.6696  135.6130  154.8918 H   0  0  0  0  0  0  0  0  0  0  0  0
  149.7803  138.2274  156.2073 H   0  0  0  0  0  0  0  0  0  0  0  0
  151.9374  139.4804  156.9642 H   0  0  0  0  0  0  0  0  0  0  0  0
  152.7501  140.7407  156.0767 H   0  0  0  0  0  0  0  0  0  0  0  0
  150.3462  141.7711  155.7659 H   0  0  0  0  0  0  0  0  0  0  0  0
  149.8621  140.6765  157.0236 H   0  0  0  0  0  0  0  0  0  0  0  0
  151.0638  144.2484  156.7396 H   0  0  0  0  0  0  0  0  0  0  0  0
  152.7139  142.4563  161.3592 H   0  0  0  0  0  0  0  0  0  0  0  0
  151.8712  144.0184  161.3955 H   0  0  0  0  0  0  0  0  0  0  0  0
  153.5221  143.9120  160.7447 H   0  0  0  0  0  0  0  0  0  0  0  0
  151.7919  141.0035  159.4673 H   0  0  0  0  0  0  0  0  0  0  0  0
  149.1227  137.2170  153.5776 H   0  0  0  0  0  0  0  0  0  0  0  0
  1  2  1  0  0  0  0
  1 21  1  0  0  0  0
  1 22  1  0  0  0  0
  1 23  1  0  0  0  0
  2  3  1  0  0  0  0
  2  4  1  0  0  0  0
  2 24  1  0  0  0  0
  3 25  1  0  0  0  0
  3 26  1  0  0  0  0
  3 27  1  0  0  0  0
  4  9  1  0  0  0  0
  4  5  1  0  0  0  0
  4 46  1  0  0  0  0
  5  6  1  0  0  0  0
  5 28  1  0  0  0  0
  5 29  1  0  0  0  0
  6  7  1  0  0  0  0
  6 30  1  0  0  0  0
  6 31  1  0  0  0  0
  7  8  1  0  0  0  0
  7 32  1  0  0  0  0
  7 33  1  0  0  0  0
  8  9  1  0  0  0  0
  8 34  1  0  0  0  0
  8 35  1  0  0  0  0
  9 10  1  0  0  0  0
  9 36  1  0  0  0  0
 10 11  2  0  0  0  0
 10 12  1  0  0  0  0
 12 13  1  0  0  0  0
 13 14  1  0  0  0  0
 13 37  1  0  0  0  0
 13 38  1  0  0  0  0
 14 15  1  0  0  0  0
 14 39  1  0  0  0  0
 14 40  1  0  0  0  0
 15 20  2  0  0  0  0
 15 16  1  0  0  0  0
 16 17  2  0  0  0  0
 16 41  1  0  0  0  0
 17 18  1  0  0  0  0
 18 19  1  0  0  0  0
 18 20  1  0  0  0  0
 19 42  1  0  0  0  0
 19 43  1  0  0  0  0
 19 44  1  0  0  0  0
 20 45  1  0  0  0  0
M  CHG  1   4   1
M  CHG  1  12  -1
M  END
> <s_m_source_file>
AV-unprocessed.smi

> <i_m_source_file_index>
657

> <i_lp_mmshare_version>
43012

> <i_f3d_flags>
0

> <s_epik_input>
W0NIM11bQ0hdKFtDSDNdKU4xW0NIMl1bQ0gyXVtDSDJdW0NIMl1bQ0BIXTFDKD1PKVtOSF1bQ0gyXVtDSDJdYzJbY0hdbm4oW0NIM10pW2NIXTI=

> <s_epik_cmdline>
J2VwaWtfcHl0aG9uJywgJy1waCcsICc3LjAnLCAnLXRuJywgJzgnLCAnLW1hJywgJzIwMCcsICctbWV0YWxfYmluZGluZycsICctaW1hZScsICc8aW5maWxlLm1hZT4nLCAnLW9tYWUnLCAnPG91dGZpbGUubWFlPic=

> <r_lp_tautomer_probability>
1

> <r_epik_Ionization_Penalty>
6.1622

> <r_epik_Ionization_Penalty_Charging>
6.16146

> <r_epik_Ionization_Penalty_Neutral>
0.00073675

> <r_epik_State_Penalty>
6.18018

> <r_epik_Charging_Adjusted_Penalty>
12.3416

> <i_epik_Tot_Q>
0

> <i_epik_Tot_abs_Q>
2

> <r_epik_Metal_State_Penalty>
2.12232

> <b_epik_Metal_Only>
1

> <s_lp_Force_Field>
OPLS_2005

> <r_lp_Energy>
11.2403

> <b_lp_Chiralities_Consistent>
1

> <s_lp_Variant>
AV-unprocessed.smi:657-7

> <Gold.Version>
5.8.1

> <Gold.Id.Protein>
6NUR|6NUR_protein|mol2

> <Gold.PLP.Fitness>
46.4342

> <Gold.PLP.PLP>
-35.0303

> <Gold.PLP.part.hbond>
-3.0000

> <Gold.PLP.part.metal>
0.0000

> <Gold.PLP.part.buried>
-5.3455

> <Gold.PLP.part.nonpolar>
-27.8266

> <Gold.PLP.part.repulsive>
0.2690

> <Gold.PLP.ligand.clash>
0.0000

> <Gold.PLP.ligand.torsion>
1.7058

> <Gold.PLP.Chemscore.Hbond>
3.8640

> <Gold.PLP.Chemscore.CHOScore>
1.0000

> <Gold.PLP.Chemscore.Metal>
0.0000

> <Gold.Chemscore.Hbonds>
donor molecule, donor type, donor heavy atom, donor atom, acceptor molecule, acceptor atom, score
      L1  H     4    46       P1  7948  2.00
      P1  H  7989  7998       L1    12  1.00
      P1  H 10752 10763       L1    11  0.86
      L1  C    16    41       P1  8028  1.00

> <Gold.PLP.Chemscore.Internal.Correction>
0.2235

> <Gold.Rescore>
     Score         DG    S(hbond)    S(metal)    S(lipo)     H(rot)  DE(clash)    DE(int)     intcor
     17.97     -19.77       2.59        0.00      82.75       1.57       0.06       1.74       ----

> <Gold.Chemscore.Fitness>
17.9733

> <Gold.Chemscore.DG>
-19.7709

> <Gold.Chemscore.ZeroCoef>
-5.4800

> <Gold.Chemscore.Hbond>
2.5863

> <Gold.Chemscore.Metal>
0.0000

> <Gold.Chemscore.Lipo>
82.7533

> <Gold.Chemscore.Internal_Hbond>
0.0000

> <Gold.Chemscore.DEClash>
0.0624

> <Gold.Chemscore.DEInternal>
1.7352

> <Gold.Chemscore.Rot>
1.5741

> <Gold.Chemscore.Internal.Correction>
   9.000000E+99

> <Gold.Chemscore.Hbonds>
donor molecule, donor type, donor heavy atom, donor atom, acceptor molecule, acceptor atom, score
      L1  H     4    46       P1  7948  0.98
      P1  H  7989  7998       L1    12  0.69
      P1  H 10752 10763       L1    11  0.82

> <Gold.Chemscore.Hbond.Weighted>
-8.6384

> <Gold.Chemscore.Metal.Weighted>
-0.0000

> <Gold.Chemscore.Lipo.Weighted>
-9.6821

> <Gold.Chemscore.Internal_Hbond.Weighted>
0.0000

> <Gold.Chemscore.DEClash.Weighted>
0.0624

> <Gold.Chemscore.DEInternal.Weighted>
1.7352

> <Gold.Chemscore.Rot.Weighted>
4.0297

> <Gold.Chemscore.Internal.Correction.Weighted>
   9.000000E+99

> <Gold.Protein.RotatedTorsions>
[ 6907 6896 6895 6894 ] final  127.51 input  -60.11 | X-H torsion
[ 7974 7965 7964 7962 ] final -118.22 input  175.53 | X-H torsion
[ 8008 7997 7996 7995 ] final -127.62 input   59.86 | X-H torsion
[ 10167 10162 10161 10158 ] final   -1.68 input  -65.29 | X-H torsion
[ 10718 10713 10712 10709 ] final    4.17 input   66.30 | X-H torsion
[ 10763 10752 10751 10750 ] final   30.12 input  -60.55 | X-H torsion
[ 11005 11000 10999 10996 ] final   29.91 input  -57.11 | X-H torsion

> <Gold.Protein.ActiveResidues>
 VAL166  LYS551  ARG553  GLY616  TRP617  ASP618  TYR619  PRO620  LYS621  CYS622 
 ASP623  PHE694  ASN695  SER759  ASP760  ASP761  ALA762  ILE779  LEU786  VAL792 
 PHE793  MET794  SER795  GLU796  ALA797  LYS798  CYS799  TRP800  GLU811  SER814 

> <Gold.Protein.RotatedAtoms>
  152.3806  133.6541  159.6157 H   0  0  0  0  0  0  0  0  0  0  0  0  # atno 6907 bound_to 6896
  150.7738  133.9120  159.3381 H   0  0  0  0  0  0  0  0  0  0  0  0  # atno 6908 bound_to 6896
  151.6927  135.0945  160.0288 H   0  0  0  0  0  0  0  0  0  0  0  0  # atno 6909 bound_to 6896
  145.0763  140.8395  143.4065 H   0  0  0  0  0  0  0  0  0  0  0  0  # atno 7974 bound_to 7965
  155.2492  140.0431  157.2984 H   0  0  0  0  0  0  0  0  0  0  0  0  # atno 8008 bound_to 7997
  154.5779  140.2392  155.8065 H   0  0  0  0  0  0  0  0  0  0  0  0  # atno 8009 bound_to 7997
  156.2172  140.2981  155.9874 H   0  0  0  0  0  0  0  0  0  0  0  0  # atno 8010 bound_to 7997
  140.6820  143.6746  150.8156 H   0  0  0  0  0  0  0  0  0  0  0  0  # atno 10167 bound_to 10162
  156.8886  130.5679  149.5650 H   0  0  0  0  0  0  0  0  0  0  0  0  # atno 10718 bound_to 10713
  153.0390  135.6472  154.0996 H   0  0  0  0  0  0  0  0  0  0  0  0  # atno 10763 bound_to 10752
  154.0706  135.2881  155.3310 H   0  0  0  0  0  0  0  0  0  0  0  0  # atno 10764 bound_to 10752
  154.6597  135.5396  153.8067 H   0  0  0  0  0  0  0  0  0  0  0  0  # atno 10765 bound_to 10752
  140.3000  134.2768  155.7756 H   0  0  0  0  0  0  0  0  0  0  0  0  # atno 11005 bound_to 11000
  145.1231  139.2680  143.5578 LP  0  0  0  0  0  0  0  0  0  0  0  0  # atno 17320 bound_to 7965
  146.3530  140.0861  142.8615 LP  0  0  0  0  0  0  0  0  0  0  0  0  # atno 17321 bound_to 7965
  140.0448  143.5309  152.2701 LP  0  0  0  0  0  0  0  0  0  0  0  0  # atno 17342 bound_to 10162
  139.6150  144.7617  151.2867 LP  0  0  0  0  0  0  0  0  0  0  0  0  # atno 17343 bound_to 10162
  156.0640  130.5687  150.9251 LP  0  0  0  0  0  0  0  0  0  0  0  0  # atno 17370 bound_to 10713
  157.6097  131.0937  150.8816 LP  0  0  0  0  0  0  0  0  0  0  0  0  # atno 17371 bound_to 10713
  141.2130  133.7640  156.9752 LP  0  0  0  0  0  0  0  0  0  0  0  0  # atno 17394 bound_to 11000
  140.1118  134.9472  157.2077 LP  0  0  0  0  0  0  0  0  0  0  0  0  # atno 17395 bound_to 11000

$$$$
