AV-unprocessed.smi:3287|AV-procd|sdf|12591|dock4
  -GOLD-   2272018513D 1   1.00000     0.00000
 Structure written by MMmdl.
 43 44  0  0  0  0  0  0  0  0  2 V2000
  146.3500  132.1339  150.1494 C   0  0  0  0  0  0  0  0  0  0  0  0
  145.0969  132.4648  150.9850 C   0  0  1  0  0  0  0  0  0  0  0  0
  145.4670  133.1294  152.3267 C   0  0  0  0  0  0  0  0  0  0  0  0
  145.9389  134.5824  152.1486 C   0  0  0  0  0  0  0  0  0  0  0  0
  144.8884  135.4318  151.4110 C   0  0  1  0  0  0  0  0  0  0  0  0
  145.3946  136.8103  151.2313 N   0  3  0  0  0  0  0  0  0  0  0  0
  145.7707  137.5125  152.4775 C   0  0  0  0  0  0  0  0  0  0  0  0
  146.5522  138.8042  152.1818 C   0  0  2  0  0  0  0  0  0  0  0  0
  147.7383  138.4706  151.4865 O   0  0  0  0  0  0  0  0  0  0  0  0
  146.8438  139.5721  153.4617 C   0  0  0  0  0  0  0  0  0  0  0  0
  146.4994  139.0272  154.7165 C   0  0  0  0  0  0  0  0  0  0  0  0
  146.7954  139.7692  155.8778 C   0  0  0  0  0  0  0  0  0  0  0  0
  147.3952  140.9784  155.8523 N   0  0  0  0  0  0  0  0  0  0  0  0
  147.7253  141.4947  154.6493 C   0  0  0  0  0  0  0  0  0  0  0  0
  147.4749  140.8350  153.4296 C   0  0  0  0  0  0  0  0  0  0  0  0
  144.5188  134.7821  150.0605 C   0  0  0  0  0  0  0  0  0  0  0  0
  144.0449  133.3251  150.2391 C   0  0  1  0  0  0  0  0  0  0  0  0
  143.5862  132.7062  148.9084 C   0  0  0  0  0  0  0  0  0  0  0  0
  146.8614  133.0300  149.7996 H   0  0  0  0  0  0  0  0  0  0  0  0
  146.0998  131.5326  149.2754 H   0  0  0  0  0  0  0  0  0  0  0  0
  147.0656  131.5560  150.7351 H   0  0  0  0  0  0  0  0  0  0  0  0
  144.6279  131.5089  151.2240 H   0  0  0  0  0  0  0  0  0  0  0  0
  144.5964  133.1180  152.9839 H   0  0  0  0  0  0  0  0  0  0  0  0
  146.2353  132.5478  152.8375 H   0  0  0  0  0  0  0  0  0  0  0  0
  146.1453  135.0169  153.1275 H   0  0  0  0  0  0  0  0  0  0  0  0
  146.8837  134.5992  151.6037 H   0  0  0  0  0  0  0  0  0  0  0  0
  143.9976  135.4760  152.0396 H   0  0  0  0  0  0  0  0  0  0  0  0
  146.2284  136.7583  150.6631 H   0  0  0  0  0  0  0  0  0  0  0  0
  144.8671  137.7578  153.0361 H   0  0  0  0  0  0  0  0  0  0  0  0
  146.3659  136.8489  153.1067 H   0  0  0  0  0  0  0  0  0  0  0  0
  145.9595  139.4428  151.5249 H   0  0  0  0  0  0  0  0  0  0  0  0
  148.3581  139.1761  151.5963 H   0  0  0  0  0  0  0  0  0  0  0  0
  146.0195  138.0628  154.7939 H   0  0  0  0  0  0  0  0  0  0  0  0
  146.5447  139.3800  156.8535 H   0  0  0  0  0  0  0  0  0  0  0  0
  148.2054  142.4621  154.6579 H   0  0  0  0  0  0  0  0  0  0  0  0
  147.7634  141.2922  152.4944 H   0  0  0  0  0  0  0  0  0  0  0  0
  143.7262  135.3527  149.5764 H   0  0  0  0  0  0  0  0  0  0  0  0
  145.3738  134.8169  149.3839 H   0  0  0  0  0  0  0  0  0  0  0  0
  143.1602  133.3580  150.8772 H   0  0  0  0  0  0  0  0  0  0  0  0
  144.3835  132.7064  148.1651 H   0  0  0  0  0  0  0  0  0  0  0  0
  142.7497  133.2646  148.4872 H   0  0  0  0  0  0  0  0  0  0  0  0
  143.2553  131.6766  149.0466 H   0  0  0  0  0  0  0  0  0  0  0  0
  144.7036  137.3536  150.7341 H   0  0  0  0  0  0  0  0  0  0  0  0
  1  2  1  0  0  0  0
  1 19  1  0  0  0  0
  1 20  1  0  0  0  0
  1 21  1  0  0  0  0
  2 17  1  0  0  0  0
  2  3  1  0  0  0  0
  2 22  1  0  0  0  0
  3  4  1  0  0  0  0
  3 23  1  0  0  0  0
  3 24  1  0  0  0  0
  4  5  1  0  0  0  0
  4 25  1  0  0  0  0
  4 26  1  0  0  0  0
  5  6  1  0  0  0  0
  5 16  1  0  0  0  0
  5 27  1  0  0  0  0
  6  7  1  0  0  0  0
  6 28  1  0  0  0  0
  6 43  1  0  0  0  0
  7  8  1  0  0  0  0
  7 29  1  0  0  0  0
  7 30  1  0  0  0  0
  8  9  1  0  0  0  0
  8 10  1  0  0  0  0
  8 31  1  0  0  0  0
  9 32  1  0  0  0  0
 10 15  1  0  0  0  0
 10 11  2  0  0  0  0
 11 12  1  0  0  0  0
 11 33  1  0  0  0  0
 12 13  2  0  0  0  0
 12 34  1  0  0  0  0
 13 14  1  0  0  0  0
 14 15  2  0  0  0  0
 14 35  1  0  0  0  0
 15 36  1  0  0  0  0
 16 17  1  0  0  0  0
 16 37  1  0  0  0  0
 16 38  1  0  0  0  0
 17 18  1  0  0  0  0
 17 39  1  0  0  0  0
 18 40  1  0  0  0  0
 18 41  1  0  0  0  0
 18 42  1  0  0  0  0
M  CHG  1   6   1
M  END
> <s_m_source_file>
AV-unprocessed.smi

> <i_m_source_file_index>
3287

> <i_lp_mmshare_version>
43012

> <i_f3d_flags>
0

> <s_epik_input>
W0NIM11bQ0BASF0xW0NIMl1bQ0gyXVtDQEhdKFtDSDJdW0NASF0xW0NIM10pW05IXVtDSDJdW0NASF0oW09IXSljMltjSF1bY0hdbltjSF1bY0hdMg==

> <s_epik_cmdline>
J2VwaWtfcHl0aG9uJywgJy1waCcsICc3LjAnLCAnLXRuJywgJzgnLCAnLW1hJywgJzIwMCcsICctbWV0YWxfYmluZGluZycsICctaW1hZScsICc8aW5maWxlLm1hZT4nLCAnLW9tYWUnLCAnPG91dGZpbGUubWFlPic=

> <r_lp_tautomer_probability>
1

> <r_epik_Ionization_Penalty>
0.00537262

> <r_epik_Ionization_Penalty_Charging>
0.00321624

> <r_epik_Ionization_Penalty_Neutral>
0.00215638

> <r_epik_State_Penalty>
-0

> <r_epik_Charging_Adjusted_Penalty>
0.00321624

> <i_epik_Tot_Q>
1

> <i_epik_Tot_abs_Q>
1

> <r_epik_Metal_State_Penalty>
-0

> <b_epik_Metal_Only>
0

> <s_lp_Force_Field>
OPLS_2005

> <r_lp_Energy>
17.4427

> <b_lp_Chiralities_Consistent>
1

> <s_lp_Variant>
AV-unprocessed.smi:3287-2

> <Gold.Version>
5.8.1

> <Gold.Id.Protein>
6NUR|6NUR_protein|mol2

> <Gold.PLP.Fitness>
45.6307

> <Gold.PLP.PLP>
-33.8149

> <Gold.PLP.part.hbond>
-3.6736

> <Gold.PLP.part.metal>
0.0000

> <Gold.PLP.part.buried>
1.0733

> <Gold.PLP.part.nonpolar>
-31.4568

> <Gold.PLP.part.repulsive>
0.1094

> <Gold.PLP.ligand.clash>
0.0000

> <Gold.PLP.ligand.torsion>
0.0704

> <Gold.PLP.Chemscore.Hbond>
2.9760

> <Gold.PLP.Chemscore.CHOScore>
0.9947

> <Gold.PLP.Chemscore.Metal>
0.0000

> <Gold.Chemscore.Hbonds>
donor molecule, donor type, donor heavy atom, donor atom, acceptor molecule, acceptor atom, score
      L1  H     6    43       P1 10171  1.00
      L1  H     9    32       P1  7957  1.00
      P1  H  7954  7966       L1     9  0.96
      L1  C    14    35       P1  8028  0.98

> <Gold.PLP.Chemscore.Internal.Correction>
0.0443

> <Gold.Rescore>
     Score         DG    S(hbond)    S(metal)    S(lipo)     H(rot)  DE(clash)    DE(int)     intcor
     18.51     -20.54       2.28        0.00     105.35       1.90       1.87       0.16       ----

> <Gold.Chemscore.Fitness>
18.5149

> <Gold.Chemscore.DG>
-20.5383

> <Gold.Chemscore.ZeroCoef>
-5.4800

> <Gold.Chemscore.Hbond>
2.2770

> <Gold.Chemscore.Metal>
0.0000

> <Gold.Chemscore.Lipo>
105.3493

> <Gold.Chemscore.Internal_Hbond>
0.0000

> <Gold.Chemscore.DEClash>
1.8656

> <Gold.Chemscore.DEInternal>
0.1577

> <Gold.Chemscore.Rot>
1.9035

> <Gold.Chemscore.Internal.Correction>
   9.000000E+99

> <Gold.Chemscore.Hbonds>
donor molecule, donor type, donor heavy atom, donor atom, acceptor molecule, acceptor atom, score
      L1  H     6    43       P1 10171  1.00
      L1  H     9    32       P1  7957  0.82
      P1  H  7954  7966       L1     9  0.28

> <Gold.Chemscore.Hbond.Weighted>
-7.6053

> <Gold.Chemscore.Metal.Weighted>
-0.0000

> <Gold.Chemscore.Lipo.Weighted>
-12.3259

> <Gold.Chemscore.Internal_Hbond.Weighted>
0.0000

> <Gold.Chemscore.DEClash.Weighted>
1.8656

> <Gold.Chemscore.DEInternal.Weighted>
0.1577

> <Gold.Chemscore.Rot.Weighted>
4.8729

> <Gold.Chemscore.Internal.Correction.Weighted>
   9.000000E+99

> <Gold.Protein.RotatedTorsions>
[ 6907 6896 6895 6894 ] final    1.08 input  -60.11 | X-H torsion
[ 7974 7965 7964 7962 ] final   26.69 input  175.53 | X-H torsion
[ 8008 7997 7996 7995 ] final   77.14 input   59.86 | X-H torsion
[ 10167 10162 10161 10158 ] final  -69.59 input  -65.29 | X-H torsion
[ 10718 10713 10712 10709 ] final  147.18 input   66.30 | X-H torsion
[ 10763 10752 10751 10750 ] final -169.30 input  -60.55 | X-H torsion
[ 11005 11000 10999 10996 ] final  -39.57 input  -57.11 | X-H torsion

> <Gold.Protein.ActiveResidues>
 VAL166  LYS551  ARG553  GLY616  TRP617  ASP618  TYR619  PRO620  LYS621  CYS622 
 ASP623  PHE694  ASN695  SER759  ASP760  ASP761  ALA762  ILE779  LEU786  VAL792 
 PHE793  MET794  SER795  GLU796  ALA797  LYS798  CYS799  TRP800  GLU811  SER814 

> <Gold.Protein.RotatedAtoms>
  151.5868  135.1055  160.0029 H   0  0  0  0  0  0  0  0  0  0  0  0  # atno 6907 bound_to 6896
  152.4326  133.7301  159.6593 H   0  0  0  0  0  0  0  0  0  0  0  0  # atno 6908 bound_to 6896
  150.8220  133.8165  159.3157 H   0  0  0  0  0  0  0  0  0  0  0  0  # atno 6909 bound_to 6896
  146.1824  139.7293  142.8891 H   0  0  0  0  0  0  0  0  0  0  0  0  # atno 7974 bound_to 7965
  155.8374  140.3463  155.5610 H   0  0  0  0  0  0  0  0  0  0  0  0  # atno 8008 bound_to 7997
  155.8177  140.0908  157.1887 H   0  0  0  0  0  0  0  0  0  0  0  0  # atno 8009 bound_to 7997
  154.4004  140.1436  156.3450 H   0  0  0  0  0  0  0  0  0  0  0  0  # atno 8010 bound_to 7997
  140.5418  143.2314  151.7075 H   0  0  0  0  0  0  0  0  0  0  0  0  # atno 10167 bound_to 10162
  157.3242  131.0909  151.1216 H   0  0  0  0  0  0  0  0  0  0  0  0  # atno 10718 bound_to 10713
  154.6537  135.2915  154.9955 H   0  0  0  0  0  0  0  0  0  0  0  0  # atno 10763 bound_to 10752
  154.1039  135.6572  153.4877 H   0  0  0  0  0  0  0  0  0  0  0  0  # atno 10764 bound_to 10752
  153.0390  135.5249  154.7456 H   0  0  0  0  0  0  0  0  0  0  0  0  # atno 10765 bound_to 10752
  141.0111  133.6907  156.2204 H   0  0  0  0  0  0  0  0  0  0  0  0  # atno 11005 bound_to 11000
  145.4038  141.0388  143.3056 LP  0  0  0  0  0  0  0  0  0  0  0  0  # atno 17320 bound_to 7965
  144.8338  139.5584  143.6932 LP  0  0  0  0  0  0  0  0  0  0  0  0  # atno 17321 bound_to 7965
  139.4992  144.3956  152.0234 LP  0  0  0  0  0  0  0  0  0  0  0  0  # atno 17342 bound_to 10162
  140.3066  144.3586  150.6045 LP  0  0  0  0  0  0  0  0  0  0  0  0  # atno 17343 bound_to 10162
  157.2489  130.6605  149.5922 LP  0  0  0  0  0  0  0  0  0  0  0  0  # atno 17370 bound_to 10713
  155.9689  130.4544  150.5850 LP  0  0  0  0  0  0  0  0  0  0  0  0  # atno 17371 bound_to 10713
  140.6731  134.4846  157.5587 LP  0  0  0  0  0  0  0  0  0  0  0  0  # atno 17394 bound_to 11000
  139.9090  134.8385  156.1596 LP  0  0  0  0  0  0  0  0  0  0  0  0  # atno 17395 bound_to 11000

$$$$
