AV-unprocessed.smi:3256|AV-procd|sdf|12466|dock1
  -GOLD-   2272018363D 1   1.00000     0.00000
 Structure written by MMmdl.
 37 38  0  0  0  0  0  0  0  0  2 V2000
  150.3880  140.5636  156.2858 O   0  0  0  0  0  0  0  0  0  0  0  0
  150.0082  141.7115  156.0563 C   0  0  0  0  0  0  0  0  0  0  0  0
  149.1566  142.0188  155.0676 N   0  0  0  0  0  0  0  0  0  0  0  0
  148.5881  141.0587  154.1282 C   0  0  0  0  0  0  0  0  0  0  0  0
  147.0837  141.3055  153.9038 C   0  0  0  0  0  0  0  0  0  0  0  0
  146.3467  140.0578  153.5834 N   0  3  0  0  0  0  0  0  0  0  0  0
  146.9521  139.3208  152.4481 C   0  0  0  0  0  0  0  0  0  0  0  0
  146.1271  138.0655  152.1176 C   0  0  0  0  0  0  0  0  0  0  0  0
  146.0302  137.2415  153.2724 O   0  0  0  0  0  0  0  0  0  0  0  0
  145.3702  137.9041  154.3434 C   0  0  0  0  0  0  0  0  0  0  0  0
  146.1676  139.1558  154.7485 C   0  0  0  0  0  0  0  0  0  0  0  0
  150.3620  142.8066  156.7509 N   0  0  0  0  0  0  0  0  0  0  0  0
  151.2417  142.9148  157.8629 C   0  0  0  0  0  0  0  0  0  0  0  0
  151.5541  141.8543  158.7486 C   0  0  0  0  0  0  0  0  0  0  0  0
  152.4548  142.0933  159.8044 C   0  0  0  0  0  0  0  0  0  0  0  0
  153.0157  143.3785  159.9335 C   0  0  0  0  0  0  0  0  0  0  0  0
  152.7369  144.3948  159.0907 N   0  0  0  0  0  0  0  0  0  0  0  0
  151.8726  144.1584  158.0810 C   0  0  0  0  0  0  0  0  0  0  0  0
  148.8914  142.9859  154.9500 H   0  0  0  0  0  0  0  0  0  0  0  0
  149.1406  141.1562  153.1945 H   0  0  0  0  0  0  0  0  0  0  0  0
  148.7600  140.0422  154.4867 H   0  0  0  0  0  0  0  0  0  0  0  0
  146.6635  141.7332  154.8152 H   0  0  0  0  0  0  0  0  0  0  0  0
  146.9244  142.0439  153.1164 H   0  0  0  0  0  0  0  0  0  0  0  0
  147.0013  139.9660  151.5701 H   0  0  0  0  0  0  0  0  0  0  0  0
  147.9766  139.0402  152.6981 H   0  0  0  0  0  0  0  0  0  0  0  0
  145.1310  138.3353  151.7628 H   0  0  0  0  0  0  0  0  0  0  0  0
  146.6068  137.4997  151.3188 H   0  0  0  0  0  0  0  0  0  0  0  0
  144.3519  138.1677  154.0528 H   0  0  0  0  0  0  0  0  0  0  0  0
  145.2925  137.2189  155.1877 H   0  0  0  0  0  0  0  0  0  0  0  0
  147.1436  138.8632  155.1392 H   0  0  0  0  0  0  0  0  0  0  0  0
  145.6419  139.6691  155.5528 H   0  0  0  0  0  0  0  0  0  0  0  0
  149.9132  143.6681  156.4761 H   0  0  0  0  0  0  0  0  0  0  0  0
  151.1374  140.8658  158.6382 H   0  0  0  0  0  0  0  0  0  0  0  0
  152.7133  141.3067  160.4977 H   0  0  0  0  0  0  0  0  0  0  0  0
  153.7102  143.5941  160.7318 H   0  0  0  0  0  0  0  0  0  0  0  0
  151.6755  144.9944  157.4257 H   0  0  0  0  0  0  0  0  0  0  0  0
  145.4250  140.3369  153.2782 H   0  0  0  0  0  0  0  0  0  0  0  0
  1  2  2  0  0  0  0
  2  3  1  0  0  0  0
  2 12  1  0  0  0  0
  3  4  1  0  0  0  0
  3 19  1  0  0  0  0
  4  5  1  0  0  0  0
  4 20  1  0  0  0  0
  4 21  1  0  0  0  0
  5  6  1  0  0  0  0
  5 22  1  0  0  0  0
  5 23  1  0  0  0  0
  6 11  1  0  0  0  0
  6  7  1  0  0  0  0
  6 37  1  0  0  0  0
  7  8  1  0  0  0  0
  7 24  1  0  0  0  0
  7 25  1  0  0  0  0
  8  9  1  0  0  0  0
  8 26  1  0  0  0  0
  8 27  1  0  0  0  0
  9 10  1  0  0  0  0
 10 11  1  0  0  0  0
 10 28  1  0  0  0  0
 10 29  1  0  0  0  0
 11 30  1  0  0  0  0
 11 31  1  0  0  0  0
 12 13  1  0  0  0  0
 12 32  1  0  0  0  0
 13 18  1  0  0  0  0
 13 14  2  0  0  0  0
 14 15  1  0  0  0  0
 14 33  1  0  0  0  0
 15 16  2  0  0  0  0
 15 34  1  0  0  0  0
 16 17  1  0  0  0  0
 16 35  1  0  0  0  0
 17 18  2  0  0  0  0
 18 36  1  0  0  0  0
M  CHG  1   6   1
M  END
> <s_m_source_file>
AV-unprocessed.smi

> <i_m_source_file_index>
3256

> <i_lp_mmshare_version>
43012

> <i_f3d_flags>
0

> <s_epik_input>
W2NIXTFuW2NIXVtjSF1bY0hdYzFbTkhdQyg9TylbTkhdW0NIMl1bQ0gyXU4yW0NIMl1bQ0gyXU9bQ0gyXVtDSDJdMg==

> <s_epik_cmdline>
J2VwaWtfcHl0aG9uJywgJy1waCcsICc3LjAnLCAnLXRuJywgJzgnLCAnLW1hJywgJzIwMCcsICctbWV0YWxfYmluZGluZycsICctaW1hZScsICc8aW5maWxlLm1hZT4nLCAnLW9tYWUnLCAnPG91dGZpbGUubWFlPic=

> <r_epik_Ionization_Penalty>
0.606681

> <r_epik_Ionization_Penalty_Charging>
0.602531

> <r_epik_Ionization_Penalty_Neutral>
0.00415076

> <r_epik_State_Penalty>
0.607427

> <r_epik_Charging_Adjusted_Penalty>
1.20996

> <i_epik_Tot_Q>
1

> <i_epik_Tot_abs_Q>
1

> <r_epik_Metal_State_Penalty>
0.604583

> <b_epik_Metal_Only>
0

> <s_lp_Force_Field>
OPLS_2005

> <r_lp_Energy>
17.8709

> <b_lp_Chiralities_Consistent>
1

> <s_lp_Variant>
AV-unprocessed.smi:3256-2

> <Gold.Version>
5.8.1

> <Gold.Id.Protein>
6NUR|6NUR_protein|mol2

> <Gold.PLP.Fitness>
47.1790

> <Gold.PLP.PLP>
-36.1361

> <Gold.PLP.part.hbond>
-3.0000

> <Gold.PLP.part.metal>
0.0000

> <Gold.PLP.part.buried>
-2.3923

> <Gold.PLP.part.nonpolar>
-31.1442

> <Gold.PLP.part.repulsive>
0.4679

> <Gold.PLP.ligand.clash>
0.0000

> <Gold.PLP.ligand.torsion>
0.4758

> <Gold.PLP.Chemscore.Hbond>
3.9920

> <Gold.PLP.Chemscore.CHOScore>
0.0000

> <Gold.PLP.Chemscore.Metal>
0.0000

> <Gold.Chemscore.Hbonds>
donor molecule, donor type, donor heavy atom, donor atom, acceptor molecule, acceptor atom, score
      L1  H     3    19       P1  8028  0.98
      L1  H     6    37       P1 10175  2.00
      L1  H    12    32       P1  8028  1.00

> <Gold.PLP.Chemscore.Internal.Correction>
0.0184

> <Gold.Rescore>
     Score         DG    S(hbond)    S(metal)    S(lipo)     H(rot)  DE(clash)    DE(int)     intcor
     20.16     -21.62       2.90        0.00      88.88       1.54       0.06       1.40       ----

> <Gold.Chemscore.Fitness>
20.1595

> <Gold.Chemscore.DG>
-21.6229

> <Gold.Chemscore.ZeroCoef>
-5.4800

> <Gold.Chemscore.Hbond>
2.9038

> <Gold.Chemscore.Metal>
0.0000

> <Gold.Chemscore.Lipo>
88.8750

> <Gold.Chemscore.Internal_Hbond>
0.0000

> <Gold.Chemscore.DEClash>
0.0603

> <Gold.Chemscore.DEInternal>
1.4031

> <Gold.Chemscore.Rot>
1.5445

> <Gold.Chemscore.Internal.Correction>
   9.000000E+99

> <Gold.Chemscore.Hbonds>
donor molecule, donor type, donor heavy atom, donor atom, acceptor molecule, acceptor atom, score
      L1  H     3    19       P1  8028  0.93
      L1  H     6    37       P1 10175  0.98
      L1  H    12    32       P1  8028  1.00

> <Gold.Chemscore.Hbond.Weighted>
-9.6986

> <Gold.Chemscore.Metal.Weighted>
-0.0000

> <Gold.Chemscore.Lipo.Weighted>
-10.3984

> <Gold.Chemscore.Internal_Hbond.Weighted>
0.0000

> <Gold.Chemscore.DEClash.Weighted>
0.0603

> <Gold.Chemscore.DEInternal.Weighted>
1.4031

> <Gold.Chemscore.Rot.Weighted>
3.9540

> <Gold.Chemscore.Internal.Correction.Weighted>
   9.000000E+99

> <Gold.Protein.RotatedTorsions>
[ 6907 6896 6895 6894 ] final  -41.02 input  -60.11 | X-H torsion
[ 7974 7965 7964 7962 ] final   14.69 input  175.53 | X-H torsion
[ 8008 7997 7996 7995 ] final  156.03 input   59.86 | X-H torsion
[ 10167 10162 10161 10158 ] final -174.80 input  -65.29 | X-H torsion
[ 10718 10713 10712 10709 ] final  -54.99 input   66.30 | X-H torsion
[ 10763 10752 10751 10750 ] final   76.66 input  -60.55 | X-H torsion
[ 11005 11000 10999 10996 ] final -131.79 input  -57.11 | X-H torsion

> <Gold.Protein.ActiveResidues>
 VAL166  LYS551  ARG553  GLY616  TRP617  ASP618  TYR619  PRO620  LYS621  CYS622 
 ASP623  PHE694  ASN695  SER759  ASP760  ASP761  ALA762  ILE779  LEU786  VAL792 
 PHE793  MET794  SER795  GLU796  ALA797  LYS798  CYS799  TRP800  GLU811  SER814 

> <Gold.Protein.RotatedAtoms>
  150.9716  134.9088  159.7790 H   0  0  0  0  0  0  0  0  0  0  0  0  # atno 6907 bound_to 6896
  152.5192  134.3533  159.9269 H   0  0  0  0  0  0  0  0  0  0  0  0  # atno 6908 bound_to 6896
  151.3542  133.3873  159.2718 H   0  0  0  0  0  0  0  0  0  0  0  0  # atno 6909 bound_to 6896
  146.2298  139.9005  142.8540 H   0  0  0  0  0  0  0  0  0  0  0  0  # atno 7974 bound_to 7965
  156.2445  140.1923  156.6893 H   0  0  0  0  0  0  0  0  0  0  0  0  # atno 8008 bound_to 7997
  154.6264  140.0601  156.9704 H   0  0  0  0  0  0  0  0  0  0  0  0  # atno 8009 bound_to 7997
  155.1780  140.3274  155.4383 H   0  0  0  0  0  0  0  0  0  0  0  0  # atno 8010 bound_to 7997
  139.5614  144.1860  152.1245 H   0  0  0  0  0  0  0  0  0  0  0  0  # atno 10167 bound_to 10162
  156.1405  130.4155  150.0111 H   0  0  0  0  0  0  0  0  0  0  0  0  # atno 10718 bound_to 10713
  153.0742  135.4943  154.8369 H   0  0  0  0  0  0  0  0  0  0  0  0  # atno 10763 bound_to 10752
  154.7064  135.3011  154.9266 H   0  0  0  0  0  0  0  0  0  0  0  0  # atno 10764 bound_to 10752
  153.9973  135.6770  153.4810 H   0  0  0  0  0  0  0  0  0  0  0  0  # atno 10765 bound_to 10752
  140.9228  134.1422  157.4300 H   0  0  0  0  0  0  0  0  0  0  0  0  # atno 11005 bound_to 11000
  145.2328  140.9980  143.3980 LP  0  0  0  0  0  0  0  0  0  0  0  0  # atno 17320 bound_to 7965
  144.9516  139.4077  143.6400 LP  0  0  0  0  0  0  0  0  0  0  0  0  # atno 17321 bound_to 7965
  140.1374  144.5233  150.6765 LP  0  0  0  0  0  0  0  0  0  0  0  0  # atno 17342 bound_to 10162
  140.6894  143.2368  151.5172 LP  0  0  0  0  0  0  0  0  0  0  0  0  # atno 17343 bound_to 10162
  156.7998  130.9286  151.3646 LP  0  0  0  0  0  0  0  0  0  0  0  0  # atno 17370 bound_to 10713
  157.6571  130.8934  149.9752 LP  0  0  0  0  0  0  0  0  0  0  0  0  # atno 17371 bound_to 10713
  139.8779  134.9977  156.5863 LP  0  0  0  0  0  0  0  0  0  0  0  0  # atno 17394 bound_to 11000
  140.7966  133.8539  155.8690 LP  0  0  0  0  0  0  0  0  0  0  0  0  # atno 17395 bound_to 11000

$$$$
