AV-unprocessed.smi:1376|AV-procd|sdf|5593|dock5
  -GOLD-   22720 5193D 1   1.00000     0.00000
 Structure written by MMmdl.
 42 43  0  0  0  0  0  0  0  0  1 V2000
  151.2327  141.2075  157.1506 O   0  0  0  0  0  0  0  0  0  0  0  0
  150.7472  142.3195  156.9361 C   0  0  0  0  0  0  0  0  0  0  0  0
  151.4539  143.5999  157.4050 C   0  0  0  0  0  0  0  0  0  0  0  0
  151.7015  143.6407  158.8561 N   0  0  0  0  0  0  0  0  0  0  0  0
  152.4032  142.5532  159.4140 C   0  0  0  0  0  0  0  0  0  0  0  0
  152.6778  142.4829  160.7261 C   0  0  0  0  0  0  0  0  0  0  0  0
  152.2332  143.5628  161.5749 C   0  0  0  0  0  0  0  0  0  0  0  0
  151.5591  144.6065  161.0522 C   0  0  0  0  0  0  0  0  0  0  0  0
  151.2543  144.6861  159.6186 C   0  0  0  0  0  0  0  0  0  0  0  0
  150.6342  145.6328  159.1339 O   0  0  0  0  0  0  0  0  0  0  0  0
  149.5893  142.4997  156.2824 N   0  0  0  0  0  0  0  0  0  0  0  0
  148.7458  141.4318  155.7538 C   0  0  1  0  0  0  0  0  0  0  0  0
  147.5199  142.0394  155.0474 C   0  0  0  0  0  0  0  0  0  0  0  0
  146.6265  140.9490  154.4345 C   0  0  0  0  0  0  0  0  0  0  0  0
  147.4220  140.0334  153.4876 C   0  0  0  0  0  0  0  0  0  0  0  0
  148.6489  139.4186  154.1850 C   0  0  2  0  0  0  0  0  0  0  0  0
  148.1685  138.5246  155.1838 O   0  0  0  0  0  0  0  0  0  0  0  0
  149.1690  137.9299  155.9990 C   0  0  0  0  0  0  0  0  0  0  0  0
  148.6972  137.9409  157.4578 C   0  0  0  0  0  0  0  0  0  0  0  0
  147.5791  137.2240  157.5649 F   0  0  0  0  0  0  0  0  0  0  0  0
  149.6278  137.4037  158.2463 F   0  0  0  0  0  0  0  0  0  0  0  0
  148.4436  139.1891  157.8508 F   0  0  0  0  0  0  0  0  0  0  0  0
  149.5375  140.5307  154.7820 C   0  0  0  0  0  0  0  0  0  0  0  0
  152.3955  143.6926  156.8617 H   0  0  0  0  0  0  0  0  0  0  0  0
  150.8612  144.4621  157.0942 H   0  0  0  0  0  0  0  0  0  0  0  0
  152.6940  141.7850  158.7121 H   0  0  0  0  0  0  0  0  0  0  0  0
  153.2136  141.6396  161.1362 H   0  0  0  0  0  0  0  0  0  0  0  0
  152.4409  143.5330  162.6344 H   0  0  0  0  0  0  0  0  0  0  0  0
  151.2335  145.4047  161.7031 H   0  0  0  0  0  0  0  0  0  0  0  0
  149.2626  143.4459  156.1493 H   0  0  0  0  0  0  0  0  0  0  0  0
  148.3913  140.8263  156.5903 H   0  0  0  0  0  0  0  0  0  0  0  0
  146.9383  142.6349  155.7521 H   0  0  0  0  0  0  0  0  0  0  0  0
  147.8465  142.7221  154.2615 H   0  0  0  0  0  0  0  0  0  0  0  0
  146.1813  140.3529  155.2321 H   0  0  0  0  0  0  0  0  0  0  0  0
  145.7974  141.4085  153.8961 H   0  0  0  0  0  0  0  0  0  0  0  0
  146.7758  139.2434  153.1030 H   0  0  0  0  0  0  0  0  0  0  0  0
  147.7491  140.6098  152.6214 H   0  0  0  0  0  0  0  0  0  0  0  0
  149.2168  138.8532  153.4444 H   0  0  0  0  0  0  0  0  0  0  0  0
  149.3563  136.9041  155.6785 H   0  0  0  0  0  0  0  0  0  0  0  0
  150.1084  138.4766  155.9196 H   0  0  0  0  0  0  0  0  0  0  0  0
  149.9332  141.1406  153.9686 H   0  0  0  0  0  0  0  0  0  0  0  0
  150.4096  140.1033  155.2752 H   0  0  0  0  0  0  0  0  0  0  0  0
  1  2  2  0  0  0  0
  2  3  1  0  0  0  0
  2 11  1  0  0  0  0
  3  4  1  0  0  0  0
  3 24  1  0  0  0  0
  3 25  1  0  0  0  0
  4  9  1  0  0  0  0
  4  5  1  0  0  0  0
  5  6  2  0  0  0  0
  5 26  1  0  0  0  0
  6  7  1  0  0  0  0
  6 27  1  0  0  0  0
  7  8  2  0  0  0  0
  7 28  1  0  0  0  0
  8  9  1  0  0  0  0
  8 29  1  0  0  0  0
  9 10  2  0  0  0  0
 11 12  1  0  0  0  0
 11 30  1  0  0  0  0
 12 23  1  0  0  0  0
 12 13  1  0  0  0  0
 12 31  1  0  0  0  0
 13 14  1  0  0  0  0
 13 32  1  0  0  0  0
 13 33  1  0  0  0  0
 14 15  1  0  0  0  0
 14 34  1  0  0  0  0
 14 35  1  0  0  0  0
 15 16  1  0  0  0  0
 15 36  1  0  0  0  0
 15 37  1  0  0  0  0
 16 17  1  0  0  0  0
 16 23  1  0  0  0  0
 16 38  1  0  0  0  0
 17 18  1  0  0  0  0
 18 19  1  0  0  0  0
 18 39  1  0  0  0  0
 18 40  1  0  0  0  0
 19 20  1  0  0  0  0
 19 21  1  0  0  0  0
 19 22  1  0  0  0  0
 23 41  1  0  0  0  0
 23 42  1  0  0  0  0
M  END
> <s_m_source_file>
AV-unprocessed.smi

> <i_m_source_file_index>
1376

> <i_lp_mmshare_version>
43012

> <i_f3d_flags>
0

> <s_epik_input>
Tz1jMVtjSF1bY0hdW2NIXVtjSF1uMVtDSDJdQyg9TylbTkhdW0NAQEhdMltDSDJdW0NIMl1bQ0gyXVtDQEhdKFtDSDJdMilPW0NIMl1DKEYpKEYpRg==

> <s_epik_cmdline>
J2VwaWtfcHl0aG9uJywgJy1waCcsICc3LjAnLCAnLXRuJywgJzgnLCAnLW1hJywgJzIwMCcsICctbWV0YWxfYmluZGluZycsICctaW1hZScsICc8aW5maWxlLm1hZT4nLCAnLW9tYWUnLCAnPG91dGZpbGUubWFlPic=

> <r_lp_tautomer_probability>
1

> <r_epik_Ionization_Penalty>
4.08567e-07

> <r_epik_Ionization_Penalty_Charging>
3.90028e-07

> <r_epik_Ionization_Penalty_Neutral>
1.85393e-08

> <r_epik_State_Penalty>
-0

> <r_epik_Charging_Adjusted_Penalty>
3.90028e-07

> <i_epik_Tot_Q>
0

> <i_epik_Tot_abs_Q>
0

> <r_epik_Metal_State_Penalty>
-0

> <b_epik_Metal_Only>
0

> <s_lp_Force_Field>
OPLS_2005

> <r_lp_Energy>
20.214

> <b_lp_Chiralities_Consistent>
1

> <s_lp_Variant>
AV-unprocessed.smi:1376-4

> <Gold.Version>
5.8.1

> <Gold.Id.Protein>
6NUR|6NUR_protein|mol2

> <Gold.PLP.Fitness>
45.6710

> <Gold.PLP.PLP>
-43.3879

> <Gold.PLP.part.hbond>
-1.5934

> <Gold.PLP.part.metal>
0.0000

> <Gold.PLP.part.buried>
-3.6398

> <Gold.PLP.part.nonpolar>
-38.5122

> <Gold.PLP.part.repulsive>
0.3676

> <Gold.PLP.ligand.clash>
0.0000

> <Gold.PLP.ligand.torsion>
0.3603

> <Gold.PLP.Chemscore.Hbond>
0.9913

> <Gold.PLP.Chemscore.CHOScore>
0.0000

> <Gold.PLP.Chemscore.Metal>
0.0000

> <Gold.Chemscore.Hbonds>
donor molecule, donor type, donor heavy atom, donor atom, acceptor molecule, acceptor atom, score
      L1  H    11    30       P1  8028  0.71

> <Gold.PLP.Chemscore.Internal.Correction>
0.0299

> <Gold.Rescore>
     Score         DG    S(hbond)    S(metal)    S(lipo)     H(rot)  DE(clash)    DE(int)     intcor
     13.16     -14.66       1.00        0.00      97.72       2.18       0.32       1.18       ----

> <Gold.Chemscore.Fitness>
13.1581

> <Gold.Chemscore.DG>
-14.6606

> <Gold.Chemscore.ZeroCoef>
-5.4800

> <Gold.Chemscore.Hbond>
0.9963

> <Gold.Chemscore.Metal>
0.0000

> <Gold.Chemscore.Lipo>
97.7202

> <Gold.Chemscore.Internal_Hbond>
0.0000

> <Gold.Chemscore.DEClash>
0.3229

> <Gold.Chemscore.DEInternal>
1.1796

> <Gold.Chemscore.Rot>
2.1797

> <Gold.Chemscore.Internal.Correction>
   9.000000E+99

> <Gold.Chemscore.Hbonds>
donor molecule, donor type, donor heavy atom, donor atom, acceptor molecule, acceptor atom, score
      L1  H    11    30       P1  8028  0.71

> <Gold.Chemscore.Hbond.Weighted>
-3.3275

> <Gold.Chemscore.Metal.Weighted>
-0.0000

> <Gold.Chemscore.Lipo.Weighted>
-11.4333

> <Gold.Chemscore.Internal_Hbond.Weighted>
0.0000

> <Gold.Chemscore.DEClash.Weighted>
0.3229

> <Gold.Chemscore.DEInternal.Weighted>
1.1796

> <Gold.Chemscore.Rot.Weighted>
5.5802

> <Gold.Chemscore.Internal.Correction.Weighted>
   9.000000E+99

> <Gold.Protein.RotatedTorsions>
[ 6907 6896 6895 6894 ] final  140.90 input  -60.11 | X-H torsion
[ 7974 7965 7964 7962 ] final -125.80 input  175.53 | X-H torsion
[ 8008 7997 7996 7995 ] final    9.27 input   59.86 | X-H torsion
[ 10167 10162 10161 10158 ] final   52.78 input  -65.29 | X-H torsion
[ 10718 10713 10712 10709 ] final -161.36 input   66.30 | X-H torsion
[ 10763 10752 10751 10750 ] final   80.64 input  -60.55 | X-H torsion
[ 11005 11000 10999 10996 ] final  -46.97 input  -57.11 | X-H torsion

> <Gold.Protein.ActiveResidues>
 VAL166  LYS551  ARG553  GLY616  TRP617  ASP618  TYR619  PRO620  LYS621  CYS622 
 ASP623  PHE694  ASN695  SER759  ASP760  ASP761  ALA762  ILE779  LEU786  VAL792 
 PHE793  MET794  SER795  GLU796  ALA797  LYS798  CYS799  TRP800  GLU811  SER814 

> <Gold.Protein.RotatedAtoms>
  152.2375  133.5108  159.5250 H   0  0  0  0  0  0  0  0  0  0  0  0  # atno 6907 bound_to 6896
  150.7055  134.1133  159.4017 H   0  0  0  0  0  0  0  0  0  0  0  0  # atno 6908 bound_to 6896
  151.9055  135.0361  160.0560 H   0  0  0  0  0  0  0  0  0  0  0  0  # atno 6909 bound_to 6896
  144.9938  140.7757  143.4538 H   0  0  0  0  0  0  0  0  0  0  0  0  # atno 7974 bound_to 7965
  154.7778  140.2813  155.6087 H   0  0  0  0  0  0  0  0  0  0  0  0  # atno 8008 bound_to 7997
  156.2945  140.2629  156.2525 H   0  0  0  0  0  0  0  0  0  0  0  0  # atno 8009 bound_to 7997
  154.9821  140.0374  157.2272 H   0  0  0  0  0  0  0  0  0  0  0  0  # atno 8010 bound_to 7997
  140.2477  144.3513  150.6358 H   0  0  0  0  0  0  0  0  0  0  0  0  # atno 10167 bound_to 10162
  156.5952  130.8787  151.2900 H   0  0  0  0  0  0  0  0  0  0  0  0  # atno 10718 bound_to 10713
  153.1050  135.4795  154.8934 H   0  0  0  0  0  0  0  0  0  0  0  0  # atno 10763 bound_to 10752
  154.7420  135.3084  154.8714 H   0  0  0  0  0  0  0  0  0  0  0  0  # atno 10764 bound_to 10752
  153.9319  135.6843  153.4799 H   0  0  0  0  0  0  0  0  0  0  0  0  # atno 10765 bound_to 10752
  141.0611  133.6709  156.3230 H   0  0  0  0  0  0  0  0  0  0  0  0  # atno 11005 bound_to 11000
  145.2248  139.2142  143.5074 LP  0  0  0  0  0  0  0  0  0  0  0  0  # atno 17320 bound_to 7965
  146.3437  140.2114  142.8590 LP  0  0  0  0  0  0  0  0  0  0  0  0  # atno 17321 bound_to 7965
  140.6064  143.2168  151.6971 LP  0  0  0  0  0  0  0  0  0  0  0  0  # atno 17342 bound_to 10162
  139.5056  144.3711  152.0469 LP  0  0  0  0  0  0  0  0  0  0  0  0  # atno 17343 bound_to 10162
  157.7294  130.9670  150.1784 LP  0  0  0  0  0  0  0  0  0  0  0  0  # atno 17370 bound_to 10713
  156.2516  130.3701  149.8226 LP  0  0  0  0  0  0  0  0  0  0  0  0  # atno 17371 bound_to 10713
  140.5866  134.5693  157.5491 LP  0  0  0  0  0  0  0  0  0  0  0  0  # atno 17394 bound_to 11000
  139.9434  134.7746  156.0622 LP  0  0  0  0  0  0  0  0  0  0  0  0  # atno 17395 bound_to 11000

$$$$
