#       Name:                AV-unprocessed.smi:907
#       Creating user name   scv26
#       Creation time:       Fri Mar 27 02:00:18 2020


#       File generated by GOLD software.
#

@<TRIPOS>MOLECULE
AV-unprocessed.smi:907
    56    59     1
SMALL
NO_CHARGES


@<TRIPOS>ATOM
      1 ****         1.1884   1.2038  -2.6982 O.2            1 S1                 0.0000
      2 ****         0.7758   0.2044  -2.1086 C.2            1 S1                 0.0000
      3 ****         1.5770  -0.8318  -1.8136 N.am           1 S1                 0.0000
      4 ****         2.9972  -0.8992  -2.1298 C.3            1 S1                 0.0000
      5 ****         3.6355  -2.1373  -1.4844 C.3            1 S1                 0.0000
      6 ****         5.1124  -2.2596  -1.8092 C.ar           1 S1                 0.0000
      7 ****         5.5581  -3.1467  -2.8123 C.ar           1 S1                 0.0000
      8 ****         6.9390  -3.2185  -3.0792 C.ar           1 S1                 0.0000
      9 ****         7.8162  -2.4038  -2.3381 C.ar           1 S1                 0.0000
     10 ****         7.2710  -1.5498  -1.3584 C.ar           1 S1                 0.0000
     11 ****         5.9487  -1.4741  -1.0937 N.ar           1 S1                 0.0000
     12 ****        -0.5196   0.0445  -1.7374 N.am           1 S1                 0.0000
     13 ****        -1.0485  -0.9836  -0.8337 C.3            1 S1                 0.0000
     14 ****        -1.3960  -0.3376   0.5210 C.3            1 S1                 0.0000
     15 ****        -2.3283   0.8202   0.3749 N.4            1 S1                 1.0000
     16 ****        -2.6411   1.5250   1.6567 C.3            1 S1                 0.0000
     17 ****        -3.8618   2.4732   1.5137 C.3            1 S1                 0.0000
     18 ****        -4.8003   2.0328   2.6491 C.3            1 S1                 0.0000
     19 ****        -4.1892   2.4244   4.0046 C.3            1 S1                 0.0000
     20 ****        -3.0243   1.4294   4.1434 C.3            1 S1                 0.0000
     21 ****        -3.1019   0.6186   2.8342 C.3            1 S1                 0.0000
     22 ****        -4.6095   0.5222   2.6300 C.3            1 S1                 0.0000
     23 ****        -1.8760   1.7749  -0.6816 C.3            1 S1                 0.0000
     24 ****        -1.5381   1.0611  -2.0016 C.3            1 S1                 0.0000
     25 ****         1.1738  -1.6290  -1.3436 H              1 S1                 0.0000
     26 ****         3.1205  -0.9345  -3.2134 H              1 S1                 0.0000
     27 ****         3.4954   0.0051  -1.7761 H              1 S1                 0.0000
     28 ****         3.5148  -2.0985  -0.4006 H              1 S1                 0.0000
     29 ****         3.1207  -3.0395  -1.8177 H              1 S1                 0.0000
     30 ****         4.8601  -3.7571  -3.3662 H              1 S1                 0.0000
     31 ****         7.3179  -3.8863  -3.8388 H              1 S1                 0.0000
     32 ****         8.8810  -2.4321  -2.5160 H              1 S1                 0.0000
     33 ****         7.9139  -0.9104  -0.7719 H              1 S1                 0.0000
     34 ****        -1.9458  -1.4175  -1.2776 H              1 S1                 0.0000
     35 ****        -0.3733  -1.8248  -0.6756 H              1 S1                 0.0000
     36 ****        -1.8415  -1.1147   1.1383 H              1 S1                 0.0000
     37 ****        -0.4836  -0.0072   1.0202 H              1 S1                 0.0000
     38 ****        -1.7527   2.0842   1.9558 H              1 S1                 0.0000
     39 ****        -3.5821   3.5245   1.5901 H              1 S1                 0.0000
     40 ****        -4.3753   2.3370   0.5611 H              1 S1                 0.0000
     41 ****        -5.8296   2.3688   2.5199 H              1 S1                 0.0000
     42 ****        -3.8567   3.4631   4.0239 H              1 S1                 0.0000
     43 ****        -4.9091   2.2872   4.8125 H              1 S1                 0.0000
     44 ****        -2.0628   1.9275   4.2717 H              1 S1                 0.0000
     45 ****        -3.1789   0.7824   5.0080 H              1 S1                 0.0000
     46 ****        -2.5920  -0.3361   2.9396 H              1 S1                 0.0000
     47 ****        -5.1252   0.0113   3.4451 H              1 S1                 0.0000
     48 ****        -4.8904   0.0595   1.6823 H              1 S1                 0.0000
     49 ****        -2.6397   2.5270  -0.8761 H              1 S1                 0.0000
     50 ****        -0.9951   2.3124  -0.3262 H              1 S1                 0.0000
     51 ****        -1.2215   1.7896  -2.7496 H              1 S1                 0.0000
     52 ****        -2.4302   0.5864  -2.4128 H              1 S1                 0.0000
     53 ****        -3.1994   0.4285   0.0460 H              1 S1                 0.0000
     54 ****         2.1482   1.2615  -2.9731 LP             1 S1                 0.0000
     55 ****         0.5637   1.9576  -2.9020 LP             1 S1                 0.0000
     56 ****         5.5988  -0.8559  -0.3899 LP             1 S1                 0.0000
@<TRIPOS>BOND
    1    1    2 2     
    2    2    3 am    
    3    2   12 am    
    4    3    4 1     
    5    3   25 1     
    6    4    5 1     
    7    4   26 1     
    8    4   27 1     
    9    5    6 1     
   10    5   28 1     
   11    5   29 1     
   12    6   11 ar    
   13    6    7 ar    
   14    7    8 ar    
   15    7   30 1     
   16    8    9 ar    
   17    8   31 1     
   18    9   10 ar    
   19    9   32 1     
   20   10   11 ar    
   21   10   33 1     
   22   12   24 1     
   23   12   13 1     
   24   13   14 1     
   25   13   34 1     
   26   13   35 1     
   27   14   15 1     
   28   14   36 1     
   29   14   37 1     
   30   15   16 1     
   31   15   23 1     
   32   15   53 1     
   33   16   21 1     
   34   16   17 1     
   35   16   38 1     
   36   17   18 1     
   37   17   39 1     
   38   17   40 1     
   39   18   22 1     
   40   18   19 1     
   41   18   41 1     
   42   19   20 1     
   43   19   42 1     
   44   19   43 1     
   45   20   21 1     
   46   20   44 1     
   47   20   45 1     
   48   21   22 1     
   49   21   46 1     
   50   22   47 1     
   51   22   48 1     
   52   23   24 1     
   53   23   49 1     
   54   23   50 1     
   55   24   51 1     
   56   24   52 1     
   57    1   54 1     
   58    1   55 1     
   59   11   56 1     
@<TRIPOS>SUBSTRUCTURE
      1 S1             1
@<TRIPOS>SET
LONE_PAIRS      STATIC     ATOMS    <user>   **** ""
3 54 55 56
DONOR_HYDROGENS      STATIC     ATOMS    <user>   **** ""
2 25 53
ATOM$BLUE        STATIC     ATOMS    COLORGROUP SYSTEM
3 54 55 56
ATOM$RED        STATIC     ATOMS    COLORGROUP SYSTEM
2 25 53
