AV-unprocessed.smi:2455|AV-procd|sdf|9699|dock4
  -GOLD-   2272013333D 1   1.00000     0.00000
 Structure written by MMmdl.
 36 36  0  0  0  0  0  0  0  0  2 V2000
  144.3337  135.4261  159.4263 C   0  0  0  0  0  0  0  0  0  0  0  0
  145.6976  136.1358  159.5217 C   0  0  0  0  0  0  0  0  0  0  0  0
  146.8632  135.3146  160.1587 C   0  0  0  0  0  0  0  0  0  0  0  0
  146.4282  134.9261  161.6057 C   0  0  0  0  0  0  0  0  0  0  0  0
  147.4665  134.1788  162.4653 C   0  0  0  0  0  0  0  0  0  0  0  0
  147.1779  134.0426  159.3064 C   0  0  0  0  0  0  0  0  0  0  0  0
  147.8566  134.3445  158.0471 N   0  0  0  0  0  0  0  0  0  0  0  0
  148.5053  133.4660  157.2676 C   0  0  0  0  0  0  0  0  0  0  0  0
  148.6152  132.2688  157.5298 O   0  0  0  0  0  0  0  0  0  0  0  0
  149.1321  134.0279  155.9911 C   0  0  0  0  0  0  0  0  0  0  0  0
  148.4433  133.5374  154.8101 N   0  0  0  0  0  0  0  0  0  0  0  0
  147.8440  134.2642  153.8015 C   0  0  0  0  0  0  0  0  0  0  0  0
  147.3252  133.3708  152.9086 C   0  0  0  0  0  0  0  0  0  0  0  0
  147.6575  132.1046  153.4663 C   0  0  0  0  0  0  0  0  0  0  0  0
  148.3236  132.2075  154.6050 N   0  0  0  0  0  0  0  0  0  0  0  0
  148.1169  136.2287  160.2470 C   0  0  0  0  0  0  0  0  0  0  0  0
  149.1171  135.9481  159.5488 O   0  0  0  0  0  0  0  0  0  0  0  0
  148.0584  137.2053  161.0276 O   0  5  0  0  0  0  0  0  0  0  0  0
  143.6016  136.0739  158.9442 H   0  0  0  0  0  0  0  0  0  0  0  0
  143.9408  135.1732  160.4105 H   0  0  0  0  0  0  0  0  0  0  0  0
  144.3902  134.5092  158.8396 H   0  0  0  0  0  0  0  0  0  0  0  0
  145.9803  136.4539  158.5170 H   0  0  0  0  0  0  0  0  0  0  0  0
  145.5606  137.0662  160.0736 H   0  0  0  0  0  0  0  0  0  0  0  0
  146.1338  135.8250  162.1497 H   0  0  0  0  0  0  0  0  0  0  0  0
  145.5232  134.3202  161.5614 H   0  0  0  0  0  0  0  0  0  0  0  0
  147.0511  133.9502  163.4467 H   0  0  0  0  0  0  0  0  0  0  0  0
  148.3657  134.7726  162.6283 H   0  0  0  0  0  0  0  0  0  0  0  0
  147.7661  133.2336  162.0158 H   0  0  0  0  0  0  0  0  0  0  0  0
  147.8416  133.3738  159.8554 H   0  0  0  0  0  0  0  0  0  0  0  0
  146.2763  133.4554  159.1269 H   0  0  0  0  0  0  0  0  0  0  0  0
  147.8222  135.3059  157.7415 H   0  0  0  0  0  0  0  0  0  0  0  0
  149.0915  135.1182  156.0150 H   0  0  0  0  0  0  0  0  0  0  0  0
  150.1846  133.7487  155.9229 H   0  0  0  0  0  0  0  0  0  0  0  0
  147.8404  135.3442  153.8020 H   0  0  0  0  0  0  0  0  0  0  0  0
  146.7899  133.5882  151.9963 H   0  0  0  0  0  0  0  0  0  0  0  0
  147.4348  131.1206  153.0806 H   0  0  0  0  0  0  0  0  0  0  0  0
  1  2  1  0  0  0  0
  1 19  1  0  0  0  0
  1 20  1  0  0  0  0
  1 21  1  0  0  0  0
  2  3  1  0  0  0  0
  2 22  1  0  0  0  0
  2 23  1  0  0  0  0
  3  4  1  0  0  0  0
  3  6  1  0  0  0  0
  3 16  1  0  0  0  0
  4  5  1  0  0  0  0
  4 24  1  0  0  0  0
  4 25  1  0  0  0  0
  5 26  1  0  0  0  0
  5 27  1  0  0  0  0
  5 28  1  0  0  0  0
  6  7  1  0  0  0  0
  6 29  1  0  0  0  0
  6 30  1  0  0  0  0
  7  8  1  0  0  0  0
  7 31  1  0  0  0  0
  8  9  2  0  0  0  0
  8 10  1  0  0  0  0
 10 11  1  0  0  0  0
 10 32  1  0  0  0  0
 10 33  1  0  0  0  0
 11 15  1  0  0  0  0
 11 12  1  0  0  0  0
 12 13  2  0  0  0  0
 12 34  1  0  0  0  0
 13 14  1  0  0  0  0
 13 35  1  0  0  0  0
 14 15  2  0  0  0  0
 14 36  1  0  0  0  0
 16 17  2  0  0  0  0
 16 18  1  0  0  0  0
M  CHG  1  18  -1
M  END
> <s_m_source_file>
AV-unprocessed.smi

> <i_m_source_file_index>
2455

> <i_lp_mmshare_version>
43012

> <i_f3d_flags>
0

> <s_epik_input>
W0NIM11bQ0gyXUMoW0NIMl1bQ0gzXSkoQyg9TylbT0hdKVtDSDJdW05IXUMoPU8pW0NIMl1uMVtjSF1bY0hdW2NIXW4x

> <s_epik_cmdline>
J2VwaWtfcHl0aG9uJywgJy1waCcsICc3LjAnLCAnLXRuJywgJzgnLCAnLW1hJywgJzIwMCcsICctbWV0YWxfYmluZGluZycsICctaW1hZScsICc8aW5maWxlLm1hZT4nLCAnLW9tYWUnLCAnPG91dGZpbGUubWFlPic=

> <r_lp_tautomer_probability>
1

> <r_epik_Ionization_Penalty>
0.00236672

> <r_epik_Ionization_Penalty_Charging>
0.00235221

> <r_epik_Ionization_Penalty_Neutral>
1.45156e-05

> <r_epik_State_Penalty>
0.00162453

> <r_epik_Charging_Adjusted_Penalty>
0.00397673

> <i_epik_Tot_Q>
-1

> <i_epik_Tot_abs_Q>
1

> <r_epik_Metal_State_Penalty>
-0

> <b_epik_Metal_Only>
0

> <s_lp_Force_Field>
OPLS_2005

> <r_lp_Energy>
9.36787

> <b_lp_Chiralities_Consistent>
1

> <s_lp_Variant>
AV-unprocessed.smi:2455-1

> <Gold.Version>
5.8.1

> <Gold.Id.Protein>
6NUR|6NUR_protein|mol2

> <Gold.PLP.Fitness>
44.6730

> <Gold.PLP.PLP>
-25.9282

> <Gold.PLP.part.hbond>
-3.0000

> <Gold.PLP.part.metal>
0.0000

> <Gold.PLP.part.buried>
-2.9159

> <Gold.PLP.part.nonpolar>
-20.2978

> <Gold.PLP.part.repulsive>
0.0780

> <Gold.PLP.ligand.clash>
0.0000

> <Gold.PLP.ligand.torsion>
0.5050

> <Gold.PLP.Chemscore.Hbond>
5.5520

> <Gold.PLP.Chemscore.CHOScore>
0.9808

> <Gold.PLP.Chemscore.Metal>
0.0000

> <Gold.Chemscore.Hbonds>
donor molecule, donor type, donor heavy atom, donor atom, acceptor molecule, acceptor atom, score
      P1  H  6896  6909       L1    17  2.00
      P1  H  6931  6943       L1    18  1.92
      P1  H  6934  6947       L1    18  1.41
      L1  C    12    34       P1  7948  0.61

> <Gold.PLP.Chemscore.Internal.Correction>
0.1564

> <Gold.Rescore>
     Score         DG    S(hbond)    S(metal)    S(lipo)     H(rot)  DE(clash)    DE(int)     intcor
     10.62     -12.99       2.68        0.00      45.21       2.63       0.00       2.37       ----

> <Gold.Chemscore.Fitness>
10.6231

> <Gold.Chemscore.DG>
-12.9940

> <Gold.Chemscore.ZeroCoef>
-5.4800

> <Gold.Chemscore.Hbond>
2.6832

> <Gold.Chemscore.Metal>
0.0000

> <Gold.Chemscore.Lipo>
45.2059

> <Gold.Chemscore.Internal_Hbond>
0.0000

> <Gold.Chemscore.DEClash>
0.0021

> <Gold.Chemscore.DEInternal>
2.3687

> <Gold.Chemscore.Rot>
2.6316

> <Gold.Chemscore.Internal.Correction>
   9.000000E+99

> <Gold.Chemscore.Hbonds>
donor molecule, donor type, donor heavy atom, donor atom, acceptor molecule, acceptor atom, score
      P1  H  6896  6909       L1    17  0.93
      P1  H  6931  6943       L1    18  0.92
      P1  H  6934  6947       L1    18  0.67

> <Gold.Chemscore.Hbond.Weighted>
-8.9619

> <Gold.Chemscore.Metal.Weighted>
-0.0000

> <Gold.Chemscore.Lipo.Weighted>
-5.2891

> <Gold.Chemscore.Internal_Hbond.Weighted>
0.0000

> <Gold.Chemscore.DEClash.Weighted>
0.0021

> <Gold.Chemscore.DEInternal.Weighted>
2.3687

> <Gold.Chemscore.Rot.Weighted>
6.7370

> <Gold.Chemscore.Internal.Correction.Weighted>
   9.000000E+99

> <Gold.Protein.RotatedTorsions>
[ 6907 6896 6895 6894 ] final   58.89 input  -60.11 | X-H torsion
[ 7974 7965 7964 7962 ] final -170.88 input  175.53 | X-H torsion
[ 8008 7997 7996 7995 ] final   20.40 input   59.86 | X-H torsion
[ 10167 10162 10161 10158 ] final -173.37 input  -65.29 | X-H torsion
[ 10718 10713 10712 10709 ] final   15.01 input   66.30 | X-H torsion
[ 10763 10752 10751 10750 ] final   26.37 input  -60.55 | X-H torsion
[ 11005 11000 10999 10996 ] final   47.68 input  -57.11 | X-H torsion

> <Gold.Protein.ActiveResidues>
 VAL166  LYS551  ARG553  GLY616  TRP617  ASP618  TYR619  PRO620  LYS621  CYS622 
 ASP623  PHE694  ASN695  SER759  ASP760  ASP761  ALA762  ILE779  LEU786  VAL792 
 PHE793  MET794  SER795  GLU796  ALA797  LYS798  CYS799  TRP800  GLU811  SER814 

> <Gold.Protein.RotatedAtoms>
  152.3865  134.6509  160.0123 H   0  0  0  0  0  0  0  0  0  0  0  0  # atno 6907 bound_to 6896
  151.6756  133.3307  159.3215 H   0  0  0  0  0  0  0  0  0  0  0  0  # atno 6908 bound_to 6896
  150.7790  134.6761  159.6463 H   0  0  0  0  0  0  0  0  0  0  0  0  # atno 6909 bound_to 6896
  144.7164  140.2006  143.6338 H   0  0  0  0  0  0  0  0  0  0  0  0  # atno 7974 bound_to 7965
  154.9350  140.3045  155.5149 H   0  0  0  0  0  0  0  0  0  0  0  0  # atno 8008 bound_to 7997
  156.3000  140.2347  156.4351 H   0  0  0  0  0  0  0  0  0  0  0  0  # atno 8009 bound_to 7997
  154.8200  140.0424  157.1393 H   0  0  0  0  0  0  0  0  0  0  0  0  # atno 8010 bound_to 7997
  139.5692  144.1682  152.1358 H   0  0  0  0  0  0  0  0  0  0  0  0  # atno 10167 bound_to 10162
  157.0474  130.6256  149.5761 H   0  0  0  0  0  0  0  0  0  0  0  0  # atno 10718 bound_to 10713
  153.0627  135.6562  154.0425 H   0  0  0  0  0  0  0  0  0  0  0  0  # atno 10763 bound_to 10752
  154.0089  135.2930  155.3396 H   0  0  0  0  0  0  0  0  0  0  0  0  # atno 10764 bound_to 10752
  154.6972  135.5259  153.8544 H   0  0  0  0  0  0  0  0  0  0  0  0  # atno 10765 bound_to 10752
  140.1258  134.4770  155.8561 H   0  0  0  0  0  0  0  0  0  0  0  0  # atno 11005 bound_to 11000
  145.8683  139.2258  143.1676 LP  0  0  0  0  0  0  0  0  0  0  0  0  # atno 17320 bound_to 7965
  146.0109  140.8436  142.9971 LP  0  0  0  0  0  0  0  0  0  0  0  0  # atno 17321 bound_to 7965
  140.1211  144.5372  150.6862 LP  0  0  0  0  0  0  0  0  0  0  0  0  # atno 17342 bound_to 10162
  140.6976  143.2414  151.4956 LP  0  0  0  0  0  0  0  0  0  0  0  0  # atno 17343 bound_to 10162
  156.0018  130.5099  150.7692 LP  0  0  0  0  0  0  0  0  0  0  0  0  # atno 17370 bound_to 10713
  157.5057  131.0922  151.0260 LP  0  0  0  0  0  0  0  0  0  0  0  0  # atno 17371 bound_to 10713
  141.2161  133.6777  156.6975 LP  0  0  0  0  0  0  0  0  0  0  0  0  # atno 17394 bound_to 11000
  140.2906  134.8243  157.4013 LP  0  0  0  0  0  0  0  0  0  0  0  0  # atno 17395 bound_to 11000

$$$$
