AV-unprocessed.smi:1279|AV-procd|sdf|5355|dock5
  -GOLD-   22720 4493D 1   1.00000     0.00000
 Structure written by MMmdl.
 46 47  0  0  0  0  0  0  0  0  2 V2000
  153.6189  141.6680  160.6557 C   0  0  0  0  0  0  0  0  0  0  0  0
  152.6786  142.2783  159.6588 C   0  0  0  0  0  0  0  0  0  0  0  0
  152.0332  141.6439  158.5575 C   0  0  0  0  0  0  0  0  0  0  0  0
  151.3089  142.6645  158.0048 C   0  0  0  0  0  0  0  0  0  0  0  0
  150.4886  142.6417  156.9208 N   0  0  0  0  0  0  0  0  0  0  0  0
  150.1665  141.6012  156.1326 C   0  0  0  0  0  0  0  0  0  0  0  0
  150.5740  140.4472  156.2672 O   0  0  0  0  0  0  0  0  0  0  0  0
  149.3314  141.9757  155.1527 N   0  0  0  0  0  0  0  0  0  0  0  0
  148.7858  141.0855  154.1343 C   0  0  0  0  0  0  0  0  0  0  0  0
  147.3230  141.4360  153.7981 C   0  0  0  0  0  0  0  0  0  0  0  0
  146.5774  140.2814  153.2363 N   0  3  2  0  0  0  0  0  0  0  0  0
  146.2519  139.2669  154.2722 C   0  0  0  0  0  0  0  0  0  0  0  0
  145.3653  138.1485  153.6992 C   0  0  0  0  0  0  0  0  0  0  0  0
  146.0279  137.4769  152.4851 C   0  0  1  0  0  0  0  0  0  0  0  0
  145.1382  136.3790  151.8852 C   0  0  0  0  0  0  0  0  0  0  0  0
  146.3835  138.5526  151.4457 C   0  0  0  0  0  0  0  0  0  0  0  0
  147.2505  139.6625  152.0631 C   0  0  0  0  0  0  0  0  0  0  0  0
  151.5210  143.8098  158.7397 N   0  0  0  0  0  0  0  0  0  0  0  0
  150.9747  145.1399  158.5528 C   0  0  0  0  0  0  0  0  0  0  0  0
  152.3688  143.5658  159.7622 N   0  0  0  0  0  0  0  0  0  0  0  0
  153.7888  140.6125  160.4422 H   0  0  0  0  0  0  0  0  0  0  0  0
  153.2203  141.7419  161.6680 H   0  0  0  0  0  0  0  0  0  0  0  0
  154.5871  142.1691  160.6401 H   0  0  0  0  0  0  0  0  0  0  0  0
  152.1033  140.6127  158.2460 H   0  0  0  0  0  0  0  0  0  0  0  0
  150.0787  143.5308  156.6753 H   0  0  0  0  0  0  0  0  0  0  0  0
  149.0440  142.9430  155.1153 H   0  0  0  0  0  0  0  0  0  0  0  0
  149.4049  141.1245  153.2363 H   0  0  0  0  0  0  0  0  0  0  0  0
  148.8648  140.0705  154.5215 H   0  0  0  0  0  0  0  0  0  0  0  0
  146.8030  141.8209  154.6768 H   0  0  0  0  0  0  0  0  0  0  0  0
  147.3244  142.2438  153.0650 H   0  0  0  0  0  0  0  0  0  0  0  0
  147.1750  138.8471  154.6753 H   0  0  0  0  0  0  0  0  0  0  0  0
  145.7299  139.7419  155.1036 H   0  0  0  0  0  0  0  0  0  0  0  0
  145.1658  137.4068  154.4735 H   0  0  0  0  0  0  0  0  0  0  0  0
  144.3975  138.5624  153.4121 H   0  0  0  0  0  0  0  0  0  0  0  0
  146.9541  137.0071  152.8196 H   0  0  0  0  0  0  0  0  0  0  0  0
  144.1925  136.7857  151.5254 H   0  0  0  0  0  0  0  0  0  0  0  0
  144.9103  135.6108  152.6246 H   0  0  0  0  0  0  0  0  0  0  0  0
  145.6317  135.8900  151.0445 H   0  0  0  0  0  0  0  0  0  0  0  0
  146.9123  138.0998  150.6061 H   0  0  0  0  0  0  0  0  0  0  0  0
  145.4713  138.9891  151.0360 H   0  0  0  0  0  0  0  0  0  0  0  0
  147.4520  140.4128  151.2998 H   0  0  0  0  0  0  0  0  0  0  0  0
  148.2163  139.2566  152.3684 H   0  0  0  0  0  0  0  0  0  0  0  0
  151.0821  145.4392  157.5099 H   0  0  0  0  0  0  0  0  0  0  0  0
  151.4998  145.8617  159.1804 H   0  0  0  0  0  0  0  0  0  0  0  0
  149.9174  145.1406  158.8181 H   0  0  0  0  0  0  0  0  0  0  0  0
  145.6919  140.6439  152.9125 H   0  0  0  0  0  0  0  0  0  0  0  0
  1  2  1  0  0  0  0
  1 21  1  0  0  0  0
  1 22  1  0  0  0  0
  1 23  1  0  0  0  0
  2 20  2  0  0  0  0
  2  3  1  0  0  0  0
  3  4  2  0  0  0  0
  3 24  1  0  0  0  0
  4  5  1  0  0  0  0
  4 18  1  0  0  0  0
  5  6  1  0  0  0  0
  5 25  1  0  0  0  0
  6  7  2  0  0  0  0
  6  8  1  0  0  0  0
  8  9  1  0  0  0  0
  8 26  1  0  0  0  0
  9 10  1  0  0  0  0
  9 27  1  0  0  0  0
  9 28  1  0  0  0  0
 10 11  1  0  0  0  0
 10 29  1  0  0  0  0
 10 30  1  0  0  0  0
 11 17  1  0  0  0  0
 11 12  1  0  0  0  0
 11 46  1  0  0  0  0
 12 13  1  0  0  0  0
 12 31  1  0  0  0  0
 12 32  1  0  0  0  0
 13 14  1  0  0  0  0
 13 33  1  0  0  0  0
 13 34  1  0  0  0  0
 14 15  1  0  0  0  0
 14 16  1  0  0  0  0
 14 35  1  0  0  0  0
 15 36  1  0  0  0  0
 15 37  1  0  0  0  0
 15 38  1  0  0  0  0
 16 17  1  0  0  0  0
 16 39  1  0  0  0  0
 16 40  1  0  0  0  0
 17 41  1  0  0  0  0
 17 42  1  0  0  0  0
 18 19  1  0  0  0  0
 18 20  1  0  0  0  0
 19 43  1  0  0  0  0
 19 44  1  0  0  0  0
 19 45  1  0  0  0  0
M  CHG  1  11   1
M  END
> <s_m_source_file>
AV-unprocessed.smi

> <i_m_source_file_index>
1279

> <i_lp_mmshare_version>
43012

> <i_f3d_flags>
0

> <s_epik_input>
W0NIM11jMVtjSF1jKG4objEpW0NIM10pW05IXUMoPU8pW05IXVtDSDJdW0NIMl1OMltDSDJdW0NIMl1bQ0hdKFtDSDNdKVtDSDJdW0NIMl0y

> <s_epik_cmdline>
J2VwaWtfcHl0aG9uJywgJy1waCcsICc3LjAnLCAnLXRuJywgJzgnLCAnLW1hJywgJzIwMCcsICctbWV0YWxfYmluZGluZycsICctaW1hZScsICc8aW5maWxlLm1hZT4nLCAnLW9tYWUnLCAnPG91dGZpbGUubWFlPic=

> <r_lp_tautomer_probability>
1

> <r_epik_Ionization_Penalty>
0.00166091

> <r_epik_Ionization_Penalty_Charging>
0.0015841

> <r_epik_Ionization_Penalty_Neutral>
7.68112e-05

> <r_epik_State_Penalty>
0.00106518

> <r_epik_Charging_Adjusted_Penalty>
0.00264928

> <i_epik_Tot_Q>
1

> <i_epik_Tot_abs_Q>
1

> <r_epik_Metal_State_Penalty>
-0

> <b_epik_Metal_Only>
0

> <s_lp_Force_Field>
OPLS_2005

> <r_lp_Energy>
17.7032

> <b_lp_Chiralities_Consistent>
1

> <s_lp_Variant>
AV-unprocessed.smi:1279-1

> <Gold.Version>
5.8.1

> <Gold.Id.Protein>
6NUR|6NUR_protein|mol2

> <Gold.PLP.Fitness>
51.5762

> <Gold.PLP.PLP>
-40.2199

> <Gold.PLP.part.hbond>
-3.0000

> <Gold.PLP.part.metal>
0.0000

> <Gold.PLP.part.buried>
-0.0364

> <Gold.PLP.part.nonpolar>
-38.8413

> <Gold.PLP.part.repulsive>
0.2587

> <Gold.PLP.ligand.clash>
0.0000

> <Gold.PLP.ligand.torsion>
0.3407

> <Gold.PLP.Chemscore.Hbond>
4.0000

> <Gold.PLP.Chemscore.CHOScore>
0.0000

> <Gold.PLP.Chemscore.Metal>
0.0000

> <Gold.Chemscore.Hbonds>
donor molecule, donor type, donor heavy atom, donor atom, acceptor molecule, acceptor atom, score
      L1  H     5    25       P1  8028  1.00
      L1  H     8    26       P1  8028  1.00
      L1  H    11    46       P1 10175  1.89

> <Gold.PLP.Chemscore.Internal.Correction>
0.0377

> <Gold.Rescore>
     Score         DG    S(hbond)    S(metal)    S(lipo)     H(rot)  DE(clash)    DE(int)     intcor
     18.88     -21.99       2.91        0.00      90.49       1.48       1.62       1.48       ----

> <Gold.Chemscore.Fitness>
18.8773

> <Gold.Chemscore.DG>
-21.9851

> <Gold.Chemscore.ZeroCoef>
-5.4800

> <Gold.Chemscore.Hbond>
2.9089

> <Gold.Chemscore.Metal>
0.0000

> <Gold.Chemscore.Lipo>
90.4945

> <Gold.Chemscore.Internal_Hbond>
0.0000

> <Gold.Chemscore.DEClash>
1.6234

> <Gold.Chemscore.DEInternal>
1.4844

> <Gold.Chemscore.Rot>
1.4838

> <Gold.Chemscore.Internal.Correction>
   9.000000E+99

> <Gold.Chemscore.Hbonds>
donor molecule, donor type, donor heavy atom, donor atom, acceptor molecule, acceptor atom, score
      L1  H     5    25       P1  8028  0.97
      L1  H     8    26       P1  8028  0.99
      L1  H    11    46       P1 10175  0.57

> <Gold.Chemscore.Hbond.Weighted>
-9.7157

> <Gold.Chemscore.Metal.Weighted>
-0.0000

> <Gold.Chemscore.Lipo.Weighted>
-10.5879

> <Gold.Chemscore.Internal_Hbond.Weighted>
0.0000

> <Gold.Chemscore.DEClash.Weighted>
1.6234

> <Gold.Chemscore.DEInternal.Weighted>
1.4844

> <Gold.Chemscore.Rot.Weighted>
3.7985

> <Gold.Chemscore.Internal.Correction.Weighted>
   9.000000E+99

> <Gold.Protein.RotatedTorsions>
[ 6907 6896 6895 6894 ] final -108.00 input  -60.11 | X-H torsion
[ 7974 7965 7964 7962 ] final  -32.15 input  175.53 | X-H torsion
[ 8008 7997 7996 7995 ] final  101.71 input   59.86 | X-H torsion
[ 10167 10162 10161 10158 ] final    9.89 input  -65.29 | X-H torsion
[ 10718 10713 10712 10709 ] final  -33.18 input   66.30 | X-H torsion
[ 10763 10752 10751 10750 ] final   82.70 input  -60.55 | X-H torsion
[ 11005 11000 10999 10996 ] final -169.28 input  -57.11 | X-H torsion

> <Gold.Protein.ActiveResidues>
 VAL166  LYS551  ARG553  GLY616  TRP617  ASP618  TYR619  PRO620  LYS621  CYS622 
 ASP623  PHE694  ASN695  SER759  ASP760  ASP761  ALA762  ILE779  LEU786  VAL792 
 PHE793  MET794  SER795  GLU796  ALA797  LYS798  CYS799  TRP800  GLU811  SER814 

> <Gold.Protein.RotatedAtoms>
  150.7476  133.9742  159.3555 H   0  0  0  0  0  0  0  0  0  0  0  0  # atno 6907 bound_to 6896
  151.7679  135.0792  160.0365 H   0  0  0  0  0  0  0  0  0  0  0  0  # atno 6908 bound_to 6896
  152.3359  133.5974  159.5878 H   0  0  0  0  0  0  0  0  0  0  0  0  # atno 6909 bound_to 6896
  146.1013  140.5756  142.8820 H   0  0  0  0  0  0  0  0  0  0  0  0  # atno 7974 bound_to 7965
  156.1325  140.3193  155.8370 H   0  0  0  0  0  0  0  0  0  0  0  0  # atno 8008 bound_to 7997
  155.4306  140.0518  157.3036 H   0  0  0  0  0  0  0  0  0  0  0  0  # atno 8009 bound_to 7997
  154.4910  140.2092  155.9561 H   0  0  0  0  0  0  0  0  0  0  0  0  # atno 8010 bound_to 7997
  140.6227  143.8168  150.7195 H   0  0  0  0  0  0  0  0  0  0  0  0  # atno 10167 bound_to 10162
  156.3657  130.4331  149.7586 H   0  0  0  0  0  0  0  0  0  0  0  0  # atno 10718 bound_to 10713
  153.1226  135.4718  154.9220 H   0  0  0  0  0  0  0  0  0  0  0  0  # atno 10763 bound_to 10752
  154.7590  135.3126  154.8418 H   0  0  0  0  0  0  0  0  0  0  0  0  # atno 10764 bound_to 10752
  153.8978  135.6878  153.4810 H   0  0  0  0  0  0  0  0  0  0  0  0  # atno 10765 bound_to 10752
  140.5325  134.5602  157.5078 H   0  0  0  0  0  0  0  0  0  0  0  0  # atno 11005 bound_to 11000
  144.7435  140.5005  143.6852 LP  0  0  0  0  0  0  0  0  0  0  0  0  # atno 17320 bound_to 7965
  145.5849  139.1491  143.3214 LP  0  0  0  0  0  0  0  0  0  0  0  0  # atno 17321 bound_to 7965
  140.1762  143.4153  152.1965 LP  0  0  0  0  0  0  0  0  0  0  0  0  # atno 17342 bound_to 10162
  139.5453  144.7293  151.4604 LP  0  0  0  0  0  0  0  0  0  0  0  0  # atno 17343 bound_to 10162
  156.4733  130.8007  151.3024 LP  0  0  0  0  0  0  0  0  0  0  0  0  # atno 17370 bound_to 10713
  157.7478  131.0029  150.3017 LP  0  0  0  0  0  0  0  0  0  0  0  0  # atno 17371 bound_to 10713
  139.9547  134.7556  156.0369 LP  0  0  0  0  0  0  0  0  0  0  0  0  # atno 17394 bound_to 11000
  141.1273  133.6595  156.3371 LP  0  0  0  0  0  0  0  0  0  0  0  0  # atno 17395 bound_to 11000

$$$$
