AV-unprocessed.smi:232|AV-procd|sdf|1777|dock2
  -GOLD-   2262020323D 1   1.00000     0.00000
 Structure written by MMmdl.
 52 55  0  0  0  0  0  0  0  0  1 V2000
  151.4901  144.7736  158.2524 C   0  0  0  0  0  0  0  0  0  0  0  0
  152.7835  144.1053  158.7340 C   0  0  0  0  0  0  0  0  0  0  0  0
  152.5321  142.8247  159.5569 C   0  0  2  0  0  0  0  0  0  0  0  0
  153.5818  142.5676  160.6483 C   0  0  0  0  0  0  0  0  0  0  0  0
  153.6847  141.0405  160.7443 C   0  0  0  0  0  0  0  0  0  0  0  0
  152.6905  140.5197  159.7004 C   0  0  2  0  0  0  0  0  0  0  0  0
  153.1228  139.1974  159.0457 C   0  0  0  0  0  0  0  0  0  0  0  0
  152.5509  141.6126  158.7461 N   0  0  0  0  0  0  0  0  0  0  0  0
  151.5347  141.4824  157.8618 C   0  0  0  0  0  0  0  0  0  0  0  0
  150.4204  142.2541  157.9694 N   0  0  0  0  0  0  0  0  0  0  0  0
  149.4226  142.1097  157.0916 C   0  0  0  0  0  0  0  0  0  0  0  0
  149.3366  141.2731  156.0543 N   0  0  0  0  0  0  0  0  0  0  0  0
  150.4564  140.5012  155.9465 C   0  0  0  0  0  0  0  0  0  0  0  0
  151.5924  140.5422  156.8013 C   0  0  0  0  0  0  0  0  0  0  0  0
  152.5386  139.6140  156.3861 N   0  0  0  0  0  0  0  0  0  0  0  0
  151.9932  139.0554  155.3397 C   0  0  0  0  0  0  0  0  0  0  0  0
  150.7442  139.5283  155.0059 N   0  0  0  0  0  0  0  0  0  0  0  0
  149.9205  139.0884  153.8941 C   0  0  0  0  0  0  0  0  0  0  0  0
  148.6063  138.4299  154.3584 C   0  0  2  0  0  0  0  0  0  0  0  0
  148.7569  137.0230  154.3432 O   0  0  0  0  0  0  0  0  0  0  0  0
  147.4142  138.8150  153.4627 C   0  0  1  0  0  0  0  0  0  0  0  0
  147.6605  138.6243  151.9644 C   0  0  0  0  0  0  0  0  0  0  0  0
  146.2527  138.4658  151.4387 C   0  0  0  0  0  0  0  0  0  0  0  0
  145.5992  137.6458  152.5460 C   0  0  0  0  0  0  0  0  0  0  0  0
  146.2910  137.9824  153.7458 O   0  0  0  0  0  0  0  0  0  0  0  0
  151.7118  145.6491  157.6417 H   0  0  0  0  0  0  0  0  0  0  0  0
  150.8743  145.1026  159.0897 H   0  0  0  0  0  0  0  0  0  0  0  0
  150.8958  144.0884  157.6475 H   0  0  0  0  0  0  0  0  0  0  0  0
  153.3898  143.8681  157.8592 H   0  0  0  0  0  0  0  0  0  0  0  0
  153.3658  144.8161  159.3217 H   0  0  0  0  0  0  0  0  0  0  0  0
  151.5544  142.9010  160.0365 H   0  0  0  0  0  0  0  0  0  0  0  0
  154.5510  142.9789  160.3629 H   0  0  0  0  0  0  0  0  0  0  0  0
  153.2947  143.0237  161.5962 H   0  0  0  0  0  0  0  0  0  0  0  0
  154.7022  140.7272  160.5062 H   0  0  0  0  0  0  0  0  0  0  0  0
  153.4480  140.6699  161.7421 H   0  0  0  0  0  0  0  0  0  0  0  0
  151.7309  140.3660  160.1973 H   0  0  0  0  0  0  0  0  0  0  0  0
  153.2692  138.4216  159.7972 H   0  0  0  0  0  0  0  0  0  0  0  0
  154.0589  139.3140  158.4988 H   0  0  0  0  0  0  0  0  0  0  0  0
  152.3703  138.8357  158.3444 H   0  0  0  0  0  0  0  0  0  0  0  0
  148.5713  142.7570  157.2418 H   0  0  0  0  0  0  0  0  0  0  0  0
  152.4906  138.2786  154.7770 H   0  0  0  0  0  0  0  0  0  0  0  0
  149.7088  139.9566  153.2688 H   0  0  0  0  0  0  0  0  0  0  0  0
  150.5000  138.3984  153.2794 H   0  0  0  0  0  0  0  0  0  0  0  0
  148.3960  138.7330  155.3850 H   0  0  0  0  0  0  0  0  0  0  0  0
  148.7361  136.7288  153.4453 H   0  0  0  0  0  0  0  0  0  0  0  0
  147.1163  139.8486  153.6483 H   0  0  0  0  0  0  0  0  0  0  0  0
  148.1932  139.4602  151.5103 H   0  0  0  0  0  0  0  0  0  0  0  0
  148.2319  137.7133  151.7791 H   0  0  0  0  0  0  0  0  0  0  0  0
  145.7711  139.4412  151.3577 H   0  0  0  0  0  0  0  0  0  0  0  0
  146.2090  137.9790  150.4641 H   0  0  0  0  0  0  0  0  0  0  0  0
  144.5310  137.8452  152.6339 H   0  0  0  0  0  0  0  0  0  0  0  0
  145.7307  136.5794  152.3596 H   0  0  0  0  0  0  0  0  0  0  0  0
  1  2  1  0  0  0  0
  1 26  1  0  0  0  0
  1 27  1  0  0  0  0
  1 28  1  0  0  0  0
  2  3  1  0  0  0  0
  2 29  1  0  0  0  0
  2 30  1  0  0  0  0
  3  8  1  0  0  0  0
  3  4  1  0  0  0  0
  3 31  1  0  0  0  0
  4  5  1  0  0  0  0
  4 32  1  0  0  0  0
  4 33  1  0  0  0  0
  5  6  1  0  0  0  0
  5 34  1  0  0  0  0
  5 35  1  0  0  0  0
  6  7  1  0  0  0  0
  6  8  1  0  0  0  0
  6 36  1  0  0  0  0
  7 37  1  0  0  0  0
  7 38  1  0  0  0  0
  7 39  1  0  0  0  0
  8  9  1  0  0  0  0
  9 14  1  0  0  0  0
  9 10  2  0  0  0  0
 10 11  1  0  0  0  0
 11 12  2  0  0  0  0
 11 40  1  0  0  0  0
 12 13  1  0  0  0  0
 13 17  1  0  0  0  0
 13 14  2  0  0  0  0
 14 15  1  0  0  0  0
 15 16  2  0  0  0  0
 16 17  1  0  0  0  0
 16 41  1  0  0  0  0
 17 18  1  0  0  0  0
 18 19  1  0  0  0  0
 18 42  1  0  0  0  0
 18 43  1  0  0  0  0
 19 20  1  0  0  0  0
 19 21  1  0  0  0  0
 19 44  1  0  0  0  0
 20 45  1  0  0  0  0
 21 25  1  0  0  0  0
 21 22  1  0  0  0  0
 21 46  1  0  0  0  0
 22 23  1  0  0  0  0
 22 47  1  0  0  0  0
 22 48  1  0  0  0  0
 23 24  1  0  0  0  0
 23 49  1  0  0  0  0
 23 50  1  0  0  0  0
 24 25  1  0  0  0  0
 24 51  1  0  0  0  0
 24 52  1  0  0  0  0
M  END
> <s_m_source_file>
AV-unprocessed.smi

> <i_m_source_file_index>
232

> <i_lp_mmshare_version>
43012

> <i_f3d_flags>
0

> <s_epik_input>
W0NIM11bQ0gyXVtDQEBIXTFbQ0gyXVtDSDJdW0NAQEhdKFtDSDNdKU4xYyhuW2NIXW4yKWMoYzIzKW5bY0hdbjNbQ0gyXVtDQEhdKFtPSF0pW0NAQEhdNFtDSDJdW0NIMl1bQ0gyXU80

> <s_epik_cmdline>
J2VwaWtfcHl0aG9uJywgJy1waCcsICc3LjAnLCAnLXRuJywgJzgnLCAnLW1hJywgJzIwMCcsICctbWV0YWxfYmluZGluZycsICctaW1hZScsICc8aW5maWxlLm1hZT4nLCAnLW9tYWUnLCAnPG91dGZpbGUubWFlPic=

> <r_lp_tautomer_probability>
1

> <r_epik_Ionization_Penalty>
0.00258048

> <r_epik_Ionization_Penalty_Charging>
0

> <r_epik_Ionization_Penalty_Neutral>
0.00258048

> <r_epik_State_Penalty>
0.00168551

> <r_epik_Charging_Adjusted_Penalty>
0.00168551

> <i_epik_Tot_Q>
0

> <i_epik_Tot_abs_Q>
0

> <r_epik_Metal_State_Penalty>
-0

> <b_epik_Metal_Only>
0

> <s_lp_Force_Field>
OPLS_2005

> <r_lp_Energy>
51.1515

> <b_lp_Chiralities_Consistent>
1

> <s_lp_Variant>
AV-unprocessed.smi:232-11

> <Gold.Version>
5.8.1

> <Gold.Id.Protein>
6NUR|6NUR_protein|mol2

> <Gold.PLP.Fitness>
46.1916

> <Gold.PLP.PLP>
-41.4631

> <Gold.PLP.part.hbond>
-2.0000

> <Gold.PLP.part.metal>
0.0000

> <Gold.PLP.part.buried>
8.0002

> <Gold.PLP.part.nonpolar>
-46.8758

> <Gold.PLP.part.repulsive>
0.3171

> <Gold.PLP.ligand.clash>
0.0000

> <Gold.PLP.ligand.torsion>
1.4445

> <Gold.PLP.Chemscore.Hbond>
2.0000

> <Gold.PLP.Chemscore.CHOScore>
0.4993

> <Gold.PLP.Chemscore.Metal>
0.0000

> <Gold.Chemscore.Hbonds>
donor molecule, donor type, donor heavy atom, donor atom, acceptor molecule, acceptor atom, score
      L1  H    20    45       P1  7948  1.00
      P1  H  7997  8008       L1    15  1.00
      L1  C    11    40       P1  8028  0.54

> <Gold.PLP.Chemscore.Internal.Correction>
0.1194

> <Gold.Rescore>
     Score         DG    S(hbond)    S(metal)    S(lipo)     H(rot)  DE(clash)    DE(int)     intcor
     14.94     -19.97       1.97        0.00     120.63       2.43       3.17       1.87       ----

> <Gold.Chemscore.Fitness>
14.9362

> <Gold.Chemscore.DG>
-19.9743

> <Gold.Chemscore.ZeroCoef>
-5.4800

> <Gold.Chemscore.Hbond>
1.9735

> <Gold.Chemscore.Metal>
0.0000

> <Gold.Chemscore.Lipo>
120.6292

> <Gold.Chemscore.Internal_Hbond>
0.0000

> <Gold.Chemscore.DEClash>
3.1728

> <Gold.Chemscore.DEInternal>
1.8654

> <Gold.Chemscore.Rot>
2.4260

> <Gold.Chemscore.Internal.Correction>
   9.000000E+99

> <Gold.Chemscore.Hbonds>
donor molecule, donor type, donor heavy atom, donor atom, acceptor molecule, acceptor atom, score
      L1  H    20    45       P1  7948  1.00
      P1  H  7997  8008       L1    15  0.95

> <Gold.Chemscore.Hbond.Weighted>
-6.5914

> <Gold.Chemscore.Metal.Weighted>
-0.0000

> <Gold.Chemscore.Lipo.Weighted>
-14.1136

> <Gold.Chemscore.Internal_Hbond.Weighted>
0.0000

> <Gold.Chemscore.DEClash.Weighted>
3.1728

> <Gold.Chemscore.DEInternal.Weighted>
1.8654

> <Gold.Chemscore.Rot.Weighted>
6.2107

> <Gold.Chemscore.Internal.Correction.Weighted>
   9.000000E+99

> <Gold.Protein.RotatedTorsions>
[ 6907 6896 6895 6894 ] final -155.61 input  -60.11 | X-H torsion
[ 7974 7965 7964 7962 ] final -124.55 input  175.53 | X-H torsion
[ 8008 7997 7996 7995 ] final  -52.87 input   59.86 | X-H torsion
[ 10167 10162 10161 10158 ] final  120.06 input  -65.29 | X-H torsion
[ 10718 10713 10712 10709 ] final   50.47 input   66.30 | X-H torsion
[ 10763 10752 10751 10750 ] final  -16.94 input  -60.55 | X-H torsion
[ 11005 11000 10999 10996 ] final  177.16 input  -57.11 | X-H torsion

> <Gold.Protein.ActiveResidues>
 VAL166  LYS551  ARG553  GLY616  TRP617  ASP618  TYR619  PRO620  LYS621  CYS622 
 ASP623  PHE694  ASN695  SER759  ASP760  ASP761  ALA762  ILE779  LEU786  VAL792 
 PHE793  MET794  SER795  GLU796  ALA797  LYS798  CYS799  TRP800  GLU811  SER814 

> <Gold.Protein.RotatedAtoms>
  151.2750  133.4237  159.2623 H   0  0  0  0  0  0  0  0  0  0  0  0  # atno 6907 bound_to 6896
  151.0411  134.9608  159.8172 H   0  0  0  0  0  0  0  0  0  0  0  0  # atno 6908 bound_to 6896
  152.5365  134.2708  159.9023 H   0  0  0  0  0  0  0  0  0  0  0  0  # atno 6909 bound_to 6896
  145.0069  140.7871  143.4462 H   0  0  0  0  0  0  0  0  0  0  0  0  # atno 7974 bound_to 7965
  154.4118  140.1213  156.5061 H   0  0  0  0  0  0  0  0  0  0  0  0  # atno 8008 bound_to 7997
  155.6846  140.3496  155.4849 H   0  0  0  0  0  0  0  0  0  0  0  0  # atno 8009 bound_to 7997
  155.9522  140.1107  157.0957 H   0  0  0  0  0  0  0  0  0  0  0  0  # atno 8010 bound_to 7997
  139.6006  144.7055  151.3071 H   0  0  0  0  0  0  0  0  0  0  0  0  # atno 10167 bound_to 10162
  157.4888  130.8362  149.8178 H   0  0  0  0  0  0  0  0  0  0  0  0  # atno 10718 bound_to 10713
  153.5662  135.7008  153.5525 H   0  0  0  0  0  0  0  0  0  0  0  0  # atno 10763 bound_to 10752
  153.3385  135.4027  155.1553 H   0  0  0  0  0  0  0  0  0  0  0  0  # atno 10764 bound_to 10752
  154.8640  135.3736  154.5182 H   0  0  0  0  0  0  0  0  0  0  0  0  # atno 10765 bound_to 10752
  140.3810  134.6946  157.4451 H   0  0  0  0  0  0  0  0  0  0  0  0  # atno 11005 bound_to 11000
  145.2077  139.2220  143.5160 LP  0  0  0  0  0  0  0  0  0  0  0  0  # atno 17320 bound_to 7965
  146.3463  140.1908  142.8589 LP  0  0  0  0  0  0  0  0  0  0  0  0  # atno 17321 bound_to 7965
  140.7246  143.7038  150.7823 LP  0  0  0  0  0  0  0  0  0  0  0  0  # atno 17342 bound_to 10162
  140.0614  143.5151  152.2626 LP  0  0  0  0  0  0  0  0  0  0  0  0  # atno 17343 bound_to 10162
  156.0162  130.3813  150.2105 LP  0  0  0  0  0  0  0  0  0  0  0  0  # atno 17370 bound_to 10713
  157.0293  131.0002  151.3317 LP  0  0  0  0  0  0  0  0  0  0  0  0  # atno 17371 bound_to 10713
  140.0478  134.6174  155.8899 LP  0  0  0  0  0  0  0  0  0  0  0  0  # atno 17394 bound_to 11000
  141.1923  133.6575  156.5497 LP  0  0  0  0  0  0  0  0  0  0  0  0  # atno 17395 bound_to 11000

$$$$
