AV-unprocessed.smi:824|AV-procd|sdf|3848|dock6
  -GOLD-   22720 1293D 1   1.00000     0.00000
 Structure written by MMmdl.
 52 53  0  0  0  0  0  0  0  0  1 V2000
  152.3221  138.4223  154.6884 C   0  0  0  0  0  0  0  0  0  0  0  0
  152.0444  138.5916  156.1717 C   0  0  0  0  0  0  0  0  0  0  0  0
  152.3081  139.8630  156.6963 N   0  0  0  0  0  0  0  0  0  0  0  0
  152.1079  140.1063  157.9537 C   0  0  0  0  0  0  0  0  0  0  0  0
  152.3254  141.3280  158.5955 N   0  0  0  0  0  0  0  0  0  0  0  0
  151.6319  142.5504  158.1807 C   0  0  0  0  0  0  0  0  0  0  0  0
  152.3991  143.8076  158.6234 C   0  0  0  0  0  0  0  0  0  0  0  0
  152.6123  143.7698  160.0277 O   0  0  0  0  0  0  0  0  0  0  0  0
  153.3988  142.6471  160.4009 C   0  0  0  0  0  0  0  0  0  0  0  0
  152.6660  141.3506  160.0181 C   0  0  0  0  0  0  0  0  0  0  0  0
  151.6140  139.1014  158.7926 N   0  0  0  0  0  0  0  0  0  0  0  0
  151.3236  137.8468  158.3835 C   0  0  0  0  0  0  0  0  0  0  0  0
  150.8868  137.0171  159.1797 O   0  0  0  0  0  0  0  0  0  0  0  0
  151.5646  137.5858  156.9552 C   0  0  0  0  0  0  0  0  0  0  0  0
  151.2779  136.1815  156.4307 C   0  0  0  0  0  0  0  0  0  0  0  0
  149.9129  135.6522  156.9132 C   0  0  0  0  0  0  0  0  0  0  0  0
  149.7704  134.1214  156.8270 C   0  0  0  0  0  0  0  0  0  0  0  0
  149.6054  133.4726  157.8619 O   0  0  0  0  0  0  0  0  0  0  0  0
  149.8283  133.5323  155.6080 N   0  0  0  0  0  0  0  0  0  0  0  0
  150.0573  134.2899  154.3733 C   0  0  0  0  0  0  0  0  0  0  0  0
  149.7116  132.0736  155.4524 C   0  0  0  0  0  0  0  0  0  0  0  0
  149.3399  131.6450  154.0137 C   0  0  0  0  0  0  0  0  0  0  0  0
  147.9914  132.2519  153.5998 C   0  0  0  0  0  0  0  0  0  0  0  0
  149.3209  130.1169  153.8367 C   0  0  0  0  0  0  0  0  0  0  0  0
  151.4580  139.3207  159.7655 H   0  0  0  0  0  0  0  0  0  0  0  0
  151.4515  138.0103  154.1777 H   0  0  0  0  0  0  0  0  0  0  0  0
  153.1665  137.7501  154.5344 H   0  0  0  0  0  0  0  0  0  0  0  0
  152.5628  139.3769  154.2186 H   0  0  0  0  0  0  0  0  0  0  0  0
  151.4926  142.5908  157.1004 H   0  0  0  0  0  0  0  0  0  0  0  0
  150.6351  142.5510  158.6237 H   0  0  0  0  0  0  0  0  0  0  0  0
  153.3527  143.8859  158.0988 H   0  0  0  0  0  0  0  0  0  0  0  0
  151.8269  144.7022  158.3766 H   0  0  0  0  0  0  0  0  0  0  0  0
  154.3779  142.6964  159.9211 H   0  0  0  0  0  0  0  0  0  0  0  0
  153.5707  142.6767  161.4768 H   0  0  0  0  0  0  0  0  0  0  0  0
  151.7495  141.2529  160.6013 H   0  0  0  0  0  0  0  0  0  0  0  0
  153.2981  140.4991  160.2737 H   0  0  0  0  0  0  0  0  0  0  0  0
  151.3120  136.1776  155.3412 H   0  0  0  0  0  0  0  0  0  0  0  0
  152.0790  135.5097  156.7437 H   0  0  0  0  0  0  0  0  0  0  0  0
  149.7557  135.9557  157.9488 H   0  0  0  0  0  0  0  0  0  0  0  0
  149.1246  136.1164  156.3199 H   0  0  0  0  0  0  0  0  0  0  0  0
  151.0666  134.7026  154.3584 H   0  0  0  0  0  0  0  0  0  0  0  0
  149.3457  135.1104  154.2755 H   0  0  0  0  0  0  0  0  0  0  0  0
  149.9424  133.6743  153.4808 H   0  0  0  0  0  0  0  0  0  0  0  0
  150.6377  131.5818  155.7527 H   0  0  0  0  0  0  0  0  0  0  0  0
  148.9619  131.6982  156.1517 H   0  0  0  0  0  0  0  0  0  0  0  0
  150.0918  132.0437  153.3319 H   0  0  0  0  0  0  0  0  0  0  0  0
  147.1821  131.8895  154.2349 H   0  0  0  0  0  0  0  0  0  0  0  0
  147.7452  131.9967  152.5688 H   0  0  0  0  0  0  0  0  0  0  0  0
  148.0100  133.3397  153.6724 H   0  0  0  0  0  0  0  0  0  0  0  0
  148.6080  129.6486  154.5159 H   0  0  0  0  0  0  0  0  0  0  0  0
  150.3012  129.6793  154.0265 H   0  0  0  0  0  0  0  0  0  0  0  0
  149.0390  129.8436  152.8197 H   0  0  0  0  0  0  0  0  0  0  0  0
  1  2  1  0  0  0  0
  1 26  1  0  0  0  0
  1 27  1  0  0  0  0
  1 28  1  0  0  0  0
  2 14  2  0  0  0  0
  2  3  1  0  0  0  0
  3  4  2  0  0  0  0
  4  5  1  0  0  0  0
  4 11  1  0  0  0  0
  5 10  1  0  0  0  0
  5  6  1  0  0  0  0
  6  7  1  0  0  0  0
  6 29  1  0  0  0  0
  6 30  1  0  0  0  0
  7  8  1  0  0  0  0
  7 31  1  0  0  0  0
  7 32  1  0  0  0  0
  8  9  1  0  0  0  0
  9 10  1  0  0  0  0
  9 33  1  0  0  0  0
  9 34  1  0  0  0  0
 10 35  1  0  0  0  0
 10 36  1  0  0  0  0
 11 25  1  0  0  0  0
 11 12  1  0  0  0  0
 12 13  2  0  0  0  0
 12 14  1  0  0  0  0
 14 15  1  0  0  0  0
 15 16  1  0  0  0  0
 15 37  1  0  0  0  0
 15 38  1  0  0  0  0
 16 17  1  0  0  0  0
 16 39  1  0  0  0  0
 16 40  1  0  0  0  0
 17 18  2  0  0  0  0
 17 19  1  0  0  0  0
 19 20  1  0  0  0  0
 19 21  1  0  0  0  0
 20 41  1  0  0  0  0
 20 42  1  0  0  0  0
 20 43  1  0  0  0  0
 21 22  1  0  0  0  0
 21 44  1  0  0  0  0
 21 45  1  0  0  0  0
 22 23  1  0  0  0  0
 22 24  1  0  0  0  0
 22 46  1  0  0  0  0
 23 47  1  0  0  0  0
 23 48  1  0  0  0  0
 23 49  1  0  0  0  0
 24 50  1  0  0  0  0
 24 51  1  0  0  0  0
 24 52  1  0  0  0  0
M  END
> <s_m_source_file>
AV-unprocessed.smi

> <i_m_source_file_index>
824

> <i_lp_mmshare_version>
43012

> <i_f3d_flags>
0

> <s_epik_input>
W0NIMl0xW0NIMl1PW0NIMl1bQ0gyXU4xYyhuYzJbQ0gzXSlbbkhdYyg9TyljMltDSDJdW0NIMl1DKD1PKU4oW0NIM10pW0NIMl1bQ0hdKFtDSDNdKVtDSDNd

> <s_epik_cmdline>
J2VwaWtfcHl0aG9uJywgJy1waCcsICc3LjAnLCAnLXRuJywgJzgnLCAnLW1hJywgJzIwMCcsICctbWV0YWxfYmluZGluZycsICctaW1hZScsICc8aW5maWxlLm1hZT4nLCAnLW9tYWUnLCAnPG91dGZpbGUubWFlPic=

> <r_lp_tautomer_probability>
0.878553

> <r_epik_Ionization_Penalty>
0.00115806

> <r_epik_Ionization_Penalty_Charging>
0.00113132

> <r_epik_Ionization_Penalty_Neutral>
2.67354e-05

> <r_epik_State_Penalty>
0.0423856

> <r_epik_Charging_Adjusted_Penalty>
0.0435169

> <i_epik_Tot_Q>
0

> <i_epik_Tot_abs_Q>
0

> <r_epik_Metal_State_Penalty>
1.05917

> <b_epik_Metal_Only>
0

> <s_lp_Force_Field>
OPLS_2005

> <r_lp_Energy>
33.2944

> <b_lp_Chiralities_Consistent>
1

> <s_lp_Variant>
AV-unprocessed.smi:824-1

> <Gold.Version>
5.8.1

> <Gold.Id.Protein>
6NUR|6NUR_protein|mol2

> <Gold.PLP.Fitness>
48.2141

> <Gold.PLP.PLP>
-41.4633

> <Gold.PLP.part.hbond>
-3.0000

> <Gold.PLP.part.metal>
0.0000

> <Gold.PLP.part.buried>
-7.0086

> <Gold.PLP.part.nonpolar>
-32.1215

> <Gold.PLP.part.repulsive>
0.1265

> <Gold.PLP.ligand.clash>
0.0000

> <Gold.PLP.ligand.torsion>
1.2760

> <Gold.PLP.Chemscore.Hbond>
2.9913

> <Gold.PLP.Chemscore.CHOScore>
0.0000

> <Gold.PLP.Chemscore.Metal>
0.0000

> <Gold.Chemscore.Hbonds>
donor molecule, donor type, donor heavy atom, donor atom, acceptor molecule, acceptor atom, score
      P1  H  6896  6907       L1    13  0.96
      P1  H  6896  6909       L1    18  1.00
      P1  H  7997  8009       L1     3  0.93

> <Gold.PLP.Chemscore.Internal.Correction>
0.3290

> <Gold.Rescore>
     Score         DG    S(hbond)    S(metal)    S(lipo)     H(rot)  DE(clash)    DE(int)     intcor
     15.44     -18.89       2.00        0.00      95.05       1.71       0.01       3.44       ----

> <Gold.Chemscore.Fitness>
15.4392

> <Gold.Chemscore.DG>
-18.8887

> <Gold.Chemscore.ZeroCoef>
-5.4800

> <Gold.Chemscore.Hbond>
1.9952

> <Gold.Chemscore.Metal>
0.0000

> <Gold.Chemscore.Lipo>
95.0483

> <Gold.Chemscore.Internal_Hbond>
0.0000

> <Gold.Chemscore.DEClash>
0.0095

> <Gold.Chemscore.DEInternal>
3.4400

> <Gold.Chemscore.Rot>
1.7093

> <Gold.Chemscore.Internal.Correction>
   9.000000E+99

> <Gold.Chemscore.Hbonds>
donor molecule, donor type, donor heavy atom, donor atom, acceptor molecule, acceptor atom, score
      P1  H  6896  6907       L1    13  0.90
      P1  H  6896  6909       L1    18  0.92
      P1  H  7997  8009       L1     3  0.15

> <Gold.Chemscore.Hbond.Weighted>
-6.6639

> <Gold.Chemscore.Metal.Weighted>
-0.0000

> <Gold.Chemscore.Lipo.Weighted>
-11.1206

> <Gold.Chemscore.Internal_Hbond.Weighted>
0.0000

> <Gold.Chemscore.DEClash.Weighted>
0.0095

> <Gold.Chemscore.DEInternal.Weighted>
3.4400

> <Gold.Chemscore.Rot.Weighted>
4.3759

> <Gold.Chemscore.Internal.Correction.Weighted>
   9.000000E+99

> <Gold.Protein.RotatedTorsions>
[ 6907 6896 6895 6894 ] final  -16.71 input  -60.11 | X-H torsion
[ 7974 7965 7964 7962 ] final -179.23 input  175.53 | X-H torsion
[ 8008 7997 7996 7995 ] final -172.79 input   59.86 | X-H torsion
[ 10167 10162 10161 10158 ] final  163.57 input  -65.29 | X-H torsion
[ 10718 10713 10712 10709 ] final   70.56 input   66.30 | X-H torsion
[ 10763 10752 10751 10750 ] final  163.26 input  -60.55 | X-H torsion
[ 11005 11000 10999 10996 ] final   49.61 input  -57.11 | X-H torsion

> <Gold.Protein.ActiveResidues>
 VAL166  LYS551  ARG553  GLY616  TRP617  ASP618  TYR619  PRO620  LYS621  CYS622 
 ASP623  PHE694  ASN695  SER759  ASP760  ASP761  ALA762  ILE779  LEU786  VAL792 
 PHE793  MET794  SER795  GLU796  ALA797  LYS798  CYS799  TRP800  GLU811  SER814 

> <Gold.Protein.RotatedAtoms>
  151.3045  135.0777  159.9250 H   0  0  0  0  0  0  0  0  0  0  0  0  # atno 6907 bound_to 6896
  152.5291  133.9799  159.7812 H   0  0  0  0  0  0  0  0  0  0  0  0  # atno 6908 bound_to 6896
  151.0092  133.5930  159.2715 H   0  0  0  0  0  0  0  0  0  0  0  0  # atno 6909 bound_to 6896
  144.7135  140.0749  143.6428 H   0  0  0  0  0  0  0  0  0  0  0  0  # atno 7974 bound_to 7965
  155.9491  140.1123  157.0992 H   0  0  0  0  0  0  0  0  0  0  0  0  # atno 8008 bound_to 7997
  154.4105  140.1204  156.5094 H   0  0  0  0  0  0  0  0  0  0  0  0  # atno 8009 bound_to 7997
  155.6865  140.3473  155.4878 H   0  0  0  0  0  0  0  0  0  0  0  0  # atno 8010 bound_to 7997
  139.4876  144.4323  151.9055 H   0  0  0  0  0  0  0  0  0  0  0  0  # atno 10167 bound_to 10162
  157.6406  130.9484  150.0668 H   0  0  0  0  0  0  0  0  0  0  0  0  # atno 10718 bound_to 10713
  154.2910  135.2761  155.2655 H   0  0  0  0  0  0  0  0  0  0  0  0  # atno 10763 bound_to 10752
  154.5134  135.5776  153.6626 H   0  0  0  0  0  0  0  0  0  0  0  0  # atno 10764 bound_to 10752
  152.9914  135.6186  154.3075 H   0  0  0  0  0  0  0  0  0  0  0  0  # atno 10765 bound_to 10752
  140.1089  134.4981  155.8695 H   0  0  0  0  0  0  0  0  0  0  0  0  # atno 11005 bound_to 11000
  145.9751  139.2899  143.1075 LP  0  0  0  0  0  0  0  0  0  0  0  0  # atno 17320 bound_to 7965
  145.9073  140.9203  143.0472 LP  0  0  0  0  0  0  0  0  0  0  0  0  # atno 17321 bound_to 7965
  140.3771  144.2782  150.5913 LP  0  0  0  0  0  0  0  0  0  0  0  0  # atno 17342 bound_to 10162
  140.5266  143.2253  151.8304 LP  0  0  0  0  0  0  0  0  0  0  0  0  # atno 17343 bound_to 10162
  156.1684  130.3645  149.9199 LP  0  0  0  0  0  0  0  0  0  0  0  0  # atno 17370 bound_to 10713
  156.7181  130.8996  151.3615 LP  0  0  0  0  0  0  0  0  0  0  0  0  # atno 17371 bound_to 10713
  141.2125  133.6720  156.6665 LP  0  0  0  0  0  0  0  0  0  0  0  0  # atno 17394 bound_to 11000
  140.3118  134.8080  157.4182 LP  0  0  0  0  0  0  0  0  0  0  0  0  # atno 17395 bound_to 11000

$$$$
