AV-unprocessed.smi:3177|AV-procd|sdf|12129|dock1
  -GOLD-   2272017573D 1   1.00000     0.00000
 Structure written by MMmdl.
 30 31  0  0  0  0  0  0  0  0  1 V2000
  154.0123  141.0369  161.0293 C   0  0  0  0  0  0  0  0  0  0  0  0
  153.7269  142.3064  160.4524 O   0  0  0  0  0  0  0  0  0  0  0  0
  152.8207  142.3651  159.4135 C   0  0  0  0  0  0  0  0  0  0  0  0
  152.5303  143.6202  158.8424 C   0  0  0  0  0  0  0  0  0  0  0  0
  151.6035  143.6897  157.7848 C   0  0  0  0  0  0  0  0  0  0  0  0
  150.9883  142.4971  157.3358 C   0  0  0  0  0  0  0  0  0  0  0  0
  150.0547  142.4366  156.2668 N   0  0  0  0  0  0  0  0  0  0  0  0
  149.9305  141.4921  155.3151 C   0  0  0  0  0  0  0  0  0  0  0  0
  150.6791  140.5213  155.2030 O   0  0  0  0  0  0  0  0  0  0  0  0
  148.8087  141.7059  154.2871 C   0  0  1  0  0  0  0  0  0  0  0  0
  148.6034  140.5360  153.3044 C   0  0  0  0  0  0  0  0  0  0  0  0
  147.1254  140.2002  153.4241 C   0  0  0  0  0  0  0  0  0  0  0  0
  146.5368  141.4567  154.0508 C   0  0  0  0  0  0  0  0  0  0  0  0
  147.5554  141.8540  154.9516 O   0  0  0  0  0  0  0  0  0  0  0  0
  151.3611  141.2896  157.9615 C   0  0  0  0  0  0  0  0  0  0  0  0
  152.2471  141.2163  158.9771 N   0  0  0  0  0  0  0  0  0  0  0  0
  154.7399  141.1608  161.8312 H   0  0  0  0  0  0  0  0  0  0  0  0
  154.4413  140.3522  160.2965 H   0  0  0  0  0  0  0  0  0  0  0  0
  153.1181  140.5852  161.4614 H   0  0  0  0  0  0  0  0  0  0  0  0
  153.0132  144.5149  159.2067 H   0  0  0  0  0  0  0  0  0  0  0  0
  151.3947  144.6469  157.3323 H   0  0  0  0  0  0  0  0  0  0  0  0
  149.4391  143.2325  156.1790 H   0  0  0  0  0  0  0  0  0  0  0  0
  149.0125  142.6217  153.7300 H   0  0  0  0  0  0  0  0  0  0  0  0
  148.8431  140.8571  152.2902 H   0  0  0  0  0  0  0  0  0  0  0  0
  149.2155  139.6602  153.5234 H   0  0  0  0  0  0  0  0  0  0  0  0
  146.6656  139.9470  152.4685 H   0  0  0  0  0  0  0  0  0  0  0  0
  146.9916  139.3545  154.0998 H   0  0  0  0  0  0  0  0  0  0  0  0
  146.3797  142.2349  153.3019 H   0  0  0  0  0  0  0  0  0  0  0  0
  145.5931  141.2711  154.5640 H   0  0  0  0  0  0  0  0  0  0  0  0
  150.9302  140.3514  157.6434 H   0  0  0  0  0  0  0  0  0  0  0  0
  1  2  1  0  0  0  0
  1 17  1  0  0  0  0
  1 18  1  0  0  0  0
  1 19  1  0  0  0  0
  2  3  1  0  0  0  0
  3 16  1  0  0  0  0
  3  4  2  0  0  0  0
  4  5  1  0  0  0  0
  4 20  1  0  0  0  0
  5  6  2  0  0  0  0
  5 21  1  0  0  0  0
  6  7  1  0  0  0  0
  6 15  1  0  0  0  0
  7  8  1  0  0  0  0
  7 22  1  0  0  0  0
  8  9  2  0  0  0  0
  8 10  1  0  0  0  0
 10 14  1  0  0  0  0
 10 11  1  0  0  0  0
 10 23  1  0  0  0  0
 11 12  1  0  0  0  0
 11 24  1  0  0  0  0
 11 25  1  0  0  0  0
 12 13  1  0  0  0  0
 12 26  1  0  0  0  0
 12 27  1  0  0  0  0
 13 14  1  0  0  0  0
 13 28  1  0  0  0  0
 13 29  1  0  0  0  0
 15 16  2  0  0  0  0
 15 30  1  0  0  0  0
M  END
> <s_m_source_file>
AV-unprocessed.smi

> <i_m_source_file_index>
3177

> <i_lp_mmshare_version>
43012

> <i_f3d_flags>
0

> <s_epik_input>
W0NIM11PYzFbY0hdW2NIXWMoW2NIXW4xKVtOSF1DKD1PKVtDQEBIXTJbQ0gyXVtDSDJdW0NIMl1PMg==

> <s_epik_cmdline>
J2VwaWtfcHl0aG9uJywgJy1waCcsICc3LjAnLCAnLXRuJywgJzgnLCAnLW1hJywgJzIwMCcsICctbWV0YWxfYmluZGluZycsICctaW1hZScsICc8aW5maWxlLm1hZT4nLCAnLW9tYWUnLCAnPG91dGZpbGUubWFlPic=

> <r_lp_tautomer_probability>
1

> <r_epik_Ionization_Penalty>
2.59882e-05

> <r_epik_Ionization_Penalty_Charging>
0

> <r_epik_Ionization_Penalty_Neutral>
2.59882e-05

> <r_epik_State_Penalty>
-0

> <r_epik_Charging_Adjusted_Penalty>
0

> <i_epik_Tot_Q>
0

> <i_epik_Tot_abs_Q>
0

> <r_epik_Metal_State_Penalty>
-0

> <b_epik_Metal_Only>
0

> <s_lp_Force_Field>
OPLS_2005

> <r_lp_Energy>
23.4502

> <b_lp_Chiralities_Consistent>
1

> <s_lp_Variant>
AV-unprocessed.smi:3177-2

> <Gold.Version>
5.8.1

> <Gold.Id.Protein>
6NUR|6NUR_protein|mol2

> <Gold.PLP.Fitness>
38.4556

> <Gold.PLP.PLP>
-33.1742

> <Gold.PLP.part.hbond>
-2.0000

> <Gold.PLP.part.metal>
0.0000

> <Gold.PLP.part.buried>
0.8433

> <Gold.PLP.part.nonpolar>
-32.4946

> <Gold.PLP.part.repulsive>
0.2850

> <Gold.PLP.ligand.clash>
0.0000

> <Gold.PLP.ligand.torsion>
0.3601

> <Gold.PLP.Chemscore.Hbond>
1.9920

> <Gold.PLP.Chemscore.CHOScore>
0.0000

> <Gold.PLP.Chemscore.Metal>
0.0000

> <Gold.Chemscore.Hbonds>
donor molecule, donor type, donor heavy atom, donor atom, acceptor molecule, acceptor atom, score
      L1  H     7    22       P1  8028  1.00
      P1  H  7989  7998       L1     9  0.99

> <Gold.PLP.Chemscore.Internal.Correction>
0.0256

> <Gold.Rescore>
     Score         DG    S(hbond)    S(metal)    S(lipo)     H(rot)  DE(clash)    DE(int)     intcor
     13.95     -17.32       1.68        0.00      80.44       1.24       1.87       1.50       ----

> <Gold.Chemscore.Fitness>
13.9497

> <Gold.Chemscore.DG>
-17.3212

> <Gold.Chemscore.ZeroCoef>
-5.4800

> <Gold.Chemscore.Hbond>
1.6764

> <Gold.Chemscore.Metal>
0.0000

> <Gold.Chemscore.Lipo>
80.4383

> <Gold.Chemscore.Internal_Hbond>
0.0000

> <Gold.Chemscore.DEClash>
1.8732

> <Gold.Chemscore.DEInternal>
1.4983

> <Gold.Chemscore.Rot>
1.2381

> <Gold.Chemscore.Internal.Correction>
   9.000000E+99

> <Gold.Chemscore.Hbonds>
donor molecule, donor type, donor heavy atom, donor atom, acceptor molecule, acceptor atom, score
      L1  H     7    22       P1  8028  0.99
      P1  H  7989  7998       L1     9  0.36

> <Gold.Chemscore.Hbond.Weighted>
-5.5993

> <Gold.Chemscore.Metal.Weighted>
-0.0000

> <Gold.Chemscore.Lipo.Weighted>
-9.4113

> <Gold.Chemscore.Internal_Hbond.Weighted>
0.0000

> <Gold.Chemscore.DEClash.Weighted>
1.8732

> <Gold.Chemscore.DEInternal.Weighted>
1.4983

> <Gold.Chemscore.Rot.Weighted>
3.1694

> <Gold.Chemscore.Internal.Correction.Weighted>
   9.000000E+99

> <Gold.Protein.RotatedTorsions>
[ 6907 6896 6895 6894 ] final  162.85 input  -60.11 | X-H torsion
[ 7974 7965 7964 7962 ] final  137.73 input  175.53 | X-H torsion
[ 8008 7997 7996 7995 ] final   61.96 input   59.86 | X-H torsion
[ 10167 10162 10161 10158 ] final   17.09 input  -65.29 | X-H torsion
[ 10718 10713 10712 10709 ] final  -52.41 input   66.30 | X-H torsion
[ 10763 10752 10751 10750 ] final -171.79 input  -60.55 | X-H torsion
[ 11005 11000 10999 10996 ] final   19.51 input  -57.11 | X-H torsion

> <Gold.Protein.ActiveResidues>
 VAL166  LYS551  ARG553  GLY616  TRP617  ASP618  TYR619  PRO620  LYS621  CYS622 
 ASP623  PHE694  ASN695  SER759  ASP760  ASP761  ALA762  ILE779  LEU786  VAL792 
 PHE793  MET794  SER795  GLU796  ALA797  LYS798  CYS799  TRP800  GLU811  SER814 

> <Gold.Protein.RotatedAtoms>
  151.9341  133.3619  159.3941 H   0  0  0  0  0  0  0  0  0  0  0  0  # atno 6907 bound_to 6896
  150.7011  134.4507  159.5344 H   0  0  0  0  0  0  0  0  0  0  0  0  # atno 6908 bound_to 6896
  152.2153  134.8464  160.0543 H   0  0  0  0  0  0  0  0  0  0  0  0  # atno 6909 bound_to 6896
  144.9440  139.4897  143.5558 H   0  0  0  0  0  0  0  0  0  0  0  0  # atno 7974 bound_to 7965
  155.6067  140.3494  155.4610 H   0  0  0  0  0  0  0  0  0  0  0  0  # atno 8008 bound_to 7997
  156.0186  140.1248  157.0405 H   0  0  0  0  0  0  0  0  0  0  0  0  # atno 8009 bound_to 7997
  154.4307  140.1067  156.5917 H   0  0  0  0  0  0  0  0  0  0  0  0  # atno 8010 bound_to 7997
  140.5751  143.9088  150.6743 H   0  0  0  0  0  0  0  0  0  0  0  0  # atno 10167 bound_to 10162
  156.1624  130.4149  149.9773 H   0  0  0  0  0  0  0  0  0  0  0  0  # atno 10718 bound_to 10713
  154.6266  135.2881  155.0265 H   0  0  0  0  0  0  0  0  0  0  0  0  # atno 10763 bound_to 10752
  154.1441  135.6514  153.4952 H   0  0  0  0  0  0  0  0  0  0  0  0  # atno 10764 bound_to 10752
  153.0260  135.5340  154.7076 H   0  0  0  0  0  0  0  0  0  0  0  0  # atno 10765 bound_to 10752
  140.4129  134.1599  155.7668 H   0  0  0  0  0  0  0  0  0  0  0  0  # atno 11005 bound_to 11000
  146.3296  139.8479  142.8878 LP  0  0  0  0  0  0  0  0  0  0  0  0  # atno 17320 bound_to 7965
  145.2947  141.0177  143.3643 LP  0  0  0  0  0  0  0  0  0  0  0  0  # atno 17321 bound_to 7965
  140.2573  143.3549  152.1354 LP  0  0  0  0  0  0  0  0  0  0  0  0  # atno 17342 bound_to 10162
  139.5138  144.6938  151.5686 LP  0  0  0  0  0  0  0  0  0  0  0  0  # atno 17343 bound_to 10162
  156.7598  130.9146  151.3641 LP  0  0  0  0  0  0  0  0  0  0  0  0  # atno 17370 bound_to 10713
  157.6742  130.9079  150.0112 LP  0  0  0  0  0  0  0  0  0  0  0  0  # atno 17371 bound_to 10713
  141.1814  133.8406  157.1244 LP  0  0  0  0  0  0  0  0  0  0  0  0  # atno 17394 bound_to 11000
  140.0254  134.9926  157.0676 LP  0  0  0  0  0  0  0  0  0  0  0  0  # atno 17395 bound_to 11000

$$$$
