AV-unprocessed.smi:2198|AV-procd|sdf|8920|dock4
  -GOLD-   2272012133D 1   1.00000     0.00000
 Structure written by MMmdl.
 42 43  0  0  0  0  0  0  0  0  2 V2000
  149.9336  134.3248  155.3350 C   0  0  0  0  0  0  0  0  0  0  0  0
  150.1291  135.8174  155.1759 C   0  0  0  0  0  0  0  0  0  0  0  0
  149.1265  136.5971  155.3209 N   0  0  0  0  0  0  0  0  0  0  0  0
  149.3002  137.9830  155.1660 C   0  0  0  0  0  0  0  0  0  0  0  0
  148.0542  138.8321  155.3474 C   0  0  0  0  0  0  0  0  0  0  0  0
  150.5209  138.5122  154.8654 C   0  0  0  0  0  0  0  0  0  0  0  0
  150.7596  140.0103  154.6730 C   0  0  0  0  0  0  0  0  0  0  0  0
  150.6262  140.8883  155.9199 C   0  0  0  0  0  0  0  0  0  0  0  0
  149.7494  141.7496  155.9949 O   0  0  0  0  0  0  0  0  0  0  0  0
  151.5213  140.6624  156.8936 N   0  0  0  0  0  0  0  0  0  0  0  0
  151.6039  141.4015  158.1495 C   0  0  1  0  0  0  0  0  0  0  0  0
  152.7876  140.8783  158.9829 C   0  0  0  0  0  0  0  0  0  0  0  0
  152.9391  141.6702  160.2908 C   0  0  0  0  0  0  0  0  0  0  0  0
  153.0856  143.1752  160.0169 C   0  0  0  0  0  0  0  0  0  0  0  0
  151.9065  143.7163  159.1861 C   0  0  1  0  0  0  0  0  0  0  0  0
  152.0606  145.2181  158.9066 C   0  0  0  0  0  0  0  0  0  0  0  0
  151.7527  142.9136  157.8797 C   0  0  0  0  0  0  0  0  0  0  0  0
  151.6533  137.5802  154.7202 C   0  0  0  0  0  0  0  0  0  0  0  0
  152.7805  138.0070  154.4724 O   0  0  0  0  0  0  0  0  0  0  0  0
  151.4013  136.2489  154.8747 N   0  5  0  0  0  0  0  0  0  0  0  0
  148.9662  134.1017  155.7871 H   0  0  0  0  0  0  0  0  0  0  0  0
  150.7119  133.9033  155.9720 H   0  0  0  0  0  0  0  0  0  0  0  0
  149.9793  133.8353  154.3620 H   0  0  0  0  0  0  0  0  0  0  0  0
  147.7683  139.2940  154.4024 H   0  0  0  0  0  0  0  0  0  0  0  0
  148.2251  139.6184  156.0828 H   0  0  0  0  0  0  0  0  0  0  0  0
  147.2142  138.2297  155.6953 H   0  0  0  0  0  0  0  0  0  0  0  0
  151.7390  140.1874  154.2272 H   0  0  0  0  0  0  0  0  0  0  0  0
  150.0487  140.3765  153.9321 H   0  0  0  0  0  0  0  0  0  0  0  0
  152.2037  139.9327  156.7478 H   0  0  0  0  0  0  0  0  0  0  0  0
  150.6886  141.2324  158.7203 H   0  0  0  0  0  0  0  0  0  0  0  0
  152.6489  139.8201  159.2084 H   0  0  0  0  0  0  0  0  0  0  0  0
  153.7103  140.9537  158.4055 H   0  0  0  0  0  0  0  0  0  0  0  0
  152.0693  141.4967  160.9257 H   0  0  0  0  0  0  0  0  0  0  0  0
  153.8046  141.3082  160.8464 H   0  0  0  0  0  0  0  0  0  0  0  0
  153.1536  143.7130  160.9633 H   0  0  0  0  0  0  0  0  0  0  0  0
  154.0230  143.3585  159.4903 H   0  0  0  0  0  0  0  0  0  0  0  0
  150.9948  143.5829  159.7701 H   0  0  0  0  0  0  0  0  0  0  0  0
  152.9623  145.4232  158.3289 H   0  0  0  0  0  0  0  0  0  0  0  0
  152.1239  145.7856  159.8355 H   0  0  0  0  0  0  0  0  0  0  0  0
  151.2097  145.6024  158.3435 H   0  0  0  0  0  0  0  0  0  0  0  0
  152.6192  143.0880  157.2398 H   0  0  0  0  0  0  0  0  0  0  0  0
  150.8855  143.2784  157.3274 H   0  0  0  0  0  0  0  0  0  0  0  0
  1  2  1  0  0  0  0
  1 21  1  0  0  0  0
  1 22  1  0  0  0  0
  1 23  1  0  0  0  0
  2 20  1  0  0  0  0
  2  3  2  0  0  0  0
  3  4  1  0  0  0  0
  4  5  1  0  0  0  0
  4  6  2  0  0  0  0
  5 24  1  0  0  0  0
  5 25  1  0  0  0  0
  5 26  1  0  0  0  0
  6  7  1  0  0  0  0
  6 18  1  0  0  0  0
  7  8  1  0  0  0  0
  7 27  1  0  0  0  0
  7 28  1  0  0  0  0
  8  9  2  0  0  0  0
  8 10  1  0  0  0  0
 10 11  1  0  0  0  0
 10 29  1  0  0  0  0
 11 17  1  0  0  0  0
 11 12  1  0  0  0  0
 11 30  1  0  0  0  0
 12 13  1  0  0  0  0
 12 31  1  0  0  0  0
 12 32  1  0  0  0  0
 13 14  1  0  0  0  0
 13 33  1  0  0  0  0
 13 34  1  0  0  0  0
 14 15  1  0  0  0  0
 14 35  1  0  0  0  0
 14 36  1  0  0  0  0
 15 16  1  0  0  0  0
 15 17  1  0  0  0  0
 15 37  1  0  0  0  0
 16 38  1  0  0  0  0
 16 39  1  0  0  0  0
 16 40  1  0  0  0  0
 17 41  1  0  0  0  0
 17 42  1  0  0  0  0
 18 19  2  0  0  0  0
 18 20  1  0  0  0  0
M  CHG  1  20  -1
M  END
> <s_m_source_file>
AV-unprocessed.smi

> <i_m_source_file_index>
2198

> <i_lp_mmshare_version>
43012

> <i_f3d_flags>
0

> <s_epik_input>
W0NIM11jMW5jKFtDSDNdKWMoYyg9TylbbkhdMSlbQ0gyXUMoPU8pW05IXVtDQEBIXTJbQ0gyXVtDSDJdW0NIMl1bQ0BASF0oW0NIM10pW0NIMl0y

> <s_epik_cmdline>
J2VwaWtfcHl0aG9uJywgJy1waCcsICc3LjAnLCAnLXRuJywgJzgnLCAnLW1hJywgJzIwMCcsICctbWV0YWxfYmluZGluZycsICctaW1hZScsICc8aW5maWxlLm1hZT4nLCAnLW9tYWUnLCAnPG91dGZpbGUubWFlPic=

> <r_lp_tautomer_probability>
0.839158

> <r_epik_Ionization_Penalty>
6.67193

> <r_epik_Ionization_Penalty_Charging>
7.66837e-08

> <r_epik_Ionization_Penalty_Neutral>
6.67193

> <r_epik_State_Penalty>
4.51643

> <r_epik_Charging_Adjusted_Penalty>
4.51643

> <i_epik_Tot_Q>
-1

> <i_epik_Tot_abs_Q>
1

> <r_epik_Metal_State_Penalty>
0.851582

> <b_epik_Metal_Only>
1

> <s_lp_Force_Field>
OPLS_2005

> <r_lp_Energy>
13.5939

> <b_lp_Chiralities_Consistent>
1

> <s_lp_Variant>
AV-unprocessed.smi:2198-10

> <Gold.Version>
5.8.1

> <Gold.Id.Protein>
6NUR|6NUR_protein|mol2

> <Gold.PLP.Fitness>
44.5185

> <Gold.PLP.PLP>
-38.7008

> <Gold.PLP.part.hbond>
-1.8775

> <Gold.PLP.part.metal>
0.0000

> <Gold.PLP.part.buried>
-3.2554

> <Gold.PLP.part.nonpolar>
-34.8444

> <Gold.PLP.part.repulsive>
0.9319

> <Gold.PLP.ligand.clash>
0.0000

> <Gold.PLP.ligand.torsion>
0.0930

> <Gold.PLP.Chemscore.Hbond>
2.0000

> <Gold.PLP.Chemscore.CHOScore>
0.0000

> <Gold.PLP.Chemscore.Metal>
0.0000

> <Gold.Chemscore.Hbonds>
donor molecule, donor type, donor heavy atom, donor atom, acceptor molecule, acceptor atom, score
      P1  H 10752 10763       L1    20  2.00

> <Gold.PLP.Chemscore.Internal.Correction>
0.0037

> <Gold.Rescore>
     Score         DG    S(hbond)    S(metal)    S(lipo)     H(rot)  DE(clash)    DE(int)     intcor
     14.34     -16.56       0.94        0.00      99.55       1.45       2.06       0.16       ----

> <Gold.Chemscore.Fitness>
14.3423

> <Gold.Chemscore.DG>
-16.5627

> <Gold.Chemscore.ZeroCoef>
-5.4800

> <Gold.Chemscore.Hbond>
0.9386

> <Gold.Chemscore.Metal>
0.0000

> <Gold.Chemscore.Lipo>
99.5473

> <Gold.Chemscore.Internal_Hbond>
0.0000

> <Gold.Chemscore.DEClash>
2.0612

> <Gold.Chemscore.DEInternal>
0.1591

> <Gold.Chemscore.Rot>
1.4450

> <Gold.Chemscore.Internal.Correction>
   9.000000E+99

> <Gold.Chemscore.Hbonds>
donor molecule, donor type, donor heavy atom, donor atom, acceptor molecule, acceptor atom, score
      P1  H 10752 10763       L1    20  0.30

> <Gold.Chemscore.Hbond.Weighted>
-3.1348

> <Gold.Chemscore.Metal.Weighted>
-0.0000

> <Gold.Chemscore.Lipo.Weighted>
-11.6470

> <Gold.Chemscore.Internal_Hbond.Weighted>
0.0000

> <Gold.Chemscore.DEClash.Weighted>
2.0612

> <Gold.Chemscore.DEInternal.Weighted>
0.1591

> <Gold.Chemscore.Rot.Weighted>
3.6992

> <Gold.Chemscore.Internal.Correction.Weighted>
   9.000000E+99

> <Gold.Protein.RotatedTorsions>
[ 6907 6896 6895 6894 ] final -120.66 input  -60.11 | X-H torsion
[ 7974 7965 7964 7962 ] final -164.95 input  175.53 | X-H torsion
[ 8008 7997 7996 7995 ] final -155.49 input   59.86 | X-H torsion
[ 10167 10162 10161 10158 ] final  -75.07 input  -65.29 | X-H torsion
[ 10718 10713 10712 10709 ] final   13.29 input   66.30 | X-H torsion
[ 10763 10752 10751 10750 ] final   58.21 input  -60.55 | X-H torsion
[ 11005 11000 10999 10996 ] final    6.08 input  -57.11 | X-H torsion

> <Gold.Protein.ActiveResidues>
 VAL166  LYS551  ARG553  GLY616  TRP617  ASP618  TYR619  PRO620  LYS621  CYS622 
 ASP623  PHE694  ASN695  SER759  ASP760  ASP761  ALA762  ILE779  LEU786  VAL792 
 PHE793  MET794  SER795  GLU796  ALA797  LYS798  CYS799  TRP800  GLU811  SER814 

> <Gold.Protein.RotatedAtoms>
  150.8413  133.7932  159.3059 H   0  0  0  0  0  0  0  0  0  0  0  0  # atno 6907 bound_to 6896
  151.5632  135.1063  159.9987 H   0  0  0  0  0  0  0  0  0  0  0  0  # atno 6908 bound_to 6896
  152.4476  133.7524  159.6757 H   0  0  0  0  0  0  0  0  0  0  0  0  # atno 6909 bound_to 6896
  144.7283  140.2886  143.6224 H   0  0  0  0  0  0  0  0  0  0  0  0  # atno 7974 bound_to 7965
  155.7027  140.0768  157.2404 H   0  0  0  0  0  0  0  0  0  0  0  0  # atno 8008 bound_to 7997
  154.4070  140.1644  156.2262 H   0  0  0  0  0  0  0  0  0  0  0  0  # atno 8009 bound_to 7997
  155.9353  140.3388  155.6286 H   0  0  0  0  0  0  0  0  0  0  0  0  # atno 8010 bound_to 7997
  140.4974  143.2368  151.7808 H   0  0  0  0  0  0  0  0  0  0  0  0  # atno 10167 bound_to 10162
  157.0225  130.6160  149.5723 H   0  0  0  0  0  0  0  0  0  0  0  0  # atno 10718 bound_to 10713
  152.9866  135.5615  154.5515 H   0  0  0  0  0  0  0  0  0  0  0  0  # atno 10763 bound_to 10752
  154.4951  135.2794  155.1468 H   0  0  0  0  0  0  0  0  0  0  0  0  # atno 10764 bound_to 10752
  154.2921  135.6324  153.5442 H   0  0  0  0  0  0  0  0  0  0  0  0  # atno 10765 bound_to 10752
  140.5634  134.0170  155.7980 H   0  0  0  0  0  0  0  0  0  0  0  0  # atno 11005 bound_to 11000
  145.7878  139.1915  143.2120 LP  0  0  0  0  0  0  0  0  0  0  0  0  # atno 17320 bound_to 7965
  146.0781  140.7795  142.9655 LP  0  0  0  0  0  0  0  0  0  0  0  0  # atno 17321 bound_to 7965
  139.4864  144.4568  151.9588 LP  0  0  0  0  0  0  0  0  0  0  0  0  # atno 17342 bound_to 10162
  140.3656  144.2919  150.5927 LP  0  0  0  0  0  0  0  0  0  0  0  0  # atno 17343 bound_to 10162
  156.0097  130.5187  150.7948 LP  0  0  0  0  0  0  0  0  0  0  0  0  # atno 17370 bound_to 10713
  157.5238  131.0933  151.0044 LP  0  0  0  0  0  0  0  0  0  0  0  0  # atno 17371 bound_to 10713
  141.1100  133.9631  157.2927 LP  0  0  0  0  0  0  0  0  0  0  0  0  # atno 17394 bound_to 11000
  139.9396  135.0192  156.8667 LP  0  0  0  0  0  0  0  0  0  0  0  0  # atno 17395 bound_to 11000

$$$$
