AV-unprocessed.smi:1831|AV-procd|sdf|7458|dock8
  -GOLD-   22720 9153D 1   1.00000     0.00000
 Structure written by MMmdl.
 41 42  0  0  0  0  0  0  0  0  2 V2000
  143.3789  140.2987  159.4311 C   0  0  0  0  0  0  0  0  0  0  0  0
  143.7551  139.6027  158.1682 C   0  0  0  0  0  0  0  0  0  0  0  0
  144.2073  138.3433  158.1465 N   0  0  0  0  0  0  0  0  0  0  0  0
  144.4940  137.9094  156.8599 N   0  0  0  0  0  0  0  0  0  0  0  0
  144.2494  138.8586  155.9461 C   0  0  0  0  0  0  0  0  0  0  0  0
  144.4548  138.6829  154.5518 N   0  0  0  0  0  0  0  0  0  0  0  0
  144.8995  137.5892  153.9077 C   0  0  0  0  0  0  0  0  0  0  0  0
  145.2082  136.5237  154.4416 O   0  0  0  0  0  0  0  0  0  0  0  0
  144.9651  137.7960  152.5852 N   0  0  0  0  0  0  0  0  0  0  0  0
  145.3816  136.7917  151.6134 C   0  0  0  0  0  0  0  0  0  0  0  0
  144.3039  135.7103  151.4310 C   0  0  2  0  0  0  0  0  0  0  0  0
  144.2917  134.6599  152.5391 C   0  0  0  0  0  0  0  0  0  0  0  0
  143.6687  133.4154  151.8935 C   0  0  0  0  0  0  0  0  0  0  0  0
  143.6580  133.6407  150.4257 N   0  3  2  0  0  0  0  0  0  0  0  0
  144.0058  132.4508  149.5981 C   0  0  0  0  0  0  0  0  0  0  0  0
  145.4807  132.0427  149.7774 C   0  0  0  0  0  0  0  0  0  0  0  0
  143.7238  132.7113  148.1064 C   0  0  0  0  0  0  0  0  0  0  0  0
  144.4679  134.8532  150.1754 C   0  0  0  0  0  0  0  0  0  0  0  0
  143.6479  140.3761  156.5913 S   0  0  0  0  0  0  0  0  0  0  0  0
  142.8461  139.6169  160.0945 H   0  0  0  0  0  0  0  0  0  0  0  0
  142.7334  141.1505  159.2167 H   0  0  0  0  0  0  0  0  0  0  0  0
  144.2741  140.6562  159.9397 H   0  0  0  0  0  0  0  0  0  0  0  0
  144.2284  139.4816  153.9782 H   0  0  0  0  0  0  0  0  0  0  0  0
  144.6865  138.6977  152.2266 H   0  0  0  0  0  0  0  0  0  0  0  0
  145.5981  137.2634  150.6531 H   0  0  0  0  0  0  0  0  0  0  0  0
  146.3111  136.3380  151.9598 H   0  0  0  0  0  0  0  0  0  0  0  0
  143.3209  136.1841  151.4005 H   0  0  0  0  0  0  0  0  0  0  0  0
  145.3122  134.4322  152.8507 H   0  0  0  0  0  0  0  0  0  0  0  0
  143.7446  134.9918  153.4222 H   0  0  0  0  0  0  0  0  0  0  0  0
  144.2462  132.5314  152.1684 H   0  0  0  0  0  0  0  0  0  0  0  0
  142.6448  133.2631  152.2362 H   0  0  0  0  0  0  0  0  0  0  0  0
  143.3835  131.6163  149.9250 H   0  0  0  0  0  0  0  0  0  0  0  0
  145.7336  131.2015  149.1312 H   0  0  0  0  0  0  0  0  0  0  0  0
  145.6987  131.7297  150.7986 H   0  0  0  0  0  0  0  0  0  0  0  0
  146.1532  132.8637  149.5262 H   0  0  0  0  0  0  0  0  0  0  0  0
  144.0011  131.8484  147.5001 H   0  0  0  0  0  0  0  0  0  0  0  0
  144.2926  133.5667  147.7401 H   0  0  0  0  0  0  0  0  0  0  0  0
  142.6690  132.9068  147.9139 H   0  0  0  0  0  0  0  0  0  0  0  0
  144.1419  135.3772  149.2764 H   0  0  0  0  0  0  0  0  0  0  0  0
  145.5155  134.5746  150.0462 H   0  0  0  0  0  0  0  0  0  0  0  0
  142.7084  133.8937  150.1920 H   0  0  0  0  0  0  0  0  0  0  0  0
  1  2  1  0  0  0  0
  1 20  1  0  0  0  0
  1 21  1  0  0  0  0
  1 22  1  0  0  0  0
  2 19  1  0  0  0  0
  2  3  2  0  0  0  0
  3  4  1  0  0  0  0
  4  5  2  0  0  0  0
  5  6  1  0  0  0  0
  5 19  1  0  0  0  0
  6  7  1  0  0  0  0
  6 23  1  0  0  0  0
  7  8  2  0  0  0  0
  7  9  1  0  0  0  0
  9 10  1  0  0  0  0
  9 24  1  0  0  0  0
 10 11  1  0  0  0  0
 10 25  1  0  0  0  0
 10 26  1  0  0  0  0
 11 18  1  0  0  0  0
 11 12  1  0  0  0  0
 11 27  1  0  0  0  0
 12 13  1  0  0  0  0
 12 28  1  0  0  0  0
 12 29  1  0  0  0  0
 13 14  1  0  0  0  0
 13 30  1  0  0  0  0
 13 31  1  0  0  0  0
 14 15  1  0  0  0  0
 14 18  1  0  0  0  0
 14 41  1  0  0  0  0
 15 16  1  0  0  0  0
 15 17  1  0  0  0  0
 15 32  1  0  0  0  0
 16 33  1  0  0  0  0
 16 34  1  0  0  0  0
 16 35  1  0  0  0  0
 17 36  1  0  0  0  0
 17 37  1  0  0  0  0
 17 38  1  0  0  0  0
 18 39  1  0  0  0  0
 18 40  1  0  0  0  0
M  CHG  1  14   1
M  END
> <s_m_source_file>
AV-unprocessed.smi

> <i_m_source_file_index>
1831

> <i_lp_mmshare_version>
43012

> <i_f3d_flags>
0

> <s_epik_input>
W0NIM11jMW5uYyhzMSlbTkhdQyg9TylbTkhdW0NIMl1bQ0BASF0yW0NIMl1bQ0gyXU4oW0NIMl0yKVtDSF0oW0NIM10pW0NIM10=

> <s_epik_cmdline>
J2VwaWtfcHl0aG9uJywgJy1waCcsICc3LjAnLCAnLXRuJywgJzgnLCAnLW1hJywgJzIwMCcsICctbWV0YWxfYmluZGluZycsICctaW1hZScsICc8aW5maWxlLm1hZT4nLCAnLW9tYWUnLCAnPG91dGZpbGUubWFlPic=

> <r_lp_tautomer_probability>
1

> <r_epik_Ionization_Penalty>
0.00080807

> <r_epik_Ionization_Penalty_Charging>
0.000218981

> <r_epik_Ionization_Penalty_Neutral>
0.00058909

> <r_epik_State_Penalty>
-0

> <r_epik_Charging_Adjusted_Penalty>
0.000218981

> <i_epik_Tot_Q>
1

> <i_epik_Tot_abs_Q>
1

> <r_epik_Metal_State_Penalty>
0.236062

> <b_epik_Metal_Only>
0

> <s_lp_Force_Field>
OPLS_2005

> <r_lp_Energy>
30.7631

> <b_lp_Chiralities_Consistent>
1

> <s_lp_Variant>
AV-unprocessed.smi:1831-3

> <Gold.Version>
5.8.1

> <Gold.Id.Protein>
6NUR|6NUR_protein|mol2

> <Gold.PLP.Fitness>
38.3947

> <Gold.PLP.PLP>
-26.9043

> <Gold.PLP.part.hbond>
-3.9283

> <Gold.PLP.part.metal>
0.0000

> <Gold.PLP.part.buried>
0.2518

> <Gold.PLP.part.nonpolar>
-22.2022

> <Gold.PLP.part.repulsive>
0.0472

> <Gold.PLP.ligand.clash>
0.0000

> <Gold.PLP.ligand.torsion>
0.2705

> <Gold.PLP.Chemscore.Hbond>
4.0000

> <Gold.PLP.Chemscore.CHOScore>
0.0000

> <Gold.PLP.Chemscore.Metal>
0.0000

> <Gold.Chemscore.Hbonds>
donor molecule, donor type, donor heavy atom, donor atom, acceptor molecule, acceptor atom, score
      L1  H     6    23       P1 10175  1.00
      L1  H     9    24       P1 10175  0.99
      L1  H    14    41       P1 10186  2.00

> <Gold.PLP.Chemscore.Internal.Correction>
0.0314

> <Gold.Rescore>
     Score         DG    S(hbond)    S(metal)    S(lipo)     H(rot)  DE(clash)    DE(int)     intcor
     16.96     -19.01       2.91        0.00      66.21       1.54       0.38       1.67       ----

> <Gold.Chemscore.Fitness>
16.9571

> <Gold.Chemscore.DG>
-19.0118

> <Gold.Chemscore.ZeroCoef>
-5.4800

> <Gold.Chemscore.Hbond>
2.9122

> <Gold.Chemscore.Metal>
0.0000

> <Gold.Chemscore.Lipo>
66.2075

> <Gold.Chemscore.Internal_Hbond>
0.0000

> <Gold.Chemscore.DEClash>
0.3847

> <Gold.Chemscore.DEInternal>
1.6700

> <Gold.Chemscore.Rot>
1.5396

> <Gold.Chemscore.Internal.Correction>
   9.000000E+99

> <Gold.Chemscore.Hbonds>
donor molecule, donor type, donor heavy atom, donor atom, acceptor molecule, acceptor atom, score
      L1  H     6    23       P1 10175  0.99
      L1  H     9    24       P1 10175  0.87
      L1  H    14    41       P1 10186  0.99

> <Gold.Chemscore.Hbond.Weighted>
-9.7269

> <Gold.Chemscore.Metal.Weighted>
-0.0000

> <Gold.Chemscore.Lipo.Weighted>
-7.7463

> <Gold.Chemscore.Internal_Hbond.Weighted>
0.0000

> <Gold.Chemscore.DEClash.Weighted>
0.3847

> <Gold.Chemscore.DEInternal.Weighted>
1.6700

> <Gold.Chemscore.Rot.Weighted>
3.9413

> <Gold.Chemscore.Internal.Correction.Weighted>
   9.000000E+99

> <Gold.Protein.RotatedTorsions>
[ 6907 6896 6895 6894 ] final  123.94 input  -60.11 | X-H torsion
[ 7974 7965 7964 7962 ] final  171.87 input  175.53 | X-H torsion
[ 8008 7997 7996 7995 ] final -139.66 input   59.86 | X-H torsion
[ 10167 10162 10161 10158 ] final    2.46 input  -65.29 | X-H torsion
[ 10718 10713 10712 10709 ] final  -18.86 input   66.30 | X-H torsion
[ 10763 10752 10751 10750 ] final   28.37 input  -60.55 | X-H torsion
[ 11005 11000 10999 10996 ] final  171.68 input  -57.11 | X-H torsion

> <Gold.Protein.ActiveResidues>
 VAL166  LYS551  ARG553  GLY616  TRP617  ASP618  TYR619  PRO620  LYS621  CYS622 
 ASP623  PHE694  ASN695  SER759  ASP760  ASP761  ALA762  ILE779  LEU786  VAL792 
 PHE793  MET794  SER795  GLU796  ALA797  LYS798  CYS799  TRP800  GLU811  SER814 

> <Gold.Protein.RotatedAtoms>
  152.4120  133.6978  159.6405 H   0  0  0  0  0  0  0  0  0  0  0  0  # atno 6907 bound_to 6896
  150.8000  133.8607  159.3240 H   0  0  0  0  0  0  0  0  0  0  0  0  # atno 6908 bound_to 6896
  151.6347  135.1021  160.0180 H   0  0  0  0  0  0  0  0  0  0  0  0  # atno 6909 bound_to 6896
  144.7283  139.9415  143.6428 H   0  0  0  0  0  0  0  0  0  0  0  0  # atno 7974 bound_to 7965
  155.4486  140.0537  157.3003 H   0  0  0  0  0  0  0  0  0  0  0  0  # atno 8008 bound_to 7997
  154.4787  140.2072  155.9772 H   0  0  0  0  0  0  0  0  0  0  0  0  # atno 8009 bound_to 7997
  156.1172  140.3194  155.8161 H   0  0  0  0  0  0  0  0  0  0  0  0  # atno 8010 bound_to 7997
  140.6634  143.7244  150.7781 H   0  0  0  0  0  0  0  0  0  0  0  0  # atno 10167 bound_to 10162
  156.5537  130.4708  149.6439 H   0  0  0  0  0  0  0  0  0  0  0  0  # atno 10718 bound_to 10713
  153.0496  135.6515  154.0727 H   0  0  0  0  0  0  0  0  0  0  0  0  # atno 10763 bound_to 10752
  154.0418  135.2903  155.3355 H   0  0  0  0  0  0  0  0  0  0  0  0  # atno 10764 bound_to 10752
  154.6777  135.5332  153.8287 H   0  0  0  0  0  0  0  0  0  0  0  0  # atno 10765 bound_to 10752
  140.3216  134.7433  157.4068 H   0  0  0  0  0  0  0  0  0  0  0  0  # atno 11005 bound_to 11000
  146.0781  139.3769  143.0481 LP  0  0  0  0  0  0  0  0  0  0  0  0  # atno 17320 bound_to 7965
  145.7877  140.9828  143.1065 LP  0  0  0  0  0  0  0  0  0  0  0  0  # atno 17321 bound_to 7965
  140.0916  143.4872  152.2475 LP  0  0  0  0  0  0  0  0  0  0  0  0  # atno 17342 bound_to 10162
  139.5875  144.7537  151.3484 LP  0  0  0  0  0  0  0  0  0  0  0  0  # atno 17343 bound_to 10162
  156.2861  130.7098  151.1935 LP  0  0  0  0  0  0  0  0  0  0  0  0  # atno 17370 bound_to 10713
  157.7382  131.0543  150.5307 LP  0  0  0  0  0  0  0  0  0  0  0  0  # atno 17371 bound_to 10713
  140.0937  134.5566  155.8419 LP  0  0  0  0  0  0  0  0  0  0  0  0  # atno 17394 bound_to 11000
  141.2085  133.6674  156.6376 LP  0  0  0  0  0  0  0  0  0  0  0  0  # atno 17395 bound_to 11000

$$$$
