#       Name:                AV-unprocessed.smi:2445
#       Creating user name   scv26
#       Creation time:       Fri Mar 27 13:26:59 2020


#       File generated by GOLD software.
#

@<TRIPOS>MOLECULE
AV-unprocessed.smi:2445
    45    46     1
SMALL
NO_CHARGES


@<TRIPOS>ATOM
      1 ****        -3.8945  -1.5233  -2.4509 C.3            1 S1                 0.0000
      2 ****        -3.2298  -0.2473  -2.0599 C.2            1 S1                 0.0000
      3 ****        -2.7597   0.7433  -2.8861 C.2            1 S1                 0.0000
      4 ****        -2.1863   1.8202  -2.2065 N.2            1 S1                 0.0000
      5 ****        -2.2170   1.6620  -0.8802 C.2            1 S1                 0.0000
      6 ****        -1.6562   2.6558   0.0916 C.3            1 S1                 0.0000
      7 ****        -2.3994   3.9981   0.0406 C.3            1 S1                 0.0000
      8 ****        -0.1226   2.8130  -0.0136 C.3            1 S1                 0.0000
      9 ****         0.5812   1.5341  -0.0542 N.am           1 S1                 0.0000
     10 ****         0.7679   0.7233   0.9956 C.2            1 S1                 0.0000
     11 ****         0.3913   0.9792   2.1391 O.2            1 S1                 0.0000
     12 ****         1.4026  -0.4021   0.6413 N.am           1 S1                 0.0000
     13 ****         1.7440  -1.5091   1.5352 C.3            1 S1                 0.0000
     14 ****         1.1145  -2.8112   1.0400 C.3            1 S1                 0.0000
     15 ****         2.2890  -3.7802   0.9295 C.3            1 S1                 0.0000
     16 ****         3.3999  -2.9327   0.6938 O.3            1 S1                 0.0000
     17 ****         3.2565  -1.8158   1.5578 C.3            1 S1                 0.0000
     18 ****         4.2103  -0.6848   1.1399 C.3            1 S1                 0.0000
     19 ****        -2.9623   0.1469  -0.3825 S.3            1 S1                 0.0000
     20 ****        -3.9449  -1.6240  -3.5353 H              1 S1                 0.0000
     21 ****        -4.9117  -1.5634  -2.0613 H              1 S1                 0.0000
     22 ****        -3.3476  -2.3805  -2.0581 H              1 S1                 0.0000
     23 ****        -2.7912   0.7642  -3.9654 H              1 S1                 0.0000
     24 ****        -1.8562   2.2464   1.0828 H              1 S1                 0.0000
     25 ****        -3.4664   3.8629   0.2209 H              1 S1                 0.0000
     26 ****        -2.2833   4.4784  -0.9316 H              1 S1                 0.0000
     27 ****        -2.0212   4.6852   0.7978 H              1 S1                 0.0000
     28 ****         0.1255   3.3432  -0.9337 H              1 S1                 0.0000
     29 ****         0.2582   3.4248   0.8057 H              1 S1                 0.0000
     30 ****         0.9273   1.2352  -0.9543 H              1 S1                 0.0000
     31 ****         1.6684  -0.5095  -0.3267 H              1 S1                 0.0000
     32 ****         1.4127  -1.3008   2.5540 H              1 S1                 0.0000
     33 ****         0.3414  -3.1836   1.7126 H              1 S1                 0.0000
     34 ****         0.6580  -2.6795   0.0576 H              1 S1                 0.0000
     35 ****         2.4362  -4.3207   1.8659 H              1 S1                 0.0000
     36 ****         2.1607  -4.5092   0.1292 H              1 S1                 0.0000
     37 ****         3.5275  -2.1445   2.5630 H              1 S1                 0.0000
     38 ****         4.0795   0.1918   1.7748 H              1 S1                 0.0000
     39 ****         4.0492  -0.3819   0.1049 H              1 S1                 0.0000
     40 ****         5.2484  -1.0053   1.2278 H              1 S1                 0.0000
     41 ****        -1.7962   2.6206  -2.6619 LP             1 S1                 0.0000
     42 ****        -0.0863   1.8373   2.3279 LP             1 S1                 0.0000
     43 ****         0.5629   0.3291   2.8793 LP             1 S1                 0.0000
     44 ****         3.4064  -2.6313  -0.2597 LP             1 S1                 0.0000
     45 ****         4.2511  -3.4170   0.8961 LP             1 S1                 0.0000
@<TRIPOS>BOND
    1    1    2 1     
    2    1   20 1     
    3    1   21 1     
    4    1   22 1     
    5    2   19 1     
    6    2    3 2     
    7    3    4 1     
    8    3   23 1     
    9    4    5 2     
   10    5    6 1     
   11    5   19 1     
   12    6    7 1     
   13    6    8 1     
   14    6   24 1     
   15    7   25 1     
   16    7   26 1     
   17    7   27 1     
   18    8    9 1     
   19    8   28 1     
   20    8   29 1     
   21    9   10 am    
   22    9   30 1     
   23   10   11 2     
   24   10   12 am    
   25   12   13 1     
   26   12   31 1     
   27   13   17 1     
   28   13   14 1     
   29   13   32 1     
   30   14   15 1     
   31   14   33 1     
   32   14   34 1     
   33   15   16 1     
   34   15   35 1     
   35   15   36 1     
   36   16   17 1     
   37   17   18 1     
   38   17   37 1     
   39   18   38 1     
   40   18   39 1     
   41   18   40 1     
   42    4   41 1     
   43   11   42 1     
   44   11   43 1     
   45   16   44 1     
   46   16   45 1     
@<TRIPOS>SUBSTRUCTURE
      1 S1             1
@<TRIPOS>SET
LONE_PAIRS      STATIC     ATOMS    <user>   **** ""
5 41 42 43 44 45
DONOR_HYDROGENS      STATIC     ATOMS    <user>   **** ""
2 30 31
ATOM$BLUE        STATIC     ATOMS    COLORGROUP SYSTEM
5 41 42 43 44 45
ATOM$RED        STATIC     ATOMS    COLORGROUP SYSTEM
2 30 31
