AV-unprocessed.smi:2126|AV-procd|sdf|8677|dock3
  -GOLD-   2272011433D 1   1.00000     0.00000
 Structure written by MMmdl.
 41 43  0  0  0  0  0  0  0  0  2 V2000
  148.9971  130.3326  153.5064 C   0  0  0  0  0  0  0  0  0  0  0  0
  149.9947  130.9730  154.2881 O   0  0  0  0  0  0  0  0  0  0  0  0
  149.9520  132.3464  154.3953 C   0  0  0  0  0  0  0  0  0  0  0  0
  148.9490  133.1610  153.8148 C   0  0  0  0  0  0  0  0  0  0  0  0
  148.9857  134.5594  153.9766 C   0  0  0  0  0  0  0  0  0  0  0  0
  150.0135  135.1774  154.7159 C   0  0  0  0  0  0  0  0  0  0  0  0
  149.9701  136.5509  154.8234 O   0  0  0  0  0  0  0  0  0  0  0  0
  151.0572  137.2116  155.4578 C   0  0  0  0  0  0  0  0  0  0  0  0
  150.7722  138.7205  155.4933 C   0  0  2  0  0  0  0  0  0  0  0  0
  150.7001  139.1940  154.1629 O   0  0  0  0  0  0  0  0  0  0  0  0
  151.8442  139.5042  156.2769 C   0  0  0  0  0  0  0  0  0  0  0  0
  151.3646  140.8128  156.7440 N   0  0  0  0  0  0  0  0  0  0  0  0
  150.4841  141.6709  156.1614 C   0  0  0  0  0  0  0  0  0  0  0  0
  150.3612  142.7533  156.9785 N   0  3  0  0  0  0  0  0  0  0  0  0
  151.1752  142.5853  158.1005 C   0  0  0  0  0  0  0  0  0  0  0  0
  151.3878  143.4080  159.2024 C   0  0  0  0  0  0  0  0  0  0  0  0
  152.2902  142.9380  160.1791 C   0  0  0  0  0  0  0  0  0  0  0  0
  152.9440  141.6968  160.0378 C   0  0  0  0  0  0  0  0  0  0  0  0
  152.7222  140.8715  158.9157 C   0  0  0  0  0  0  0  0  0  0  0  0
  151.8250  141.3408  157.9563 C   0  0  0  0  0  0  0  0  0  0  0  0
  151.0167  134.3627  155.2956 C   0  0  0  0  0  0  0  0  0  0  0  0
  150.9805  132.9645  155.1331 C   0  0  0  0  0  0  0  0  0  0  0  0
  149.1674  129.2563  153.5190 H   0  0  0  0  0  0  0  0  0  0  0  0
  149.0338  130.6599  152.4665 H   0  0  0  0  0  0  0  0  0  0  0  0
  147.9990  130.5135  153.9076 H   0  0  0  0  0  0  0  0  0  0  0  0
  148.1395  132.7377  153.2398 H   0  0  0  0  0  0  0  0  0  0  0  0
  148.2130  135.1654  153.5268 H   0  0  0  0  0  0  0  0  0  0  0  0
  151.2030  136.8338  156.4713 H   0  0  0  0  0  0  0  0  0  0  0  0
  151.9716  137.0252  154.8916 H   0  0  0  0  0  0  0  0  0  0  0  0
  149.7956  138.8856  155.9506 H   0  0  0  0  0  0  0  0  0  0  0  0
  150.1543  138.6051  153.6641 H   0  0  0  0  0  0  0  0  0  0  0  0
  152.1424  138.9415  157.1625 H   0  0  0  0  0  0  0  0  0  0  0  0
  152.7499  139.6398  155.6855 H   0  0  0  0  0  0  0  0  0  0  0  0
  149.9745  141.5198  155.2206 H   0  0  0  0  0  0  0  0  0  0  0  0
  150.8907  144.3608  159.3114 H   0  0  0  0  0  0  0  0  0  0  0  0
  152.4864  143.5425  161.0530 H   0  0  0  0  0  0  0  0  0  0  0  0
  153.6315  141.3711  160.8051 H   0  0  0  0  0  0  0  0  0  0  0  0
  153.2341  139.9260  158.8149 H   0  0  0  0  0  0  0  0  0  0  0  0
  151.8269  134.7848  155.8702 H   0  0  0  0  0  0  0  0  0  0  0  0
  151.7539  132.3582  155.5817 H   0  0  0  0  0  0  0  0  0  0  0  0
  149.7643  143.5466  156.7820 H   0  0  0  0  0  0  0  0  0  0  0  0
  1  2  1  0  0  0  0
  1 23  1  0  0  0  0
  1 24  1  0  0  0  0
  1 25  1  0  0  0  0
  2  3  1  0  0  0  0
  3 22  1  0  0  0  0
  3  4  2  0  0  0  0
  4  5  1  0  0  0  0
  4 26  1  0  0  0  0
  5  6  2  0  0  0  0
  5 27  1  0  0  0  0
  6  7  1  0  0  0  0
  6 21  1  0  0  0  0
  7  8  1  0  0  0  0
  8  9  1  0  0  0  0
  8 28  1  0  0  0  0
  8 29  1  0  0  0  0
  9 10  1  0  0  0  0
  9 11  1  0  0  0  0
  9 30  1  0  0  0  0
 10 31  1  0  0  0  0
 11 12  1  0  0  0  0
 11 32  1  0  0  0  0
 11 33  1  0  0  0  0
 12 20  1  0  0  0  0
 12 13  1  0  0  0  0
 13 14  2  0  0  0  0
 13 34  1  0  0  0  0
 14 15  1  0  0  0  0
 14 41  1  0  0  0  0
 15 20  2  0  0  0  0
 15 16  1  0  0  0  0
 16 17  2  0  0  0  0
 16 35  1  0  0  0  0
 17 18  1  0  0  0  0
 17 36  1  0  0  0  0
 18 19  2  0  0  0  0
 18 37  1  0  0  0  0
 19 20  1  0  0  0  0
 19 38  1  0  0  0  0
 21 22  2  0  0  0  0
 21 39  1  0  0  0  0
 22 40  1  0  0  0  0
M  CHG  1  14   1
M  END
> <s_m_source_file>
AV-unprocessed.smi

> <i_m_source_file_index>
2126

> <i_lp_mmshare_version>
43012

> <i_f3d_flags>
0

> <s_epik_input>
W0NIM11PYzFbY0hdW2NIXWMoW2NIXVtjSF0xKU9bQ0gyXVtDQEhdKFtPSF0pW0NIMl1uKFtjSF1uMiljKGMyMylbY0hdW2NIXVtjSF1bY0hdMw==

> <s_epik_cmdline>
J2VwaWtfcHl0aG9uJywgJy1waCcsICc3LjAnLCAnLXRuJywgJzgnLCAnLW1hJywgJzIwMCcsICctbWV0YWxfYmluZGluZycsICctaW1hZScsICc8aW5maWxlLm1hZT4nLCAnLW9tYWUnLCAnPG91dGZpbGUubWFlPic=

> <r_lp_tautomer_probability>
1

> <r_epik_Ionization_Penalty>
1.37822

> <r_epik_Ionization_Penalty_Charging>
1.37822

> <r_epik_Ionization_Penalty_Neutral>
2.3993e-06

> <r_epik_State_Penalty>
1.45852

> <r_epik_Charging_Adjusted_Penalty>
2.83674

> <i_epik_Tot_Q>
1

> <i_epik_Tot_abs_Q>
1

> <r_epik_Metal_State_Penalty>
5.4985

> <b_epik_Metal_Only>
0

> <s_lp_Force_Field>
OPLS_2005

> <r_lp_Energy>
23.2038

> <b_lp_Chiralities_Consistent>
1

> <s_lp_Variant>
AV-unprocessed.smi:2126-3

> <Gold.Version>
5.8.1

> <Gold.Id.Protein>
6NUR|6NUR_protein|mol2

> <Gold.PLP.Fitness>
48.7848

> <Gold.PLP.PLP>
-40.9580

> <Gold.PLP.part.hbond>
-2.2439

> <Gold.PLP.part.metal>
0.0000

> <Gold.PLP.part.buried>
-3.6212

> <Gold.PLP.part.nonpolar>
-34.2867

> <Gold.PLP.part.repulsive>
0.2313

> <Gold.PLP.ligand.clash>
0.0000

> <Gold.PLP.ligand.torsion>
0.6079

> <Gold.PLP.Chemscore.Hbond>
2.9913

> <Gold.PLP.Chemscore.CHOScore>
0.0000

> <Gold.PLP.Chemscore.Metal>
0.0000

> <Gold.Chemscore.Hbonds>
donor molecule, donor type, donor heavy atom, donor atom, acceptor molecule, acceptor atom, score
      L1  H    14    41       P1  8028  2.00
      P1  H  7989  7998       L1    10  1.00

> <Gold.PLP.Chemscore.Internal.Correction>
0.0688

> <Gold.Rescore>
     Score         DG    S(hbond)    S(metal)    S(lipo)     H(rot)  DE(clash)    DE(int)     intcor
     17.65     -18.36       1.97        0.00     110.95       2.60       0.08       0.63       ----

> <Gold.Chemscore.Fitness>
17.6508

> <Gold.Chemscore.DG>
-18.3577

> <Gold.Chemscore.ZeroCoef>
-5.4800

> <Gold.Chemscore.Hbond>
1.9652

> <Gold.Chemscore.Metal>
0.0000

> <Gold.Chemscore.Lipo>
110.9480

> <Gold.Chemscore.Internal_Hbond>
0.0000

> <Gold.Chemscore.DEClash>
0.0779

> <Gold.Chemscore.DEInternal>
0.6291

> <Gold.Chemscore.Rot>
2.6043

> <Gold.Chemscore.Internal.Correction>
   9.000000E+99

> <Gold.Chemscore.Hbonds>
donor molecule, donor type, donor heavy atom, donor atom, acceptor molecule, acceptor atom, score
      L1  H    14    41       P1  8028  0.98
      P1  H  7989  7998       L1    10  0.94

> <Gold.Chemscore.Hbond.Weighted>
-6.5638

> <Gold.Chemscore.Metal.Weighted>
-0.0000

> <Gold.Chemscore.Lipo.Weighted>
-12.9809

> <Gold.Chemscore.Internal_Hbond.Weighted>
0.0000

> <Gold.Chemscore.DEClash.Weighted>
0.0779

> <Gold.Chemscore.DEInternal.Weighted>
0.6291

> <Gold.Chemscore.Rot.Weighted>
6.6670

> <Gold.Chemscore.Internal.Correction.Weighted>
   9.000000E+99

> <Gold.Protein.RotatedTorsions>
[ 6907 6896 6895 6894 ] final    6.43 input  -60.11 | X-H torsion
[ 7974 7965 7964 7962 ] final -154.91 input  175.53 | X-H torsion
[ 8008 7997 7996 7995 ] final -159.51 input   59.86 | X-H torsion
[ 10167 10162 10161 10158 ] final  -28.91 input  -65.29 | X-H torsion
[ 10718 10713 10712 10709 ] final  126.48 input   66.30 | X-H torsion
[ 10763 10752 10751 10750 ] final   56.27 input  -60.55 | X-H torsion
[ 11005 11000 10999 10996 ] final  -19.89 input  -57.11 | X-H torsion

> <Gold.Protein.ActiveResidues>
 VAL166  LYS551  ARG553  GLY616  TRP617  ASP618  TYR619  PRO620  LYS621  CYS622 
 ASP623  PHE694  ASN695  SER759  ASP760  ASP761  ALA762  ILE779  LEU786  VAL792 
 PHE793  MET794  SER795  GLU796  ALA797  LYS798  CYS799  TRP800  GLU811  SER814 

> <Gold.Protein.RotatedAtoms>
  151.6735  135.0972  160.0202 H   0  0  0  0  0  0  0  0  0  0  0  0  # atno 6907 bound_to 6896
  152.3877  133.6631  159.6221 H   0  0  0  0  0  0  0  0  0  0  0  0  # atno 6908 bound_to 6896
  150.7799  133.8923  159.3358 H   0  0  0  0  0  0  0  0  0  0  0  0  # atno 6909 bound_to 6896
  144.7666  140.4323  143.5937 H   0  0  0  0  0  0  0  0  0  0  0  0  # atno 7974 bound_to 7965
  155.7636  140.0842  157.2143 H   0  0  0  0  0  0  0  0  0  0  0  0  # atno 8008 bound_to 7997
  154.4001  140.1538  156.2917 H   0  0  0  0  0  0  0  0  0  0  0  0  # atno 8009 bound_to 7997
  155.8816  140.3420  155.5894 H   0  0  0  0  0  0  0  0  0  0  0  0  # atno 8010 bound_to 7997
  140.7265  143.3971  151.1329 H   0  0  0  0  0  0  0  0  0  0  0  0  # atno 10167 bound_to 10162
  157.5415  131.1096  150.8851 H   0  0  0  0  0  0  0  0  0  0  0  0  # atno 10718 bound_to 10713
  152.9829  135.5682  154.5201 H   0  0  0  0  0  0  0  0  0  0  0  0  # atno 10763 bound_to 10752
  154.4690  135.2784  155.1658 H   0  0  0  0  0  0  0  0  0  0  0  0  # atno 10764 bound_to 10752
  154.3214  135.6268  153.5563 H   0  0  0  0  0  0  0  0  0  0  0  0  # atno 10765 bound_to 10752
  140.8411  133.7925  155.9862 H   0  0  0  0  0  0  0  0  0  0  0  0  # atno 11005 bound_to 11000
  145.6451  139.1556  143.2893 LP  0  0  0  0  0  0  0  0  0  0  0  0  # atno 17320 bound_to 7965
  146.1778  140.6545  142.9203 LP  0  0  0  0  0  0  0  0  0  0  0  0  # atno 17321 bound_to 7965
  139.7585  143.8671  152.3094 LP  0  0  0  0  0  0  0  0  0  0  0  0  # atno 17342 bound_to 10162
  139.8549  144.7146  150.9169 LP  0  0  0  0  0  0  0  0  0  0  0  0  # atno 17343 bound_to 10162
  156.9402  130.5382  149.5280 LP  0  0  0  0  0  0  0  0  0  0  0  0  # atno 17370 bound_to 10713
  156.0501  130.5571  150.8969 LP  0  0  0  0  0  0  0  0  0  0  0  0  # atno 17371 bound_to 10713
  140.8894  134.2514  157.5102 LP  0  0  0  0  0  0  0  0  0  0  0  0  # atno 17394 bound_to 11000
  139.8703  134.9654  156.4527 LP  0  0  0  0  0  0  0  0  0  0  0  0  # atno 17395 bound_to 11000

$$$$
