AV-unprocessed.smi:211|AV-procd|sdf|1615|dock9
  -GOLD-   2262019543D 1   1.00000     0.00000
 Structure written by MMmdl.
 59 62  0  0  0  0  0  0  0  0  1 V2000
  152.2241  144.8143  158.0918 C   0  0  0  0  0  0  0  0  0  0  0  0
  152.0300  143.3620  158.5138 C   0  0  0  0  0  0  0  0  0  0  0  0
  152.7330  142.8770  159.3997 O   0  0  0  0  0  0  0  0  0  0  0  0
  151.0700  142.6826  157.8681 N   0  0  0  0  0  0  0  0  0  0  0  0
  150.7000  141.2886  158.1105 C   0  0  2  0  0  0  0  0  0  0  0  0
  151.9428  140.4054  157.8898 C   0  0  0  0  0  0  0  0  0  0  0  0
  149.4950  140.8939  157.2155 C   0  0  0  0  0  0  0  0  0  0  0  0
  149.0421  139.4330  157.4522 C   0  0  0  0  0  0  0  0  0  0  0  0
  147.8614  139.0456  156.5482 C   0  0  0  0  0  0  0  0  0  0  0  0
  148.1795  139.2834  155.1426 N   0  0  0  0  0  0  0  0  0  0  0  0
  147.3405  138.6714  154.2680 C   0  0  0  0  0  0  0  0  0  0  0  0
  146.6888  139.4043  153.3252 N   0  0  0  0  0  0  0  0  0  0  0  0
  145.8446  138.8137  152.4746 C   0  0  0  0  0  0  0  0  0  0  0  0
  145.5136  137.5243  152.3884 N   0  0  0  0  0  0  0  0  0  0  0  0
  146.1733  136.7805  153.3216 C   0  0  0  0  0  0  0  0  0  0  0  0
  147.0922  137.2696  154.2930 C   0  0  0  0  0  0  0  0  0  0  0  0
  147.5567  136.2179  155.0745 N   0  0  0  0  0  0  0  0  0  0  0  0
  146.9350  135.1714  154.6038 C   0  0  0  0  0  0  0  0  0  0  0  0
  146.1056  135.4142  153.5321 N   0  0  0  0  0  0  0  0  0  0  0  0
  145.2775  134.4615  152.8529 C   0  0  0  0  0  0  0  0  0  0  0  0
  145.6690  132.9836  152.7666 C   0  0  0  0  0  0  0  0  0  0  0  0
  144.9803  132.8917  151.3857 C   0  0  0  0  0  0  0  0  0  0  0  0
  145.7423  132.0468  150.3497 C   0  0  0  0  0  0  0  0  0  0  0  0
  147.0368  132.5552  150.1006 O   0  0  0  0  0  0  0  0  0  0  0  0
  143.5124  132.4183  151.4497 C   0  0  0  0  0  0  0  0  0  0  0  0
  142.8831  132.4517  150.1853 O   0  0  0  0  0  0  0  0  0  0  0  0
  145.2092  134.4197  151.3252 C   0  0  0  0  0  0  0  0  0  0  0  0
  148.5955  140.6519  154.8377 C   0  0  0  0  0  0  0  0  0  0  0  0
  149.7899  141.0735  155.7091 C   0  0  0  0  0  0  0  0  0  0  0  0
  152.3560  144.8853  157.0116 H   0  0  0  0  0  0  0  0  0  0  0  0
  153.1046  145.2433  158.5712 H   0  0  0  0  0  0  0  0  0  0  0  0
  151.3559  145.4101  158.3749 H   0  0  0  0  0  0  0  0  0  0  0  0
  150.5480  143.1705  157.1545 H   0  0  0  0  0  0  0  0  0  0  0  0
  150.3890  141.1826  159.1517 H   0  0  0  0  0  0  0  0  0  0  0  0
  151.7622  139.3703  158.1771 H   0  0  0  0  0  0  0  0  0  0  0  0
  152.7838  140.7532  158.4907 H   0  0  0  0  0  0  0  0  0  0  0  0
  152.2567  140.4159  156.8456 H   0  0  0  0  0  0  0  0  0  0  0  0
  148.6585  141.5464  157.4714 H   0  0  0  0  0  0  0  0  0  0  0  0
  149.8766  138.7553  157.2666 H   0  0  0  0  0  0  0  0  0  0  0  0
  148.7466  139.2792  158.4901 H   0  0  0  0  0  0  0  0  0  0  0  0
  147.6017  138.0029  156.7274 H   0  0  0  0  0  0  0  0  0  0  0  0
  146.9824  139.6349  156.8128 H   0  0  0  0  0  0  0  0  0  0  0  0
  145.3652  139.4678  151.7611 H   0  0  0  0  0  0  0  0  0  0  0  0
  147.0715  134.1865  155.0261 H   0  0  0  0  0  0  0  0  0  0  0  0
  144.2792  134.5742  153.2790 H   0  0  0  0  0  0  0  0  0  0  0  0
  146.7506  132.8437  152.7175 H   0  0  0  0  0  0  0  0  0  0  0  0
  145.2314  132.3550  153.5428 H   0  0  0  0  0  0  0  0  0  0  0  0
  145.8595  131.0205  150.6985 H   0  0  0  0  0  0  0  0  0  0  0  0
  145.1977  131.9884  149.4068 H   0  0  0  0  0  0  0  0  0  0  0  0
  147.6659  131.8703  150.2666 H   0  0  0  0  0  0  0  0  0  0  0  0
  143.4430  131.4055  151.8475 H   0  0  0  0  0  0  0  0  0  0  0  0
  142.9253  133.0450  152.1214 H   0  0  0  0  0  0  0  0  0  0  0  0
  142.0715  132.9287  150.2653 H   0  0  0  0  0  0  0  0  0  0  0  0
  144.3889  134.9958  150.8958 H   0  0  0  0  0  0  0  0  0  0  0  0
  146.1585  134.6879  150.8576 H   0  0  0  0  0  0  0  0  0  0  0  0
  148.8711  140.7321  153.7851 H   0  0  0  0  0  0  0  0  0  0  0  0
  147.7573  141.3300  155.0047 H   0  0  0  0  0  0  0  0  0  0  0  0
  150.0292  142.1116  155.4813 H   0  0  0  0  0  0  0  0  0  0  0  0
  150.6661  140.4851  155.4335 H   0  0  0  0  0  0  0  0  0  0  0  0
  1  2  1  0  0  0  0
  1 30  1  0  0  0  0
  1 31  1  0  0  0  0
  1 32  1  0  0  0  0
  2  3  2  0  0  0  0
  2  4  1  0  0  0  0
  4  5  1  0  0  0  0
  4 33  1  0  0  0  0
  5  6  1  0  0  0  0
  5  7  1  0  0  0  0
  5 34  1  0  0  0  0
  6 35  1  0  0  0  0
  6 36  1  0  0  0  0
  6 37  1  0  0  0  0
  7 29  1  0  0  0  0
  7  8  1  0  0  0  0
  7 38  1  0  0  0  0
  8  9  1  0  0  0  0
  8 39  1  0  0  0  0
  8 40  1  0  0  0  0
  9 10  1  0  0  0  0
  9 41  1  0  0  0  0
  9 42  1  0  0  0  0
 10 11  1  0  0  0  0
 10 28  1  0  0  0  0
 11 16  1  0  0  0  0
 11 12  2  0  0  0  0
 12 13  1  0  0  0  0
 13 14  2  0  0  0  0
 13 43  1  0  0  0  0
 14 15  1  0  0  0  0
 15 19  1  0  0  0  0
 15 16  2  0  0  0  0
 16 17  1  0  0  0  0
 17 18  2  0  0  0  0
 18 19  1  0  0  0  0
 18 44  1  0  0  0  0
 19 20  1  0  0  0  0
 20 27  1  0  0  0  0
 20 21  1  0  0  0  0
 20 45  1  0  0  0  0
 21 22  1  0  0  0  0
 21 46  1  0  0  0  0
 21 47  1  0  0  0  0
 22 23  1  0  0  0  0
 22 25  1  0  0  0  0
 22 27  1  0  0  0  0
 23 24  1  0  0  0  0
 23 48  1  0  0  0  0
 23 49  1  0  0  0  0
 24 50  1  0  0  0  0
 25 26  1  0  0  0  0
 25 51  1  0  0  0  0
 25 52  1  0  0  0  0
 26 53  1  0  0  0  0
 27 54  1  0  0  0  0
 27 55  1  0  0  0  0
 28 29  1  0  0  0  0
 28 56  1  0  0  0  0
 28 57  1  0  0  0  0
 29 58  1  0  0  0  0
 29 59  1  0  0  0  0
M  END
> <s_m_source_file>
AV-unprocessed.smi

> <i_m_source_file_index>
211

> <i_lp_mmshare_version>
43012

> <i_f3d_flags>
0

> <s_epik_input>
W0NIM11DKD1PKVtOSF1bQ0BIXShbQ0gzXSlbQ0hdMVtDSDJdW0NIMl1OKFtDSDJdW0NIMl0xKWMobltjSF1uMiljKGMyMyluW2NIXW4zW0NIXShbQ0gyXTQpW0NIMl1DNChbQ0gyXVtPSF0pW0NIMl1bT0hd

> <s_epik_cmdline>
J2VwaWtfcHl0aG9uJywgJy1waCcsICc3LjAnLCAnLXRuJywgJzgnLCAnLW1hJywgJzIwMCcsICctbWV0YWxfYmluZGluZycsICctaW1hZScsICc8aW5maWxlLm1hZT4nLCAnLW9tYWUnLCAnPG91dGZpbGUubWFlPic=

> <r_lp_tautomer_probability>
1

> <r_epik_Ionization_Penalty>
0.00335435

> <r_epik_Ionization_Penalty_Charging>
0

> <r_epik_Ionization_Penalty_Neutral>
0.00335435

> <r_epik_State_Penalty>
0.00231338

> <r_epik_Charging_Adjusted_Penalty>
0.00231338

> <i_epik_Tot_Q>
0

> <i_epik_Tot_abs_Q>
0

> <r_epik_Metal_State_Penalty>
-0

> <b_epik_Metal_Only>
0

> <s_lp_Force_Field>
OPLS_2005

> <r_lp_Energy>
41.9303

> <b_lp_Chiralities_Consistent>
1

> <s_lp_Variant>
AV-unprocessed.smi:211-1

> <Gold.Version>
5.8.1

> <Gold.Id.Protein>
6NUR|6NUR_protein|mol2

> <Gold.PLP.Fitness>
47.6511

> <Gold.PLP.PLP>
-40.0909

> <Gold.PLP.part.hbond>
-2.5055

> <Gold.PLP.part.metal>
0.0000

> <Gold.PLP.part.buried>
-5.6578

> <Gold.PLP.part.nonpolar>
-34.0181

> <Gold.PLP.part.repulsive>
1.1652

> <Gold.PLP.ligand.clash>
0.0000

> <Gold.PLP.ligand.torsion>
0.9462

> <Gold.PLP.Chemscore.Hbond>
2.0000

> <Gold.PLP.Chemscore.CHOScore>
0.8489

> <Gold.PLP.Chemscore.Metal>
0.0000

> <Gold.Chemscore.Hbonds>
donor molecule, donor type, donor heavy atom, donor atom, acceptor molecule, acceptor atom, score
      L1  H    24    50       P1 10747  1.00
      L1  H    26    53       P1 10186  0.91
      L1  C    13    43       P1 10171  0.76
      L1  C    13    43       P1 10175  0.73

> <Gold.PLP.Chemscore.Internal.Correction>
0.9059

> <Gold.Rescore>
     Score         DG    S(hbond)    S(metal)    S(lipo)     H(rot)  DE(clash)    DE(int)     intcor
     11.09     -13.02       2.45        0.00      80.09       3.92       0.66       1.27       ----

> <Gold.Chemscore.Fitness>
11.0879

> <Gold.Chemscore.DG>
-13.0189

> <Gold.Chemscore.ZeroCoef>
-5.4800

> <Gold.Chemscore.Hbond>
2.4526

> <Gold.Chemscore.Metal>
0.0000

> <Gold.Chemscore.Lipo>
80.0925

> <Gold.Chemscore.Internal_Hbond>
0.0000

> <Gold.Chemscore.DEClash>
0.6640

> <Gold.Chemscore.DEInternal>
1.2670

> <Gold.Chemscore.Rot>
3.9155

> <Gold.Chemscore.Internal.Correction>
   9.000000E+99

> <Gold.Chemscore.Hbonds>
donor molecule, donor type, donor heavy atom, donor atom, acceptor molecule, acceptor atom, score
      L1  H    24    50       P1 10747  1.00
      L1  H    26    53       P1 10186  0.88

> <Gold.Chemscore.Hbond.Weighted>
-8.1917

> <Gold.Chemscore.Metal.Weighted>
-0.0000

> <Gold.Chemscore.Lipo.Weighted>
-9.3708

> <Gold.Chemscore.Internal_Hbond.Weighted>
0.0000

> <Gold.Chemscore.DEClash.Weighted>
0.6640

> <Gold.Chemscore.DEInternal.Weighted>
1.2670

> <Gold.Chemscore.Rot.Weighted>
10.0236

> <Gold.Chemscore.Internal.Correction.Weighted>
   9.000000E+99

> <Gold.Protein.RotatedTorsions>
[ 6907 6896 6895 6894 ] final -131.78 input  -60.11 | X-H torsion
[ 7974 7965 7964 7962 ] final -137.30 input  175.53 | X-H torsion
[ 8008 7997 7996 7995 ] final   60.42 input   59.86 | X-H torsion
[ 10167 10162 10161 10158 ] final -108.70 input  -65.29 | X-H torsion
[ 10718 10713 10712 10709 ] final  -17.74 input   66.30 | X-H torsion
[ 10763 10752 10751 10750 ] final  -28.75 input  -60.55 | X-H torsion
[ 11005 11000 10999 10996 ] final   13.48 input  -57.11 | X-H torsion

> <Gold.Protein.ActiveResidues>
 VAL166  LYS551  ARG553  GLY616  TRP617  ASP618  TYR619  PRO620  LYS621  CYS622 
 ASP623  PHE694  ASN695  SER759  ASP760  ASP761  ALA762  ILE779  LEU786  VAL792 
 PHE793  MET794  SER795  GLU796  ALA797  LYS798  CYS799  TRP800  GLU811  SER814 

> <Gold.Protein.RotatedAtoms>
  150.9548  133.6509  159.2764 H   0  0  0  0  0  0  0  0  0  0  0  0  # atno 6907 bound_to 6896
  151.3853  135.0945  159.9518 H   0  0  0  0  0  0  0  0  0  0  0  0  # atno 6908 bound_to 6896
  152.5124  133.9074  159.7526 H   0  0  0  0  0  0  0  0  0  0  0  0  # atno 6909 bound_to 6896
  144.8853  140.6566  143.5180 H   0  0  0  0  0  0  0  0  0  0  0  0  # atno 7974 bound_to 7965
  155.5820  140.3491  155.4543 H   0  0  0  0  0  0  0  0  0  0  0  0  # atno 8008 bound_to 7997
  156.0366  140.1286  157.0226 H   0  0  0  0  0  0  0  0  0  0  0  0  # atno 8009 bound_to 7997
  154.4374  140.1032  156.6162 H   0  0  0  0  0  0  0  0  0  0  0  0  # atno 8010 bound_to 7997
  140.1633  143.4102  152.1409 H   0  0  0  0  0  0  0  0  0  0  0  0  # atno 10167 bound_to 10162
  156.5694  130.4745  149.6370 H   0  0  0  0  0  0  0  0  0  0  0  0  # atno 10718 bound_to 10713
  153.7534  135.6924  153.4941 H   0  0  0  0  0  0  0  0  0  0  0  0  # atno 10763 bound_to 10752
  153.1987  135.4444  155.0239 H   0  0  0  0  0  0  0  0  0  0  0  0  # atno 10764 bound_to 10752
  154.8179  135.3407  154.7053 H   0  0  0  0  0  0  0  0  0  0  0  0  # atno 10765 bound_to 10752
  140.4802  134.0943  155.7749 H   0  0  0  0  0  0  0  0  0  0  0  0  # atno 11005 bound_to 11000
  145.3880  139.1622  143.4244 LP  0  0  0  0  0  0  0  0  0  0  0  0  # atno 17320 bound_to 7965
  146.3020  140.3966  142.8700 LP  0  0  0  0  0  0  0  0  0  0  0  0  # atno 17321 bound_to 7965
  139.5371  144.7220  151.4857 LP  0  0  0  0  0  0  0  0  0  0  0  0  # atno 17342 bound_to 10162
  140.6629  143.8461  150.6908 LP  0  0  0  0  0  0  0  0  0  0  0  0  # atno 17343 bound_to 10162
  156.2728  130.7027  151.1829 LP  0  0  0  0  0  0  0  0  0  0  0  0  # atno 17370 bound_to 10713
  157.7351  131.0575  150.5486 LP  0  0  0  0  0  0  0  0  0  0  0  0  # atno 17371 bound_to 10713
  141.1535  133.8926  157.2038 LP  0  0  0  0  0  0  0  0  0  0  0  0  # atno 17394 bound_to 11000
  139.9831  135.0091  156.9797 LP  0  0  0  0  0  0  0  0  0  0  0  0  # atno 17395 bound_to 11000

$$$$
