AV-unprocessed.smi:834|AV-procd|sdf|3884|dock9
  -GOLD-   22720 1343D 1   1.00000     0.00000
 Structure written by MMmdl.
 39 40  0  0  0  0  0  0  0  0  1 V2000
  150.7467  142.2553  157.6876 C   0  0  0  0  0  0  0  0  0  0  0  0
  150.5325  141.3332  156.5360 C   0  0  0  0  0  0  0  0  0  0  0  0
  151.5318  140.6699  155.9416 N   0  0  0  0  0  0  0  0  0  0  0  0
  151.0866  139.8762  154.8937 N   0  0  0  0  0  0  0  0  0  0  0  0
  149.7599  139.9660  154.7276 C   0  0  0  0  0  0  0  0  0  0  0  0
  149.0403  139.2637  153.7250 N   0  0  0  0  0  0  0  0  0  0  0  0
  147.8334  139.5532  153.2075 C   0  0  0  0  0  0  0  0  0  0  0  0
  147.1396  140.5225  153.5157 O   0  0  0  0  0  0  0  0  0  0  0  0
  147.4670  138.6428  152.2940 N   0  0  0  0  0  0  0  0  0  0  0  0
  146.2126  138.6613  151.5498 C   0  0  0  0  0  0  0  0  0  0  0  0
  146.0986  137.4513  150.6019 C   0  0  0  0  0  0  0  0  0  0  0  0
  145.5596  136.1964  151.2957 C   0  0  0  0  0  0  0  0  0  0  0  0
  145.3844  136.1789  152.5145 O   0  0  0  0  0  0  0  0  0  0  0  0
  145.2957  135.1479  150.5008 N   0  0  0  0  0  0  0  0  0  0  0  0
  144.7914  133.8539  150.9541 C   0  0  0  0  0  0  0  0  0  0  0  0
  145.8650  133.1007  151.7630 C   0  0  0  0  0  0  0  0  0  0  0  0
  145.9003  131.6785  151.2012 C   0  0  0  0  0  0  0  0  0  0  0  0
  145.4917  131.8396  149.7407 C   0  0  0  0  0  0  0  0  0  0  0  0
  144.4275  132.9375  149.7683 C   0  0  0  0  0  0  0  0  0  0  0  0
  148.9396  141.0377  155.8501 S   0  0  0  0  0  0  0  0  0  0  0  0
  151.7504  142.1344  158.0963 H   0  0  0  0  0  0  0  0  0  0  0  0
  150.0225  142.0446  158.4746 H   0  0  0  0  0  0  0  0  0  0  0  0
  150.6226  143.2887  157.3640 H   0  0  0  0  0  0  0  0  0  0  0  0
  149.4951  138.4375  153.3656 H   0  0  0  0  0  0  0  0  0  0  0  0
  148.0980  137.8784  152.1017 H   0  0  0  0  0  0  0  0  0  0  0  0
  145.3977  138.6487  152.2747 H   0  0  0  0  0  0  0  0  0  0  0  0
  146.1215  139.5982  150.9968 H   0  0  0  0  0  0  0  0  0  0  0  0
  145.4439  137.6897  149.7628 H   0  0  0  0  0  0  0  0  0  0  0  0
  147.0798  137.2269  150.1800 H   0  0  0  0  0  0  0  0  0  0  0  0
  145.4626  135.2499  149.5103 H   0  0  0  0  0  0  0  0  0  0  0  0
  143.9093  134.0058  151.5791 H   0  0  0  0  0  0  0  0  0  0  0  0
  146.8454  133.5597  151.6234 H   0  0  0  0  0  0  0  0  0  0  0  0
  145.6560  133.1099  152.8332 H   0  0  0  0  0  0  0  0  0  0  0  0
  146.8765  131.2061  151.3151 H   0  0  0  0  0  0  0  0  0  0  0  0
  145.1678  131.0596  151.7210 H   0  0  0  0  0  0  0  0  0  0  0  0
  146.3489  132.1722  149.1536 H   0  0  0  0  0  0  0  0  0  0  0  0
  145.1261  130.9109  149.3013 H   0  0  0  0  0  0  0  0  0  0  0  0
  143.4510  132.4874  149.9524 H   0  0  0  0  0  0  0  0  0  0  0  0
  144.3604  133.4634  148.8146 H   0  0  0  0  0  0  0  0  0  0  0  0
  1  2  1  0  0  0  0
  1 21  1  0  0  0  0
  1 22  1  0  0  0  0
  1 23  1  0  0  0  0
  2 20  1  0  0  0  0
  2  3  2  0  0  0  0
  3  4  1  0  0  0  0
  4  5  2  0  0  0  0
  5  6  1  0  0  0  0
  5 20  1  0  0  0  0
  6  7  1  0  0  0  0
  6 24  1  0  0  0  0
  7  8  2  0  0  0  0
  7  9  1  0  0  0  0
  9 10  1  0  0  0  0
  9 25  1  0  0  0  0
 10 11  1  0  0  0  0
 10 26  1  0  0  0  0
 10 27  1  0  0  0  0
 11 12  1  0  0  0  0
 11 28  1  0  0  0  0
 11 29  1  0  0  0  0
 12 13  2  0  0  0  0
 12 14  1  0  0  0  0
 14 15  1  0  0  0  0
 14 30  1  0  0  0  0
 15 19  1  0  0  0  0
 15 16  1  0  0  0  0
 15 31  1  0  0  0  0
 16 17  1  0  0  0  0
 16 32  1  0  0  0  0
 16 33  1  0  0  0  0
 17 18  1  0  0  0  0
 17 34  1  0  0  0  0
 17 35  1  0  0  0  0
 18 19  1  0  0  0  0
 18 36  1  0  0  0  0
 18 37  1  0  0  0  0
 19 38  1  0  0  0  0
 19 39  1  0  0  0  0
M  END
> <s_m_source_file>
AV-unprocessed.smi

> <i_m_source_file_index>
834

> <i_lp_mmshare_version>
43012

> <i_f3d_flags>
0

> <s_epik_input>
W0NIM11jMW5uYyhzMSlbTkhdQyg9TylbTkhdW0NIMl1bQ0gyXUMoPU8pW05IXVtDSF0yW0NIMl1bQ0gyXVtDSDJdW0NIMl0y

> <s_epik_cmdline>
J2VwaWtfcHl0aG9uJywgJy1waCcsICc3LjAnLCAnLXRuJywgJzgnLCAnLW1hJywgJzIwMCcsICctbWV0YWxfYmluZGluZycsICctaW1hZScsICc8aW5maWxlLm1hZT4nLCAnLW9tYWUnLCAnPG91dGZpbGUubWFlPic=

> <r_lp_tautomer_probability>
1

> <r_epik_Ionization_Penalty>
0.00240541

> <r_epik_Ionization_Penalty_Charging>
0

> <r_epik_Ionization_Penalty_Neutral>
0.00240541

> <r_epik_State_Penalty>
-0

> <r_epik_Charging_Adjusted_Penalty>
0

> <i_epik_Tot_Q>
0

> <i_epik_Tot_abs_Q>
0

> <r_epik_Metal_State_Penalty>
0.349697

> <b_epik_Metal_Only>
0

> <s_lp_Force_Field>
OPLS_2005

> <r_lp_Energy>
16.3225

> <b_lp_Chiralities_Consistent>
1

> <s_lp_Variant>
AV-unprocessed.smi:834-1

> <Gold.Version>
5.8.1

> <Gold.Id.Protein>
6NUR|6NUR_protein|mol2

> <Gold.PLP.Fitness>
43.2794

> <Gold.PLP.PLP>
-35.2624

> <Gold.PLP.part.hbond>
-6.0000

> <Gold.PLP.part.metal>
0.0000

> <Gold.PLP.part.buried>
5.9914

> <Gold.PLP.part.nonpolar>
-36.1232

> <Gold.PLP.part.repulsive>
0.6708

> <Gold.PLP.ligand.clash>
0.0000

> <Gold.PLP.ligand.torsion>
0.3528

> <Gold.PLP.Chemscore.Hbond>
2.9000

> <Gold.PLP.Chemscore.CHOScore>
0.0000

> <Gold.PLP.Chemscore.Metal>
0.0000

> <Gold.Chemscore.Hbonds>
donor molecule, donor type, donor heavy atom, donor atom, acceptor molecule, acceptor atom, score
      L1  H     9    25       P1  7948  1.00
      L1  H    14    30       P1  7921  0.99
      P1  H  7989  7998       L1     4  1.00

> <Gold.PLP.Chemscore.Internal.Correction>
0.0227

> <Gold.Rescore>
     Score         DG    S(hbond)    S(metal)    S(lipo)     H(rot)  DE(clash)    DE(int)     intcor
     12.07     -17.90       2.23        0.00      85.78       1.99       4.35       1.47       ----

> <Gold.Chemscore.Fitness>
12.0678

> <Gold.Chemscore.DG>
-17.8959

> <Gold.Chemscore.ZeroCoef>
-5.4800

> <Gold.Chemscore.Hbond>
2.2343

> <Gold.Chemscore.Metal>
0.0000

> <Gold.Chemscore.Lipo>
85.7810

> <Gold.Chemscore.Internal_Hbond>
0.0000

> <Gold.Chemscore.DEClash>
4.3540

> <Gold.Chemscore.DEInternal>
1.4741

> <Gold.Chemscore.Rot>
1.9855

> <Gold.Chemscore.Internal.Correction>
   9.000000E+99

> <Gold.Chemscore.Hbonds>
donor molecule, donor type, donor heavy atom, donor atom, acceptor molecule, acceptor atom, score
      L1  H     9    25       P1  7948  1.00
      L1  H    14    30       P1  7921  0.92
      P1  H  7989  7998       L1     4  0.07

> <Gold.Chemscore.Hbond.Weighted>
-7.4624

> <Gold.Chemscore.Metal.Weighted>
-0.0000

> <Gold.Chemscore.Lipo.Weighted>
-10.0364

> <Gold.Chemscore.Internal_Hbond.Weighted>
0.0000

> <Gold.Chemscore.DEClash.Weighted>
4.3540

> <Gold.Chemscore.DEInternal.Weighted>
1.4741

> <Gold.Chemscore.Rot.Weighted>
5.0828

> <Gold.Chemscore.Internal.Correction.Weighted>
   9.000000E+99

> <Gold.Protein.RotatedTorsions>
[ 6907 6896 6895 6894 ] final   62.75 input  -60.11 | X-H torsion
[ 7974 7965 7964 7962 ] final  102.08 input  175.53 | X-H torsion
[ 8008 7997 7996 7995 ] final -138.08 input   59.86 | X-H torsion
[ 10167 10162 10161 10158 ] final  165.60 input  -65.29 | X-H torsion
[ 10718 10713 10712 10709 ] final   -9.72 input   66.30 | X-H torsion
[ 10763 10752 10751 10750 ] final  -39.70 input  -60.55 | X-H torsion
[ 11005 11000 10999 10996 ] final   23.24 input  -57.11 | X-H torsion

> <Gold.Protein.ActiveResidues>
 VAL166  LYS551  ARG553  GLY616  TRP617  ASP618  TYR619  PRO620  LYS621  CYS622 
 ASP623  PHE694  ASN695  SER759  ASP760  ASP761  ALA762  ILE779  LEU786  VAL792 
 PHE793  MET794  SER795  GLU796  ALA797  LYS798  CYS799  TRP800  GLU811  SER814 

> <Gold.Protein.RotatedAtoms>
  152.4198  134.5976  159.9991 H   0  0  0  0  0  0  0  0  0  0  0  0  # atno 6907 bound_to 6896
  151.6129  133.3340  159.3079 H   0  0  0  0  0  0  0  0  0  0  0  0  # atno 6908 bound_to 6896
  150.8086  134.7265  159.6733 H   0  0  0  0  0  0  0  0  0  0  0  0  # atno 6909 bound_to 6896
  145.3638  139.2412  143.3492 H   0  0  0  0  0  0  0  0  0  0  0  0  # atno 7974 bound_to 7965
  155.4225  140.0519  157.3024 H   0  0  0  0  0  0  0  0  0  0  0  0  # atno 8008 bound_to 7997
  154.4896  140.2115  155.9536 H   0  0  0  0  0  0  0  0  0  0  0  0  # atno 8009 bound_to 7997
  156.1324  140.3169  155.8374 H   0  0  0  0  0  0  0  0  0  0  0  0  # atno 8010 bound_to 7997
  139.4909  144.4114  151.9294 H   0  0  0  0  0  0  0  0  0  0  0  0  # atno 10167 bound_to 10162
  156.6839  130.5045  149.5963 H   0  0  0  0  0  0  0  0  0  0  0  0  # atno 10718 bound_to 10713
  153.9338  135.6769  153.4745 H   0  0  0  0  0  0  0  0  0  0  0  0  # atno 10763 bound_to 10752
  153.0966  135.4848  154.8787 H   0  0  0  0  0  0  0  0  0  0  0  0  # atno 10764 bound_to 10752
  154.7414  135.3161  154.8679 H   0  0  0  0  0  0  0  0  0  0  0  0  # atno 10765 bound_to 10752
  140.3718  134.2015  155.7666 H   0  0  0  0  0  0  0  0  0  0  0  0  # atno 11005 bound_to 11000
  146.2916  140.4277  142.8737 LP  0  0  0  0  0  0  0  0  0  0  0  0  # atno 17320 bound_to 7965
  144.8627  140.7162  143.6097 LP  0  0  0  0  0  0  0  0  0  0  0  0  # atno 17321 bound_to 7965
  140.3556  144.3036  150.5942 LP  0  0  0  0  0  0  0  0  0  0  0  0  # atno 17342 bound_to 10162
  140.5447  143.2217  151.8026 LP  0  0  0  0  0  0  0  0  0  0  0  0  # atno 17343 bound_to 10162
  156.1847  130.6521  151.0992 LP  0  0  0  0  0  0  0  0  0  0  0  0  # atno 17370 bound_to 10713
  157.7033  131.0767  150.6748 LP  0  0  0  0  0  0  0  0  0  0  0  0  # atno 17371 bound_to 10713
  141.1952  133.8111  157.0724 LP  0  0  0  0  0  0  0  0  0  0  0  0  # atno 17394 bound_to 11000
  140.0546  134.9787  157.1198 LP  0  0  0  0  0  0  0  0  0  0  0  0  # atno 17395 bound_to 11000

$$$$
