AV-unprocessed.smi:1626|AV-procd|sdf|6512|dock9
  -GOLD-   22720 7183D 1   1.00000     0.00000
 Structure written by MMmdl.
 49 51  0  0  0  0  0  0  0  0  3 V2000
  152.5124  143.5469  161.1629 C   0  0  0  0  0  0  0  0  0  0  0  0
  152.2003  142.7676  159.8967 C   0  0  0  0  0  0  0  0  0  0  0  0
  151.2739  143.3142  158.9798 C   0  0  0  0  0  0  0  0  0  0  0  0
  151.0122  142.5800  157.8291 C   0  0  0  0  0  0  0  0  0  0  0  0
  150.1712  142.8440  156.7457 N   0  3  0  0  0  0  0  0  0  0  0  0
  150.2526  141.8236  155.8475 C   0  0  0  0  0  0  0  0  0  0  0  0
  151.1240  140.9053  156.3483 N   0  0  0  0  0  0  0  0  0  0  0  0
  151.5787  139.6270  155.7858 C   0  0  0  0  0  0  0  0  0  0  0  0
  150.4322  138.7666  155.2148 C   0  0  2  0  0  0  0  0  0  0  0  0
  151.0121  137.5814  154.7087 O   0  0  0  0  0  0  0  0  0  0  0  0
  149.6435  139.4682  154.0861 C   0  0  0  0  0  0  0  0  0  0  0  0
  148.4910  138.6653  153.6019 N   0  3  2  0  0  0  0  0  0  0  0  0
  147.5748  139.4603  152.7439 C   0  0  0  0  0  0  0  0  0  0  0  0
  146.4736  138.5757  152.1320 C   0  0  0  0  0  0  0  0  0  0  0  0
  145.6901  137.8047  153.2068 C   0  0  2  0  0  0  0  0  0  0  0  0
  144.8875  138.6959  153.9550 O   0  0  0  0  0  0  0  0  0  0  0  0
  146.6576  137.0529  154.1358 C   0  0  0  0  0  0  0  0  0  0  0  0
  147.7526  137.9791  154.6962 C   0  0  0  0  0  0  0  0  0  0  0  0
  151.6318  141.3408  157.5769 C   0  0  0  0  0  0  0  0  0  0  0  0
  152.5478  140.7883  158.4684 C   0  0  0  0  0  0  0  0  0  0  0  0
  152.8292  141.5209  159.6438 C   0  0  0  0  0  0  0  0  0  0  0  0
  153.8255  140.9446  160.6354 C   0  0  0  0  0  0  0  0  0  0  0  0
  151.9763  144.4963  161.1904 H   0  0  0  0  0  0  0  0  0  0  0  0
  153.5784  143.7662  161.2258 H   0  0  0  0  0  0  0  0  0  0  0  0
  152.2231  142.9753  162.0451 H   0  0  0  0  0  0  0  0  0  0  0  0
  150.7936  144.2641  159.1647 H   0  0  0  0  0  0  0  0  0  0  0  0
  149.7203  141.7553  154.9094 H   0  0  0  0  0  0  0  0  0  0  0  0
  152.3040  139.8574  155.0038 H   0  0  0  0  0  0  0  0  0  0  0  0
  152.1225  139.0883  156.5634 H   0  0  0  0  0  0  0  0  0  0  0  0
  149.7674  138.4886  156.0311 H   0  0  0  0  0  0  0  0  0  0  0  0
  151.6074  137.2281  155.3517 H   0  0  0  0  0  0  0  0  0  0  0  0
  149.2736  140.4414  154.4110 H   0  0  0  0  0  0  0  0  0  0  0  0
  150.3307  139.6682  153.2623 H   0  0  0  0  0  0  0  0  0  0  0  0
  147.1335  140.2676  153.3306 H   0  0  0  0  0  0  0  0  0  0  0  0
  148.1395  139.9292  151.9371 H   0  0  0  0  0  0  0  0  0  0  0  0
  145.7951  139.1821  151.5306 H   0  0  0  0  0  0  0  0  0  0  0  0
  146.9327  137.8630  151.4457 H   0  0  0  0  0  0  0  0  0  0  0  0
  145.0190  137.0927  152.7254 H   0  0  0  0  0  0  0  0  0  0  0  0
  144.5667  139.3724  153.3772 H   0  0  0  0  0  0  0  0  0  0  0  0
  146.1098  136.5805  154.9522 H   0  0  0  0  0  0  0  0  0  0  0  0
  147.1296  136.2426  153.5785 H   0  0  0  0  0  0  0  0  0  0  0  0
  148.4344  137.3862  155.3042 H   0  0  0  0  0  0  0  0  0  0  0  0
  147.3111  138.7234  155.3609 H   0  0  0  0  0  0  0  0  0  0  0  0
  153.0301  139.8417  158.2738 H   0  0  0  0  0  0  0  0  0  0  0  0
  154.2054  139.9780  160.3036 H   0  0  0  0  0  0  0  0  0  0  0  0
  153.3583  140.8020  161.6101 H   0  0  0  0  0  0  0  0  0  0  0  0
  154.6781  141.6137  160.7540 H   0  0  0  0  0  0  0  0  0  0  0  0
  148.8755  137.9467  153.0058 H   0  0  0  0  0  0  0  0  0  0  0  0
  149.5899  143.6635  156.6222 H   0  0  0  0  0  0  0  0  0  0  0  0
  1  2  1  0  0  0  0
  1 23  1  0  0  0  0
  1 24  1  0  0  0  0
  1 25  1  0  0  0  0
  2 21  1  0  0  0  0
  2  3  2  0  0  0  0
  3  4  1  0  0  0  0
  3 26  1  0  0  0  0
  4 19  2  0  0  0  0
  4  5  1  0  0  0  0
  5  6  2  0  0  0  0
  5 49  1  0  0  0  0
  6  7  1  0  0  0  0
  6 27  1  0  0  0  0
  7  8  1  0  0  0  0
  7 19  1  0  0  0  0
  8  9  1  0  0  0  0
  8 28  1  0  0  0  0
  8 29  1  0  0  0  0
  9 10  1  0  0  0  0
  9 11  1  0  0  0  0
  9 30  1  0  0  0  0
 10 31  1  0  0  0  0
 11 12  1  0  0  0  0
 11 32  1  0  0  0  0
 11 33  1  0  0  0  0
 12 18  1  0  0  0  0
 12 13  1  0  0  0  0
 12 48  1  0  0  0  0
 13 14  1  0  0  0  0
 13 34  1  0  0  0  0
 13 35  1  0  0  0  0
 14 15  1  0  0  0  0
 14 36  1  0  0  0  0
 14 37  1  0  0  0  0
 15 16  1  0  0  0  0
 15 17  1  0  0  0  0
 15 38  1  0  0  0  0
 16 39  1  0  0  0  0
 17 18  1  0  0  0  0
 17 40  1  0  0  0  0
 17 41  1  0  0  0  0
 18 42  1  0  0  0  0
 18 43  1  0  0  0  0
 19 20  1  0  0  0  0
 20 21  2  0  0  0  0
 20 44  1  0  0  0  0
 21 22  1  0  0  0  0
 22 45  1  0  0  0  0
 22 46  1  0  0  0  0
 22 47  1  0  0  0  0
M  CHG  1   5   1
M  CHG  1  12   1
M  END
> <s_m_source_file>
AV-unprocessed.smi

> <i_m_source_file_index>
1626

> <i_lp_mmshare_version>
43012

> <i_f3d_flags>
0

> <s_epik_input>
W0NIM11jKFtjSF0xKWMoW0NIM10pW2NIXWMoYzEyKW4oW2NIXW4yKVtDSDJdW0NASF0oW09IXSlbQ0gyXU4zW0NIMl1bQ0gyXVtDSF0oW09IXSlbQ0gyXVtDSDJdMw==

> <s_epik_cmdline>
J2VwaWtfcHl0aG9uJywgJy1waCcsICc3LjAnLCAnLXRuJywgJzgnLCAnLW1hJywgJzIwMCcsICctbWV0YWxfYmluZGluZycsICctaW1hZScsICc8aW5maWxlLm1hZT4nLCAnLW9tYWUnLCAnPG91dGZpbGUubWFlPic=

> <r_epik_Ionization_Penalty>
1.19369

> <r_epik_Ionization_Penalty_Charging>
1.19369

> <r_epik_Ionization_Penalty_Neutral>
1.68219e-06

> <r_epik_State_Penalty>
1.27429

> <r_epik_Charging_Adjusted_Penalty>
2.46798

> <i_epik_Tot_Q>
2

> <i_epik_Tot_abs_Q>
2

> <r_epik_Metal_State_Penalty>
5.29157

> <b_epik_Metal_Only>
0

> <s_lp_Force_Field>
OPLS_2005

> <r_lp_Energy>
35.0493

> <b_lp_Chiralities_Consistent>
1

> <s_lp_Variant>
AV-unprocessed.smi:1626-7

> <Gold.Version>
5.8.1

> <Gold.Id.Protein>
6NUR|6NUR_protein|mol2

> <Gold.PLP.Fitness>
57.7442

> <Gold.PLP.PLP>
-43.3835

> <Gold.PLP.part.hbond>
-4.0000

> <Gold.PLP.part.metal>
0.0000

> <Gold.PLP.part.buried>
-0.4519

> <Gold.PLP.part.nonpolar>
-40.0970

> <Gold.PLP.part.repulsive>
0.0791

> <Gold.PLP.ligand.clash>
0.0000

> <Gold.PLP.ligand.torsion>
0.3306

> <Gold.PLP.Chemscore.Hbond>
5.0000

> <Gold.PLP.Chemscore.CHOScore>
0.0000

> <Gold.PLP.Chemscore.Metal>
0.0000

> <Gold.Chemscore.Hbonds>
donor molecule, donor type, donor heavy atom, donor atom, acceptor molecule, acceptor atom, score
      L1  H     5    49       P1  8028  2.00
      L1  H    12    48       P1  7948  1.95
      L1  H    16    39       P1 10175  1.00

> <Gold.PLP.Chemscore.Internal.Correction>
0.0218

> <Gold.Rescore>
     Score         DG    S(hbond)    S(metal)    S(lipo)     H(rot)  DE(clash)    DE(int)     intcor
     19.60     -22.41       2.93        0.00     120.90       2.74       1.58       1.23       ----

> <Gold.Chemscore.Fitness>
19.5963

> <Gold.Chemscore.DG>
-22.4130

> <Gold.Chemscore.ZeroCoef>
-5.4800

> <Gold.Chemscore.Hbond>
2.9336

> <Gold.Chemscore.Metal>
0.0000

> <Gold.Chemscore.Lipo>
120.8991

> <Gold.Chemscore.Internal_Hbond>
0.0000

> <Gold.Chemscore.DEClash>
1.5842

> <Gold.Chemscore.DEInternal>
1.2325

> <Gold.Chemscore.Rot>
2.7384

> <Gold.Chemscore.Internal.Correction>
   9.000000E+99

> <Gold.Chemscore.Hbonds>
donor molecule, donor type, donor heavy atom, donor atom, acceptor molecule, acceptor atom, score
      L1  H     5    49       P1  8028  0.93
      L1  H    12    48       P1  7948  0.92
      L1  H    16    39       P1 10175  1.00

> <Gold.Chemscore.Hbond.Weighted>
-9.7981

> <Gold.Chemscore.Metal.Weighted>
-0.0000

> <Gold.Chemscore.Lipo.Weighted>
-14.1452

> <Gold.Chemscore.Internal_Hbond.Weighted>
0.0000

> <Gold.Chemscore.DEClash.Weighted>
1.5842

> <Gold.Chemscore.DEInternal.Weighted>
1.2325

> <Gold.Chemscore.Rot.Weighted>
7.0103

> <Gold.Chemscore.Internal.Correction.Weighted>
   9.000000E+99

> <Gold.Protein.RotatedTorsions>
[ 6907 6896 6895 6894 ] final  -34.37 input  -60.11 | X-H torsion
[ 7974 7965 7964 7962 ] final  -44.28 input  175.53 | X-H torsion
[ 8008 7997 7996 7995 ] final  -15.46 input   59.86 | X-H torsion
[ 10167 10162 10161 10158 ] final -174.59 input  -65.29 | X-H torsion
[ 10718 10713 10712 10709 ] final   78.72 input   66.30 | X-H torsion
[ 10763 10752 10751 10750 ] final  144.14 input  -60.55 | X-H torsion
[ 11005 11000 10999 10996 ] final -100.50 input  -57.11 | X-H torsion

> <Gold.Protein.ActiveResidues>
 VAL166  LYS551  ARG553  GLY616  TRP617  ASP618  TYR619  PRO620  LYS621  CYS622 
 ASP623  PHE694  ASN695  SER759  ASP760  ASP761  ALA762  ILE779  LEU786  VAL792 
 PHE793  MET794  SER795  GLU796  ALA797  LYS798  CYS799  TRP800  GLU811  SER814 

> <Gold.Protein.RotatedAtoms>
  151.0536  134.9689  159.8223 H   0  0  0  0  0  0  0  0  0  0  0  0  # atno 6907 bound_to 6896
  152.5384  134.2507  159.8907 H   0  0  0  0  0  0  0  0  0  0  0  0  # atno 6908 bound_to 6896
  151.2523  133.4301  159.2646 H   0  0  0  0  0  0  0  0  0  0  0  0  # atno 6909 bound_to 6896
  145.9936  140.7153  142.9305 H   0  0  0  0  0  0  0  0  0  0  0  0  # atno 7974 bound_to 7965
  154.5128  140.2195  155.9123 H   0  0  0  0  0  0  0  0  0  0  0  0  # atno 8008 bound_to 7997
  156.1573  140.3149  155.8713 H   0  0  0  0  0  0  0  0  0  0  0  0  # atno 8009 bound_to 7997
  155.3822  140.0473  157.3034 H   0  0  0  0  0  0  0  0  0  0  0  0  # atno 8010 bound_to 7997
  139.5625  144.1834  152.1262 H   0  0  0  0  0  0  0  0  0  0  0  0  # atno 10167 bound_to 10162
  157.6754  130.9881  150.1827 H   0  0  0  0  0  0  0  0  0  0  0  0  # atno 10718 bound_to 10713
  153.9839  135.2938  155.3418 H   0  0  0  0  0  0  0  0  0  0  0  0  # atno 10763 bound_to 10752
  154.7253  135.5091  153.8880 H   0  0  0  0  0  0  0  0  0  0  0  0  # atno 10764 bound_to 10752
  153.0841  135.6688  154.0099 H   0  0  0  0  0  0  0  0  0  0  0  0  # atno 10765 bound_to 10752
  141.1268  133.8404  157.1111 H   0  0  0  0  0  0  0  0  0  0  0  0  # atno 11005 bound_to 11000
  144.6896  140.3112  143.7247 LP  0  0  0  0  0  0  0  0  0  0  0  0  # atno 17320 bound_to 7965
  145.7593  139.1819  143.2276 LP  0  0  0  0  0  0  0  0  0  0  0  0  # atno 17321 bound_to 7965
  140.1350  144.5254  150.6779 LP  0  0  0  0  0  0  0  0  0  0  0  0  # atno 17342 bound_to 10162
  140.6907  143.2374  151.5140 LP  0  0  0  0  0  0  0  0  0  0  0  0  # atno 17343 bound_to 10162
  156.2556  130.3705  149.8185 LP  0  0  0  0  0  0  0  0  0  0  0  0  # atno 17370 bound_to 10713
  156.5946  130.8520  151.3416 LP  0  0  0  0  0  0  0  0  0  0  0  0  # atno 17371 bound_to 10713
  140.0274  134.9917  157.0714 LP  0  0  0  0  0  0  0  0  0  0  0  0  # atno 17394 bound_to 11000
  140.4340  134.1751  155.7169 LP  0  0  0  0  0  0  0  0  0  0  0  0  # atno 17395 bound_to 11000

$$$$
