AV-unprocessed.smi:3158|AV-procd|sdf|12044|dock6
  -GOLD-   2272017473D 1   1.00000     0.00000
 Structure written by MMmdl.
 40 40  0  0  0  0  0  0  0  0  2 V2000
  152.1979  138.6536  155.0668 C   0  0  0  0  0  0  0  0  0  0  0  0
  150.9435  138.3886  154.2213 C   0  0  0  0  0  0  0  0  0  0  0  0
  149.6743  139.0641  154.7728 C   0  0  1  0  0  0  0  0  0  0  0  0
  149.9434  140.5100  155.2148 C   0  0  0  0  0  0  0  0  0  0  0  0
  148.6167  139.0494  153.7645 N   0  0  0  0  0  0  0  0  0  0  0  0
  147.4188  138.4581  153.8941 C   0  0  0  0  0  0  0  0  0  0  0  0
  147.0722  137.8398  154.9015 O   0  0  0  0  0  0  0  0  0  0  0  0
  146.4705  138.5762  152.6921 C   0  0  1  0  0  0  0  0  0  0  0  0
  146.7245  139.8980  151.9511 C   0  0  0  0  0  0  0  0  0  0  0  0
  146.6201  137.4396  151.7538 N   0  3  0  0  0  0  0  0  0  0  0  0
  145.5627  136.4097  151.8404 C   0  0  0  0  0  0  0  0  0  0  0  0
  145.6411  135.4424  150.6514 C   0  0  0  0  0  0  0  0  0  0  0  0
  144.6837  134.3609  150.7762 N   0  0  0  0  0  0  0  0  0  0  0  0
  144.4545  133.3125  149.9099 C   0  0  0  0  0  0  0  0  0  0  0  0
  143.4573  132.5516  150.4493 C   0  0  0  0  0  0  0  0  0  0  0  0
  143.1355  133.2247  151.6609 C   0  0  0  0  0  0  0  0  0  0  0  0
  143.8719  134.3076  151.8539 N   0  0  0  0  0  0  0  0  0  0  0  0
  153.0754  138.1946  154.6108 H   0  0  0  0  0  0  0  0  0  0  0  0
  152.0990  138.2454  156.0729 H   0  0  0  0  0  0  0  0  0  0  0  0
  152.3921  139.7227  155.1562 H   0  0  0  0  0  0  0  0  0  0  0  0
  151.1271  138.7465  153.2075 H   0  0  0  0  0  0  0  0  0  0  0  0
  150.7851  137.3125  154.1378 H   0  0  0  0  0  0  0  0  0  0  0  0
  149.3565  138.4993  155.6512 H   0  0  0  0  0  0  0  0  0  0  0  0
  150.7159  140.5475  155.9833 H   0  0  0  0  0  0  0  0  0  0  0  0
  149.0457  140.9688  155.6305 H   0  0  0  0  0  0  0  0  0  0  0  0
  150.2762  141.1263  154.3787 H   0  0  0  0  0  0  0  0  0  0  0  0
  148.8162  139.5279  152.8979 H   0  0  0  0  0  0  0  0  0  0  0  0
  145.4411  138.5837  153.0546 H   0  0  0  0  0  0  0  0  0  0  0  0
  146.5909  140.7565  152.6107 H   0  0  0  0  0  0  0  0  0  0  0  0
  146.0312  140.0186  151.1183 H   0  0  0  0  0  0  0  0  0  0  0  0
  147.7373  139.9432  151.5478 H   0  0  0  0  0  0  0  0  0  0  0  0
  146.6101  137.8080  150.8137 H   0  0  0  0  0  0  0  0  0  0  0  0
  145.6636  135.8522  152.7724 H   0  0  0  0  0  0  0  0  0  0  0  0
  144.5884  136.8999  151.8629 H   0  0  0  0  0  0  0  0  0  0  0  0
  145.4512  135.9677  149.7142 H   0  0  0  0  0  0  0  0  0  0  0  0
  146.6409  135.0123  150.5777 H   0  0  0  0  0  0  0  0  0  0  0  0
  145.0130  133.1951  148.9928 H   0  0  0  0  0  0  0  0  0  0  0  0
  143.0229  131.6515  150.0401 H   0  0  0  0  0  0  0  0  0  0  0  0
  142.3942  132.9601  152.4003 H   0  0  0  0  0  0  0  0  0  0  0  0
  147.5170  137.0057  151.9214 H   0  0  0  0  0  0  0  0  0  0  0  0
  1  2  1  0  0  0  0
  1 18  1  0  0  0  0
  1 19  1  0  0  0  0
  1 20  1  0  0  0  0
  2  3  1  0  0  0  0
  2 21  1  0  0  0  0
  2 22  1  0  0  0  0
  3  4  1  0  0  0  0
  3  5  1  0  0  0  0
  3 23  1  0  0  0  0
  4 24  1  0  0  0  0
  4 25  1  0  0  0  0
  4 26  1  0  0  0  0
  5  6  1  0  0  0  0
  5 27  1  0  0  0  0
  6  7  2  0  0  0  0
  6  8  1  0  0  0  0
  8  9  1  0  0  0  0
  8 10  1  0  0  0  0
  8 28  1  0  0  0  0
  9 29  1  0  0  0  0
  9 30  1  0  0  0  0
  9 31  1  0  0  0  0
 10 11  1  0  0  0  0
 10 32  1  0  0  0  0
 10 40  1  0  0  0  0
 11 12  1  0  0  0  0
 11 33  1  0  0  0  0
 11 34  1  0  0  0  0
 12 13  1  0  0  0  0
 12 35  1  0  0  0  0
 12 36  1  0  0  0  0
 13 17  1  0  0  0  0
 13 14  1  0  0  0  0
 14 15  2  0  0  0  0
 14 37  1  0  0  0  0
 15 16  1  0  0  0  0
 15 38  1  0  0  0  0
 16 17  2  0  0  0  0
 16 39  1  0  0  0  0
M  CHG  1  10   1
M  END
> <s_m_source_file>
AV-unprocessed.smi

> <i_m_source_file_index>
3158

> <i_lp_mmshare_version>
43012

> <i_f3d_flags>
0

> <s_epik_input>
W0NIM11bQ0gyXVtDQEhdKFtDSDNdKVtOSF1DKD1PKVtDQEhdKFtDSDNdKVtOSF1bQ0gyXVtDSDJdbjFbY0hdW2NIXVtjSF1uMQ==

> <s_epik_cmdline>
J2VwaWtfcHl0aG9uJywgJy1waCcsICc3LjAnLCAnLXRuJywgJzgnLCAnLW1hJywgJzIwMCcsICctbWV0YWxfYmluZGluZycsICctaW1hZScsICc8aW5maWxlLm1hZT4nLCAnLW9tYWUnLCAnPG91dGZpbGUubWFlPic=

> <r_lp_tautomer_probability>
1

> <r_epik_Ionization_Penalty>
0.20724

> <r_epik_Ionization_Penalty_Charging>
0.207237

> <r_epik_Ionization_Penalty_Neutral>
3.33806e-06

> <r_epik_State_Penalty>
0.197234

> <r_epik_Charging_Adjusted_Penalty>
0.404471

> <i_epik_Tot_Q>
1

> <i_epik_Tot_abs_Q>
1

> <r_epik_Metal_State_Penalty>
0.197524

> <b_epik_Metal_Only>
0

> <s_lp_Force_Field>
OPLS_2005

> <r_lp_Energy>
5.19885

> <b_lp_Chiralities_Consistent>
1

> <s_lp_Variant>
AV-unprocessed.smi:3158-4

> <Gold.Version>
5.8.1

> <Gold.Id.Protein>
6NUR|6NUR_protein|mol2

> <Gold.PLP.Fitness>
45.9013

> <Gold.PLP.PLP>
-34.0611

> <Gold.PLP.part.hbond>
-2.0000

> <Gold.PLP.part.metal>
0.0000

> <Gold.PLP.part.buried>
-0.6850

> <Gold.PLP.part.nonpolar>
-32.2760

> <Gold.PLP.part.repulsive>
0.3499

> <Gold.PLP.ligand.clash>
0.0000

> <Gold.PLP.ligand.torsion>
1.5236

> <Gold.PLP.Chemscore.Hbond>
3.0000

> <Gold.PLP.Chemscore.CHOScore>
1.9109

> <Gold.PLP.Chemscore.Metal>
0.0000

> <Gold.Chemscore.Hbonds>
donor molecule, donor type, donor heavy atom, donor atom, acceptor molecule, acceptor atom, score
      L1  H     5    27       P1  7957  1.00
      L1  H    10    40       P1  7948  2.00
      L1  C    14    37       P1  7921  1.00
      L1  C    16    39       P1 10957  0.58

> <Gold.PLP.Chemscore.Internal.Correction>
0.1548

> <Gold.Rescore>
     Score         DG    S(hbond)    S(metal)    S(lipo)     H(rot)  DE(clash)    DE(int)     intcor
     14.37     -16.81       1.94        0.00      89.88       2.21       1.13       1.31       ----

> <Gold.Chemscore.Fitness>
14.3706

> <Gold.Chemscore.DG>
-16.8122

> <Gold.Chemscore.ZeroCoef>
-5.4800

> <Gold.Chemscore.Hbond>
1.9407

> <Gold.Chemscore.Metal>
0.0000

> <Gold.Chemscore.Lipo>
89.8797

> <Gold.Chemscore.Internal_Hbond>
0.0000

> <Gold.Chemscore.DEClash>
1.1332

> <Gold.Chemscore.DEInternal>
1.3085

> <Gold.Chemscore.Rot>
2.2132

> <Gold.Chemscore.Internal.Correction>
   9.000000E+99

> <Gold.Chemscore.Hbonds>
donor molecule, donor type, donor heavy atom, donor atom, acceptor molecule, acceptor atom, score
      L1  H     5    27       P1  7957  0.98
      L1  H    10    40       P1  7948  0.99

> <Gold.Chemscore.Hbond.Weighted>
-6.4821

> <Gold.Chemscore.Metal.Weighted>
-0.0000

> <Gold.Chemscore.Lipo.Weighted>
-10.5159

> <Gold.Chemscore.Internal_Hbond.Weighted>
0.0000

> <Gold.Chemscore.DEClash.Weighted>
1.1332

> <Gold.Chemscore.DEInternal.Weighted>
1.3085

> <Gold.Chemscore.Rot.Weighted>
5.6658

> <Gold.Chemscore.Internal.Correction.Weighted>
   9.000000E+99

> <Gold.Protein.RotatedTorsions>
[ 6907 6896 6895 6894 ] final  125.71 input  -60.11 | X-H torsion
[ 7974 7965 7964 7962 ] final  -52.69 input  175.53 | X-H torsion
[ 8008 7997 7996 7995 ] final -130.89 input   59.86 | X-H torsion
[ 10167 10162 10161 10158 ] final -155.25 input  -65.29 | X-H torsion
[ 10718 10713 10712 10709 ] final   89.97 input   66.30 | X-H torsion
[ 10763 10752 10751 10750 ] final  -43.23 input  -60.55 | X-H torsion
[ 11005 11000 10999 10996 ] final  100.07 input  -57.11 | X-H torsion

> <Gold.Protein.ActiveResidues>
 VAL166  LYS551  ARG553  GLY616  TRP617  ASP618  TYR619  PRO620  LYS621  CYS622 
 ASP623  PHE694  ASN695  SER759  ASP760  ASP761  ALA762  ILE779  LEU786  VAL792 
 PHE793  MET794  SER795  GLU796  ALA797  LYS798  CYS799  TRP800  GLU811  SER814 

> <Gold.Protein.RotatedAtoms>
  152.3968  133.6758  159.6282 H   0  0  0  0  0  0  0  0  0  0  0  0  # atno 6907 bound_to 6896
  150.7866  133.8860  159.3308 H   0  0  0  0  0  0  0  0  0  0  0  0  # atno 6908 bound_to 6896
  151.6635  135.0987  160.0235 H   0  0  0  0  0  0  0  0  0  0  0  0  # atno 6909 bound_to 6896
  145.9051  140.7962  142.9723 H   0  0  0  0  0  0  0  0  0  0  0  0  # atno 7974 bound_to 7965
  155.3032  140.0454  157.3030 H   0  0  0  0  0  0  0  0  0  0  0  0  # atno 8008 bound_to 7997
  154.5475  140.2307  155.8507 H   0  0  0  0  0  0  0  0  0  0  0  0  # atno 8009 bound_to 7997
  156.1937  140.3044  155.9390 H   0  0  0  0  0  0  0  0  0  0  0  0  # atno 8010 bound_to 7997
  139.6947  143.9362  152.2401 H   0  0  0  0  0  0  0  0  0  0  0  0  # atno 10167 bound_to 10162
  157.6957  131.0353  150.3506 H   0  0  0  0  0  0  0  0  0  0  0  0  # atno 10718 bound_to 10713
  153.9921  135.6704  153.4754 H   0  0  0  0  0  0  0  0  0  0  0  0  # atno 10763 bound_to 10752
  153.0700  135.4979  154.8280 H   0  0  0  0  0  0  0  0  0  0  0  0  # atno 10764 bound_to 10752
  154.7103  135.3096  154.9170 H   0  0  0  0  0  0  0  0  0  0  0  0  # atno 10765 bound_to 10752
  139.8771  134.9124  156.4700 H   0  0  0  0  0  0  0  0  0  0  0  0  # atno 11005 bound_to 11000
  144.6738  140.1738  143.7412 LP  0  0  0  0  0  0  0  0  0  0  0  0  # atno 17320 bound_to 7965
  145.8742  139.2288  143.1643 LP  0  0  0  0  0  0  0  0  0  0  0  0  # atno 17321 bound_to 7965
  139.9188  144.6812  150.8483 LP  0  0  0  0  0  0  0  0  0  0  0  0  # atno 17342 bound_to 10162
  140.7693  143.3390  151.2248 LP  0  0  0  0  0  0  0  0  0  0  0  0  # atno 17343 bound_to 10162
  156.3955  130.3906  149.6998 LP  0  0  0  0  0  0  0  0  0  0  0  0  # atno 17370 bound_to 10713
  156.4333  130.7826  151.2846 LP  0  0  0  0  0  0  0  0  0  0  0  0  # atno 17371 bound_to 10713
  140.8802  133.7923  155.9458 LP  0  0  0  0  0  0  0  0  0  0  0  0  # atno 17394 bound_to 11000
  140.8862  134.2551  157.5119 LP  0  0  0  0  0  0  0  0  0  0  0  0  # atno 17395 bound_to 11000

$$$$
