AV-unprocessed.smi:3202|AV-procd|sdf|12242|dock6
  -GOLD-   2272018 73D 1   1.00000     0.00000
 Structure written by MMmdl.
 43 44  0  0  0  0  0  0  0  0  2 V2000
  146.7350  139.4504  152.8435 C   0  0  0  0  0  0  0  0  0  0  0  0
  148.0422  139.7052  153.5140 C   0  0  0  0  0  0  0  0  0  0  0  0
  148.4955  140.7733  154.2360 C   0  0  0  0  0  0  0  0  0  0  0  0
  149.8259  140.4136  154.6017 C   0  0  0  0  0  0  0  0  0  0  0  0
  150.8095  141.2169  155.4098 C   0  0  0  0  0  0  0  0  0  0  0  0
  150.3043  141.5731  156.8255 C   0  0  1  0  0  0  0  0  0  0  0  0
  150.8228  140.6125  157.9086 C   0  0  0  0  0  0  0  0  0  0  0  0
  150.7078  142.9535  157.1773 N   0  3  0  0  0  0  0  0  0  0  0  0
  150.7644  143.2665  158.6247 C   0  0  2  0  0  0  0  0  0  0  0  0
  149.7902  144.3667  159.0634 C   0  0  0  0  0  0  0  0  0  0  0  0
  150.3886  144.9431  160.3526 C   0  0  0  0  0  0  0  0  0  0  0  0
  151.8149  144.3797  160.4598 C   0  0  0  0  0  0  0  0  0  0  0  0
  152.1511  143.7602  159.0901 C   0  0  0  0  0  0  0  0  0  0  0  0
  153.1521  142.5982  159.2335 C   0  0  0  0  0  0  0  0  0  0  0  0
  152.7464  144.8424  158.1589 C   0  0  0  0  0  0  0  0  0  0  0  0
  150.1686  139.2172  154.1448 N   0  0  0  0  0  0  0  0  0  0  0  0
  149.0742  138.7960  153.4841 N   0  0  0  0  0  0  0  0  0  0  0  0
  149.0472  137.8986  153.0204 H   0  0  0  0  0  0  0  0  0  0  0  0
  145.9800  140.1621  153.1781 H   0  0  0  0  0  0  0  0  0  0  0  0
  146.3721  138.4465  153.0655 H   0  0  0  0  0  0  0  0  0  0  0  0
  146.8307  139.5449  151.7617 H   0  0  0  0  0  0  0  0  0  0  0  0
  147.9569  141.6802  154.4678 H   0  0  0  0  0  0  0  0  0  0  0  0
  151.7521  140.6728  155.4880 H   0  0  0  0  0  0  0  0  0  0  0  0
  151.0459  142.1293  154.8635 H   0  0  0  0  0  0  0  0  0  0  0  0
  149.2149  141.5093  156.8326 H   0  0  0  0  0  0  0  0  0  0  0  0
  150.4505  139.5990  157.7590 H   0  0  0  0  0  0  0  0  0  0  0  0
  150.4958  140.9280  158.9002 H   0  0  0  0  0  0  0  0  0  0  0  0
  151.9125  140.5713  157.9154 H   0  0  0  0  0  0  0  0  0  0  0  0
  151.6419  143.0876  156.8169 H   0  0  0  0  0  0  0  0  0  0  0  0
  150.5240  142.3580  159.1804 H   0  0  0  0  0  0  0  0  0  0  0  0
  149.7373  145.1534  158.3098 H   0  0  0  0  0  0  0  0  0  0  0  0
  148.7788  143.9869  159.2126 H   0  0  0  0  0  0  0  0  0  0  0  0
  150.3991  146.0330  160.3109 H   0  0  0  0  0  0  0  0  0  0  0  0
  149.7989  144.6565  161.2242 H   0  0  0  0  0  0  0  0  0  0  0  0
  152.5355  145.1388  160.7673 H   0  0  0  0  0  0  0  0  0  0  0  0
  151.8254  143.6080  161.2312 H   0  0  0  0  0  0  0  0  0  0  0  0
  154.1027  142.9458  159.6396 H   0  0  0  0  0  0  0  0  0  0  0  0
  153.3568  142.1307  158.2698 H   0  0  0  0  0  0  0  0  0  0  0  0
  152.7759  141.8218  159.9006 H   0  0  0  0  0  0  0  0  0  0  0  0
  153.6777  145.2377  158.5658 H   0  0  0  0  0  0  0  0  0  0  0  0
  152.0706  145.6871  158.0246 H   0  0  0  0  0  0  0  0  0  0  0  0
  152.9757  144.4437  157.1704 H   0  0  0  0  0  0  0  0  0  0  0  0
  150.0950  143.6090  156.7138 H   0  0  0  0  0  0  0  0  0  0  0  0
  1  2  1  0  0  0  0
  1 19  1  0  0  0  0
  1 20  1  0  0  0  0
  1 21  1  0  0  0  0
  2 17  1  0  0  0  0
  2  3  2  0  0  0  0
  3  4  1  0  0  0  0
  3 22  1  0  0  0  0
  4  5  1  0  0  0  0
  4 16  2  0  0  0  0
  5  6  1  0  0  0  0
  5 23  1  0  0  0  0
  5 24  1  0  0  0  0
  6  7  1  0  0  0  0
  6  8  1  0  0  0  0
  6 25  1  0  0  0  0
  7 26  1  0  0  0  0
  7 27  1  0  0  0  0
  7 28  1  0  0  0  0
  8  9  1  0  0  0  0
  8 29  1  0  0  0  0
  8 43  1  0  0  0  0
  9 13  1  0  0  0  0
  9 10  1  0  0  0  0
  9 30  1  0  0  0  0
 10 11  1  0  0  0  0
 10 31  1  0  0  0  0
 10 32  1  0  0  0  0
 11 12  1  0  0  0  0
 11 33  1  0  0  0  0
 11 34  1  0  0  0  0
 12 13  1  0  0  0  0
 12 35  1  0  0  0  0
 12 36  1  0  0  0  0
 13 14  1  0  0  0  0
 13 15  1  0  0  0  0
 14 37  1  0  0  0  0
 14 38  1  0  0  0  0
 14 39  1  0  0  0  0
 15 40  1  0  0  0  0
 15 41  1  0  0  0  0
 15 42  1  0  0  0  0
 16 17  1  0  0  0  0
 17 18  1  0  0  0  0
M  CHG  1   8   1
M  END
> <s_m_source_file>
AV-unprocessed.smi

> <i_m_source_file_index>
3202

> <i_lp_mmshare_version>
43012

> <i_f3d_flags>
0

> <s_epik_input>
W0NIM11jMVtjSF1jKG5bbkhdMSlbQ0gyXVtDQEhdKFtDSDNdKVtOSF1bQ0BASF0oQzIoW0NIM10pW0NIM10pW0NIMl1bQ0gyXVtDSDJdMg==

> <s_epik_cmdline>
J2VwaWtfcHl0aG9uJywgJy1waCcsICc3LjAnLCAnLXRuJywgJzgnLCAnLW1hJywgJzIwMCcsICctbWV0YWxfYmluZGluZycsICctaW1hZScsICc8aW5maWxlLm1hZT4nLCAnLW9tYWUnLCAnPG91dGZpbGUubWFlPic=

> <r_lp_tautomer_probability>
0.5

> <r_epik_Ionization_Penalty>
0.000341671

> <r_epik_Ionization_Penalty_Charging>
0.000281809

> <r_epik_Ionization_Penalty_Neutral>
5.9862e-05

> <r_epik_State_Penalty>
0.41068

> <r_epik_Charging_Adjusted_Penalty>
0.410962

> <i_epik_Tot_Q>
1

> <i_epik_Tot_abs_Q>
1

> <r_epik_Metal_State_Penalty>
0.410672

> <b_epik_Metal_Only>
0

> <s_lp_Force_Field>
OPLS_2005

> <r_lp_Energy>
29.8366

> <b_lp_Chiralities_Consistent>
1

> <s_lp_Variant>
AV-unprocessed.smi:3202-2

> <Gold.Version>
5.8.1

> <Gold.Id.Protein>
6NUR|6NUR_protein|mol2

> <Gold.PLP.Fitness>
43.8331

> <Gold.PLP.PLP>
-37.9369

> <Gold.PLP.part.hbond>
-2.9867

> <Gold.PLP.part.metal>
0.0000

> <Gold.PLP.part.buried>
-0.5234

> <Gold.PLP.part.nonpolar>
-34.6796

> <Gold.PLP.part.repulsive>
0.2432

> <Gold.PLP.ligand.clash>
0.0164

> <Gold.PLP.ligand.torsion>
1.5532

> <Gold.PLP.Chemscore.Hbond>
3.0000

> <Gold.PLP.Chemscore.CHOScore>
0.0000

> <Gold.PLP.Chemscore.Metal>
0.0000

> <Gold.Chemscore.Hbonds>
donor molecule, donor type, donor heavy atom, donor atom, acceptor molecule, acceptor atom, score
      L1  H     8    43       P1  8028  2.00
      L1  H    17    18       P1  7948  1.00

> <Gold.PLP.Chemscore.Internal.Correction>
0.0190

> <Gold.Rescore>
     Score         DG    S(hbond)    S(metal)    S(lipo)     H(rot)  DE(clash)    DE(int)     intcor
     20.08     -22.31       1.97        0.00     119.49       1.46       0.45       1.78       ----

> <Gold.Chemscore.Fitness>
20.0775

> <Gold.Chemscore.DG>
-22.3105

> <Gold.Chemscore.ZeroCoef>
-5.4800

> <Gold.Chemscore.Hbond>
1.9720

> <Gold.Chemscore.Metal>
0.0000

> <Gold.Chemscore.Lipo>
119.4918

> <Gold.Chemscore.Internal_Hbond>
0.0000

> <Gold.Chemscore.DEClash>
0.4512

> <Gold.Chemscore.DEInternal>
1.7817

> <Gold.Chemscore.Rot>
1.4596

> <Gold.Chemscore.Internal.Correction>
   9.000000E+99

> <Gold.Chemscore.Hbonds>
donor molecule, donor type, donor heavy atom, donor atom, acceptor molecule, acceptor atom, score
      L1  H     8    43       P1  8028  0.99
      L1  H    17    18       P1  7948  0.96

> <Gold.Chemscore.Hbond.Weighted>
-6.5864

> <Gold.Chemscore.Metal.Weighted>
-0.0000

> <Gold.Chemscore.Lipo.Weighted>
-13.9805

> <Gold.Chemscore.Internal_Hbond.Weighted>
0.0000

> <Gold.Chemscore.DEClash.Weighted>
0.4512

> <Gold.Chemscore.DEInternal.Weighted>
1.7817

> <Gold.Chemscore.Rot.Weighted>
3.7365

> <Gold.Chemscore.Internal.Correction.Weighted>
   9.000000E+99

> <Gold.Protein.RotatedTorsions>
[ 6907 6896 6895 6894 ] final   62.65 input  -60.11 | X-H torsion
[ 7974 7965 7964 7962 ] final   61.17 input  175.53 | X-H torsion
[ 8008 7997 7996 7995 ] final    8.50 input   59.86 | X-H torsion
[ 10167 10162 10161 10158 ] final  -32.81 input  -65.29 | X-H torsion
[ 10718 10713 10712 10709 ] final  -98.06 input   66.30 | X-H torsion
[ 10763 10752 10751 10750 ] final   70.98 input  -60.55 | X-H torsion
[ 11005 11000 10999 10996 ] final -160.49 input  -57.11 | X-H torsion

> <Gold.Protein.ActiveResidues>
 VAL166  LYS551  ARG553  GLY616  TRP617  ASP618  TYR619  PRO620  LYS621  CYS622 
 ASP623  PHE694  ASN695  SER759  ASP760  ASP761  ALA762  ILE779  LEU786  VAL792 
 PHE793  MET794  SER795  GLU796  ALA797  LYS798  CYS799  TRP800  GLU811  SER814 

> <Gold.Protein.RotatedAtoms>
  152.4189  134.5990  159.9994 H   0  0  0  0  0  0  0  0  0  0  0  0  # atno 6907 bound_to 6896
  151.6146  133.3338  159.3082 H   0  0  0  0  0  0  0  0  0  0  0  0  # atno 6908 bound_to 6896
  150.8078  134.7252  159.6726 H   0  0  0  0  0  0  0  0  0  0  0  0  # atno 6909 bound_to 6896
  145.8877  139.3488  143.0668 H   0  0  0  0  0  0  0  0  0  0  0  0  # atno 7974 bound_to 7965
  154.7676  140.2796  155.6163 H   0  0  0  0  0  0  0  0  0  0  0  0  # atno 8008 bound_to 7997
  156.2928  140.2647  156.2398 H   0  0  0  0  0  0  0  0  0  0  0  0  # atno 8009 bound_to 7997
  154.9939  140.0373  157.2321 H   0  0  0  0  0  0  0  0  0  0  0  0  # atno 8010 bound_to 7997
  140.7215  143.3667  151.1858 H   0  0  0  0  0  0  0  0  0  0  0  0  # atno 10167 bound_to 10162
  156.0098  130.5221  150.6466 H   0  0  0  0  0  0  0  0  0  0  0  0  # atno 10718 bound_to 10713
  153.0372  135.5154  154.7524 H   0  0  0  0  0  0  0  0  0  0  0  0  # atno 10763 bound_to 10752
  154.6490  135.2922  155.0012 H   0  0  0  0  0  0  0  0  0  0  0  0  # atno 10764 bound_to 10752
  154.0903  135.6651  153.4904 H   0  0  0  0  0  0  0  0  0  0  0  0  # atno 10765 bound_to 10752
  140.6309  134.4652  157.5229 H   0  0  0  0  0  0  0  0  0  0  0  0  # atno 11005 bound_to 11000
  145.8946  140.9282  143.0534 LP  0  0  0  0  0  0  0  0  0  0  0  0  # atno 17320 bound_to 7965
  144.6729  140.0951  143.7463 LP  0  0  0  0  0  0  0  0  0  0  0  0  # atno 17321 bound_to 7965
  139.7230  143.9193  152.2992 LP  0  0  0  0  0  0  0  0  0  0  0  0  # atno 17342 bound_to 10162
  139.8957  144.6940  150.8721 LP  0  0  0  0  0  0  0  0  0  0  0  0  # atno 17343 bound_to 10162
  157.4236  131.0840  151.1107 LP  0  0  0  0  0  0  0  0  0  0  0  0  # atno 17370 bound_to 10713
  157.1702  130.6264  149.5638 LP  0  0  0  0  0  0  0  0  0  0  0  0  # atno 17371 bound_to 10713
  139.9116  134.8332  156.1507 LP  0  0  0  0  0  0  0  0  0  0  0  0  # atno 17394 bound_to 11000
  141.0676  133.6812  156.2076 LP  0  0  0  0  0  0  0  0  0  0  0  0  # atno 17395 bound_to 11000

$$$$
