#       Name:                AV-unprocessed.smi:2567
#       Creating user name   scv26
#       Creation time:       Fri Mar 27 14:11:06 2020


#       File generated by GOLD software.
#

@<TRIPOS>MOLECULE
AV-unprocessed.smi:2567
    38    39     1
SMALL
NO_CHARGES


@<TRIPOS>ATOM
      1 ****        -3.2848   2.3342  -1.0332 C.3            1 S1                 0.0000
      2 ****        -2.7856   0.8779  -1.0380 C.3            1 S1                 0.0000
      3 ****        -3.3799   0.1596   0.1921 C.3            1 S1                 0.0000
      4 ****        -3.2614   0.1416  -2.3038 C.3            1 S1                 0.0000
      5 ****        -1.2608   0.8630  -0.9805 C.2            1 S1                 0.0000
      6 ****        -0.4390   1.4088  -1.8976 N.pl3          1 S1                -1.0000
      7 ****         0.8172   1.2218  -1.5506 N.2            1 S1                 0.0000
      8 ****         0.7677   0.5543  -0.3892 C.2            1 S1                 0.0000
      9 ****         1.9834   0.0789   0.3783 C.3            1 S1                 0.0000
     10 ****         2.4124  -1.3283  -0.0810 C.3            1 S1                 0.0000
     11 ****         3.5882  -1.7801   0.6876 N.4            1 S1                 1.0000
     12 ****         3.3426  -1.7193   2.1413 C.3            1 S1                 0.0000
     13 ****         2.8842  -0.3064   2.5387 C.3            1 S1                 0.0000
     14 ****         1.7333   0.0517   1.7826 O.3            1 S1                 0.0000
     15 ****        -0.5019   0.3147  -0.0335 N.2            1 S1                 0.0000
     16 ****        -4.3738   2.3820  -1.0634 H              1 S1                 0.0000
     17 ****        -2.9095   2.8852  -1.8963 H              1 S1                 0.0000
     18 ****        -2.9548   2.8620  -0.1379 H              1 S1                 0.0000
     19 ****        -3.0738   0.6413   1.1216 H              1 S1                 0.0000
     20 ****        -3.0588  -0.8816   0.2397 H              1 S1                 0.0000
     21 ****        -4.4701   0.1637   0.1668 H              1 S1                 0.0000
     22 ****        -4.3495   0.1278  -2.3703 H              1 S1                 0.0000
     23 ****        -2.9159  -0.8929  -2.3137 H              1 S1                 0.0000
     24 ****        -2.8851   0.6218  -3.2078 H              1 S1                 0.0000
     25 ****         2.7884   0.7895   0.1813 H              1 S1                 0.0000
     26 ****         1.5966  -2.0390   0.0607 H              1 S1                 0.0000
     27 ****         2.6585  -1.3283  -1.1434 H              1 S1                 0.0000
     28 ****         3.8188  -2.7271   0.4230 H              1 S1                 0.0000
     29 ****         2.5793  -2.4517   2.4072 H              1 S1                 0.0000
     30 ****         4.2529  -1.9934   2.6749 H              1 S1                 0.0000
     31 ****         2.6337  -0.2766   3.5993 H              1 S1                 0.0000
     32 ****         3.6802   0.4225   2.3784 H              1 S1                 0.0000
     33 ****         4.3667  -1.1761   0.4656 H              1 S1                 0.0000
     34 ****        -0.7396   1.8869  -2.7228 LP             1 S1                 0.0000
     35 ****         1.6340   1.5151  -2.0474 LP             1 S1                 0.0000
     36 ****         1.0102  -0.6143   1.9659 LP             1 S1                 0.0000
     37 ****         1.4308   0.9600   2.0713 LP             1 S1                 0.0000
     38 ****        -0.8159  -0.1766   0.7789 LP             1 S1                 0.0000
@<TRIPOS>BOND
    1    1    2 1     
    2    1   16 1     
    3    1   17 1     
    4    1   18 1     
    5    2    3 1     
    6    2    4 1     
    7    2    5 1     
    8    3   19 1     
    9    3   20 1     
   10    3   21 1     
   11    4   22 1     
   12    4   23 1     
   13    4   24 1     
   14    5   15 2     
   15    5    6 1     
   16    6    7 1     
   17    7    8 2     
   18    8    9 1     
   19    8   15 1     
   20    9   14 1     
   21    9   10 1     
   22    9   25 1     
   23   10   11 1     
   24   10   26 1     
   25   10   27 1     
   26   11   12 1     
   27   11   28 1     
   28   11   33 1     
   29   12   13 1     
   30   12   29 1     
   31   12   30 1     
   32   13   14 1     
   33   13   31 1     
   34   13   32 1     
   35    6   34 1     
   36    7   35 1     
   37   14   36 1     
   38   14   37 1     
   39   15   38 1     
@<TRIPOS>SUBSTRUCTURE
      1 S1             1
@<TRIPOS>SET
LONE_PAIRS      STATIC     ATOMS    <user>   **** ""
5 34 35 36 37 38
DONOR_HYDROGENS      STATIC     ATOMS    <user>   **** ""
2 28 33
ATOM$BLUE        STATIC     ATOMS    COLORGROUP SYSTEM
5 34 35 36 37 38
ATOM$RED        STATIC     ATOMS    COLORGROUP SYSTEM
2 28 33
