AV-unprocessed.smi:1908|AV-procd|sdf|7734|dock10
  -GOLD-   22720 9473D 1   1.00000     0.00000
 Structure written by MMmdl.
 27 27  0  0  0  0  0  0  0  0  2 V2000
  150.0953  144.7271  159.5865 C   0  0  0  0  0  0  0  0  0  0  0  0
  151.2431  144.0137  158.8603 C   0  0  0  0  0  0  0  0  0  0  0  0
  152.4030  144.9723  158.5501 C   0  0  0  0  0  0  0  0  0  0  0  0
  150.7391  143.4095  157.6308 N   0  0  0  0  0  0  0  0  0  0  0  0
  150.9079  142.1289  157.2667 C   0  0  0  0  0  0  0  0  0  0  0  0
  151.5420  141.3127  157.9368 O   0  0  0  0  0  0  0  0  0  0  0  0
  150.2909  141.7214  155.9222 C   0  0  0  0  0  0  0  0  0  0  0  0
  150.6112  140.3343  155.5487 N   0  0  0  0  0  0  0  0  0  0  0  0
  151.9601  139.9392  155.5892 C   0  0  0  0  0  0  0  0  0  0  0  0
  152.3437  138.6882  155.2711 C   0  0  0  0  0  0  0  0  0  0  0  0
  151.3178  137.7309  154.8767 C   0  0  0  0  0  0  0  0  0  0  0  0
  151.6504  136.5851  154.5794 O   0  0  0  0  0  0  0  0  0  0  0  0
  150.0223  138.1611  154.8565 N   0  5  0  0  0  0  0  0  0  0  0  0
  149.6465  139.4365  155.1843 C   0  0  0  0  0  0  0  0  0  0  0  0
  148.4709  139.8034  155.1616 O   0  0  0  0  0  0  0  0  0  0  0  0
  150.4372  145.1625  160.5259 H   0  0  0  0  0  0  0  0  0  0  0  0
  149.2881  144.0324  159.8212 H   0  0  0  0  0  0  0  0  0  0  0  0
  149.6781  145.5311  158.9794 H   0  0  0  0  0  0  0  0  0  0  0  0
  151.6111  143.2260  159.5201 H   0  0  0  0  0  0  0  0  0  0  0  0
  152.7925  145.4231  159.4631 H   0  0  0  0  0  0  0  0  0  0  0  0
  152.0845  145.7799  157.8902 H   0  0  0  0  0  0  0  0  0  0  0  0
  153.2288  144.4503  158.0654 H   0  0  0  0  0  0  0  0  0  0  0  0
  150.2048  144.0060  157.0160 H   0  0  0  0  0  0  0  0  0  0  0  0
  149.2087  141.8637  155.9478 H   0  0  0  0  0  0  0  0  0  0  0  0
  150.6521  142.4138  155.1610 H   0  0  0  0  0  0  0  0  0  0  0  0
  152.6549  140.7059  155.8988 H   0  0  0  0  0  0  0  0  0  0  0  0
  153.3836  138.3991  155.3104 H   0  0  0  0  0  0  0  0  0  0  0  0
  1  2  1  0  0  0  0
  1 16  1  0  0  0  0
  1 17  1  0  0  0  0
  1 18  1  0  0  0  0
  2  3  1  0  0  0  0
  2  4  1  0  0  0  0
  2 19  1  0  0  0  0
  3 20  1  0  0  0  0
  3 21  1  0  0  0  0
  3 22  1  0  0  0  0
  4  5  1  0  0  0  0
  4 23  1  0  0  0  0
  5  6  2  0  0  0  0
  5  7  1  0  0  0  0
  7  8  1  0  0  0  0
  7 24  1  0  0  0  0
  7 25  1  0  0  0  0
  8 14  1  0  0  0  0
  8  9  1  0  0  0  0
  9 10  2  0  0  0  0
  9 26  1  0  0  0  0
 10 11  1  0  0  0  0
 10 27  1  0  0  0  0
 11 12  2  0  0  0  0
 11 13  1  0  0  0  0
 13 14  1  0  0  0  0
 14 15  2  0  0  0  0
M  CHG  1  13  -1
M  END
> <s_m_source_file>
AV-unprocessed.smi

> <i_m_source_file_index>
1908

> <i_lp_mmshare_version>
43012

> <i_f3d_flags>
0

> <s_epik_input>
W0NIM11bQ0hdKFtDSDNdKVtOSF1DKD1PKVtDSDJdbjFbY0hdW2NIXWMoPU8pW25IXWMxPU8=

> <s_epik_cmdline>
J2VwaWtfcHl0aG9uJywgJy1waCcsICc3LjAnLCAnLXRuJywgJzgnLCAnLW1hJywgJzIwMCcsICctbWV0YWxfYmluZGluZycsICctaW1hZScsICc8aW5maWxlLm1hZT4nLCAnLW9tYWUnLCAnPG91dGZpbGUubWFlPic=

> <r_lp_tautomer_probability>
0.999537

> <r_epik_Ionization_Penalty>
3.07884

> <r_epik_Ionization_Penalty_Charging>
2.69291e-08

> <r_epik_Ionization_Penalty_Neutral>
3.07884

> <r_epik_State_Penalty>
3.07787

> <r_epik_Charging_Adjusted_Penalty>
3.07787

> <i_epik_Tot_Q>
-1

> <i_epik_Tot_abs_Q>
1

> <r_epik_Metal_State_Penalty>
0.459857

> <b_epik_Metal_Only>
1

> <s_lp_Force_Field>
OPLS_2005

> <r_lp_Energy>
10.6939

> <b_lp_Chiralities_Consistent>
1

> <s_lp_Variant>
AV-unprocessed.smi:1908-2

> <Gold.Version>
5.8.1

> <Gold.Id.Protein>
6NUR|6NUR_protein|mol2

> <Gold.PLP.Fitness>
37.2524

> <Gold.PLP.PLP>
-31.5996

> <Gold.PLP.part.hbond>
-2.0000

> <Gold.PLP.part.metal>
0.0000

> <Gold.PLP.part.buried>
-4.4638

> <Gold.PLP.part.nonpolar>
-26.1940

> <Gold.PLP.part.repulsive>
0.3980

> <Gold.PLP.ligand.clash>
0.0000

> <Gold.PLP.ligand.torsion>
0.1778

> <Gold.PLP.Chemscore.Hbond>
2.0000

> <Gold.PLP.Chemscore.CHOScore>
0.0000

> <Gold.PLP.Chemscore.Metal>
0.0000

> <Gold.Chemscore.Hbonds>
donor molecule, donor type, donor heavy atom, donor atom, acceptor molecule, acceptor atom, score
      L1  H     4    23       P1  8028  1.00
      P1  H 10752 10765       L1    12  1.00

> <Gold.PLP.Chemscore.Internal.Correction>
0.0083

> <Gold.Rescore>
     Score         DG    S(hbond)    S(metal)    S(lipo)     H(rot)  DE(clash)    DE(int)     intcor
     13.20     -14.92       1.99        0.00      61.62       1.72       0.23       1.49       ----

> <Gold.Chemscore.Fitness>
13.1971

> <Gold.Chemscore.DG>
-14.9173

> <Gold.Chemscore.ZeroCoef>
-5.4800

> <Gold.Chemscore.Hbond>
1.9879

> <Gold.Chemscore.Metal>
0.0000

> <Gold.Chemscore.Lipo>
61.6244

> <Gold.Chemscore.Internal_Hbond>
0.0000

> <Gold.Chemscore.DEClash>
0.2265

> <Gold.Chemscore.DEInternal>
1.4937

> <Gold.Chemscore.Rot>
1.7236

> <Gold.Chemscore.Internal.Correction>
   9.000000E+99

> <Gold.Chemscore.Hbonds>
donor molecule, donor type, donor heavy atom, donor atom, acceptor molecule, acceptor atom, score
      L1  H     4    23       P1  8028  0.92
      P1  H 10752 10765       L1    12  0.99

> <Gold.Chemscore.Hbond.Weighted>
-6.6396

> <Gold.Chemscore.Metal.Weighted>
-0.0000

> <Gold.Chemscore.Lipo.Weighted>
-7.2101

> <Gold.Chemscore.Internal_Hbond.Weighted>
0.0000

> <Gold.Chemscore.DEClash.Weighted>
0.2265

> <Gold.Chemscore.DEInternal.Weighted>
1.4937

> <Gold.Chemscore.Rot.Weighted>
4.4124

> <Gold.Chemscore.Internal.Correction.Weighted>
   9.000000E+99

> <Gold.Protein.RotatedTorsions>
[ 6907 6896 6895 6894 ] final   72.32 input  -60.11 | X-H torsion
[ 7974 7965 7964 7962 ] final  -42.97 input  175.53 | X-H torsion
[ 8008 7997 7996 7995 ] final   54.41 input   59.86 | X-H torsion
[ 10167 10162 10161 10158 ] final  -47.67 input  -65.29 | X-H torsion
[ 10718 10713 10712 10709 ] final  160.03 input   66.30 | X-H torsion
[ 10763 10752 10751 10750 ] final  161.05 input  -60.55 | X-H torsion
[ 11005 11000 10999 10996 ] final -145.26 input  -57.11 | X-H torsion

> <Gold.Protein.ActiveResidues>
 VAL166  LYS551  ARG553  GLY616  TRP617  ASP618  TYR619  PRO620  LYS621  CYS622 
 ASP623  PHE694  ASN695  SER759  ASP760  ASP761  ALA762  ILE779  LEU786  VAL792 
 PHE793  MET794  SER795  GLU796  ALA797  LYS798  CYS799  TRP800  GLU811  SER814 

> <Gold.Protein.RotatedAtoms>
  152.4861  134.4588  159.9598 H   0  0  0  0  0  0  0  0  0  0  0  0  # atno 6907 bound_to 6896
  151.4584  133.3593  159.2813 H   0  0  0  0  0  0  0  0  0  0  0  0  # atno 6908 bound_to 6896
  150.8973  134.8407  159.7396 H   0  0  0  0  0  0  0  0  0  0  0  0  # atno 6909 bound_to 6896
  146.0064  140.7015  142.9245 H   0  0  0  0  0  0  0  0  0  0  0  0  # atno 7974 bound_to 7965
  155.4843  140.3469  155.4344 H   0  0  0  0  0  0  0  0  0  0  0  0  # atno 8008 bound_to 7997
  156.1019  140.1437  156.9485 H   0  0  0  0  0  0  0  0  0  0  0  0  # atno 8009 bound_to 7997
  154.4699  140.0904  156.7095 H   0  0  0  0  0  0  0  0  0  0  0  0  # atno 8010 bound_to 7997
  140.6765  143.2774  151.3960 H   0  0  0  0  0  0  0  0  0  0  0  0  # atno 10167 bound_to 10162
  157.1561  131.0576  151.2256 H   0  0  0  0  0  0  0  0  0  0  0  0  # atno 10718 bound_to 10713
  154.2569  135.2769  155.2794 H   0  0  0  0  0  0  0  0  0  0  0  0  # atno 10763 bound_to 10752
  154.5417  135.5700  153.6849 H   0  0  0  0  0  0  0  0  0  0  0  0  # atno 10764 bound_to 10752
  152.9970  135.6253  154.2718 H   0  0  0  0  0  0  0  0  0  0  0  0  # atno 10765 bound_to 10752
  140.7941  134.2934  157.5003 H   0  0  0  0  0  0  0  0  0  0  0  0  # atno 11005 bound_to 11000
  144.6937  140.3323  143.7214 LP  0  0  0  0  0  0  0  0  0  0  0  0  # atno 17320 bound_to 7965
  145.7409  139.1764  143.2377 LP  0  0  0  0  0  0  0  0  0  0  0  0  # atno 17321 bound_to 7965
  139.6060  144.1196  152.2249 LP  0  0  0  0  0  0  0  0  0  0  0  0  # atno 17342 bound_to 10162
  140.0595  144.5868  150.7274 LP  0  0  0  0  0  0  0  0  0  0  0  0  # atno 17343 bound_to 10162
  157.4176  130.7419  149.6887 LP  0  0  0  0  0  0  0  0  0  0  0  0  # atno 17370 bound_to 10713
  155.9762  130.4079  150.3797 LP  0  0  0  0  0  0  0  0  0  0  0  0  # atno 17371 bound_to 10713
  139.8728  134.9391  156.3734 LP  0  0  0  0  0  0  0  0  0  0  0  0  # atno 17394 bound_to 11000
  140.9360  133.7547  156.0085 LP  0  0  0  0  0  0  0  0  0  0  0  0  # atno 17395 bound_to 11000

$$$$
