#       Name:                AV-unprocessed.smi:2888
#       Creating user name   scv26
#       Creation time:       Fri Mar 27 15:57:23 2020


#       File generated by GOLD software.
#

@<TRIPOS>MOLECULE
AV-unprocessed.smi:2888
    37    39     1
SMALL
NO_CHARGES


@<TRIPOS>ATOM
      1 ****        -3.5361  -1.6277  -0.0601 C.3            1 S1                 0.0000
      2 ****        -2.8094  -0.3051   0.0608 C.ar           1 S1                 0.0000
      3 ****        -3.4953   0.9209   0.0198 C.ar           1 S1                 0.0000
      4 ****        -2.7148   2.0862   0.1457 C.ar           1 S1                 0.0000
      5 ****        -3.3266   3.4708   0.1144 C.3            1 S1                 0.0000
      6 ****        -1.3697   1.9910   0.2973 N.pl3          1 S1                 1.0000
      7 ****        -0.7806   0.7854   0.3232 C.ar           1 S1                 0.0000
      8 ****         0.5941   0.7486   0.4710 N.pl3          1 S1                 0.0000
      9 ****         1.4370   1.9310   0.5996 C.3            1 S1                 0.0000
     10 ****         1.3032   2.6168   1.9656 C.3            1 S1                 0.0000
     11 ****         2.7540   2.6186   2.4626 C.3            1 S1                 0.0000
     12 ****         3.6436   3.5745   1.6567 C.3            1 S1                 0.0000
     13 ****         3.7939   2.8218   0.3350 C.3            1 S1                 0.0000
     14 ****         2.9327   1.5752   0.5805 C.3            1 S1                 0.0000
     15 ****         3.1896   1.3679   1.9601 O.3            1 S1                 0.0000
     16 ****        -1.4706  -0.3589   0.2094 N.ar           1 S1                 0.0000
     17 ****        -4.6159  -1.4817  -0.1029 H              1 S1                 0.0000
     18 ****        -3.3133  -2.2644   0.7968 H              1 S1                 0.0000
     19 ****        -3.2265  -2.1489  -0.9663 H              1 S1                 0.0000
     20 ****        -4.5680   0.9673  -0.1027 H              1 S1                 0.0000
     21 ****        -4.4158   3.4194   0.1021 H              1 S1                 0.0000
     22 ****        -3.0006   4.0076  -0.7768 H              1 S1                 0.0000
     23 ****        -3.0238   4.0425   0.9920 H              1 S1                 0.0000
     24 ****         1.0202  -0.1525   0.6317 H              1 S1                 0.0000
     25 ****         1.2072   2.6186  -0.2157 H              1 S1                 0.0000
     26 ****         0.8877   3.6221   1.8918 H              1 S1                 0.0000
     27 ****         0.6742   2.0413   2.6467 H              1 S1                 0.0000
     28 ****         2.8513   2.7276   3.5431 H              1 S1                 0.0000
     29 ****         3.1901   4.5589   1.5361 H              1 S1                 0.0000
     30 ****         4.6145   3.7016   2.1371 H              1 S1                 0.0000
     31 ****         3.4557   3.4013  -0.5247 H              1 S1                 0.0000
     32 ****         4.8359   2.5441   0.1706 H              1 S1                 0.0000
     33 ****         3.1915   0.7337  -0.0635 H              1 S1                 0.0000
     34 ****        -0.8162   2.8434   0.3860 H              1 S1                 0.0000
     35 ****         2.6540   0.6089   2.3304 LP             1 S1                 0.0000
     36 ****         4.1604   1.2099   2.1403 LP             1 S1                 0.0000
     37 ****        -0.9984  -1.2401   0.2345 LP             1 S1                 0.0000
@<TRIPOS>BOND
    1    1    2 1     
    2    1   17 1     
    3    1   18 1     
    4    1   19 1     
    5    2   16 ar    
    6    2    3 ar    
    7    3    4 ar    
    8    3   20 1     
    9    4    5 1     
   10    4    6 ar    
   11    5   21 1     
   12    5   22 1     
   13    5   23 1     
   14    6    7 ar    
   15    6   34 1     
   16    7    8 1     
   17    7   16 ar    
   18    8    9 1     
   19    8   24 1     
   20    9   14 1     
   21    9   10 1     
   22    9   25 1     
   23   10   11 1     
   24   10   26 1     
   25   10   27 1     
   26   11   15 1     
   27   11   12 1     
   28   11   28 1     
   29   12   13 1     
   30   12   29 1     
   31   12   30 1     
   32   13   14 1     
   33   13   31 1     
   34   13   32 1     
   35   14   15 1     
   36   14   33 1     
   37   15   35 1     
   38   15   36 1     
   39   16   37 1     
@<TRIPOS>SUBSTRUCTURE
      1 S1             1
@<TRIPOS>SET
LONE_PAIRS      STATIC     ATOMS    <user>   **** ""
3 35 36 37
DONOR_HYDROGENS      STATIC     ATOMS    <user>   **** ""
2 34 24
ATOM$BLUE        STATIC     ATOMS    COLORGROUP SYSTEM
3 35 36 37
ATOM$RED        STATIC     ATOMS    COLORGROUP SYSTEM
2 34 24
