AV-unprocessed.smi:1220|AV-procd|sdf|5117|dock8
  -GOLD-   22720 4173D 1   1.00000     0.00000
 Structure written by MMmdl.
 35 36  0  0  0  0  0  0  0  0  1 V2000
  153.9030  140.0594  160.5075 C   0  0  0  0  0  0  0  0  0  0  0  0
  152.8946  141.1110  160.0256 C   0  0  1  0  0  0  0  0  0  0  0  0
  153.5443  142.5084  159.9258 C   0  0  0  0  0  0  0  0  0  0  0  0
  152.6442  143.5100  159.3813 N   0  0  0  0  0  0  0  0  0  0  0  0
  152.2101  144.6811  159.9666 C   0  0  0  0  0  0  0  0  0  0  0  0
  151.3938  145.3057  159.0682 C   0  0  0  0  0  0  0  0  0  0  0  0
  151.3856  144.4252  157.9505 C   0  0  0  0  0  0  0  0  0  0  0  0
  152.1316  143.3493  158.1424 N   0  0  0  0  0  0  0  0  0  0  0  0
  152.3577  140.6958  158.7299 N   0  0  0  0  0  0  0  0  0  0  0  0
  151.7101  139.5459  158.4817 C   0  0  0  0  0  0  0  0  0  0  0  0
  151.5258  138.6742  159.3314 O   0  0  0  0  0  0  0  0  0  0  0  0
  151.1675  139.3647  157.0595 C   0  0  1  0  0  0  0  0  0  0  0  0
  152.2632  139.5379  155.9854 C   0  0  0  0  0  0  0  0  0  0  0  0
  151.7185  139.0209  154.6502 C   0  0  0  0  0  0  0  0  0  0  0  0
  150.6256  137.6143  155.0745 S   0  0  0  0  0  0  0  0  0  0  0  0
  149.3067  137.8301  154.4608 O   0  0  0  0  0  0  0  0  0  0  0  0
  151.3540  136.3517  154.8793 O   0  0  0  0  0  0  0  0  0  0  0  0
  150.5335  137.9747  156.8688 C   0  0  0  0  0  0  0  0  0  0  0  0
  154.3022  140.3202  161.4881 H   0  0  0  0  0  0  0  0  0  0  0  0
  154.7442  139.9692  159.8192 H   0  0  0  0  0  0  0  0  0  0  0  0
  153.4358  139.0778  160.5947 H   0  0  0  0  0  0  0  0  0  0  0  0
  152.0928  141.1488  160.7653 H   0  0  0  0  0  0  0  0  0  0  0  0
  153.8653  142.8450  160.9127 H   0  0  0  0  0  0  0  0  0  0  0  0
  154.4405  142.4702  159.3050 H   0  0  0  0  0  0  0  0  0  0  0  0
  152.5219  144.9725  160.9587 H   0  0  0  0  0  0  0  0  0  0  0  0
  150.8820  146.2487  159.1897 H   0  0  0  0  0  0  0  0  0  0  0  0
  150.8633  144.5352  157.0117 H   0  0  0  0  0  0  0  0  0  0  0  0
  152.4622  141.3496  157.9675 H   0  0  0  0  0  0  0  0  0  0  0  0
  150.3973  140.1142  156.8686 H   0  0  0  0  0  0  0  0  0  0  0  0
  152.5850  140.5764  155.9022 H   0  0  0  0  0  0  0  0  0  0  0  0
  153.1450  138.9527  156.2515 H   0  0  0  0  0  0  0  0  0  0  0  0
  151.1124  139.7820  154.1585 H   0  0  0  0  0  0  0  0  0  0  0  0
  152.5014  138.6989  153.9633 H   0  0  0  0  0  0  0  0  0  0  0  0
  151.0845  137.1943  157.3958 H   0  0  0  0  0  0  0  0  0  0  0  0
  149.4941  137.9412  157.1956 H   0  0  0  0  0  0  0  0  0  0  0  0
  1  2  1  0  0  0  0
  1 19  1  0  0  0  0
  1 20  1  0  0  0  0
  1 21  1  0  0  0  0
  2  3  1  0  0  0  0
  2  9  1  0  0  0  0
  2 22  1  0  0  0  0
  3  4  1  0  0  0  0
  3 23  1  0  0  0  0
  3 24  1  0  0  0  0
  4  8  1  0  0  0  0
  4  5  1  0  0  0  0
  5  6  2  0  0  0  0
  5 25  1  0  0  0  0
  6  7  1  0  0  0  0
  6 26  1  0  0  0  0
  7  8  2  0  0  0  0
  7 27  1  0  0  0  0
  9 10  1  0  0  0  0
  9 28  1  0  0  0  0
 10 11  2  0  0  0  0
 10 12  1  0  0  0  0
 12 18  1  0  0  0  0
 12 13  1  0  0  0  0
 12 29  1  0  0  0  0
 13 14  1  0  0  0  0
 13 30  1  0  0  0  0
 13 31  1  0  0  0  0
 14 15  1  0  0  0  0
 14 32  1  0  0  0  0
 14 33  1  0  0  0  0
 15 16  2  0  0  0  0
 15 17  2  0  0  0  0
 15 18  1  0  0  0  0
 18 34  1  0  0  0  0
 18 35  1  0  0  0  0
M  END
> <s_m_source_file>
AV-unprocessed.smi

> <i_m_source_file_index>
1220

> <i_lp_mmshare_version>
43012

> <i_f3d_flags>
0

> <s_epik_input>
bjFbY0hdW2NIXVtjSF1uMVtDSDJdW0NAQEhdKFtDSDNdKVtOSF1DKD1PKVtDQEBIXShbQ0gyXTIpW0NIMl1bQ0gyXVMyKD1PKT1P

> <s_epik_cmdline>
J2VwaWtfcHl0aG9uJywgJy1waCcsICc3LjAnLCAnLXRuJywgJzgnLCAnLW1hJywgJzIwMCcsICctbWV0YWxfYmluZGluZycsICctaW1hZScsICc8aW5maWxlLm1hZT4nLCAnLW9tYWUnLCAnPG91dGZpbGUubWFlPic=

> <r_lp_tautomer_probability>
1

> <r_epik_Ionization_Penalty>
0.000293905

> <r_epik_Ionization_Penalty_Charging>
0

> <r_epik_Ionization_Penalty_Neutral>
0.000293905

> <r_epik_State_Penalty>
-0

> <r_epik_Charging_Adjusted_Penalty>
0

> <i_epik_Tot_Q>
0

> <i_epik_Tot_abs_Q>
0

> <r_epik_Metal_State_Penalty>
-0

> <b_epik_Metal_Only>
0

> <s_lp_Force_Field>
OPLS_2005

> <r_lp_Energy>
3.0384

> <b_lp_Chiralities_Consistent>
1

> <s_lp_Variant>
AV-unprocessed.smi:1220-4

> <Gold.Version>
5.8.1

> <Gold.Id.Protein>
6NUR|6NUR_protein|mol2

> <Gold.PLP.Fitness>
42.3742

> <Gold.PLP.PLP>
-36.5019

> <Gold.PLP.part.hbond>
-1.0000

> <Gold.PLP.part.metal>
0.0000

> <Gold.PLP.part.buried>
-3.7734

> <Gold.PLP.part.nonpolar>
-32.1521

> <Gold.PLP.part.repulsive>
0.5959

> <Gold.PLP.ligand.clash>
0.0000

> <Gold.PLP.ligand.torsion>
0.0709

> <Gold.PLP.Chemscore.Hbond>
1.0000

> <Gold.PLP.Chemscore.CHOScore>
1.0000

> <Gold.PLP.Chemscore.Metal>
0.0000

> <Gold.Chemscore.Hbonds>
donor molecule, donor type, donor heavy atom, donor atom, acceptor molecule, acceptor atom, score
      P1  H 10752 10765       L1    17  1.00
      L1  C     7    27       P1  8028  1.00

> <Gold.PLP.Chemscore.Internal.Correction>
0.0141

> <Gold.Rescore>
     Score         DG    S(hbond)    S(metal)    S(lipo)     H(rot)  DE(clash)    DE(int)     intcor
     14.20     -14.30       1.00        0.00      85.05       1.75       0.00       0.10       ----

> <Gold.Chemscore.Fitness>
14.1971

> <Gold.Chemscore.DG>
-14.2968

> <Gold.Chemscore.ZeroCoef>
-5.4800

> <Gold.Chemscore.Hbond>
0.9988

> <Gold.Chemscore.Metal>
0.0000

> <Gold.Chemscore.Lipo>
85.0472

> <Gold.Chemscore.Internal_Hbond>
0.0000

> <Gold.Chemscore.DEClash>
0.0021

> <Gold.Chemscore.DEInternal>
0.0976

> <Gold.Chemscore.Rot>
1.7460

> <Gold.Chemscore.Internal.Correction>
   9.000000E+99

> <Gold.Chemscore.Hbonds>
donor molecule, donor type, donor heavy atom, donor atom, acceptor molecule, acceptor atom, score
      P1  H 10752 10765       L1    17  1.00

> <Gold.Chemscore.Hbond.Weighted>
-3.3360

> <Gold.Chemscore.Metal.Weighted>
-0.0000

> <Gold.Chemscore.Lipo.Weighted>
-9.9505

> <Gold.Chemscore.Internal_Hbond.Weighted>
0.0000

> <Gold.Chemscore.DEClash.Weighted>
0.0021

> <Gold.Chemscore.DEInternal.Weighted>
0.0976

> <Gold.Chemscore.Rot.Weighted>
4.4697

> <Gold.Chemscore.Internal.Correction.Weighted>
   9.000000E+99

> <Gold.Protein.RotatedTorsions>
[ 6907 6896 6895 6894 ] final  165.15 input  -60.11 | X-H torsion
[ 7974 7965 7964 7962 ] final   24.32 input  175.53 | X-H torsion
[ 8008 7997 7996 7995 ] final  -98.64 input   59.86 | X-H torsion
[ 10167 10162 10161 10158 ] final  -31.66 input  -65.29 | X-H torsion
[ 10718 10713 10712 10709 ] final  -89.66 input   66.30 | X-H torsion
[ 10763 10752 10751 10750 ] final  173.70 input  -60.55 | X-H torsion
[ 11005 11000 10999 10996 ] final  -34.94 input  -57.11 | X-H torsion

> <Gold.Protein.ActiveResidues>
 VAL166  LYS551  ARG553  GLY616  TRP617  ASP618  TYR619  PRO620  LYS621  CYS622 
 ASP623  PHE694  ASN695  SER759  ASP760  ASP761  ALA762  ILE779  LEU786  VAL792 
 PHE793  MET794  SER795  GLU796  ALA797  LYS798  CYS799  TRP800  GLU811  SER814 

> <Gold.Protein.RotatedAtoms>
  151.8989  133.3533  159.3823 H   0  0  0  0  0  0  0  0  0  0  0  0  # atno 6907 bound_to 6896
  150.7085  134.4848  159.5497 H   0  0  0  0  0  0  0  0  0  0  0  0  # atno 6908 bound_to 6896
  152.2433  134.8207  160.0508 H   0  0  0  0  0  0  0  0  0  0  0  0  # atno 6909 bound_to 6896
  146.1943  139.7621  142.8809 H   0  0  0  0  0  0  0  0  0  0  0  0  # atno 7974 bound_to 7965
  154.8040  140.0453  157.1294 H   0  0  0  0  0  0  0  0  0  0  0  0  # atno 8008 bound_to 7997
  154.9445  140.3057  155.5084 H   0  0  0  0  0  0  0  0  0  0  0  0  # atno 8009 bound_to 7997
  156.2965  140.2299  156.4518 H   0  0  0  0  0  0  0  0  0  0  0  0  # atno 8010 bound_to 7997
  140.7233  143.3754  151.1699 H   0  0  0  0  0  0  0  0  0  0  0  0  # atno 10167 bound_to 10162
  155.9985  130.4880  150.5205 H   0  0  0  0  0  0  0  0  0  0  0  0  # atno 10718 bound_to 10713
  154.4437  135.2763  155.1830 H   0  0  0  0  0  0  0  0  0  0  0  0  # atno 10763 bound_to 10752
  154.3685  135.6114  153.5731 H   0  0  0  0  0  0  0  0  0  0  0  0  # atno 10764 bound_to 10752
  152.9842  135.5851  154.4769 H   0  0  0  0  0  0  0  0  0  0  0  0  # atno 10765 bound_to 10752
  140.9756  133.7085  156.1597 H   0  0  0  0  0  0  0  0  0  0  0  0  # atno 11005 bound_to 11000
  145.3694  141.0340  143.3239 LP  0  0  0  0  0  0  0  0  0  0  0  0  # atno 17320 bound_to 7965
  144.8548  139.5266  143.6839 LP  0  0  0  0  0  0  0  0  0  0  0  0  # atno 17321 bound_to 7965
  139.7333  143.9038  152.3027 LP  0  0  0  0  0  0  0  0  0  0  0  0  # atno 17342 bound_to 10162
  139.8834  144.7005  150.8851 LP  0  0  0  0  0  0  0  0  0  0  0  0  # atno 17343 bound_to 10162
  157.3167  131.0674  151.1962 LP  0  0  0  0  0  0  0  0  0  0  0  0  # atno 17370 bound_to 10713
  157.2889  130.6786  149.6104 LP  0  0  0  0  0  0  0  0  0  0  0  0  # atno 17371 bound_to 10713
  140.7264  134.4303  157.5570 LP  0  0  0  0  0  0  0  0  0  0  0  0  # atno 17394 bound_to 11000
  139.8929  134.8743  156.2248 LP  0  0  0  0  0  0  0  0  0  0  0  0  # atno 17395 bound_to 11000

$$$$
