#       Name:                AV-unprocessed.smi:1331
#       Creating user name   scv26
#       Creation time:       Fri Mar 27 05:06:41 2020


#       File generated by GOLD software.
#

@<TRIPOS>MOLECULE
AV-unprocessed.smi:1331
    41    42     1
SMALL
NO_CHARGES


@<TRIPOS>ATOM
      1 ****         0.1714  -3.2945  -2.2192 C.3            1 S1                 0.0000
      2 ****         0.5530  -2.5234  -0.9483 C.3            1 S1                 0.0000
      3 ****         2.0854  -2.4452  -0.7777 C.3            1 S1                 0.0000
      4 ****         2.4806  -1.8735   0.4975 N.pl3          1 S1                 0.0000
      5 ****         2.9492  -0.6030   0.7591 C.2            1 S1                 0.0000
      6 ****         3.1713  -0.5211   2.1036 C.2            1 S1                 0.0000
      7 ****         2.8087  -1.8102   2.5850 C.2            1 S1                 0.0000
      8 ****         2.3995  -2.6187   1.6208 N.2            1 S1                 0.0000
      9 ****        -0.0304  -1.1840  -1.0141 N.am           1 S1                 0.0000
     10 ****        -0.6020  -0.5246   0.0065 C.2            1 S1                 0.0000
     11 ****        -0.7215  -0.9974   1.1372 O.2            1 S1                 0.0000
     12 ****        -1.0993   0.8953  -0.2930 C.3            1 S1                 0.0000
     13 ****        -0.3172   1.9359   0.5367 C.3            1 S1                 0.0000
     14 ****        -0.8137   3.3633   0.2536 C.3            1 S1                 0.0000
     15 ****        -2.3249   3.4884   0.5065 C.3            1 S1                 0.0000
     16 ****        -3.1131   2.4503  -0.3075 C.3            1 S1                 0.0000
     17 ****        -2.6140   1.0239  -0.0235 C.3            1 S1                 0.0000
     18 ****         0.5636  -4.3115  -2.1928 H              1 S1                 0.0000
     19 ****         0.5650  -2.8096  -3.1131 H              1 S1                 0.0000
     20 ****        -0.9117  -3.3638  -2.3264 H              1 S1                 0.0000
     21 ****         0.1325  -3.0709  -0.1028 H              1 S1                 0.0000
     22 ****         2.5226  -3.4421  -0.8494 H              1 S1                 0.0000
     23 ****         2.5307  -1.8537  -1.5790 H              1 S1                 0.0000
     24 ****         3.0753   0.1307  -0.0233 H              1 S1                 0.0000
     25 ****         3.5352   0.3305   2.6592 H              1 S1                 0.0000
     26 ****         2.8308  -2.1803   3.5994 H              1 S1                 0.0000
     27 ****         0.0208  -0.7129  -1.9056 H              1 S1                 0.0000
     28 ****        -0.9251   1.1039  -1.3503 H              1 S1                 0.0000
     29 ****        -0.4219   1.7247   1.6022 H              1 S1                 0.0000
     30 ****         0.7486   1.8700   0.3139 H              1 S1                 0.0000
     31 ****        -0.2727   4.0754   0.8771 H              1 S1                 0.0000
     32 ****        -0.5931   3.6279  -0.7811 H              1 S1                 0.0000
     33 ****        -2.5300   3.3508   1.5689 H              1 S1                 0.0000
     34 ****        -2.6632   4.4937   0.2538 H              1 S1                 0.0000
     35 ****        -4.1757   2.5256  -0.0752 H              1 S1                 0.0000
     36 ****        -3.0132   2.6673  -1.3716 H              1 S1                 0.0000
     37 ****        -3.1666   0.3150  -0.6414 H              1 S1                 0.0000
     38 ****        -2.8359   0.7676   1.0137 H              1 S1                 0.0000
     39 ****         2.0979  -3.5684   1.7050 LP             1 S1                 0.0000
     40 ****        -0.3838  -1.9182   1.3324 LP             1 S1                 0.0000
     41 ****        -1.1562  -0.4605   1.8603 LP             1 S1                 0.0000
@<TRIPOS>BOND
    1    1    2 1     
    2    1   18 1     
    3    1   19 1     
    4    1   20 1     
    5    2    3 1     
    6    2    9 1     
    7    2   21 1     
    8    3    4 1     
    9    3   22 1     
   10    3   23 1     
   11    4    8 1     
   12    4    5 1     
   13    5    6 2     
   14    5   24 1     
   15    6    7 1     
   16    6   25 1     
   17    7    8 2     
   18    7   26 1     
   19    9   10 am    
   20    9   27 1     
   21   10   11 2     
   22   10   12 1     
   23   12   17 1     
   24   12   13 1     
   25   12   28 1     
   26   13   14 1     
   27   13   29 1     
   28   13   30 1     
   29   14   15 1     
   30   14   31 1     
   31   14   32 1     
   32   15   16 1     
   33   15   33 1     
   34   15   34 1     
   35   16   17 1     
   36   16   35 1     
   37   16   36 1     
   38   17   37 1     
   39   17   38 1     
   40    8   39 1     
   41   11   40 1     
   42   11   41 1     
@<TRIPOS>SUBSTRUCTURE
      1 S1             1
@<TRIPOS>SET
LONE_PAIRS      STATIC     ATOMS    <user>   **** ""
3 39 40 41
DONOR_HYDROGENS      STATIC     ATOMS    <user>   **** ""
1 27
ATOM$BLUE        STATIC     ATOMS    COLORGROUP SYSTEM
3 39 40 41
ATOM$RED        STATIC     ATOMS    COLORGROUP SYSTEM
1 27
