AV-unprocessed.smi:1262|AV-procd|sdf|5309|dock6
  -GOLD-   22720 4433D 1   1.00000     0.00000
 Structure written by MMmdl.
 34 35  0  0  0  0  0  0  0  0  1 V2000
  146.9636  138.7281  152.3406 C   0  0  0  0  0  0  0  0  0  0  0  0
  147.3325  139.9559  153.1198 C   0  0  0  0  0  0  0  0  0  0  0  0
  148.4714  140.1577  153.9525 C   0  0  0  0  0  0  0  0  0  0  0  0
  148.2954  141.4392  154.3982 C   0  0  0  0  0  0  0  0  0  0  0  0
  149.0811  142.1706  155.2327 N   0  0  0  0  0  0  0  0  0  0  0  0
  150.0304  141.7430  156.0836 C   0  0  0  0  0  0  0  0  0  0  0  0
  150.3584  140.5689  156.2569 O   0  0  0  0  0  0  0  0  0  0  0  0
  150.5905  142.7700  156.7384 N   0  0  0  0  0  0  0  0  0  0  0  0
  151.6448  142.6508  157.7389 C   0  0  0  0  0  0  0  0  0  0  0  0
  152.0770  144.0190  158.2607 C   0  0  0  0  0  0  0  0  0  0  0  0
  152.6445  144.1527  159.6822 C   0  0  0  0  0  0  0  0  0  0  0  0
  151.9582  145.5180  159.7781 C   0  0  0  0  0  0  0  0  0  0  0  0
  151.0107  145.0446  158.6723 C   0  0  0  0  0  0  0  0  0  0  0  0
  147.1326  141.9422  153.8583 N   0  0  0  0  0  0  0  0  0  0  0  0
  146.5246  143.2467  154.0337 C   0  0  0  0  0  0  0  0  0  0  0  0
  146.5403  141.0209  153.0680 N   0  0  0  0  0  0  0  0  0  0  0  0
  147.6713  137.9191  152.5223 H   0  0  0  0  0  0  0  0  0  0  0  0
  146.9591  138.9305  151.2694 H   0  0  0  0  0  0  0  0  0  0  0  0
  145.9723  138.3692  152.6178 H   0  0  0  0  0  0  0  0  0  0  0  0
  149.2700  139.4650  154.1717 H   0  0  0  0  0  0  0  0  0  0  0  0
  148.9271  143.1677  155.2036 H   0  0  0  0  0  0  0  0  0  0  0  0
  150.2609  143.7023  156.5355 H   0  0  0  0  0  0  0  0  0  0  0  0
  151.3119  142.0126  158.5589 H   0  0  0  0  0  0  0  0  0  0  0  0
  152.4882  142.1368  157.2774 H   0  0  0  0  0  0  0  0  0  0  0  0
  152.7650  144.5015  157.5629 H   0  0  0  0  0  0  0  0  0  0  0  0
  152.2266  143.4217  160.3766 H   0  0  0  0  0  0  0  0  0  0  0  0
  153.7331  144.1822  159.7368 H   0  0  0  0  0  0  0  0  0  0  0  0
  151.4783  145.7230  160.7354 H   0  0  0  0  0  0  0  0  0  0  0  0
  152.6029  146.3393  159.4610 H   0  0  0  0  0  0  0  0  0  0  0  0
  150.7825  145.7942  157.9139 H   0  0  0  0  0  0  0  0  0  0  0  0
  150.1041  144.5814  159.0655 H   0  0  0  0  0  0  0  0  0  0  0  0
  147.2350  144.0231  153.7489 H   0  0  0  0  0  0  0  0  0  0  0  0
  146.2463  143.3822  155.0790 H   0  0  0  0  0  0  0  0  0  0  0  0
  145.6316  143.3416  153.4146 H   0  0  0  0  0  0  0  0  0  0  0  0
  1  2  1  0  0  0  0
  1 17  1  0  0  0  0
  1 18  1  0  0  0  0
  1 19  1  0  0  0  0
  2 16  2  0  0  0  0
  2  3  1  0  0  0  0
  3  4  2  0  0  0  0
  3 20  1  0  0  0  0
  4  5  1  0  0  0  0
  4 14  1  0  0  0  0
  5  6  1  0  0  0  0
  5 21  1  0  0  0  0
  6  7  2  0  0  0  0
  6  8  1  0  0  0  0
  8  9  1  0  0  0  0
  8 22  1  0  0  0  0
  9 10  1  0  0  0  0
  9 23  1  0  0  0  0
  9 24  1  0  0  0  0
 10 13  1  0  0  0  0
 10 11  1  0  0  0  0
 10 25  1  0  0  0  0
 11 12  1  0  0  0  0
 11 26  1  0  0  0  0
 11 27  1  0  0  0  0
 12 13  1  0  0  0  0
 12 28  1  0  0  0  0
 12 29  1  0  0  0  0
 13 30  1  0  0  0  0
 13 31  1  0  0  0  0
 14 15  1  0  0  0  0
 14 16  1  0  0  0  0
 15 32  1  0  0  0  0
 15 33  1  0  0  0  0
 15 34  1  0  0  0  0
M  END
> <s_m_source_file>
AV-unprocessed.smi

> <i_m_source_file_index>
1262

> <i_lp_mmshare_version>
43012

> <i_f3d_flags>
0

> <s_epik_input>
W0NIM11jMVtjSF1jKG4objEpW0NIM10pW05IXUMoPU8pW05IXVtDSDJdW0NIXTJbQ0gyXVtDSDJdW0NIMl0y

> <s_epik_cmdline>
J2VwaWtfcHl0aG9uJywgJy1waCcsICc3LjAnLCAnLXRuJywgJzgnLCAnLW1hJywgJzIwMCcsICctbWV0YWxfYmluZGluZycsICctaW1hZScsICc8aW5maWxlLm1hZT4nLCAnLW9tYWUnLCAnPG91dGZpbGUubWFlPic=

> <r_lp_tautomer_probability>
1

> <r_epik_Ionization_Penalty>
9.92667e-05

> <r_epik_Ionization_Penalty_Charging>
0

> <r_epik_Ionization_Penalty_Neutral>
9.92667e-05

> <r_epik_State_Penalty>
-0

> <r_epik_Charging_Adjusted_Penalty>
0

> <i_epik_Tot_Q>
0

> <i_epik_Tot_abs_Q>
0

> <r_epik_Metal_State_Penalty>
-0

> <b_epik_Metal_Only>
0

> <s_lp_Force_Field>
OPLS_2005

> <r_lp_Energy>
13.5599

> <b_lp_Chiralities_Consistent>
1

> <s_lp_Variant>
AV-unprocessed.smi:1262-1

> <Gold.Version>
5.8.1

> <Gold.Id.Protein>
6NUR|6NUR_protein|mol2

> <Gold.PLP.Fitness>
43.1344

> <Gold.PLP.PLP>
-37.8140

> <Gold.PLP.part.hbond>
-2.0000

> <Gold.PLP.part.metal>
0.0000

> <Gold.PLP.part.buried>
-1.7661

> <Gold.PLP.part.nonpolar>
-34.8949

> <Gold.PLP.part.repulsive>
1.8272

> <Gold.PLP.ligand.clash>
0.0000

> <Gold.PLP.ligand.torsion>
0.2843

> <Gold.PLP.Chemscore.Hbond>
1.9440

> <Gold.PLP.Chemscore.CHOScore>
0.0000

> <Gold.PLP.Chemscore.Metal>
0.0000

> <Gold.Chemscore.Hbonds>
donor molecule, donor type, donor heavy atom, donor atom, acceptor molecule, acceptor atom, score
      L1  H     5    21       P1  8028  1.00
      L1  H     8    22       P1  8028  0.91

> <Gold.PLP.Chemscore.Internal.Correction>
0.0571

> <Gold.Rescore>
     Score         DG    S(hbond)    S(metal)    S(lipo)     H(rot)  DE(clash)    DE(int)     intcor
     16.81     -19.43       1.90        0.00      91.35       1.21       1.49       1.12       ----

> <Gold.Chemscore.Fitness>
16.8143

> <Gold.Chemscore.DG>
-19.4266

> <Gold.Chemscore.ZeroCoef>
-5.4800

> <Gold.Chemscore.Hbond>
1.9033

> <Gold.Chemscore.Metal>
0.0000

> <Gold.Chemscore.Lipo>
91.3505

> <Gold.Chemscore.Internal_Hbond>
0.0000

> <Gold.Chemscore.DEClash>
1.4916

> <Gold.Chemscore.DEInternal>
1.1207

> <Gold.Chemscore.Rot>
1.2103

> <Gold.Chemscore.Internal.Correction>
   9.000000E+99

> <Gold.Chemscore.Hbonds>
donor molecule, donor type, donor heavy atom, donor atom, acceptor molecule, acceptor atom, score
      L1  H     5    21       P1  8028  0.99
      L1  H     8    22       P1  8028  0.89

> <Gold.Chemscore.Hbond.Weighted>
-6.3570

> <Gold.Chemscore.Metal.Weighted>
-0.0000

> <Gold.Chemscore.Lipo.Weighted>
-10.6880

> <Gold.Chemscore.Internal_Hbond.Weighted>
0.0000

> <Gold.Chemscore.DEClash.Weighted>
1.4916

> <Gold.Chemscore.DEInternal.Weighted>
1.1207

> <Gold.Chemscore.Rot.Weighted>
3.0984

> <Gold.Chemscore.Internal.Correction.Weighted>
   9.000000E+99

> <Gold.Protein.RotatedTorsions>
[ 6907 6896 6895 6894 ] final -112.92 input  -60.11 | X-H torsion
[ 7974 7965 7964 7962 ] final -165.21 input  175.53 | X-H torsion
[ 8008 7997 7996 7995 ] final  117.48 input   59.86 | X-H torsion
[ 10167 10162 10161 10158 ] final  155.13 input  -65.29 | X-H torsion
[ 10718 10713 10712 10709 ] final   79.92 input   66.30 | X-H torsion
[ 10763 10752 10751 10750 ] final  113.86 input  -60.55 | X-H torsion
[ 11005 11000 10999 10996 ] final  177.17 input  -57.11 | X-H torsion

> <Gold.Protein.ActiveResidues>
 VAL166  LYS551  ARG553  GLY616  TRP617  ASP618  TYR619  PRO620  LYS621  CYS622 
 ASP623  PHE694  ASN695  SER759  ASP760  ASP761  ALA762  ILE779  LEU786  VAL792 
 PHE793  MET794  SER795  GLU796  ALA797  LYS798  CYS799  TRP800  GLU811  SER814 

> <Gold.Protein.RotatedAtoms>
  150.7792  133.9020  159.3343 H   0  0  0  0  0  0  0  0  0  0  0  0  # atno 6907 bound_to 6896
  151.6887  135.0948  160.0239 H   0  0  0  0  0  0  0  0  0  0  0  0  # atno 6908 bound_to 6896
  152.3838  133.6544  159.6218 H   0  0  0  0  0  0  0  0  0  0  0  0  # atno 6909 bound_to 6896
  144.7276  140.2847  143.6230 H   0  0  0  0  0  0  0  0  0  0  0  0  # atno 7974 bound_to 7965
  156.2496  140.2895  156.0685 H   0  0  0  0  0  0  0  0  0  0  0  0  # atno 8008 bound_to 7997
  155.1697  140.0401  157.2877 H   0  0  0  0  0  0  0  0  0  0  0  0  # atno 8009 bound_to 7997
  154.6334  140.2505  155.7413 H   0  0  0  0  0  0  0  0  0  0  0  0  # atno 8010 bound_to 7997
  139.4822  144.5126  151.8001 H   0  0  0  0  0  0  0  0  0  0  0  0  # atno 10167 bound_to 10162
  157.6791  130.9936  150.2003 H   0  0  0  0  0  0  0  0  0  0  0  0  # atno 10718 bound_to 10713
  153.4988  135.3642  155.2529 H   0  0  0  0  0  0  0  0  0  0  0  0  # atno 10763 bound_to 10752
  154.8749  135.3995  154.3503 H   0  0  0  0  0  0  0  0  0  0  0  0  # atno 10764 bound_to 10752
  153.4135  135.7078  153.6409 H   0  0  0  0  0  0  0  0  0  0  0  0  # atno 10765 bound_to 10752
  140.3812  134.6945  157.4452 H   0  0  0  0  0  0  0  0  0  0  0  0  # atno 11005 bound_to 11000
  145.7914  139.1928  143.2100 LP  0  0  0  0  0  0  0  0  0  0  0  0  # atno 17320 bound_to 7965
  146.0752  140.7825  142.9668 LP  0  0  0  0  0  0  0  0  0  0  0  0  # atno 17321 bound_to 7965
  140.4631  144.1694  150.5908 LP  0  0  0  0  0  0  0  0  0  0  0  0  # atno 17342 bound_to 10162
  140.4463  143.2505  151.9406 LP  0  0  0  0  0  0  0  0  0  0  0  0  # atno 17343 bound_to 10162
  156.2695  130.3720  149.8046 LP  0  0  0  0  0  0  0  0  0  0  0  0  # atno 17370 bound_to 10713
  156.5767  130.8448  151.3372 LP  0  0  0  0  0  0  0  0  0  0  0  0  # atno 17371 bound_to 10713
  140.0477  134.6175  155.8900 LP  0  0  0  0  0  0  0  0  0  0  0  0  # atno 17394 bound_to 11000
  141.1923  133.6574  156.5495 LP  0  0  0  0  0  0  0  0  0  0  0  0  # atno 17395 bound_to 11000

$$$$
