AV-unprocessed.smi:632|AV-procd|sdf|3127|dock5
  -GOLD-   22720 0 53D 1   1.00000     0.00000
 Structure written by MMmdl.
 42 43  0  0  0  0  0  0  0  0  1 V2000
  145.9807  131.9814  161.4269 C   0  0  0  0  0  0  0  0  0  0  0  0
  147.2215  132.5572  160.7171 C   0  0  0  0  0  0  0  0  0  0  0  0
  147.5303  133.9290  161.3563 C   0  0  0  0  0  0  0  0  0  0  0  0
  148.4474  131.6523  160.9492 C   0  0  0  0  0  0  0  0  0  0  0  0
  146.9509  132.6847  159.2359 C   0  0  0  0  0  0  0  0  0  0  0  0
  147.8707  133.1683  158.3870 N   0  0  0  0  0  0  0  0  0  0  0  0
  147.4284  133.1985  157.0730 N   0  0  0  0  0  0  0  0  0  0  0  0
  146.1793  132.7323  156.9550 C   0  0  0  0  0  0  0  0  0  0  0  0
  145.4829  132.6434  155.7205 N   0  0  0  0  0  0  0  0  0  0  0  0
  145.9189  132.9751  154.4923 C   0  0  0  0  0  0  0  0  0  0  0  0
  147.0252  133.4502  154.2339 O   0  0  0  0  0  0  0  0  0  0  0  0
  144.9868  132.7226  153.5617 N   0  0  0  0  0  0  0  0  0  0  0  0
  145.1466  132.9486  152.1282 C   0  0  2  0  0  0  0  0  0  0  0  0
  144.0352  133.8738  151.5948 C   0  0  0  0  0  0  0  0  0  0  0  0
  144.1606  134.0837  150.0755 C   0  0  0  0  0  0  0  0  0  0  0  0
  144.2006  132.7523  149.3008 C   0  0  2  0  0  0  0  0  0  0  0  0
  142.9307  132.1316  149.3378 O   0  0  0  0  0  0  0  0  0  0  0  0
  145.2711  131.7981  149.8642 C   0  0  0  0  0  0  0  0  0  0  0  0
  145.1347  131.6010  151.3843 C   0  0  0  0  0  0  0  0  0  0  0  0
  145.4345  132.2163  158.4563 S   0  0  0  0  0  0  0  0  0  0  0  0
  146.1426  131.8906  162.5015 H   0  0  0  0  0  0  0  0  0  0  0  0
  145.7311  130.9877  161.0528 H   0  0  0  0  0  0  0  0  0  0  0  0
  145.1073  132.6171  161.2775 H   0  0  0  0  0  0  0  0  0  0  0  0
  146.6950  134.6220  161.2486 H   0  0  0  0  0  0  0  0  0  0  0  0
  148.4098  134.3934  160.9085 H   0  0  0  0  0  0  0  0  0  0  0  0
  147.7290  133.8314  162.4242 H   0  0  0  0  0  0  0  0  0  0  0  0
  148.6771  131.5574  162.0109 H   0  0  0  0  0  0  0  0  0  0  0  0
  149.3339  132.0507  160.4543 H   0  0  0  0  0  0  0  0  0  0  0  0
  148.2808  130.6456  160.5642 H   0  0  0  0  0  0  0  0  0  0  0  0
  144.5465  132.2718  155.7779 H   0  0  0  0  0  0  0  0  0  0  0  0
  144.1028  132.3402  153.8643 H   0  0  0  0  0  0  0  0  0  0  0  0
  146.1143  133.4215  151.9494 H   0  0  0  0  0  0  0  0  0  0  0  0
  143.0568  133.4495  151.8251 H   0  0  0  0  0  0  0  0  0  0  0  0
  144.0766  134.8406  152.0979 H   0  0  0  0  0  0  0  0  0  0  0  0
  143.3426  134.7080  149.7140 H   0  0  0  0  0  0  0  0  0  0  0  0
  145.0772  134.6393  149.8730 H   0  0  0  0  0  0  0  0  0  0  0  0
  144.4223  132.9577  148.2531 H   0  0  0  0  0  0  0  0  0  0  0  0
  142.2849  132.7826  149.5661 H   0  0  0  0  0  0  0  0  0  0  0  0
  145.2262  130.8347  149.3548 H   0  0  0  0  0  0  0  0  0  0  0  0
  146.2591  132.2079  149.6503 H   0  0  0  0  0  0  0  0  0  0  0  0
  145.9477  130.9688  151.7438 H   0  0  0  0  0  0  0  0  0  0  0  0
  144.2095  131.0650  151.6014 H   0  0  0  0  0  0  0  0  0  0  0  0
  1  2  1  0  0  0  0
  1 21  1  0  0  0  0
  1 22  1  0  0  0  0
  1 23  1  0  0  0  0
  2  3  1  0  0  0  0
  2  4  1  0  0  0  0
  2  5  1  0  0  0  0
  3 24  1  0  0  0  0
  3 25  1  0  0  0  0
  3 26  1  0  0  0  0
  4 27  1  0  0  0  0
  4 28  1  0  0  0  0
  4 29  1  0  0  0  0
  5 20  1  0  0  0  0
  5  6  2  0  0  0  0
  6  7  1  0  0  0  0
  7  8  2  0  0  0  0
  8  9  1  0  0  0  0
  8 20  1  0  0  0  0
  9 10  1  0  0  0  0
  9 30  1  0  0  0  0
 10 11  2  0  0  0  0
 10 12  1  0  0  0  0
 12 13  1  0  0  0  0
 12 31  1  0  0  0  0
 13 19  1  0  0  0  0
 13 14  1  0  0  0  0
 13 32  1  0  0  0  0
 14 15  1  0  0  0  0
 14 33  1  0  0  0  0
 14 34  1  0  0  0  0
 15 16  1  0  0  0  0
 15 35  1  0  0  0  0
 15 36  1  0  0  0  0
 16 17  1  0  0  0  0
 16 18  1  0  0  0  0
 16 37  1  0  0  0  0
 17 38  1  0  0  0  0
 18 19  1  0  0  0  0
 18 39  1  0  0  0  0
 18 40  1  0  0  0  0
 19 41  1  0  0  0  0
 19 42  1  0  0  0  0
M  END
> <s_m_source_file>
AV-unprocessed.smi

> <i_m_source_file_index>
632

> <i_lp_mmshare_version>
43012

> <i_f3d_flags>
0

> <s_epik_input>
W0NIM11DKFtDSDNdKShbQ0gzXSljMW5uYyhzMSlbTkhdQyg9TylbTkhdW0NAQEhdMltDSDJdW0NIMl1bQ0BASF0oW09IXSlbQ0gyXVtDSDJdMg==

> <s_epik_cmdline>
J2VwaWtfcHl0aG9uJywgJy1waCcsICc3LjAnLCAnLXRuJywgJzgnLCAnLW1hJywgJzIwMCcsICctbWV0YWxfYmluZGluZycsICctaW1hZScsICc8aW5maWxlLm1hZT4nLCAnLW9tYWUnLCAnPG91dGZpbGUubWFlPic=

> <r_lp_tautomer_probability>
1

> <r_epik_Ionization_Penalty>
0.000349475

> <r_epik_Ionization_Penalty_Charging>
0

> <r_epik_Ionization_Penalty_Neutral>
0.000349475

> <r_epik_State_Penalty>
-0

> <r_epik_Charging_Adjusted_Penalty>
0

> <i_epik_Tot_Q>
0

> <i_epik_Tot_abs_Q>
0

> <r_epik_Metal_State_Penalty>
0.179207

> <b_epik_Metal_Only>
0

> <s_lp_Force_Field>
OPLS_2005

> <r_lp_Energy>
4.89168

> <b_lp_Chiralities_Consistent>
1

> <s_lp_Variant>
AV-unprocessed.smi:632-2

> <Gold.Version>
5.8.1

> <Gold.Id.Protein>
6NUR|6NUR_protein|mol2

> <Gold.PLP.Fitness>
38.6862

> <Gold.PLP.PLP>
-27.6437

> <Gold.PLP.part.hbond>
-4.9582

> <Gold.PLP.part.metal>
0.0000

> <Gold.PLP.part.buried>
-3.4171

> <Gold.PLP.part.nonpolar>
-20.2274

> <Gold.PLP.part.repulsive>
0.0617

> <Gold.PLP.ligand.clash>
0.0000

> <Gold.PLP.ligand.torsion>
0.0287

> <Gold.PLP.Chemscore.Hbond>
3.6975

> <Gold.PLP.Chemscore.CHOScore>
0.0000

> <Gold.PLP.Chemscore.Metal>
0.0000

> <Gold.Chemscore.Hbonds>
donor molecule, donor type, donor heavy atom, donor atom, acceptor molecule, acceptor atom, score
      L1  H     9    30       P1 10957  0.70
      L1  H    12    31       P1 10957  1.00
      L1  H    17    38       P1 10186  0.89
      P1  H 10785 10796       L1    17  0.84

> <Gold.PLP.Chemscore.Internal.Correction>
0.0074

> <Gold.Rescore>
     Score         DG    S(hbond)    S(metal)    S(lipo)     H(rot)  DE(clash)    DE(int)     intcor
     18.29     -19.75       2.97        0.00      74.29       1.70       0.12       1.33       ----

> <Gold.Chemscore.Fitness>
18.2917

> <Gold.Chemscore.DG>
-19.7467

> <Gold.Chemscore.ZeroCoef>
-5.4800

> <Gold.Chemscore.Hbond>
2.9698

> <Gold.Chemscore.Metal>
0.0000

> <Gold.Chemscore.Lipo>
74.2857

> <Gold.Chemscore.Internal_Hbond>
0.0000

> <Gold.Chemscore.DEClash>
0.1213

> <Gold.Chemscore.DEInternal>
1.3336

> <Gold.Chemscore.Rot>
1.6968

> <Gold.Chemscore.Internal.Correction>
   9.000000E+99

> <Gold.Chemscore.Hbonds>
donor molecule, donor type, donor heavy atom, donor atom, acceptor molecule, acceptor atom, score
      L1  H     9    30       P1 10957  0.61
      L1  H    12    31       P1 10957  0.30
      L1  H    17    38       P1 10186  0.87
      P1  H 10785 10796       L1    17  0.50

> <Gold.Chemscore.Hbond.Weighted>
-9.9191

> <Gold.Chemscore.Metal.Weighted>
-0.0000

> <Gold.Chemscore.Lipo.Weighted>
-8.6914

> <Gold.Chemscore.Internal_Hbond.Weighted>
0.0000

> <Gold.Chemscore.DEClash.Weighted>
0.1213

> <Gold.Chemscore.DEInternal.Weighted>
1.3336

> <Gold.Chemscore.Rot.Weighted>
4.3438

> <Gold.Chemscore.Internal.Correction.Weighted>
   9.000000E+99

> <Gold.Protein.RotatedTorsions>
[ 6907 6896 6895 6894 ] final  139.11 input  -60.11 | X-H torsion
[ 7974 7965 7964 7962 ] final  -27.22 input  175.53 | X-H torsion
[ 8008 7997 7996 7995 ] final   25.53 input   59.86 | X-H torsion
[ 10167 10162 10161 10158 ] final   93.71 input  -65.29 | X-H torsion
[ 10718 10713 10712 10709 ] final  -60.70 input   66.30 | X-H torsion
[ 10763 10752 10751 10750 ] final  -48.25 input  -60.55 | X-H torsion
[ 11005 11000 10999 10996 ] final  -77.71 input  -57.11 | X-H torsion

> <Gold.Protein.ActiveResidues>
 VAL166  LYS551  ARG553  GLY616  TRP617  ASP618  TYR619  PRO620  LYS621  CYS622 
 ASP623  PHE694  ASN695  SER759  ASP760  ASP761  ALA762  ILE779  LEU786  VAL792 
 PHE793  MET794  SER795  GLU796  ALA797  LYS798  CYS799  TRP800  GLU811  SER814 

> <Gold.Protein.RotatedAtoms>
  152.2587  133.5278  159.5368 H   0  0  0  0  0  0  0  0  0  0  0  0  # atno 6907 bound_to 6896
  150.7118  134.0859  159.3923 H   0  0  0  0  0  0  0  0  0  0  0  0  # atno 6908 bound_to 6896
  151.8777  135.0465  160.0536 H   0  0  0  0  0  0  0  0  0  0  0  0  # atno 6909 bound_to 6896
  146.1372  140.5124  142.8667 H   0  0  0  0  0  0  0  0  0  0  0  0  # atno 7974 bound_to 7965
  155.0131  140.3139  155.4822 H   0  0  0  0  0  0  0  0  0  0  0  0  # atno 8008 bound_to 7997
  156.2905  140.2211  156.5188 H   0  0  0  0  0  0  0  0  0  0  0  0  # atno 8009 bound_to 7997
  154.7517  140.0465  157.0887 H   0  0  0  0  0  0  0  0  0  0  0  0  # atno 8010 bound_to 7997
  139.8154  144.6755  150.9587 H   0  0  0  0  0  0  0  0  0  0  0  0  # atno 10167 bound_to 10162
  156.0972  130.4191  150.0891 H   0  0  0  0  0  0  0  0  0  0  0  0  # atno 10718 bound_to 10713
  154.0746  135.6600  153.4829 H   0  0  0  0  0  0  0  0  0  0  0  0  # atno 10763 bound_to 10752
  153.0378  135.5165  154.7533 H   0  0  0  0  0  0  0  0  0  0  0  0  # atno 10764 bound_to 10752
  154.6610  135.3015  154.9835 H   0  0  0  0  0  0  0  0  0  0  0  0  # atno 10765 bound_to 10752
  141.1661  133.7033  156.7861 H   0  0  0  0  0  0  0  0  0  0  0  0  # atno 11005 bound_to 11000
  144.7753  140.5725  143.6642 LP  0  0  0  0  0  0  0  0  0  0  0  0  # atno 17320 bound_to 7965
  145.5129  139.1479  143.3595 LP  0  0  0  0  0  0  0  0  0  0  0  0  # atno 17321 bound_to 7965
  140.7816  143.4144  151.0941 LP  0  0  0  0  0  0  0  0  0  0  0  0  # atno 17342 bound_to 10162
  139.7808  143.8358  152.3137 LP  0  0  0  0  0  0  0  0  0  0  0  0  # atno 17343 bound_to 10162
  156.8887  130.9581  151.3591 LP  0  0  0  0  0  0  0  0  0  0  0  0  # atno 17370 bound_to 10713
  157.6135  130.8601  149.8990 LP  0  0  0  0  0  0  0  0  0  0  0  0  # atno 17371 bound_to 10713
  140.2359  134.8650  157.3524 LP  0  0  0  0  0  0  0  0  0  0  0  0  # atno 17394 bound_to 11000
  140.1844  134.4449  155.7752 LP  0  0  0  0  0  0  0  0  0  0  0  0  # atno 17395 bound_to 11000

$$$$
