#       Name:                AV-unprocessed.smi:290
#       Creating user name   scv26
#       Creation time:       Thu Mar 26 22:10:15 2020


#       File generated by GOLD software.
#

@<TRIPOS>MOLECULE
AV-unprocessed.smi:290
    69    72     1
SMALL
NO_CHARGES


@<TRIPOS>ATOM
      1 ****        -6.8279  -0.5621   0.6349 C.3            1 S1                 0.0000
      2 ****        -5.8393  -1.2380  -0.3264 C.3            1 S1                 0.0000
      3 ****        -5.7637  -2.6380  -0.0705 O.3            1 S1                 0.0000
      4 ****        -4.4450  -3.1140  -0.3252 C.3            1 S1                 0.0000
      5 ****        -3.6876  -1.9331  -0.9254 C.3            1 S1                 0.0000
      6 ****        -4.3837  -0.7343  -0.2926 C.3            1 S1                 0.0000
      7 ****        -4.2303   0.3850  -1.1443 O.3            1 S1                 0.0000
      8 ****        -3.8693  -0.3836   1.1311 C.3            1 S1                 0.0000
      9 ****        -2.4489  -0.0768   1.1915 N.pl3          1 S1                 0.0000
     10 ****        -1.4309  -0.9516   1.4957 C.2            1 S1                 0.0000
     11 ****        -0.2326  -0.4353   1.4881 N.2            1 S1                 0.0000
     12 ****        -0.4404   0.9029   1.1739 C.ar           1 S1                 0.0000
     13 ****         0.4102   2.0328   1.0024 C.ar           1 S1                 0.0000
     14 ****         1.7578   2.0233   1.1081 N.3            1 S1                 0.0000
     15 ****         2.3434   1.3996   2.2932 C.3            1 S1                 0.0000
     16 ****         3.4194   0.4293   1.7918 C.3            1 S1                 0.0000
     17 ****         3.0251   0.1765   0.3310 C.3            1 S1                 0.0000
     18 ****         4.1047  -0.3538  -0.5530 N.4            1 S1                 1.0000
     19 ****         4.8605  -1.4705   0.0703 C.3            1 S1                 0.0000
     20 ****         3.5976  -0.7122  -1.9069 C.3            1 S1                 0.0000
     21 ****         4.7005  -0.7483  -2.9803 C.3            1 S1                 0.0000
     22 ****         5.2372   0.5423  -3.1746 O.3            1 S1                 0.0000
     23 ****         2.4571   1.5512  -0.0818 C.3            1 S1                 0.0000
     24 ****         3.5233   2.5815  -0.5008 C.3            1 S1                 0.0000
     25 ****        -0.1626   3.2134   0.6644 N.ar           1 S1                 0.0000
     26 ****        -1.4888   3.2979   0.5238 C.ar           1 S1                 0.0000
     27 ****        -2.4060   2.3382   0.6624 N.ar           1 S1                 0.0000
     28 ****        -1.8306   1.1439   0.9838 C.ar           1 S1                 0.0000
     29 ****         2.2141  -0.5531   0.3292 H              1 S1                 0.0000
     30 ****         1.7554   1.4287  -0.9087 H              1 S1                 0.0000
     31 ****        -6.8620   0.5150   0.4692 H              1 S1                 0.0000
     32 ****        -6.5624  -0.7369   1.6775 H              1 S1                 0.0000
     33 ****        -7.8350  -0.9523   0.4863 H              1 S1                 0.0000
     34 ****        -6.2227  -1.1364  -1.3437 H              1 S1                 0.0000
     35 ****        -3.9951  -3.4188   0.6201 H              1 S1                 0.0000
     36 ****        -4.4557  -3.9784  -0.9894 H              1 S1                 0.0000
     37 ****        -2.6125  -1.9808  -0.7581 H              1 S1                 0.0000
     38 ****        -3.8435  -1.9305  -2.0058 H              1 S1                 0.0000
     39 ****        -4.7159   1.1088  -0.7786 H              1 S1                 0.0000
     40 ****        -4.4114   0.4743   1.5305 H              1 S1                 0.0000
     41 ****        -4.0628  -1.2088   1.8177 H              1 S1                 0.0000
     42 ****        -1.6069  -1.9944   1.7165 H              1 S1                 0.0000
     43 ****         2.7792   2.1627   2.9385 H              1 S1                 0.0000
     44 ****         1.5963   0.8722   2.8862 H              1 S1                 0.0000
     45 ****         4.3972   0.9094   1.8470 H              1 S1                 0.0000
     46 ****         3.4572  -0.4829   2.3881 H              1 S1                 0.0000
     47 ****         4.1969  -2.3024   0.3097 H              1 S1                 0.0000
     48 ****         5.3566  -1.1540   0.9874 H              1 S1                 0.0000
     49 ****         5.6459  -1.8444  -0.5841 H              1 S1                 0.0000
     50 ****         3.0939  -1.6785  -1.8557 H              1 S1                 0.0000
     51 ****         2.8401  -0.0003  -2.2339 H              1 S1                 0.0000
     52 ****         5.5000  -1.4465  -2.7373 H              1 S1                 0.0000
     53 ****         4.2753  -1.0820  -3.9271 H              1 S1                 0.0000
     54 ****         5.8628   0.5059  -3.8826 H              1 S1                 0.0000
     55 ****         4.0429   2.2749  -1.4073 H              1 S1                 0.0000
     56 ****         4.2709   2.7374   0.2770 H              1 S1                 0.0000
     57 ****         3.0621   3.5475  -0.7089 H              1 S1                 0.0000
     58 ****        -1.8693   4.2739   0.2603 H              1 S1                 0.0000
     59 ****         4.7595   0.4047  -0.6830 H              1 S1                 0.0000
     60 ****        -6.4088  -3.1179  -0.6652 LP             1 S1                 0.0000
     61 ****        -5.9989  -2.8122   0.8857 LP             1 S1                 0.0000
     62 ****        -4.5833   0.1674  -2.0543 LP             1 S1                 0.0000
     63 ****        -3.2625   0.6277  -1.2115 LP             1 S1                 0.0000
     64 ****         0.6364  -0.8966   1.6672 LP             1 S1                 0.0000
     65 ****         1.9122   3.0052   1.2179 LP             1 S1                 0.0000
     66 ****         5.6926   0.8471  -2.3381 LP             1 S1                 0.0000
     67 ****         4.5033   1.1809  -3.4062 LP             1 S1                 0.0000
     68 ****         0.4076   4.0221   0.5200 LP             1 S1                 0.0000
     69 ****        -3.3894   2.4770   0.5455 LP             1 S1                 0.0000
@<TRIPOS>BOND
    1    1    2 1     
    2    1   31 1     
    3    1   32 1     
    4    1   33 1     
    5    2    6 1     
    6    2    3 1     
    7    2   34 1     
    8    3    4 1     
    9    4    5 1     
   10    4   35 1     
   11    4   36 1     
   12    5    6 1     
   13    5   37 1     
   14    5   38 1     
   15    6    7 1     
   16    6    8 1     
   17    7   39 1     
   18    8    9 1     
   19    8   40 1     
   20    8   41 1     
   21    9   28 1     
   22    9   10 1     
   23   10   11 2     
   24   10   42 1     
   25   11   12 1     
   26   12   28 ar    
   27   12   13 ar    
   28   13   14 1     
   29   13   25 ar    
   30   14   23 1     
   31   14   15 1     
   32   15   16 1     
   33   15   43 1     
   34   15   44 1     
   35   16   17 1     
   36   16   45 1     
   37   16   46 1     
   38   17   29 1     
   39   17   18 1     
   40   17   23 1     
   41   18   19 1     
   42   18   20 1     
   43   18   59 1     
   44   19   47 1     
   45   19   48 1     
   46   19   49 1     
   47   20   21 1     
   48   20   50 1     
   49   20   51 1     
   50   21   22 1     
   51   21   52 1     
   52   21   53 1     
   53   22   54 1     
   54   23   30 1     
   55   23   24 1     
   56   24   55 1     
   57   24   56 1     
   58   24   57 1     
   59   25   26 ar    
   60   26   27 ar    
   61   26   58 1     
   62   27   28 ar    
   63    3   60 1     
   64    3   61 1     
   65    7   62 1     
   66    7   63 1     
   67   11   64 1     
   68   14   65 1     
   69   22   66 1     
   70   22   67 1     
   71   25   68 1     
   72   27   69 1     
@<TRIPOS>SUBSTRUCTURE
      1 S1             1
@<TRIPOS>SET
LONE_PAIRS      STATIC     ATOMS    <user>   **** ""
10 60 61 62 63 64 65 66 67 68 69
DONOR_HYDROGENS      STATIC     ATOMS    <user>   **** ""
3 39 59 54
ATOM$BLUE        STATIC     ATOMS    COLORGROUP SYSTEM
10 60 61 62 63 64 65 66 67 68 69
ATOM$RED        STATIC     ATOMS    COLORGROUP SYSTEM
3 39 59 54
