AV-unprocessed.smi:1982|AV-procd|sdf|8020|dock6
  -GOLD-   2272010213D 1   1.00000     0.00000
 Structure written by MMmdl.
 36 37  0  0  0  0  0  0  0  0  1 V2000
  151.1171  145.6369  160.3801 C   0  0  0  0  0  0  0  0  0  0  0  0
  151.6622  144.1981  160.3407 C   0  0  2  0  0  0  0  0  0  0  0  0
  152.3133  143.8502  161.6955 C   0  0  0  0  0  0  0  0  0  0  0  0
  152.8628  142.4177  161.7232 C   0  0  0  0  0  0  0  0  0  0  0  0
  153.8612  142.1907  160.5793 C   0  0  0  0  0  0  0  0  0  0  0  0
  153.2445  142.5230  159.2073 C   0  0  1  0  0  0  0  0  0  0  0  0
  152.2232  141.5404  158.8478 N   0  0  0  0  0  0  0  0  0  0  0  0
  152.4245  140.2309  158.6353 C   0  0  0  0  0  0  0  0  0  0  0  0
  153.5123  139.6755  158.7838 O   0  0  0  0  0  0  0  0  0  0  0  0
  151.2081  139.4241  158.1778 C   0  0  0  0  0  0  0  0  0  0  0  0
  150.9125  139.6750  156.7786 N   0  0  0  0  0  0  0  0  0  0  0  0
  151.6455  139.4835  155.6799 C   0  0  0  0  0  0  0  0  0  0  0  0
  151.0039  139.8762  154.5900 N   0  0  0  0  0  0  0  0  0  0  0  0
  149.7944  140.3358  155.0845 N   0  0  0  0  0  0  0  0  0  0  0  0
  149.7339  140.2185  156.3825 N   0  0  0  0  0  0  0  0  0  0  0  0
  152.6605  143.9595  159.1731 C   0  0  1  0  0  0  0  0  0  0  0  0
  152.0579  144.2827  157.7898 C   0  0  0  0  0  0  0  0  0  0  0  0
  151.9251  146.3664  160.4447 H   0  0  0  0  0  0  0  0  0  0  0  0
  150.4681  145.7853  161.2436 H   0  0  0  0  0  0  0  0  0  0  0  0
  150.5235  145.8694  159.4962 H   0  0  0  0  0  0  0  0  0  0  0  0
  150.8082  143.5332  160.2031 H   0  0  0  0  0  0  0  0  0  0  0  0
  153.1227  144.5508  161.9053 H   0  0  0  0  0  0  0  0  0  0  0  0
  151.5871  143.9716  162.5000 H   0  0  0  0  0  0  0  0  0  0  0  0
  153.3475  142.2254  162.6807 H   0  0  0  0  0  0  0  0  0  0  0  0
  152.0402  141.7056  161.6469 H   0  0  0  0  0  0  0  0  0  0  0  0
  154.7372  142.8202  160.7400 H   0  0  0  0  0  0  0  0  0  0  0  0
  154.2220  141.1614  160.5955 H   0  0  0  0  0  0  0  0  0  0  0  0
  154.0425  142.4768  158.4640 H   0  0  0  0  0  0  0  0  0  0  0  0
  151.2896  141.8983  158.7052 H   0  0  0  0  0  0  0  0  0  0  0  0
  151.3921  138.3572  158.3097 H   0  0  0  0  0  0  0  0  0  0  0  0
  150.3408  139.6828  158.7871 H   0  0  0  0  0  0  0  0  0  0  0  0
  152.6426  139.0677  155.6801 H   0  0  0  0  0  0  0  0  0  0  0  0
  153.4989  144.6430  159.3175 H   0  0  0  0  0  0  0  0  0  0  0  0
  151.1312  143.7351  157.6145 H   0  0  0  0  0  0  0  0  0  0  0  0
  152.7524  144.0215  156.9907 H   0  0  0  0  0  0  0  0  0  0  0  0
  151.8406  145.3452  157.6839 H   0  0  0  0  0  0  0  0  0  0  0  0
  1  2  1  0  0  0  0
  1 18  1  0  0  0  0
  1 19  1  0  0  0  0
  1 20  1  0  0  0  0
  2 16  1  0  0  0  0
  2  3  1  0  0  0  0
  2 21  1  0  0  0  0
  3  4  1  0  0  0  0
  3 22  1  0  0  0  0
  3 23  1  0  0  0  0
  4  5  1  0  0  0  0
  4 24  1  0  0  0  0
  4 25  1  0  0  0  0
  5  6  1  0  0  0  0
  5 26  1  0  0  0  0
  5 27  1  0  0  0  0
  6  7  1  0  0  0  0
  6 16  1  0  0  0  0
  6 28  1  0  0  0  0
  7  8  1  0  0  0  0
  7 29  1  0  0  0  0
  8  9  2  0  0  0  0
  8 10  1  0  0  0  0
 10 11  1  0  0  0  0
 10 30  1  0  0  0  0
 10 31  1  0  0  0  0
 11 15  1  0  0  0  0
 11 12  1  0  0  0  0
 12 13  2  0  0  0  0
 12 32  1  0  0  0  0
 13 14  1  0  0  0  0
 14 15  2  0  0  0  0
 16 17  1  0  0  0  0
 16 33  1  0  0  0  0
 17 34  1  0  0  0  0
 17 35  1  0  0  0  0
 17 36  1  0  0  0  0
M  END
> <s_m_source_file>
AV-unprocessed.smi

> <i_m_source_file_index>
1982

> <i_lp_mmshare_version>
43012

> <i_f3d_flags>
0

> <s_epik_input>
W0NIM11bQ0BASF0xW0NIMl1bQ0gyXVtDSDJdW0NASF0oW0NASF0xW0NIM10pW05IXUMoPU8pW0NIMl1uMltjSF1ubm4y

> <s_epik_cmdline>
J2VwaWtfcHl0aG9uJywgJy1waCcsICc3LjAnLCAnLXRuJywgJzgnLCAnLW1hJywgJzIwMCcsICctbWV0YWxfYmluZGluZycsICctaW1hZScsICc8aW5maWxlLm1hZT4nLCAnLW9tYWUnLCAnPG91dGZpbGUubWFlPic=

> <r_lp_tautomer_probability>
1

> <r_epik_Ionization_Penalty>
5.03816e-07

> <r_epik_Ionization_Penalty_Charging>
0

> <r_epik_Ionization_Penalty_Neutral>
5.03816e-07

> <r_epik_State_Penalty>
-0

> <r_epik_Charging_Adjusted_Penalty>
0

> <i_epik_Tot_Q>
0

> <i_epik_Tot_abs_Q>
0

> <r_epik_Metal_State_Penalty>
-0

> <b_epik_Metal_Only>
0

> <s_lp_Force_Field>
OPLS_2005

> <r_lp_Energy>
12.4205

> <b_lp_Chiralities_Consistent>
1

> <s_lp_Variant>
AV-unprocessed.smi:1982-1

> <Gold.Version>
5.8.1

> <Gold.Id.Protein>
6NUR|6NUR_protein|mol2

> <Gold.PLP.Fitness>
45.2168

> <Gold.PLP.PLP>
-39.6906

> <Gold.PLP.part.hbond>
-1.9920

> <Gold.PLP.part.metal>
0.0000

> <Gold.PLP.part.buried>
-4.2158

> <Gold.PLP.part.nonpolar>
-34.7515

> <Gold.PLP.part.repulsive>
0.3280

> <Gold.PLP.ligand.clash>
0.0000

> <Gold.PLP.ligand.torsion>
0.2428

> <Gold.PLP.Chemscore.Hbond>
2.0000

> <Gold.PLP.Chemscore.CHOScore>
0.0000

> <Gold.PLP.Chemscore.Metal>
0.0000

> <Gold.Chemscore.Hbonds>
donor molecule, donor type, donor heavy atom, donor atom, acceptor molecule, acceptor atom, score
      P1  H  7989  7998       L1    13  1.00
      P1  H  7997  8009       L1     9  0.91

> <Gold.PLP.Chemscore.Internal.Correction>
0.0118

> <Gold.Rescore>
     Score         DG    S(hbond)    S(metal)    S(lipo)     H(rot)  DE(clash)    DE(int)     intcor
     17.51     -17.80       1.79        0.00      95.91       1.91       0.02       0.27       ----

> <Gold.Chemscore.Fitness>
17.5099

> <Gold.Chemscore.DG>
-17.7983

> <Gold.Chemscore.ZeroCoef>
-5.4800

> <Gold.Chemscore.Hbond>
1.7893

> <Gold.Chemscore.Metal>
0.0000

> <Gold.Chemscore.Lipo>
95.9062

> <Gold.Chemscore.Internal_Hbond>
0.0000

> <Gold.Chemscore.DEClash>
0.0217

> <Gold.Chemscore.DEInternal>
0.2667

> <Gold.Chemscore.Rot>
1.9058

> <Gold.Chemscore.Internal.Correction>
   9.000000E+99

> <Gold.Chemscore.Hbonds>
donor molecule, donor type, donor heavy atom, donor atom, acceptor molecule, acceptor atom, score
      P1  H  7989  7998       L1    13  0.84
      P1  H  7997  8009       L1     9  0.73

> <Gold.Chemscore.Hbond.Weighted>
-5.9761

> <Gold.Chemscore.Metal.Weighted>
-0.0000

> <Gold.Chemscore.Lipo.Weighted>
-11.2210

> <Gold.Chemscore.Internal_Hbond.Weighted>
0.0000

> <Gold.Chemscore.DEClash.Weighted>
0.0217

> <Gold.Chemscore.DEInternal.Weighted>
0.2667

> <Gold.Chemscore.Rot.Weighted>
4.8788

> <Gold.Chemscore.Internal.Correction.Weighted>
   9.000000E+99

> <Gold.Protein.RotatedTorsions>
[ 6907 6896 6895 6894 ] final  121.71 input  -60.11 | X-H torsion
[ 7974 7965 7964 7962 ] final  106.75 input  175.53 | X-H torsion
[ 8008 7997 7996 7995 ] final  138.91 input   59.86 | X-H torsion
[ 10167 10162 10161 10158 ] final -130.42 input  -65.29 | X-H torsion
[ 10718 10713 10712 10709 ] final  105.08 input   66.30 | X-H torsion
[ 10763 10752 10751 10750 ] final -148.03 input  -60.55 | X-H torsion
[ 11005 11000 10999 10996 ] final   84.08 input  -57.11 | X-H torsion

> <Gold.Protein.ActiveResidues>
 VAL166  LYS551  ARG553  GLY616  TRP617  ASP618  TYR619  PRO620  LYS621  CYS622 
 ASP623  PHE694  ASN695  SER759  ASP760  ASP761  ALA762  ILE779  LEU786  VAL792 
 PHE793  MET794  SER795  GLU796  ALA797  LYS798  CYS799  TRP800  GLU811  SER814 

> <Gold.Protein.RotatedAtoms>
  152.4300  133.7261  159.6560 H   0  0  0  0  0  0  0  0  0  0  0  0  # atno 6907 bound_to 6896
  150.8178  133.8295  159.3158 H   0  0  0  0  0  0  0  0  0  0  0  0  # atno 6908 bound_to 6896
  151.5986  135.1051  160.0106 H   0  0  0  0  0  0  0  0  0  0  0  0  # atno 6909 bound_to 6896
  145.3026  139.2565  143.3806 H   0  0  0  0  0  0  0  0  0  0  0  0  # atno 7974 bound_to 7965
  156.2994  140.2381  156.4151 H   0  0  0  0  0  0  0  0  0  0  0  0  # atno 8008 bound_to 7997
  154.8406  140.0428  157.1559 H   0  0  0  0  0  0  0  0  0  0  0  0  # atno 8009 bound_to 7997
  154.9107  140.2990  155.5271 H   0  0  0  0  0  0  0  0  0  0  0  0  # atno 8010 bound_to 7997
  139.9295  143.6289  152.2533 H   0  0  0  0  0  0  0  0  0  0  0  0  # atno 10167 bound_to 10162
  157.6718  131.0819  150.5802 H   0  0  0  0  0  0  0  0  0  0  0  0  # atno 10718 bound_to 10713
  154.8255  135.3345  154.6910 H   0  0  0  0  0  0  0  0  0  0  0  0  # atno 10763 bound_to 10752
  153.7537  135.6937  153.4945 H   0  0  0  0  0  0  0  0  0  0  0  0  # atno 10764 bound_to 10752
  153.2159  135.4466  155.0383 H   0  0  0  0  0  0  0  0  0  0  0  0  # atno 10765 bound_to 10752
  139.9011  134.8191  156.2397 H   0  0  0  0  0  0  0  0  0  0  0  0  # atno 11005 bound_to 11000
  146.3146  140.3544  142.8659 LP  0  0  0  0  0  0  0  0  0  0  0  0  # atno 17320 bound_to 7965
  144.9081  140.7724  143.5825 LP  0  0  0  0  0  0  0  0  0  0  0  0  # atno 17321 bound_to 7965
  139.6794  144.7656  151.1636 LP  0  0  0  0  0  0  0  0  0  0  0  0  # atno 17342 bound_to 10162
  140.7641  143.5747  150.8958 LP  0  0  0  0  0  0  0  0  0  0  0  0  # atno 17343 bound_to 10162
  156.6103  130.4378  149.5861 LP  0  0  0  0  0  0  0  0  0  0  0  0  # atno 17370 bound_to 10713
  156.2435  130.6865  151.1578 LP  0  0  0  0  0  0  0  0  0  0  0  0  # atno 17371 bound_to 10713
  141.0293  133.6998  156.1402 LP  0  0  0  0  0  0  0  0  0  0  0  0  # atno 17394 bound_to 11000
  140.7120  134.4451  157.5581 LP  0  0  0  0  0  0  0  0  0  0  0  0  # atno 17395 bound_to 11000

$$$$
