AV-unprocessed.smi:2895|AV-procd|sdf|11130|dock9
  -GOLD-   2272016 03D 1   1.00000     0.00000
 Structure written by MMmdl.
 53 56  0  0  0  0  0  0  0  0  2 V2000
  148.7884  142.0114  154.0444 O   0  0  0  0  0  0  0  0  0  0  0  0
  148.7118  141.0343  154.7901 C   0  0  0  0  0  0  0  0  0  0  0  0
  149.5641  140.8528  155.8135 N   0  0  0  0  0  0  0  0  0  0  0  0
  150.6537  141.7534  156.1728 C   0  0  0  0  0  0  0  0  0  0  0  0
  151.3995  141.2771  157.4310 C   0  0  0  0  0  0  0  0  0  0  0  0
  151.7193  142.4211  158.3737 C   0  0  0  0  0  0  0  0  0  0  0  0
  151.4137  143.7510  158.0181 C   0  0  0  0  0  0  0  0  0  0  0  0
  151.7259  144.7793  158.9300 C   0  0  0  0  0  0  0  0  0  0  0  0
  152.3058  144.5562  160.1291 N   0  0  0  0  0  0  0  0  0  0  0  0
  152.5967  143.2801  160.4621 C   0  0  0  0  0  0  0  0  0  0  0  0
  152.3245  142.1798  159.6244 C   0  0  0  0  0  0  0  0  0  0  0  0
  147.7647  140.0705  154.6554 N   0  0  0  0  0  0  0  0  0  0  0  0
  147.6443  138.8426  155.4582 C   0  0  0  0  0  0  0  0  0  0  0  0
  147.8930  137.6137  154.5585 C   0  0  0  0  0  0  0  0  0  0  0  0
  146.9806  137.5819  153.3760 N   0  3  0  0  0  0  0  0  0  0  0  0
  145.5933  137.1163  153.6996 C   0  0  2  0  0  0  0  0  0  0  0  0
  145.5376  135.6172  154.1035 C   0  0  0  0  0  0  0  0  0  0  0  0
  144.4518  135.0306  153.1883 C   0  0  1  0  0  0  0  0  0  0  0  0
  143.0762  135.5987  153.5772 C   0  0  0  0  0  0  0  0  0  0  0  0
  143.1586  137.0486  153.0690 C   0  0  0  0  0  0  0  0  0  0  0  0
  144.5915  137.1363  152.5080 C   0  0  2  0  0  0  0  0  0  0  0  0
  144.7497  135.7544  151.8838 C   0  0  0  0  0  0  0  0  0  0  0  0
  147.0520  138.8755  152.6349 C   0  0  0  0  0  0  0  0  0  0  0  0
  146.7938  140.0848  153.5551 C   0  0  0  0  0  0  0  0  0  0  0  0
  149.4419  140.0354  156.3932 H   0  0  0  0  0  0  0  0  0  0  0  0
  151.3424  141.8551  155.3323 H   0  0  0  0  0  0  0  0  0  0  0  0
  150.2289  142.7424  156.3476 H   0  0  0  0  0  0  0  0  0  0  0  0
  150.8038  140.5307  157.9581 H   0  0  0  0  0  0  0  0  0  0  0  0
  152.3342  140.7866  157.1568 H   0  0  0  0  0  0  0  0  0  0  0  0
  150.9482  143.9803  157.0704 H   0  0  0  0  0  0  0  0  0  0  0  0
  151.5034  145.8084  158.6895 H   0  0  0  0  0  0  0  0  0  0  0  0
  153.0595  143.1308  161.4263 H   0  0  0  0  0  0  0  0  0  0  0  0
  152.5754  141.1774  159.9385 H   0  0  0  0  0  0  0  0  0  0  0  0
  148.3234  138.7997  156.3093 H   0  0  0  0  0  0  0  0  0  0  0  0
  146.6444  138.8020  155.8917 H   0  0  0  0  0  0  0  0  0  0  0  0
  148.9182  137.6507  154.1873 H   0  0  0  0  0  0  0  0  0  0  0  0
  147.8344  136.7036  155.1522 H   0  0  0  0  0  0  0  0  0  0  0  0
  145.2043  137.7321  154.5110 H   0  0  0  0  0  0  0  0  0  0  0  0
  146.4740  135.0989  153.8945 H   0  0  0  0  0  0  0  0  0  0  0  0
  145.3111  135.4804  155.1615 H   0  0  0  0  0  0  0  0  0  0  0  0
  144.4744  133.9422  153.1265 H   0  0  0  0  0  0  0  0  0  0  0  0
  142.2730  135.0601  153.0725 H   0  0  0  0  0  0  0  0  0  0  0  0
  142.8956  135.5427  154.6514 H   0  0  0  0  0  0  0  0  0  0  0  0
  142.4255  137.2160  152.2788 H   0  0  0  0  0  0  0  0  0  0  0  0
  142.9691  137.7798  153.8556 H   0  0  0  0  0  0  0  0  0  0  0  0
  144.6890  137.9563  151.8014 H   0  0  0  0  0  0  0  0  0  0  0  0
  145.7533  135.5642  151.4989 H   0  0  0  0  0  0  0  0  0  0  0  0
  144.0200  135.5468  151.0990 H   0  0  0  0  0  0  0  0  0  0  0  0
  148.0573  138.9618  152.2197 H   0  0  0  0  0  0  0  0  0  0  0  0
  146.3929  138.9071  151.7722 H   0  0  0  0  0  0  0  0  0  0  0  0
  145.7837  140.0501  153.9644 H   0  0  0  0  0  0  0  0  0  0  0  0
  146.8359  141.0010  152.9645 H   0  0  0  0  0  0  0  0  0  0  0  0
  147.3519  136.8800  152.7517 H   0  0  0  0  0  0  0  0  0  0  0  0
  1  2  2  0  0  0  0
  2  3  1  0  0  0  0
  2 12  1  0  0  0  0
  3  4  1  0  0  0  0
  3 25  1  0  0  0  0
  4  5  1  0  0  0  0
  4 26  1  0  0  0  0
  4 27  1  0  0  0  0
  5  6  1  0  0  0  0
  5 28  1  0  0  0  0
  5 29  1  0  0  0  0
  6 11  1  0  0  0  0
  6  7  2  0  0  0  0
  7  8  1  0  0  0  0
  7 30  1  0  0  0  0
  8  9  2  0  0  0  0
  8 31  1  0  0  0  0
  9 10  1  0  0  0  0
 10 11  2  0  0  0  0
 10 32  1  0  0  0  0
 11 33  1  0  0  0  0
 12 24  1  0  0  0  0
 12 13  1  0  0  0  0
 13 14  1  0  0  0  0
 13 34  1  0  0  0  0
 13 35  1  0  0  0  0
 14 15  1  0  0  0  0
 14 36  1  0  0  0  0
 14 37  1  0  0  0  0
 15 16  1  0  0  0  0
 15 23  1  0  0  0  0
 15 53  1  0  0  0  0
 16 21  1  0  0  0  0
 16 17  1  0  0  0  0
 16 38  1  0  0  0  0
 17 18  1  0  0  0  0
 17 39  1  0  0  0  0
 17 40  1  0  0  0  0
 18 22  1  0  0  0  0
 18 19  1  0  0  0  0
 18 41  1  0  0  0  0
 19 20  1  0  0  0  0
 19 42  1  0  0  0  0
 19 43  1  0  0  0  0
 20 21  1  0  0  0  0
 20 44  1  0  0  0  0
 20 45  1  0  0  0  0
 21 22  1  0  0  0  0
 21 46  1  0  0  0  0
 22 47  1  0  0  0  0
 22 48  1  0  0  0  0
 23 24  1  0  0  0  0
 23 49  1  0  0  0  0
 23 50  1  0  0  0  0
 24 51  1  0  0  0  0
 24 52  1  0  0  0  0
M  CHG  1  15   1
M  END
> <s_m_source_file>
AV-unprocessed.smi

> <i_m_source_file_index>
2895

> <i_lp_mmshare_version>
43012

> <i_f3d_flags>
0

> <s_epik_input>
W0NIMl0xW0NIMl1bQ0BASF0oW0NIMl0yKVtDQEBIXShbQ0gyXVtDQEhdMTIpTihbQ0gyXVtDSDJdMylbQ0gyXVtDSDJdTjNDKD1PKVtOSF1bQ0gyXVtDSDJdYzRbY0hdW2NIXW5bY0hdW2NIXTQ=

> <s_epik_cmdline>
J2VwaWtfcHl0aG9uJywgJy1waCcsICc3LjAnLCAnLXRuJywgJzgnLCAnLW1hJywgJzIwMCcsICctbWV0YWxfYmluZGluZycsICctaW1hZScsICc8aW5maWxlLm1hZT4nLCAnLW9tYWUnLCAnPG91dGZpbGUubWFlPic=

> <r_epik_Ionization_Penalty>
0.0566172

> <r_epik_Ionization_Penalty_Charging>
0.00262064

> <r_epik_Ionization_Penalty_Neutral>
0.0539965

> <r_epik_State_Penalty>
0.0463959

> <r_epik_Charging_Adjusted_Penalty>
0.0490165

> <i_epik_Tot_Q>
1

> <i_epik_Tot_abs_Q>
1

> <r_epik_Metal_State_Penalty>
0.0424856

> <b_epik_Metal_Only>
0

> <s_lp_Force_Field>
OPLS_2005

> <r_lp_Energy>
100.404

> <b_lp_Chiralities_Consistent>
1

> <s_lp_Variant>
AV-unprocessed.smi:2895-3

> <Gold.Version>
5.8.1

> <Gold.Id.Protein>
6NUR|6NUR_protein|mol2

> <Gold.PLP.Fitness>
46.9625

> <Gold.PLP.PLP>
-41.0896

> <Gold.PLP.part.hbond>
-2.0000

> <Gold.PLP.part.metal>
0.0000

> <Gold.PLP.part.buried>
-4.2178

> <Gold.PLP.part.nonpolar>
-36.1166

> <Gold.PLP.part.repulsive>
0.3744

> <Gold.PLP.ligand.clash>
0.0000

> <Gold.PLP.ligand.torsion>
0.4351

> <Gold.PLP.Chemscore.Hbond>
2.2240

> <Gold.PLP.Chemscore.CHOScore>
0.0000

> <Gold.PLP.Chemscore.Metal>
0.0000

> <Gold.Chemscore.Hbonds>
donor molecule, donor type, donor heavy atom, donor atom, acceptor molecule, acceptor atom, score
      L1  H    15    53       P1  7948  1.79
      P1  H  8011  8017       L1     1  0.40

> <Gold.PLP.Chemscore.Internal.Correction>
0.0710

> <Gold.Rescore>
     Score         DG    S(hbond)    S(metal)    S(lipo)     H(rot)  DE(clash)    DE(int)     intcor
     18.96     -19.48       1.33        0.00     111.68       1.37       0.02       0.50       ----

> <Gold.Chemscore.Fitness>
18.9605

> <Gold.Chemscore.DG>
-19.4848

> <Gold.Chemscore.ZeroCoef>
-5.4800

> <Gold.Chemscore.Hbond>
1.3333

> <Gold.Chemscore.Metal>
0.0000

> <Gold.Chemscore.Lipo>
111.6810

> <Gold.Chemscore.Internal_Hbond>
0.0000

> <Gold.Chemscore.DEClash>
0.0195

> <Gold.Chemscore.DEInternal>
0.5049

> <Gold.Chemscore.Rot>
1.3731

> <Gold.Chemscore.Internal.Correction>
   9.000000E+99

> <Gold.Chemscore.Hbonds>
donor molecule, donor type, donor heavy atom, donor atom, acceptor molecule, acceptor atom, score
      L1  H    15    53       P1  7948  0.87
      P1  H  8011  8017       L1     1  0.38

> <Gold.Chemscore.Hbond.Weighted>
-4.4533

> <Gold.Chemscore.Metal.Weighted>
-0.0000

> <Gold.Chemscore.Lipo.Weighted>
-13.0667

> <Gold.Chemscore.Internal_Hbond.Weighted>
0.0000

> <Gold.Chemscore.DEClash.Weighted>
0.0195

> <Gold.Chemscore.DEInternal.Weighted>
0.5049

> <Gold.Chemscore.Rot.Weighted>
3.5152

> <Gold.Chemscore.Internal.Correction.Weighted>
   9.000000E+99

> <Gold.Protein.RotatedTorsions>
[ 6907 6896 6895 6894 ] final  -17.27 input  -60.11 | X-H torsion
[ 7974 7965 7964 7962 ] final  127.85 input  175.53 | X-H torsion
[ 8008 7997 7996 7995 ] final  155.79 input   59.86 | X-H torsion
[ 10167 10162 10161 10158 ] final  105.91 input  -65.29 | X-H torsion
[ 10718 10713 10712 10709 ] final   37.12 input   66.30 | X-H torsion
[ 10763 10752 10751 10750 ] final   -1.00 input  -60.55 | X-H torsion
[ 11005 11000 10999 10996 ] final  -90.69 input  -57.11 | X-H torsion

> <Gold.Protein.ActiveResidues>
 VAL166  LYS551  ARG553  GLY616  TRP617  ASP618  TYR619  PRO620  LYS621  CYS622 
 ASP623  PHE694  ASN695  SER759  ASP760  ASP761  ALA762  ILE779  LEU786  VAL792 
 PHE793  MET794  SER795  GLU796  ALA797  LYS798  CYS799  TRP800  GLU811  SER814 

> <Gold.Protein.RotatedAtoms>
  151.2958  135.0755  159.9220 H   0  0  0  0  0  0  0  0  0  0  0  0  # atno 6907 bound_to 6896
  152.5307  133.9884  159.7849 H   0  0  0  0  0  0  0  0  0  0  0  0  # atno 6908 bound_to 6896
  151.0162  133.5868  159.2707 H   0  0  0  0  0  0  0  0  0  0  0  0  # atno 6909 bound_to 6896
  145.0461  139.3922  143.5078 H   0  0  0  0  0  0  0  0  0  0  0  0  # atno 7974 bound_to 7965
  156.2459  140.1930  156.6855 H   0  0  0  0  0  0  0  0  0  0  0  0  # atno 8008 bound_to 7997
  154.6290  140.0598  156.9735 H   0  0  0  0  0  0  0  0  0  0  0  0  # atno 8009 bound_to 7997
  155.1741  140.3271  155.4390 H   0  0  0  0  0  0  0  0  0  0  0  0  # atno 8010 bound_to 7997
  139.7053  144.7087  151.1116 H   0  0  0  0  0  0  0  0  0  0  0  0  # atno 10167 bound_to 10162
  157.3431  130.7558  149.6925 H   0  0  0  0  0  0  0  0  0  0  0  0  # atno 10718 bound_to 10713
  153.3391  135.6979  153.6882 H   0  0  0  0  0  0  0  0  0  0  0  0  # atno 10763 bound_to 10752
  153.5654  135.3526  155.2817 H   0  0  0  0  0  0  0  0  0  0  0  0  # atno 10764 bound_to 10752
  154.8633  135.4259  154.2599 H   0  0  0  0  0  0  0  0  0  0  0  0  # atno 10765 bound_to 10752
  141.1560  133.7708  156.9773 H   0  0  0  0  0  0  0  0  0  0  0  0  # atno 11005 bound_to 11000
  146.3514  140.0086  142.8669 LP  0  0  0  0  0  0  0  0  0  0  0  0  # atno 17320 bound_to 7965
  145.1587  140.9661  143.4390 LP  0  0  0  0  0  0  0  0  0  0  0  0  # atno 17321 bound_to 7965
  140.7720  143.5367  150.9360 LP  0  0  0  0  0  0  0  0  0  0  0  0  # atno 17342 bound_to 10162
  139.9050  143.6790  152.3125 LP  0  0  0  0  0  0  0  0  0  0  0  0  # atno 17343 bound_to 10162
  155.9710  130.4162  150.4219 LP  0  0  0  0  0  0  0  0  0  0  0  0  # atno 17370 bound_to 10713
  157.2270  131.0495  151.2514 LP  0  0  0  0  0  0  0  0  0  0  0  0  # atno 17371 bound_to 10713
  140.1089  134.9489  157.2035 LP  0  0  0  0  0  0  0  0  0  0  0  0  # atno 17394 bound_to 11000
  140.3220  134.2906  155.7244 LP  0  0  0  0  0  0  0  0  0  0  0  0  # atno 17395 bound_to 11000

$$$$
