AV-unprocessed.smi:1705|AV-procd|sdf|6883|dock4
  -GOLD-   22720 8 93D 1   1.00000     0.00000
 Structure written by MMmdl.
 38 39  0  0  0  0  0  0  0  0  1 V2000
  152.3280  139.0012  155.1498 C   0  0  0  0  0  0  0  0  0  0  0  0
  151.2764  139.1165  156.2632 C   0  0  1  0  0  0  0  0  0  0  0  0
  151.8506  139.7889  157.4206 N   0  0  0  0  0  0  0  0  0  0  0  0
  152.5818  139.2195  158.4598 C   0  0  0  0  0  0  0  0  0  0  0  0
  152.8597  137.8852  158.5045 C   0  0  0  0  0  0  0  0  0  0  0  0
  152.4800  136.9583  157.4850 C   0  0  0  0  0  0  0  0  0  0  0  0
  152.2055  136.1981  156.6556 N   0  0  0  0  0  0  0  0  0  0  0  0
  153.6183  137.2879  159.6017 C   0  0  0  0  0  0  0  0  0  0  0  0
  153.8780  136.0847  159.6816 O   0  0  0  0  0  0  0  0  0  0  0  0
  154.0399  138.1957  160.5936 N   0  0  0  0  0  0  0  0  0  0  0  0
  154.7853  137.6377  161.7051 C   0  0  0  0  0  0  0  0  0  0  0  0
  153.7615  139.5778  160.5762 C   0  0  0  0  0  0  0  0  0  0  0  0
  154.1306  140.3254  161.4872 O   0  0  0  0  0  0  0  0  0  0  0  0
  153.0325  140.0770  159.4689 N   0  0  0  0  0  0  0  0  0  0  0  0
  152.7905  141.5059  159.5061 C   0  0  0  0  0  0  0  0  0  0  0  0
  150.0198  139.8659  155.7834 C   0  0  2  0  0  0  0  0  0  0  0  0
  149.1364  139.0673  154.8231 C   0  0  0  0  0  0  0  0  0  0  0  0
  148.3984  140.1405  154.0390 C   0  0  0  0  0  0  0  0  0  0  0  0
  149.2042  141.4152  154.3036 C   0  0  0  0  0  0  0  0  0  0  0  0
  150.3744  140.9835  154.9841 O   0  0  0  0  0  0  0  0  0  0  0  0
  151.9381  138.4477  154.2953 H   0  0  0  0  0  0  0  0  0  0  0  0
  153.2199  138.4800  155.4974 H   0  0  0  0  0  0  0  0  0  0  0  0
  152.6382  139.9847  154.7953 H   0  0  0  0  0  0  0  0  0  0  0  0
  150.9645  138.1132  156.5505 H   0  0  0  0  0  0  0  0  0  0  0  0
  151.3180  140.6043  157.6883 H   0  0  0  0  0  0  0  0  0  0  0  0
  155.2171  138.4201  162.3284 H   0  0  0  0  0  0  0  0  0  0  0  0
  155.5955  137.0328  161.2928 H   0  0  0  0  0  0  0  0  0  0  0  0
  154.0882  137.0287  162.2828 H   0  0  0  0  0  0  0  0  0  0  0  0
  152.1457  141.7031  160.3644 H   0  0  0  0  0  0  0  0  0  0  0  0
  152.3076  141.8404  158.5909 H   0  0  0  0  0  0  0  0  0  0  0  0
  153.7565  142.0054  159.6014 H   0  0  0  0  0  0  0  0  0  0  0  0
  149.4289  140.2118  156.6342 H   0  0  0  0  0  0  0  0  0  0  0  0
  149.7541  138.4781  154.1439 H   0  0  0  0  0  0  0  0  0  0  0  0
  148.4623  138.3838  155.3397 H   0  0  0  0  0  0  0  0  0  0  0  0
  148.3631  139.8945  152.9772 H   0  0  0  0  0  0  0  0  0  0  0  0
  147.3732  140.2564  154.3918 H   0  0  0  0  0  0  0  0  0  0  0  0
  149.4599  141.9468  153.3868 H   0  0  0  0  0  0  0  0  0  0  0  0
  148.6445  142.0955  154.9470 H   0  0  0  0  0  0  0  0  0  0  0  0
  1  2  1  0  0  0  0
  1 21  1  0  0  0  0
  1 22  1  0  0  0  0
  1 23  1  0  0  0  0
  2  3  1  0  0  0  0
  2 16  1  0  0  0  0
  2 24  1  0  0  0  0
  3  4  1  0  0  0  0
  3 25  1  0  0  0  0
  4 14  1  0  0  0  0
  4  5  2  0  0  0  0
  5  6  1  0  0  0  0
  5  8  1  0  0  0  0
  6  7  3  0  0  0  0
  8  9  2  0  0  0  0
  8 10  1  0  0  0  0
 10 11  1  0  0  0  0
 10 12  1  0  0  0  0
 11 26  1  0  0  0  0
 11 27  1  0  0  0  0
 11 28  1  0  0  0  0
 12 13  2  0  0  0  0
 12 14  1  0  0  0  0
 14 15  1  0  0  0  0
 15 29  1  0  0  0  0
 15 30  1  0  0  0  0
 15 31  1  0  0  0  0
 16 20  1  0  0  0  0
 16 17  1  0  0  0  0
 16 32  1  0  0  0  0
 17 18  1  0  0  0  0
 17 33  1  0  0  0  0
 17 34  1  0  0  0  0
 18 19  1  0  0  0  0
 18 35  1  0  0  0  0
 18 36  1  0  0  0  0
 19 20  1  0  0  0  0
 19 37  1  0  0  0  0
 19 38  1  0  0  0  0
M  END
> <s_m_source_file>
AV-unprocessed.smi

> <i_m_source_file_index>
1705

> <i_lp_mmshare_version>
43012

> <i_f3d_flags>
0

> <s_epik_input>
TzFbQ0gyXVtDSDJdW0NIMl1bQ0BIXTFbQ0BIXShbQ0gzXSlbTkhdYzJjKEMjTiljKD1PKW4oW0NIM10pYyg9TyluMltDSDNd

> <s_epik_cmdline>
J2VwaWtfcHl0aG9uJywgJy1waCcsICc3LjAnLCAnLXRuJywgJzgnLCAnLW1hJywgJzIwMCcsICctbWV0YWxfYmluZGluZycsICctaW1hZScsICc8aW5maWxlLm1hZT4nLCAnLW9tYWUnLCAnPG91dGZpbGUubWFlPic=

> <r_epik_Ionization_Penalty>
0.000446268

> <r_epik_Ionization_Penalty_Charging>
9.41922e-10

> <r_epik_Ionization_Penalty_Neutral>
0.000446267

> <r_epik_State_Penalty>
0.000275531

> <r_epik_Charging_Adjusted_Penalty>
0.000275532

> <i_epik_Tot_Q>
0

> <i_epik_Tot_abs_Q>
0

> <r_epik_Metal_State_Penalty>
-0

> <b_epik_Metal_Only>
0

> <s_lp_Force_Field>
OPLS_2005

> <r_lp_Energy>
36.9916

> <b_lp_Chiralities_Consistent>
1

> <s_lp_Variant>
AV-unprocessed.smi:1705-2

> <Gold.Version>
5.8.1

> <Gold.Id.Protein>
6NUR|6NUR_protein|mol2

> <Gold.PLP.Fitness>
36.2450

> <Gold.PLP.PLP>
-29.2494

> <Gold.PLP.part.hbond>
-3.0000

> <Gold.PLP.part.metal>
0.0000

> <Gold.PLP.part.buried>
-2.7265

> <Gold.PLP.part.nonpolar>
-22.7577

> <Gold.PLP.part.repulsive>
0.1682

> <Gold.PLP.ligand.clash>
7.7832

> <Gold.PLP.ligand.torsion>
0.6440

> <Gold.PLP.Chemscore.Hbond>
2.7520

> <Gold.PLP.Chemscore.CHOScore>
0.0000

> <Gold.PLP.Chemscore.Metal>
0.0000

> <Gold.Chemscore.Hbonds>
donor molecule, donor type, donor heavy atom, donor atom, acceptor molecule, acceptor atom, score
      P1  H  6896  6907       L1     9  0.94
      P1  H  7989  7998       L1    20  0.72
      P1  H 10752 10765       L1     7  1.00

> <Gold.PLP.Chemscore.Internal.Correction>
7.8108

> <Gold.Rescore>
     Score         DG    S(hbond)    S(metal)    S(lipo)     H(rot)  DE(clash)    DE(int)     intcor
     14.44     -17.17       2.52        0.00      55.94       1.28       0.02       2.71       ----

> <Gold.Chemscore.Fitness>
14.4446

> <Gold.Chemscore.DG>
-17.1719

> <Gold.Chemscore.ZeroCoef>
-5.4800

> <Gold.Chemscore.Hbond>
2.5204

> <Gold.Chemscore.Metal>
0.0000

> <Gold.Chemscore.Lipo>
55.9429

> <Gold.Chemscore.Internal_Hbond>
0.0000

> <Gold.Chemscore.DEClash>
0.0178

> <Gold.Chemscore.DEInternal>
2.7096

> <Gold.Chemscore.Rot>
1.2780

> <Gold.Chemscore.Internal.Correction>
   9.000000E+99

> <Gold.Chemscore.Hbonds>
donor molecule, donor type, donor heavy atom, donor atom, acceptor molecule, acceptor atom, score
      P1  H  6896  6907       L1     9  0.89
      P1  H  7989  7998       L1    20  0.18
      P1  H 10752 10765       L1     7  0.93

> <Gold.Chemscore.Hbond.Weighted>
-8.4183

> <Gold.Chemscore.Metal.Weighted>
-0.0000

> <Gold.Chemscore.Lipo.Weighted>
-6.5453

> <Gold.Chemscore.Internal_Hbond.Weighted>
0.0000

> <Gold.Chemscore.DEClash.Weighted>
0.0178

> <Gold.Chemscore.DEInternal.Weighted>
2.7096

> <Gold.Chemscore.Rot.Weighted>
3.2717

> <Gold.Chemscore.Internal.Correction.Weighted>
   9.000000E+99

> <Gold.Protein.RotatedTorsions>
[ 6907 6896 6895 6894 ] final   66.42 input  -60.11 | X-H torsion
[ 7974 7965 7964 7962 ] final   30.52 input  175.53 | X-H torsion
[ 8008 7997 7996 7995 ] final  111.26 input   59.86 | X-H torsion
[ 10167 10162 10161 10158 ] final -102.61 input  -65.29 | X-H torsion
[ 10718 10713 10712 10709 ] final   48.87 input   66.30 | X-H torsion
[ 10763 10752 10751 10750 ] final -124.65 input  -60.55 | X-H torsion
[ 11005 11000 10999 10996 ] final  -11.09 input  -57.11 | X-H torsion

> <Gold.Protein.ActiveResidues>
 VAL166  LYS551  ARG553  GLY616  TRP617  ASP618  TYR619  PRO620  LYS621  CYS622 
 ASP623  PHE694  ASN695  SER759  ASP760  ASP761  ALA762  ILE779  LEU786  VAL792 
 PHE793  MET794  SER795  GLU796  ALA797  LYS798  CYS799  TRP800  GLU811  SER814 

> <Gold.Protein.RotatedAtoms>
  152.4480  134.5454  159.9851 H   0  0  0  0  0  0  0  0  0  0  0  0  # atno 6907 bound_to 6896
  151.5534  133.3408  159.2965 H   0  0  0  0  0  0  0  0  0  0  0  0  # atno 6908 bound_to 6896
  150.8401  134.7722  159.6988 H   0  0  0  0  0  0  0  0  0  0  0  0  # atno 6909 bound_to 6896
  146.1607  139.6778  142.9036 H   0  0  0  0  0  0  0  0  0  0  0  0  # atno 7974 bound_to 7965
  156.2111  140.3023  155.9735 H   0  0  0  0  0  0  0  0  0  0  0  0  # atno 8008 bound_to 7997
  155.2721  140.0434  157.3025 H   0  0  0  0  0  0  0  0  0  0  0  0  # atno 8009 bound_to 7997
  154.5701  140.2345  155.8213 H   0  0  0  0  0  0  0  0  0  0  0  0  # atno 8010 bound_to 7997
  140.2288  143.3622  152.0905 H   0  0  0  0  0  0  0  0  0  0  0  0  # atno 10167 bound_to 10162
  157.4730  130.8267  149.8008 H   0  0  0  0  0  0  0  0  0  0  0  0  # atno 10718 bound_to 10713
  154.8726  135.4056  154.3140 H   0  0  0  0  0  0  0  0  0  0  0  0  # atno 10763 bound_to 10752
  153.3979  135.7017  153.6453 H   0  0  0  0  0  0  0  0  0  0  0  0  # atno 10764 bound_to 10752
  153.5208  135.3688  155.2602 H   0  0  0  0  0  0  0  0  0  0  0  0  # atno 10765 bound_to 10752
  140.7516  133.8588  155.9049 H   0  0  0  0  0  0  0  0  0  0  0  0  # atno 11005 bound_to 11000
  145.4596  141.0432  143.2759 LP  0  0  0  0  0  0  0  0  0  0  0  0  # atno 17320 bound_to 7965
  144.8023  139.6118  143.7066 LP  0  0  0  0  0  0  0  0  0  0  0  0  # atno 17321 bound_to 7965
  139.5117  144.6905  151.5771 LP  0  0  0  0  0  0  0  0  0  0  0  0  # atno 17342 bound_to 10162
  140.6201  143.9275  150.6519 LP  0  0  0  0  0  0  0  0  0  0  0  0  # atno 17343 bound_to 10162
  156.0083  130.3845  150.2354 LP  0  0  0  0  0  0  0  0  0  0  0  0  # atno 17370 bound_to 10713
  157.0537  131.0070  151.3245 LP  0  0  0  0  0  0  0  0  0  0  0  0  # atno 17371 bound_to 10713
  140.9746  134.1486  157.4547 LP  0  0  0  0  0  0  0  0  0  0  0  0  # atno 17394 bound_to 11000
  139.8786  134.9990  156.5931 LP  0  0  0  0  0  0  0  0  0  0  0  0  # atno 17395 bound_to 11000

$$$$
