AV-unprocessed.smi:928|AV-procd|sdf|4192|dock1
  -GOLD-   22720 2 93D 1   1.00000     0.00000
 Structure written by MMmdl.
 43 44  0  0  0  0  0  0  0  0  1 V2000
  152.3815  142.0613  158.8553 C   0  0  0  0  0  0  0  0  0  0  0  0
  150.9769  142.2909  158.2841 C   0  0  0  0  0  0  0  0  0  0  0  0
  150.6714  141.4043  157.1231 C   0  0  0  0  0  0  0  0  0  0  0  0
  150.4782  141.7713  155.8140 C   0  0  0  0  0  0  0  0  0  0  0  0
  150.2681  140.6943  154.9499 N   0  0  0  0  0  0  0  0  0  0  0  0
  150.2969  139.5201  155.5841 C   0  0  0  0  0  0  0  0  0  0  0  0
  150.2312  138.2016  154.8813 C   0  0  0  0  0  0  0  0  0  0  0  0
  149.0493  137.3135  155.3272 C   0  0  0  0  0  0  0  0  0  0  0  0
  148.6262  136.3794  154.2847 N   0  0  0  0  0  0  0  0  0  0  0  0
  147.5627  135.5654  154.3615 C   0  0  0  0  0  0  0  0  0  0  0  0
  146.8688  135.4263  155.3688 O   0  0  0  0  0  0  0  0  0  0  0  0
  147.3091  134.9667  153.1903 N   0  0  0  0  0  0  0  0  0  0  0  0
  146.1283  134.1545  152.9062 C   0  0  1  0  0  0  0  0  0  0  0  0
  145.2044  134.8758  151.9070 C   0  0  0  0  0  0  0  0  0  0  0  0
  143.9424  134.0446  151.6269 C   0  0  0  0  0  0  0  0  0  0  0  0
  144.3022  132.6377  151.1226 C   0  0  0  0  0  0  0  0  0  0  0  0
  145.2424  131.9092  152.1011 C   0  0  0  0  0  0  0  0  0  0  0  0
  146.5048  132.7336  152.4223 C   0  0  1  0  0  0  0  0  0  0  0  0
  147.3247  132.7951  151.2700 O   0  0  0  0  0  0  0  0  0  0  0  0
  150.5416  139.6766  157.3210 S   0  0  0  0  0  0  0  0  0  0  0  0
  152.5756  142.7320  159.6923 H   0  0  0  0  0  0  0  0  0  0  0  0
  153.1470  142.2402  158.0996 H   0  0  0  0  0  0  0  0  0  0  0  0
  152.5004  141.0386  159.2142 H   0  0  0  0  0  0  0  0  0  0  0  0
  150.2362  142.1299  159.0679 H   0  0  0  0  0  0  0  0  0  0  0  0
  150.8773  143.3342  157.9829 H   0  0  0  0  0  0  0  0  0  0  0  0
  150.4997  142.7711  155.4063 H   0  0  0  0  0  0  0  0  0  0  0  0
  150.1631  138.3898  153.8093 H   0  0  0  0  0  0  0  0  0  0  0  0
  151.1714  137.6725  155.0401 H   0  0  0  0  0  0  0  0  0  0  0  0
  149.3359  136.7379  156.2073 H   0  0  0  0  0  0  0  0  0  0  0  0
  148.2114  137.9407  155.6365 H   0  0  0  0  0  0  0  0  0  0  0  0
  149.1319  136.4158  153.4118 H   0  0  0  0  0  0  0  0  0  0  0  0
  147.9356  135.1427  152.4186 H   0  0  0  0  0  0  0  0  0  0  0  0
  145.5655  134.0509  153.8365 H   0  0  0  0  0  0  0  0  0  0  0  0
  144.9181  135.8518  152.3010 H   0  0  0  0  0  0  0  0  0  0  0  0
  145.7342  135.0640  150.9721 H   0  0  0  0  0  0  0  0  0  0  0  0
  143.3481  133.9656  152.5384 H   0  0  0  0  0  0  0  0  0  0  0  0
  143.3170  134.5539  150.8934 H   0  0  0  0  0  0  0  0  0  0  0  0
  143.3939  132.0523  150.9780 H   0  0  0  0  0  0  0  0  0  0  0  0
  144.7770  132.7122  150.1435 H   0  0  0  0  0  0  0  0  0  0  0  0
  144.7027  131.7117  153.0282 H   0  0  0  0  0  0  0  0  0  0  0  0
  145.5199  130.9341  151.6987 H   0  0  0  0  0  0  0  0  0  0  0  0
  147.0728  132.2193  153.1984 H   0  0  0  0  0  0  0  0  0  0  0  0
  147.7508  131.9583  151.1643 H   0  0  0  0  0  0  0  0  0  0  0  0
  1  2  1  0  0  0  0
  1 21  1  0  0  0  0
  1 22  1  0  0  0  0
  1 23  1  0  0  0  0
  2  3  1  0  0  0  0
  2 24  1  0  0  0  0
  2 25  1  0  0  0  0
  3 20  1  0  0  0  0
  3  4  2  0  0  0  0
  4  5  1  0  0  0  0
  4 26  1  0  0  0  0
  5  6  2  0  0  0  0
  6  7  1  0  0  0  0
  6 20  1  0  0  0  0
  7  8  1  0  0  0  0
  7 27  1  0  0  0  0
  7 28  1  0  0  0  0
  8  9  1  0  0  0  0
  8 29  1  0  0  0  0
  8 30  1  0  0  0  0
  9 10  1  0  0  0  0
  9 31  1  0  0  0  0
 10 11  2  0  0  0  0
 10 12  1  0  0  0  0
 12 13  1  0  0  0  0
 12 32  1  0  0  0  0
 13 18  1  0  0  0  0
 13 14  1  0  0  0  0
 13 33  1  0  0  0  0
 14 15  1  0  0  0  0
 14 34  1  0  0  0  0
 14 35  1  0  0  0  0
 15 16  1  0  0  0  0
 15 36  1  0  0  0  0
 15 37  1  0  0  0  0
 16 17  1  0  0  0  0
 16 38  1  0  0  0  0
 16 39  1  0  0  0  0
 17 18  1  0  0  0  0
 17 40  1  0  0  0  0
 17 41  1  0  0  0  0
 18 19  1  0  0  0  0
 18 42  1  0  0  0  0
 19 43  1  0  0  0  0
M  END
> <s_m_source_file>
AV-unprocessed.smi

> <i_m_source_file_index>
928

> <i_lp_mmshare_version>
43012

> <i_f3d_flags>
0

> <s_epik_input>
W0NIM11bQ0gyXWMxW2NIXW5jKHMxKVtDSDJdW0NIMl1bTkhdQyg9TylbTkhdW0NAQEhdMltDSDJdW0NIMl1bQ0gyXVtDSDJdW0NASF0yW09IXQ==

> <s_epik_cmdline>
J2VwaWtfcHl0aG9uJywgJy1waCcsICc3LjAnLCAnLXRuJywgJzgnLCAnLW1hJywgJzIwMCcsICctbWV0YWxfYmluZGluZycsICctaW1hZScsICc8aW5maWxlLm1hZT4nLCAnLW9tYWUnLCAnPG91dGZpbGUubWFlPic=

> <r_epik_Ionization_Penalty>
0.000957396

> <r_epik_Ionization_Penalty_Charging>
0

> <r_epik_Ionization_Penalty_Neutral>
0.000957396

> <r_epik_State_Penalty>
0.000586538

> <r_epik_Charging_Adjusted_Penalty>
0.000586538

> <i_epik_Tot_Q>
0

> <i_epik_Tot_abs_Q>
0

> <r_epik_Metal_State_Penalty>
-0

> <b_epik_Metal_Only>
0

> <s_lp_Force_Field>
OPLS_2005

> <r_lp_Energy>
0.733769

> <b_lp_Chiralities_Consistent>
1

> <s_lp_Variant>
AV-unprocessed.smi:928-2

> <Gold.Version>
5.8.1

> <Gold.Id.Protein>
6NUR|6NUR_protein|mol2

> <Gold.PLP.Fitness>
42.3796

> <Gold.PLP.PLP>
-28.8858

> <Gold.PLP.part.hbond>
-3.4386

> <Gold.PLP.part.metal>
0.0000

> <Gold.PLP.part.buried>
-4.5204

> <Gold.PLP.part.nonpolar>
-21.5475

> <Gold.PLP.part.repulsive>
0.1330

> <Gold.PLP.ligand.clash>
0.0000

> <Gold.PLP.ligand.torsion>
0.2641

> <Gold.PLP.Chemscore.Hbond>
3.6560

> <Gold.PLP.Chemscore.CHOScore>
0.9909

> <Gold.PLP.Chemscore.Metal>
0.0000

> <Gold.Chemscore.Hbonds>
donor molecule, donor type, donor heavy atom, donor atom, acceptor molecule, acceptor atom, score
      L1  H     9    31       P1  7948  0.88
      L1  H    12    32       P1  7948  0.88
      L1  H    19    43       P1 10747  0.99
      P1  H  7989  7998       L1     5  0.86
      L1  C     4    26       P1  8028  0.99

> <Gold.PLP.Chemscore.Internal.Correction>
0.0810

> <Gold.Rescore>
     Score         DG    S(hbond)    S(metal)    S(lipo)     H(rot)  DE(clash)    DE(int)     intcor
     19.67     -20.21       3.41        0.00      76.83       2.21       0.14       0.41       ----

> <Gold.Chemscore.Fitness>
19.6669

> <Gold.Chemscore.DG>
-20.2086

> <Gold.Chemscore.ZeroCoef>
-5.4800

> <Gold.Chemscore.Hbond>
3.4112

> <Gold.Chemscore.Metal>
0.0000

> <Gold.Chemscore.Lipo>
76.8262

> <Gold.Chemscore.Internal_Hbond>
0.0000

> <Gold.Chemscore.DEClash>
0.1363

> <Gold.Chemscore.DEInternal>
0.4054

> <Gold.Chemscore.Rot>
2.2084

> <Gold.Chemscore.Internal.Correction>
   9.000000E+99

> <Gold.Chemscore.Hbonds>
donor molecule, donor type, donor heavy atom, donor atom, acceptor molecule, acceptor atom, score
      L1  H     9    31       P1  7948  0.81
      L1  H    12    32       P1  7948  0.78
      L1  H    19    43       P1 10747  0.94
      P1  H  7989  7998       L1     5  0.42

> <Gold.Chemscore.Hbond.Weighted>
-11.3935

> <Gold.Chemscore.Metal.Weighted>
-0.0000

> <Gold.Chemscore.Lipo.Weighted>
-8.9887

> <Gold.Chemscore.Internal_Hbond.Weighted>
0.0000

> <Gold.Chemscore.DEClash.Weighted>
0.1363

> <Gold.Chemscore.DEInternal.Weighted>
0.4054

> <Gold.Chemscore.Rot.Weighted>
5.6535

> <Gold.Chemscore.Internal.Correction.Weighted>
   9.000000E+99

> <Gold.Protein.RotatedTorsions>
[ 6907 6896 6895 6894 ] final   77.88 input  -60.11 | X-H torsion
[ 7974 7965 7964 7962 ] final   66.23 input  175.53 | X-H torsion
[ 8008 7997 7996 7995 ] final   43.28 input   59.86 | X-H torsion
[ 10167 10162 10161 10158 ] final  -42.84 input  -65.29 | X-H torsion
[ 10718 10713 10712 10709 ] final   17.93 input   66.30 | X-H torsion
[ 10763 10752 10751 10750 ] final  164.27 input  -60.55 | X-H torsion
[ 11005 11000 10999 10996 ] final   34.79 input  -57.11 | X-H torsion

> <Gold.Protein.ActiveResidues>
 VAL166  LYS551  ARG553  GLY616  TRP617  ASP618  TYR619  PRO620  LYS621  CYS622 
 ASP623  PHE694  ASN695  SER759  ASP760  ASP761  ALA762  ILE779  LEU786  VAL792 
 PHE793  MET794  SER795  GLU796  ALA797  LYS798  CYS799  TRP800  GLU811  SER814 

> <Gold.Protein.RotatedAtoms>
  152.5136  134.3750  159.9331 H   0  0  0  0  0  0  0  0  0  0  0  0  # atno 6907 bound_to 6896
  151.3705  133.3850  159.2707 H   0  0  0  0  0  0  0  0  0  0  0  0  # atno 6908 bound_to 6896
  150.9581  134.8992  159.7772 H   0  0  0  0  0  0  0  0  0  0  0  0  # atno 6909 bound_to 6896
  145.8291  139.3128  143.0998 H   0  0  0  0  0  0  0  0  0  0  0  0  # atno 7974 bound_to 7965
  155.3001  140.3384  155.4248 H   0  0  0  0  0  0  0  0  0  0  0  0  # atno 8008 bound_to 7997
  156.2005  140.1731  156.7948 H   0  0  0  0  0  0  0  0  0  0  0  0  # atno 8009 bound_to 7997
  154.5553  140.0697  156.8717 H   0  0  0  0  0  0  0  0  0  0  0  0  # atno 8010 bound_to 7997
  140.6955  143.3016  151.3266 H   0  0  0  0  0  0  0  0  0  0  0  0  # atno 10167 bound_to 10162
  157.0892  130.6420  149.5844 H   0  0  0  0  0  0  0  0  0  0  0  0  # atno 10718 bound_to 10713
  154.3063  135.2758  155.2587 H   0  0  0  0  0  0  0  0  0  0  0  0  # atno 10763 bound_to 10752
  154.5002  135.5810  153.6528 H   0  0  0  0  0  0  0  0  0  0  0  0  # atno 10764 bound_to 10752
  152.9894  135.6156  154.3237 H   0  0  0  0  0  0  0  0  0  0  0  0  # atno 10765 bound_to 10752
  140.2492  134.3323  155.7896 H   0  0  0  0  0  0  0  0  0  0  0  0  # atno 11005 bound_to 11000
  145.9591  140.8850  143.0220 LP  0  0  0  0  0  0  0  0  0  0  0  0  # atno 17320 bound_to 7965
  144.6741  140.1787  143.7408 LP  0  0  0  0  0  0  0  0  0  0  0  0  # atno 17321 bound_to 7965
  139.6406  144.0547  152.2551 LP  0  0  0  0  0  0  0  0  0  0  0  0  # atno 17342 bound_to 10162
  140.0051  144.6265  150.7695 LP  0  0  0  0  0  0  0  0  0  0  0  0  # atno 17343 bound_to 10162
  155.9902  130.4953  150.7249 LP  0  0  0  0  0  0  0  0  0  0  0  0  # atno 17370 bound_to 10713
  157.4735  131.0895  151.0615 LP  0  0  0  0  0  0  0  0  0  0  0  0  # atno 17371 bound_to 10713
  141.2203  133.7344  156.9010 LP  0  0  0  0  0  0  0  0  0  0  0  0  # atno 17394 bound_to 11000
  140.1575  134.9188  157.2672 LP  0  0  0  0  0  0  0  0  0  0  0  0  # atno 17395 bound_to 11000

$$$$
