AV-unprocessed.smi:958|AV-procd|sdf|4267|dock1
  -GOLD-   22720 2173D 1   1.00000     0.00000
 Structure written by MMmdl.
 31 33  0  0  0  0  0  0  0  0  2 V2000
  153.8346  141.2428  160.0223 C   0  0  0  0  0  0  0  0  0  0  0  0
  154.3388  140.2234  159.3292 N   0  0  0  0  0  0  0  0  0  0  0  0
  153.4169  139.9954  158.3292 N   0  0  0  0  0  0  0  0  0  0  0  0
  152.4441  140.8967  158.5181 C   0  0  0  0  0  0  0  0  0  0  0  0
  151.2175  140.9783  157.6531 C   0  0  2  0  0  0  0  0  0  0  0  0
  151.2419  139.9375  156.5172 C   0  0  0  0  0  0  0  0  0  0  0  0
  149.9865  140.0651  155.6408 C   0  0  0  0  0  0  0  0  0  0  0  0
  149.8227  141.5034  155.1224 C   0  0  0  0  0  0  0  0  0  0  0  0
  149.7928  142.4628  156.2475 N   0  3  0  0  0  0  0  0  0  0  0  0
  151.0060  142.3998  157.0921 C   0  0  0  0  0  0  0  0  0  0  0  0
  152.6715  141.7273  159.5588 N   0  0  0  0  0  0  0  0  0  0  0  0
  151.8567  142.7995  160.1059 C   0  0  0  0  0  0  0  0  0  0  0  0
  152.4645  144.1773  159.9733 C   0  0  0  0  0  0  0  0  0  0  0  0
  152.4408  143.4879  161.3194 C   0  0  0  0  0  0  0  0  0  0  0  0
  154.3303  141.6486  160.8919 H   0  0  0  0  0  0  0  0  0  0  0  0
  150.3501  140.7459  158.2708 H   0  0  0  0  0  0  0  0  0  0  0  0
  152.1295  140.0786  155.8987 H   0  0  0  0  0  0  0  0  0  0  0  0
  151.3071  138.9301  156.9299 H   0  0  0  0  0  0  0  0  0  0  0  0
  150.0449  139.3706  154.8023 H   0  0  0  0  0  0  0  0  0  0  0  0
  149.1058  139.7802  156.2182 H   0  0  0  0  0  0  0  0  0  0  0  0
  150.6432  141.7616  154.4514 H   0  0  0  0  0  0  0  0  0  0  0  0
  148.9001  141.5972  154.5492 H   0  0  0  0  0  0  0  0  0  0  0  0
  149.6988  143.3983  155.8781 H   0  0  0  0  0  0  0  0  0  0  0  0
  150.9049  143.1180  157.9062 H   0  0  0  0  0  0  0  0  0  0  0  0
  151.8662  142.7111  156.4975 H   0  0  0  0  0  0  0  0  0  0  0  0
  150.7851  142.6404  160.0042 H   0  0  0  0  0  0  0  0  0  0  0  0
  153.4271  144.2697  159.4737 H   0  0  0  0  0  0  0  0  0  0  0  0
  151.7830  145.0130  159.8282 H   0  0  0  0  0  0  0  0  0  0  0  0
  151.7430  143.8670  162.0631 H   0  0  0  0  0  0  0  0  0  0  0  0
  153.3928  143.1378  161.7140 H   0  0  0  0  0  0  0  0  0  0  0  0
  148.9886  142.2578  156.8232 H   0  0  0  0  0  0  0  0  0  0  0  0
  1 11  1  0  0  0  0
  1  2  2  0  0  0  0
  1 15  1  0  0  0  0
  2  3  1  0  0  0  0
  3  4  2  0  0  0  0
  4  5  1  0  0  0  0
  4 11  1  0  0  0  0
  5 10  1  0  0  0  0
  5  6  1  0  0  0  0
  5 16  1  0  0  0  0
  6  7  1  0  0  0  0
  6 17  1  0  0  0  0
  6 18  1  0  0  0  0
  7  8  1  0  0  0  0
  7 19  1  0  0  0  0
  7 20  1  0  0  0  0
  8  9  1  0  0  0  0
  8 21  1  0  0  0  0
  8 22  1  0  0  0  0
  9 10  1  0  0  0  0
  9 23  1  0  0  0  0
  9 31  1  0  0  0  0
 10 24  1  0  0  0  0
 10 25  1  0  0  0  0
 11 12  1  0  0  0  0
 12 14  1  0  0  0  0
 12 13  1  0  0  0  0
 12 26  1  0  0  0  0
 13 14  1  0  0  0  0
 13 27  1  0  0  0  0
 13 28  1  0  0  0  0
 14 29  1  0  0  0  0
 14 30  1  0  0  0  0
M  CHG  1   9   1
M  END
> <s_m_source_file>
AV-unprocessed.smi

> <i_m_source_file_index>
958

> <i_lp_mmshare_version>
43012

> <i_f3d_flags>
0

> <s_epik_input>
W0NIMl0xW0NIMl1bQ0hdMW4yW2NIXW5uYzJbQ0BASF0zW0NIMl1bQ0gyXVtDSDJdW05IXVtDSDJdMw==

> <s_epik_cmdline>
J2VwaWtfcHl0aG9uJywgJy1waCcsICc3LjAnLCAnLXRuJywgJzgnLCAnLW1hJywgJzIwMCcsICctbWV0YWxfYmluZGluZycsICctaW1hZScsICc8aW5maWxlLm1hZT4nLCAnLW9tYWUnLCAnPG91dGZpbGUubWFlPic=

> <r_lp_tautomer_probability>
1

> <r_epik_Ionization_Penalty>
0.000442722

> <r_epik_Ionization_Penalty_Charging>
0.000426856

> <r_epik_Ionization_Penalty_Neutral>
1.58656e-05

> <r_epik_State_Penalty>
-0

> <r_epik_Charging_Adjusted_Penalty>
0.000426856

> <i_epik_Tot_Q>
1

> <i_epik_Tot_abs_Q>
1

> <r_epik_Metal_State_Penalty>
-0

> <b_epik_Metal_Only>
0

> <s_lp_Force_Field>
OPLS_2005

> <r_lp_Energy>
27.25

> <b_lp_Chiralities_Consistent>
1

> <s_lp_Variant>
AV-unprocessed.smi:958-1

> <Gold.Version>
5.8.1

> <Gold.Id.Protein>
6NUR|6NUR_protein|mol2

> <Gold.PLP.Fitness>
40.3284

> <Gold.PLP.PLP>
-31.7187

> <Gold.PLP.part.hbond>
-2.9746

> <Gold.PLP.part.metal>
0.0000

> <Gold.PLP.part.buried>
-2.4640

> <Gold.PLP.part.nonpolar>
-25.8539

> <Gold.PLP.part.repulsive>
0.0976

> <Gold.PLP.ligand.clash>
0.0000

> <Gold.PLP.ligand.torsion>
0.1109

> <Gold.PLP.Chemscore.Hbond>
2.9120

> <Gold.PLP.Chemscore.CHOScore>
0.0000

> <Gold.PLP.Chemscore.Metal>
0.0000

> <Gold.Chemscore.Hbonds>
donor molecule, donor type, donor heavy atom, donor atom, acceptor molecule, acceptor atom, score
      L1  H     9    23       P1  8028  2.00
      P1  H  7997  8008       L1     3  0.90

> <Gold.PLP.Chemscore.Internal.Correction>
0.0955

> <Gold.Rescore>
     Score         DG    S(hbond)    S(metal)    S(lipo)     H(rot)  DE(clash)    DE(int)     intcor
     14.11     -14.18       1.23        0.00      66.61       1.25       0.01       0.05       ----

> <Gold.Chemscore.Fitness>
14.1142

> <Gold.Chemscore.DG>
-14.1772

> <Gold.Chemscore.ZeroCoef>
-5.4800

> <Gold.Chemscore.Hbond>
1.2280

> <Gold.Chemscore.Metal>
0.0000

> <Gold.Chemscore.Lipo>
66.6098

> <Gold.Chemscore.Internal_Hbond>
0.0000

> <Gold.Chemscore.DEClash>
0.0106

> <Gold.Chemscore.DEInternal>
0.0523

> <Gold.Chemscore.Rot>
1.2491

> <Gold.Chemscore.Internal.Correction>
   9.000000E+99

> <Gold.Chemscore.Hbonds>
donor molecule, donor type, donor heavy atom, donor atom, acceptor molecule, acceptor atom, score
      L1  H     9    23       P1  8028  0.93
      P1  H  7997  8008       L1     3  0.22

> <Gold.Chemscore.Hbond.Weighted>
-4.1015

> <Gold.Chemscore.Metal.Weighted>
-0.0000

> <Gold.Chemscore.Lipo.Weighted>
-7.7934

> <Gold.Chemscore.Internal_Hbond.Weighted>
0.0000

> <Gold.Chemscore.DEClash.Weighted>
0.0106

> <Gold.Chemscore.DEInternal.Weighted>
0.0523

> <Gold.Chemscore.Rot.Weighted>
3.1977

> <Gold.Chemscore.Internal.Correction.Weighted>
   9.000000E+99

> <Gold.Protein.RotatedTorsions>
[ 6907 6896 6895 6894 ] final -150.39 input  -60.11 | X-H torsion
[ 7974 7965 7964 7962 ] final  -57.20 input  175.53 | X-H torsion
[ 8008 7997 7996 7995 ] final  -73.60 input   59.86 | X-H torsion
[ 10167 10162 10161 10158 ] final   94.16 input  -65.29 | X-H torsion
[ 10718 10713 10712 10709 ] final -102.82 input   66.30 | X-H torsion
[ 10763 10752 10751 10750 ] final  139.95 input  -60.55 | X-H torsion
[ 11005 11000 10999 10996 ] final  -34.40 input  -57.11 | X-H torsion

> <Gold.Protein.ActiveResidues>
 VAL166  LYS551  ARG553  GLY616  TRP617  ASP618  TYR619  PRO620  LYS621  CYS622 
 ASP623  PHE694  ASN695  SER759  ASP760  ASP761  ALA762  ILE779  LEU786  VAL792 
 PHE793  MET794  SER795  GLU796  ALA797  LYS798  CYS799  TRP800  GLU811  SER814 

> <Gold.Protein.RotatedAtoms>
  151.1978  133.4628  159.2595 H   0  0  0  0  0  0  0  0  0  0  0  0  # atno 6907 bound_to 6896
  151.1099  135.0020  159.8499 H   0  0  0  0  0  0  0  0  0  0  0  0  # atno 6908 bound_to 6896
  152.5449  134.1898  159.8722 H   0  0  0  0  0  0  0  0  0  0  0  0  # atno 6909 bound_to 6896
  145.8539  140.8333  142.9972 H   0  0  0  0  0  0  0  0  0  0  0  0  # atno 7974 bound_to 7965
  154.5261  140.0776  156.8260 H   0  0  0  0  0  0  0  0  0  0  0  0  # atno 8008 bound_to 7997
  155.3473  140.3410  155.4221 H   0  0  0  0  0  0  0  0  0  0  0  0  # atno 8009 bound_to 7997
  156.1732  140.1627  156.8396 H   0  0  0  0  0  0  0  0  0  0  0  0  # atno 8010 bound_to 7997
  139.8110  144.6773  150.9641 H   0  0  0  0  0  0  0  0  0  0  0  0  # atno 10167 bound_to 10162
  156.0242  130.5438  150.7164 H   0  0  0  0  0  0  0  0  0  0  0  0  # atno 10718 bound_to 10713
  153.9147  135.3007  155.3448 H   0  0  0  0  0  0  0  0  0  0  0  0  # atno 10763 bound_to 10752
  154.7606  135.4936  153.9460 H   0  0  0  0  0  0  0  0  0  0  0  0  # atno 10764 bound_to 10752
  153.1174  135.6774  153.9497 H   0  0  0  0  0  0  0  0  0  0  0  0  # atno 10765 bound_to 10752
  140.9713  133.7108  156.1528 H   0  0  0  0  0  0  0  0  0  0  0  0  # atno 11005 bound_to 11000
  144.6728  140.0994  143.7461 LP  0  0  0  0  0  0  0  0  0  0  0  0  # atno 17320 bound_to 7965
  145.9326  139.2616  143.1316 LP  0  0  0  0  0  0  0  0  0  0  0  0  # atno 17321 bound_to 7965
  140.7818  143.4185  151.0879 LP  0  0  0  0  0  0  0  0  0  0  0  0  # atno 17342 bound_to 10162
  139.7852  143.8298  152.3144 LP  0  0  0  0  0  0  0  0  0  0  0  0  # atno 17343 bound_to 10162
  157.4790  131.0900  151.0558 LP  0  0  0  0  0  0  0  0  0  0  0  0  # atno 17370 bound_to 10713
  157.0996  130.5976  149.5457 LP  0  0  0  0  0  0  0  0  0  0  0  0  # atno 17371 bound_to 10713
  140.7325  134.4239  157.5564 LP  0  0  0  0  0  0  0  0  0  0  0  0  # atno 17394 bound_to 11000
  139.8913  134.8783  156.2326 LP  0  0  0  0  0  0  0  0  0  0  0  0  # atno 17395 bound_to 11000

$$$$
